MODEL        1
REMARK 921   NORMALIZED FREE ENERGY PREDICTED BY IDOCK:   -6.87 KCAL/MOL
REMARK 922        TOTAL FREE ENERGY PREDICTED BY IDOCK:   -8.97 KCAL/MOL
REMARK 923 INTER-LIGAND FREE ENERGY PREDICTED BY IDOCK:   -9.28 KCAL/MOL
REMARK 924 INTRA-LIGAND FREE ENERGY PREDICTED BY IDOCK:    0.31 KCAL/MOL
REMARK 927      BINDING AFFINITY PREDICTED BY RF-SCORE:    0.00 PKD
ROOT
HETATM    1  C   UNL     1     -11.310  15.101  68.098  1.00  0.00    -0.345 C  
HETATM    2  C   UNL     1     -11.670  15.143  69.469  1.00  0.00    -0.351 C  
HETATM    3  C   UNL     1     -10.228  15.221  69.112  1.00  0.00    -0.242 C  
HETATM    4  C   UNL     1      -9.748  15.707  67.145  1.00  0.00    -0.223 C  
HETATM    5  C   UNL     1      -9.939  16.449  68.283  1.00  0.00    -0.243 C  
HETATM    6  C   UNL     1      -8.241  11.534  66.500  1.00  0.00    -0.129 C  
HETATM    7  C   UNL     1     -11.680  12.401  67.930  1.00  0.00    -0.421 C  
HETATM    8  C   UNL     1      -8.697  11.563  67.961  1.00  0.00    -0.151 C  
HETATM    9  C   UNL     1      -7.646  11.132  69.085  1.00  0.00    -0.098 C  
HETATM   10  C   UNL     1      -8.212  15.808  68.773  1.00  0.00    -0.192 C  
HETATM   11  C   UNL     1      -7.759  10.140  69.985  1.00  0.00    -0.150 C  
HETATM   12  C   UNL     1     -10.491  17.845  68.427  1.00  0.00    -0.338 C  
HETATM   13  O   UNL     1      -7.608   8.404  68.328  1.00  0.00    -0.094 OA 
HETATM   14  C   UNL     1      -7.948  14.221  68.192  1.00  0.00    -0.140 C  
HETATM   15  C   UNL     1      -8.325   9.168  68.954  1.00  0.00    -0.124 C  
HETATM   16  C   UNL     1      -9.745   9.418  68.662  1.00  0.00    -0.160 C  
HETATM   17  O   UNL     1      -7.530  14.389  66.831  1.00  0.00    -0.292 OA 
HETATM   18  C   UNL     1      -9.919  10.609  68.079  1.00  0.00    -0.180 C  
HETATM   19  C   UNL     1      -9.122  13.023  68.329  1.00  0.00    -0.179 C  
HETATM   20  C   UNL     1     -11.241  11.018  67.488  1.00  0.00    -0.372 C  
HETATM   21  H   UNL     1      -7.384  13.507  66.509  1.00  0.00     0.000 HD 
HETATM   22  C   UNL     1     -10.603  13.456  67.673  1.00  0.00    -0.249 C  
ENDROOT
BRANCH   4  23
HETATM   23  O   UNL     1     -10.907  16.240  66.151  1.00  0.00    -0.234 OA 
BRANCH  23  24
HETATM   24  C   UNL     1     -11.104  15.845  64.832  1.00  0.00    -0.389 C  
HETATM   25  O   UNL     1     -11.487  16.576  63.937  1.00  0.00    -1.145 OA 
BRANCH  24  26
HETATM   26  O   UNL     1     -10.566  14.600  64.628  1.00  0.00    -0.392 OA 
BRANCH  26  27
HETATM   27  C   UNL     1     -11.547  13.621  64.212  1.00  0.00    -0.382 C  
HETATM   28  C   UNL     1     -10.967  12.249  63.883  1.00  0.00    -0.464 C  
ENDBRANCH  26  27
ENDBRANCH  24  26
ENDBRANCH  23  24
ENDBRANCH   4  23
BRANCH   4  29
HETATM   29  C   UNL     1      -8.578  16.900  66.454  1.00  0.00    -0.293 C  
HETATM   30  O   UNL     1      -7.376  16.690  66.266  1.00  0.00    -0.239 OA 
BRANCH  29  31
HETATM   31  O   UNL     1      -9.030  18.175  66.156  1.00  0.00    -0.468 OA 
HETATM   32  C   UNL     1      -7.926  19.162  66.181  1.00  0.00    -0.276 C  
HETATM   33 CL   UNL     1      -7.540  19.680  67.848  1.00  0.00    -0.324 Cl 
ENDBRANCH  29  31
ENDBRANCH   4  29
TORSDOF 6
ENDMDL
MODEL        2
REMARK 921   NORMALIZED FREE ENERGY PREDICTED BY IDOCK:   -6.75 KCAL/MOL
REMARK 922        TOTAL FREE ENERGY PREDICTED BY IDOCK:   -8.81 KCAL/MOL
REMARK 923 INTER-LIGAND FREE ENERGY PREDICTED BY IDOCK:   -9.08 KCAL/MOL
REMARK 924 INTRA-LIGAND FREE ENERGY PREDICTED BY IDOCK:    0.28 KCAL/MOL
REMARK 927      BINDING AFFINITY PREDICTED BY RF-SCORE:    0.00 PKD
ROOT
HETATM    1  C   UNL     1     -11.896  12.891  68.295  1.00  0.00    -0.372 C  
HETATM    2  C   UNL     1     -11.908  12.718  69.702  1.00  0.00    -0.384 C  
HETATM    3  C   UNL     1     -10.726  13.372  69.078  1.00  0.00    -0.160 C  
HETATM    4  C   UNL     1     -10.943  14.108  67.143  1.00  0.00    -0.299 C  
HETATM    5  C   UNL     1     -11.117  14.656  68.389  1.00  0.00    -0.270 C  
HETATM    6  C   UNL     1      -8.204  10.896  65.632  1.00  0.00    -0.083 C  
HETATM    7  C   UNL     1     -11.272  10.274  67.828  1.00  0.00    -0.262 C  
HETATM    8  C   UNL     1      -8.276  10.668  67.144  1.00  0.00    -0.121 C  
HETATM    9  C   UNL     1      -6.905  10.624  67.963  1.00  0.00    -0.072 C  
HETATM   10  C   UNL     1      -9.212  14.716  68.429  1.00  0.00    -0.197 C  
HETATM   11  C   UNL     1      -6.426   9.622  68.721  1.00  0.00    -0.047 C  
HETATM   12  C   UNL     1     -12.092  15.716  68.834  1.00  0.00    -0.183 C  
HETATM   13  O   UNL     1      -6.045   8.172  66.840  1.00  0.00    -0.051 OA 
HETATM   14  C   UNL     1      -8.528  13.392  67.590  1.00  0.00    -0.187 C  
HETATM   15  C   UNL     1      -6.822   8.561  67.698  1.00  0.00    -0.071 C  
HETATM   16  C   UNL     1      -8.259   8.251  67.734  1.00  0.00    -0.127 C  
HETATM   17  O   UNL     1      -8.539  13.780  66.211  1.00  0.00    -0.369 OA 
HETATM   18  C   UNL     1      -8.994   9.307  67.370  1.00  0.00    -0.135 C  
HETATM   19  C   UNL     1      -9.108  11.825  67.791  1.00  0.00    -0.178 C  
HETATM   20  C   UNL     1     -10.473   9.198  67.118  1.00  0.00    -0.325 C  
HETATM   21  H   UNL     1      -8.159  13.044  65.745  1.00  0.00     0.000 HD 
HETATM   22  C   UNL     1     -10.755  11.678  67.511  1.00  0.00    -0.257 C  
ENDROOT
BRANCH   4  23
HETATM   23  O   UNL     1     -12.418  14.196  66.485  1.00  0.00    -0.447 OA 
BRANCH  23  24
HETATM   24  C   UNL     1     -12.746  13.911  65.165  1.00  0.00    -0.398 C  
HETATM   25  O   UNL     1     -12.695  14.710  64.247  1.00  0.00    -0.679 OA 
BRANCH  24  26
HETATM   26  O   UNL     1     -12.885  12.558  64.995  1.00  0.00    -0.742 OA 
BRANCH  26  27
HETATM   27  C   UNL     1     -12.472  12.105  63.685  1.00  0.00    -0.549 C  
HETATM   28  C   UNL     1     -11.016  11.659  63.602  1.00  0.00    -0.507 C  
ENDBRANCH  26  27
ENDBRANCH  24  26
ENDBRANCH  23  24
ENDBRANCH   4  23
BRANCH   4  29
HETATM   29  C   UNL     1     -10.496  15.697  66.405  1.00  0.00    -0.305 C  
HETATM   30  O   UNL     1      -9.995  15.846  65.287  1.00  0.00    -0.424 OA 
BRANCH  29  31
HETATM   31  O   UNL     1     -10.668  16.848  67.157  1.00  0.00    -0.282 OA 
HETATM   32  C   UNL     1      -9.937  17.995  66.570  1.00  0.00    -0.371 C  
HETATM   33 CL   UNL     1      -8.201  17.962  67.002  1.00  0.00    -0.232 Cl 
ENDBRANCH  29  31
ENDBRANCH   4  29
TORSDOF 6
ENDMDL
MODEL        3
REMARK 921   NORMALIZED FREE ENERGY PREDICTED BY IDOCK:   -6.32 KCAL/MOL
REMARK 922        TOTAL FREE ENERGY PREDICTED BY IDOCK:   -8.23 KCAL/MOL
REMARK 923 INTER-LIGAND FREE ENERGY PREDICTED BY IDOCK:   -8.05 KCAL/MOL
REMARK 924 INTRA-LIGAND FREE ENERGY PREDICTED BY IDOCK:   -0.17 KCAL/MOL
REMARK 927      BINDING AFFINITY PREDICTED BY RF-SCORE:    0.00 PKD
ROOT
HETATM    1  C   UNL     1     -11.371  11.850  66.775  1.00  0.00    -0.393 C  
HETATM    2  C   UNL     1     -11.393  11.967  65.362  1.00  0.00    -0.334 C  
HETATM    3  C   UNL     1     -10.075  11.858  66.044  1.00  0.00    -0.261 C  
HETATM    4  C   UNL     1     -10.060  11.148  68.001  1.00  0.00    -0.174 C  
HETATM    5  C   UNL     1      -9.948  10.543  66.775  1.00  0.00    -0.252 C  
HETATM    6  C   UNL     1      -8.897  15.227  69.455  1.00  0.00    -0.220 C  
HETATM    7  C   UNL     1     -11.865  14.509  67.153  1.00  0.00    -0.412 C  
HETATM    8  C   UNL     1      -8.991  15.366  67.933  1.00  0.00    -0.173 C  
HETATM    9  C   UNL     1      -7.719  15.934  67.150  1.00  0.00    -0.247 C  
HETATM   10  C   UNL     1      -8.178  11.250  66.789  1.00  0.00    -0.158 C  
HETATM   11  C   UNL     1      -7.650  17.025  66.366  1.00  0.00    -0.350 C  
HETATM   12  C   UNL     1     -10.400   9.170  66.346  1.00  0.00    -0.235 C  
HETATM   13  O   UNL     1      -7.958  18.555  68.196  1.00  0.00    -0.272 OA 
HETATM   14  C   UNL     1      -8.115  12.760  67.591  1.00  0.00    -0.175 C  
HETATM   15  C   UNL     1      -8.479  17.864  67.334  1.00  0.00    -0.235 C  
HETATM   16  C   UNL     1      -9.917  17.572  67.246  1.00  0.00    -0.312 C  
HETATM   17  O   UNL     1      -8.027  12.436  68.985  1.00  0.00    -0.335 OA 
HETATM   18  C   UNL     1     -10.183  16.319  67.633  1.00  0.00    -0.272 C  
HETATM   19  C   UNL     1      -9.265  13.957  67.312  1.00  0.00    -0.235 C  
HETATM   20  C   UNL     1     -11.592  15.833  67.839  1.00  0.00    -0.153 C  
HETATM   21  H   UNL     1      -7.993  13.274  69.430  1.00  0.00     0.000 HD 
HETATM   22  C   UNL     1     -10.843  13.439  67.540  1.00  0.00    -0.276 C  
ENDROOT
BRANCH   4  23
HETATM   23  O   UNL     1     -11.402  10.493  68.622  1.00  0.00    -0.263 OA 
BRANCH  23  24
HETATM   24  C   UNL     1     -11.925  10.736  69.887  1.00  0.00    -0.342 C  
HETATM   25  O   UNL     1     -12.452   9.896  70.595  1.00  0.00    -0.262 OA 
BRANCH  24  26
HETATM   26  O   UNL     1     -11.538  11.975  70.326  1.00  0.00    -0.225 OA 
BRANCH  26  27
HETATM   27  C   UNL     1     -12.627  12.739  70.897  1.00  0.00    -0.255 C  
HETATM   28  C   UNL     1     -12.305  14.210  71.141  1.00  0.00    -0.447 C  
ENDBRANCH  26  27
ENDBRANCH  24  26
ENDBRANCH  23  24
ENDBRANCH   4  23
BRANCH   4  29
HETATM   29  C   UNL     1      -9.046   9.890  68.815  1.00  0.00    -0.147 C  
HETATM   30  O   UNL     1      -8.623   8.862  68.279  1.00  0.00    -0.132 OA 
BRANCH  29  31
HETATM   31  O   UNL     1      -8.754  10.043  70.160  1.00  0.00    -0.159 OA 
HETATM   32  C   UNL     1      -8.400   8.750  70.790  1.00  0.00    -0.160 C  
HETATM   33 CL   UNL     1      -9.855   7.797  71.205  1.00  0.00    -0.187 Cl 
ENDBRANCH  29  31
ENDBRANCH   4  29
TORSDOF 6
ENDMDL
MODEL        4
REMARK 921   NORMALIZED FREE ENERGY PREDICTED BY IDOCK:   -6.32 KCAL/MOL
REMARK 922        TOTAL FREE ENERGY PREDICTED BY IDOCK:   -8.22 KCAL/MOL
REMARK 923 INTER-LIGAND FREE ENERGY PREDICTED BY IDOCK:   -8.60 KCAL/MOL
REMARK 924 INTRA-LIGAND FREE ENERGY PREDICTED BY IDOCK:    0.38 KCAL/MOL
REMARK 927      BINDING AFFINITY PREDICTED BY RF-SCORE:    0.00 PKD
ROOT
HETATM    1  C   UNL     1     -11.356  11.976  66.951  1.00  0.00    -0.400 C  
HETATM    2  C   UNL     1     -11.455  12.075  65.540  1.00  0.00    -0.368 C  
HETATM    3  C   UNL     1     -10.101  11.977  66.151  1.00  0.00    -0.252 C  
HETATM    4  C   UNL     1      -9.979  11.292  68.113  1.00  0.00    -0.181 C  
HETATM    5  C   UNL     1      -9.932  10.672  66.890  1.00  0.00    -0.245 C  
HETATM    6  C   UNL     1      -8.751  15.391  69.451  1.00  0.00    -0.252 C  
HETATM    7  C   UNL     1     -11.836  14.639  67.321  1.00  0.00    -0.375 C  
HETATM    8  C   UNL     1      -8.927  15.511  67.935  1.00  0.00    -0.173 C  
HETATM    9  C   UNL     1      -7.701  16.072  67.078  1.00  0.00    -0.264 C  
HETATM   10  C   UNL     1      -8.166  11.383  66.800  1.00  0.00    -0.160 C  
HETATM   11  C   UNL     1      -7.677  17.153  66.278  1.00  0.00    -0.350 C  
HETATM   12  C   UNL     1     -10.403   9.293  66.503  1.00  0.00    -0.270 C  
HETATM   13  O   UNL     1      -7.890  18.705  68.102  1.00  0.00    -0.269 OA 
HETATM   14  C   UNL     1      -8.064  12.902  67.579  1.00  0.00    -0.181 C  
HETATM   15  C   UNL     1      -8.454  18.003  67.278  1.00  0.00    -0.234 C  
HETATM   16  C   UNL     1      -9.895  17.706  67.272  1.00  0.00    -0.303 C  
HETATM   17  O   UNL     1      -7.900  12.596  68.969  1.00  0.00    -0.327 OA 
HETATM   18  C   UNL     1     -10.136  16.458  67.688  1.00  0.00    -0.263 C  
HETATM   19  C   UNL     1      -9.230  14.094  67.347  1.00  0.00    -0.204 C  
HETATM   20  C   UNL     1     -11.530  15.972  67.975  1.00  0.00    -0.199 C  
HETATM   21  H   UNL     1      -7.844  13.440  69.402  1.00  0.00     0.000 HD 
HETATM   22  C   UNL     1     -10.792  13.576  67.666  1.00  0.00    -0.273 C  
ENDROOT
BRANCH   4  23
HETATM   23  O   UNL     1     -11.284  10.642  68.813  1.00  0.00    -0.244 OA 
BRANCH  23  24
HETATM   24  C   UNL     1     -11.800  10.977  70.060  1.00  0.00    -0.355 C  
HETATM   25  O   UNL     1     -12.040  12.112  70.431  1.00  0.00    -0.354 OA 
BRANCH  24  26
HETATM   26  O   UNL     1     -12.235   9.850  70.708  1.00  0.00    -0.293 OA 
BRANCH  26  27
HETATM   27  C   UNL     1     -13.122  10.140  71.814  1.00  0.00    -0.463 C  
HETATM   28  C   UNL     1     -13.894   8.933  72.336  1.00  0.00    -0.518 C  
ENDBRANCH  26  27
ENDBRANCH  24  26
ENDBRANCH  23  24
ENDBRANCH   4  23
BRANCH   4  29
HETATM   29  C   UNL     1      -8.919  10.047  68.886  1.00  0.00    -0.152 C  
HETATM   30  O   UNL     1      -8.749   8.899  68.467  1.00  0.00    -0.132 OA 
BRANCH  29  31
HETATM   31  O   UNL     1      -8.282  10.365  70.074  1.00  0.00    -0.054 OA 
HETATM   32  C   UNL     1      -8.013   9.156  70.887  1.00  0.00    -0.157 C  
HETATM   33 CL   UNL     1      -9.463   8.635  71.795  1.00  0.00    -0.330 Cl 
ENDBRANCH  29  31
ENDBRANCH   4  29
TORSDOF 6
ENDMDL
MODEL        5
REMARK 921   NORMALIZED FREE ENERGY PREDICTED BY IDOCK:   -6.29 KCAL/MOL
REMARK 922        TOTAL FREE ENERGY PREDICTED BY IDOCK:   -8.18 KCAL/MOL
REMARK 923 INTER-LIGAND FREE ENERGY PREDICTED BY IDOCK:   -8.11 KCAL/MOL
REMARK 924 INTRA-LIGAND FREE ENERGY PREDICTED BY IDOCK:   -0.07 KCAL/MOL
REMARK 927      BINDING AFFINITY PREDICTED BY RF-SCORE:    0.00 PKD
ROOT
HETATM    1  C   UNL     1     -10.288  13.356  68.827  1.00  0.00    -0.164 C  
HETATM    2  C   UNL     1     -11.301  13.704  69.756  1.00  0.00    -0.181 C  
HETATM    3  C   UNL     1     -11.528  14.000  68.315  1.00  0.00    -0.337 C  
HETATM    4  C   UNL     1     -10.325  13.016  66.930  1.00  0.00    -0.245 C  
HETATM    5  C   UNL     1     -11.542  12.732  67.496  1.00  0.00    -0.412 C  
HETATM    6  C   UNL     1      -8.296  16.895  65.963  1.00  0.00    -0.180 C  
HETATM    7  C   UNL     1      -8.730  15.496  69.495  1.00  0.00    -0.223 C  
HETATM    8  C   UNL     1      -9.344  17.255  67.020  1.00  0.00    -0.257 C  
HETATM    9  C   UNL     1     -10.397  18.405  66.671  1.00  0.00    -0.422 C  
HETATM   10  C   UNL     1     -12.205  14.060  66.301  1.00  0.00    -0.493 C  
HETATM   11  C   UNL     1     -10.613  19.556  67.332  1.00  0.00    -0.607 C  
HETATM   12  C   UNL     1     -12.147  11.392  67.829  1.00  0.00     0.150 C  
HETATM   13  O   UNL     1      -8.484  20.491  66.720  1.00  0.00    -0.240 OA 
HETATM   14  C   UNL     1     -11.058  15.305  66.052  1.00  0.00    -0.278 C  
HETATM   15  C   UNL     1      -9.121  19.818  67.514  1.00  0.00    -0.330 C  
HETATM   16  C   UNL     1      -8.532  19.006  68.590  1.00  0.00    -0.394 C  
HETATM   17  O   UNL     1     -10.174  14.799  65.045  1.00  0.00    -0.389 OA 
HETATM   18  C   UNL     1      -8.574  17.703  68.295  1.00  0.00    -0.268 C  
HETATM   19  C   UNL     1     -10.203  15.986  67.332  1.00  0.00    -0.273 C  
HETATM   20  C   UNL     1      -7.853  16.676  69.125  1.00  0.00    -0.170 C  
HETATM   21  H   UNL     1      -9.537  15.490  64.907  1.00  0.00     0.000 HD 
HETATM   22  C   UNL     1      -9.387  14.860  68.269  1.00  0.00    -0.195 C  
ENDROOT
BRANCH   4  23
HETATM   23  O   UNL     1      -9.390  11.789  67.416  1.00  0.00    -0.170 OA 
BRANCH  23  24
HETATM   24  C   UNL     1      -8.189  11.393  66.838  1.00  0.00    -0.157 C  
HETATM   25  O   UNL     1      -7.181  12.075  66.793  1.00  0.00    -0.086 OA 
BRANCH  24  26
HETATM   26  O   UNL     1      -8.219  10.051  66.560  1.00  0.00    -0.117 OA 
BRANCH  26  27
HETATM   27  C   UNL     1      -9.049   9.301  67.477  1.00  0.00    -0.120 C  
HETATM   28  C   UNL     1     -10.042   8.360  66.804  1.00  0.00    -0.373 C  
ENDBRANCH  26  27
ENDBRANCH  24  26
ENDBRANCH  23  24
ENDBRANCH   4  23
BRANCH   4  29
HETATM   29  C   UNL     1     -10.727  12.132  65.404  1.00  0.00    -0.284 C  
HETATM   30  O   UNL     1     -11.605  11.272  65.291  1.00  0.00     0.056 OA 
BRANCH  29  31
HETATM   31  O   UNL     1      -9.966  12.382  64.274  1.00  0.00    -0.280 OA 
HETATM   32  C   UNL     1     -10.229  11.385  63.210  1.00  0.00    -0.385 C  
HETATM   33 CL   UNL     1      -9.327   9.866  63.491  1.00  0.00    -0.292 Cl 
ENDBRANCH  29  31
ENDBRANCH   4  29
TORSDOF 6
ENDMDL
MODEL        6
REMARK 921   NORMALIZED FREE ENERGY PREDICTED BY IDOCK:   -6.21 KCAL/MOL
REMARK 922        TOTAL FREE ENERGY PREDICTED BY IDOCK:   -8.08 KCAL/MOL
REMARK 923 INTER-LIGAND FREE ENERGY PREDICTED BY IDOCK:   -8.29 KCAL/MOL
REMARK 924 INTRA-LIGAND FREE ENERGY PREDICTED BY IDOCK:    0.21 KCAL/MOL
REMARK 927      BINDING AFFINITY PREDICTED BY RF-SCORE:    0.00 PKD
ROOT
HETATM    1  C   UNL     1     -10.421  13.527  68.830  1.00  0.00    -0.212 C  
HETATM    2  C   UNL     1     -11.576  13.882  69.572  1.00  0.00    -0.358 C  
HETATM    3  C   UNL     1     -11.606  14.043  68.092  1.00  0.00    -0.369 C  
HETATM    4  C   UNL     1     -10.162  13.031  66.985  1.00  0.00    -0.245 C  
HETATM    5  C   UNL     1     -11.432  12.714  67.398  1.00  0.00    -0.397 C  
HETATM    6  C   UNL     1      -8.227  16.945  65.966  1.00  0.00    -0.178 C  
HETATM    7  C   UNL     1      -9.096  15.814  69.514  1.00  0.00    -0.202 C  
HETATM    8  C   UNL     1      -9.436  17.320  66.827  1.00  0.00    -0.274 C  
HETATM    9  C   UNL     1     -10.488  18.364  66.231  1.00  0.00    -0.421 C  
HETATM   10  C   UNL     1     -11.984  13.892  66.005  1.00  0.00    -0.436 C  
HETATM   11  C   UNL     1     -10.861  19.548  66.748  1.00  0.00    -0.500 C  
HETATM   12  C   UNL     1     -12.005  11.368  67.762  1.00  0.00    -0.073 C  
HETATM   13  O   UNL     1      -8.719  20.571  66.359  1.00  0.00    -0.104 OA 
HETATM   14  C   UNL     1     -10.883  15.187  65.809  1.00  0.00    -0.353 C  
HETATM   15  C   UNL     1      -9.428  19.923  67.113  1.00  0.00    -0.373 C  
HETATM   16  C   UNL     1      -8.960  19.244  68.331  1.00  0.00    -0.397 C  
HETATM   17  O   UNL     1      -9.834  14.660  64.986  1.00  0.00    -0.474 OA 
HETATM   18  C   UNL     1      -8.887  17.921  68.152  1.00  0.00    -0.265 C  
HETATM   19  C   UNL     1     -10.262  16.026  67.129  1.00  0.00    -0.278 C  
HETATM   20  C   UNL     1      -8.240  17.016  69.165  1.00  0.00    -0.034 C  
HETATM   21  H   UNL     1      -9.222  15.379  64.878  1.00  0.00     0.000 HD 
HETATM   22  C   UNL     1      -9.531  15.038  68.270  1.00  0.00    -0.196 C  
ENDROOT
BRANCH   4  23
HETATM   23  O   UNL     1      -9.243  11.914  67.707  1.00  0.00    -0.172 OA 
BRANCH  23  24
HETATM   24  C   UNL     1      -7.856  11.828  67.647  1.00  0.00    -0.138 C  
HETATM   25  O   UNL     1      -7.222  10.788  67.660  1.00  0.00    -0.089 OA 
BRANCH  24  26
HETATM   26  O   UNL     1      -7.323  13.047  67.316  1.00  0.00    -0.138 OA 
BRANCH  26  27
HETATM   27  C   UNL     1      -6.338  13.512  68.269  1.00  0.00    -0.104 C  
HETATM   28  C   UNL     1      -5.577  14.759  67.831  1.00  0.00    -0.117 C  
ENDBRANCH  26  27
ENDBRANCH  24  26
ENDBRANCH  23  24
ENDBRANCH   4  23
BRANCH   4  29
HETATM   29  C   UNL     1     -10.288  12.001  65.504  1.00  0.00    -0.263 C  
HETATM   30  O   UNL     1     -11.300  11.877  64.809  1.00  0.00    -0.316 OA 
BRANCH  29  31
HETATM   31  O   UNL     1      -9.194  11.238  65.133  1.00  0.00    -0.210 OA 
HETATM   32  C   UNL     1      -9.592   9.861  64.760  1.00  0.00    -0.271 C  
HETATM   33 CL   UNL     1      -9.833   8.829  66.202  1.00  0.00    -0.331 Cl 
ENDBRANCH  29  31
ENDBRANCH   4  29
TORSDOF 6
ENDMDL
MODEL        7
REMARK 921   NORMALIZED FREE ENERGY PREDICTED BY IDOCK:   -6.20 KCAL/MOL
REMARK 922        TOTAL FREE ENERGY PREDICTED BY IDOCK:   -8.06 KCAL/MOL
REMARK 923 INTER-LIGAND FREE ENERGY PREDICTED BY IDOCK:   -8.54 KCAL/MOL
REMARK 924 INTRA-LIGAND FREE ENERGY PREDICTED BY IDOCK:    0.48 KCAL/MOL
REMARK 927      BINDING AFFINITY PREDICTED BY RF-SCORE:    0.00 PKD
ROOT
HETATM    1  C   UNL     1      -9.610  18.708  66.095  1.00  0.00    -0.214 C  
HETATM    2  C   UNL     1     -10.898  19.274  66.271  1.00  0.00    -0.366 C  
HETATM    3  C   UNL     1     -10.156  18.812  67.475  1.00  0.00    -0.408 C  
HETATM    4  C   UNL     1      -8.106  18.505  67.284  1.00  0.00    -0.241 C  
HETATM    5  C   UNL     1      -8.871  19.584  67.651  1.00  0.00    -0.367 C  
HETATM    6  C   UNL     1      -8.746  14.088  67.710  1.00  0.00    -0.185 C  
HETATM    7  C   UNL     1     -10.613  16.320  65.230  1.00  0.00    -0.357 C  
HETATM    8  C   UNL     1     -10.145  14.699  67.828  1.00  0.00    -0.228 C  
HETATM    9  C   UNL     1     -11.011  14.347  69.124  1.00  0.00    -0.288 C  
HETATM   10  C   UNL     1      -9.076  18.649  69.299  1.00  0.00     0.123 C  
HETATM   11  C   UNL     1     -12.220  13.760  69.175  1.00  0.00    -0.289 C  
HETATM   12  C   UNL     1      -8.607  21.053  67.439  1.00  0.00    -0.013 C  
HETATM   13  O   UNL     1     -11.396  11.633  68.413  1.00  0.00    -0.231 OA 
HETATM   14  C   UNL     1      -9.109  16.956  69.057  1.00  0.00    -0.174 C  
HETATM   15  C   UNL     1     -11.846  12.728  68.115  1.00  0.00    -0.324 C  
HETATM   16  C   UNL     1     -11.884  13.280  66.753  1.00  0.00    -0.448 C  
HETATM   17  O   UNL     1      -7.732  16.566  68.974  1.00  0.00    -0.225 OA 
HETATM   18  C   UNL     1     -10.956  14.229  66.587  1.00  0.00    -0.310 C  
HETATM   19  C   UNL     1     -10.018  16.258  67.824  1.00  0.00    -0.246 C  
HETATM   20  C   UNL     1     -10.641  14.804  65.233  1.00  0.00    -0.414 C  
HETATM   21  H   UNL     1      -7.750  15.626  68.839  1.00  0.00     0.000 HD 
HETATM   22  C   UNL     1      -9.681  16.881  66.305  1.00  0.00    -0.301 C  
ENDROOT
BRANCH   4  23
HETATM   23  O   UNL     1      -7.344  19.021  65.954  1.00  0.00    -0.291 OA 
BRANCH  23  24
HETATM   24  C   UNL     1      -6.259  18.406  65.339  1.00  0.00    -0.251 C  
HETATM   25  O   UNL     1      -5.820  17.310  65.638  1.00  0.00    -0.066 OA 
BRANCH  24  26
HETATM   26  O   UNL     1      -5.919  19.082  64.197  1.00  0.00    -0.435 OA 
BRANCH  26  27
HETATM   27  C   UNL     1      -6.083  20.515  64.316  1.00  0.00    -0.297 C  
HETATM   28  C   UNL     1      -6.142  21.256  62.984  1.00  0.00    -0.340 C  
ENDBRANCH  26  27
ENDBRANCH  24  26
ENDBRANCH  23  24
ENDBRANCH   4  23
BRANCH   4  29
HETATM   29  C   UNL     1      -6.713  19.029  68.311  1.00  0.00    -0.239 C  
HETATM   30  O   UNL     1      -5.835  18.282  68.753  1.00  0.00    -0.187 OA 
BRANCH  29  31
HETATM   31  O   UNL     1      -6.633  20.358  68.691  1.00  0.00    -0.300 OA 
HETATM   32  C   UNL     1      -5.629  20.558  69.762  1.00  0.00    -0.349 C  
HETATM   33 CL   UNL     1      -6.283  20.129  71.370  1.00  0.00    -0.277 Cl 
ENDBRANCH  29  31
ENDBRANCH   4  29
TORSDOF 6
ENDMDL
MODEL        8
REMARK 921   NORMALIZED FREE ENERGY PREDICTED BY IDOCK:   -6.16 KCAL/MOL
REMARK 922        TOTAL FREE ENERGY PREDICTED BY IDOCK:   -8.01 KCAL/MOL
REMARK 923 INTER-LIGAND FREE ENERGY PREDICTED BY IDOCK:   -9.01 KCAL/MOL
REMARK 924 INTRA-LIGAND FREE ENERGY PREDICTED BY IDOCK:    1.00 KCAL/MOL
REMARK 927      BINDING AFFINITY PREDICTED BY RF-SCORE:    0.00 PKD
ROOT
HETATM    1  C   UNL     1     -11.046  12.755  64.345  1.00  0.00    -0.386 C  
HETATM    2  C   UNL     1     -12.190  12.096  63.828  1.00  0.00    -0.630 C  
HETATM    3  C   UNL     1     -11.896  11.971  65.282  1.00  0.00    -0.269 C  
HETATM    4  C   UNL     1     -10.577  13.347  66.119  1.00  0.00    -0.292 C  
HETATM    5  C   UNL     1     -11.940  13.317  65.963  1.00  0.00    -0.473 C  
HETATM    6  C   UNL     1      -7.544  10.089  66.654  1.00  0.00    -0.104 C  
HETATM    7  C   UNL     1      -9.333  10.868  63.365  1.00  0.00    -0.308 C  
HETATM    8  C   UNL     1      -8.757   9.394  66.029  1.00  0.00    -0.171 C  
HETATM    9  C   UNL     1      -9.372   8.130  66.789  1.00  0.00    -0.233 C  
HETATM   10  C   UNL     1     -11.895  12.072  67.405  1.00  0.00    -0.268 C  
HETATM   11  C   UNL     1      -9.519   6.877  66.323  1.00  0.00    -0.122 C  
HETATM   12  C   UNL     1     -12.898  14.461  65.748  1.00  0.00    -0.179 C  
HETATM   13  O   UNL     1      -7.153   6.450  66.271  1.00  0.00    -0.065 OA 
HETATM   14  C   UNL     1     -10.482  11.109  67.356  1.00  0.00    -0.220 C  
HETATM   15  C   UNL     1      -8.134   6.874  65.682  1.00  0.00    -0.129 C  
HETATM   16  C   UNL     1      -8.097   7.619  64.415  1.00  0.00    -0.084 C  
HETATM   17  O   UNL     1      -9.467  11.909  67.978  1.00  0.00    -0.184 OA 
HETATM   18  C   UNL     1      -8.334   8.921  64.609  1.00  0.00    -0.179 C  
HETATM   19  C   UNL     1      -9.930  10.424  65.922  1.00  0.00    -0.317 C  
HETATM   20  C   UNL     1      -8.146   9.935  63.515  1.00  0.00    -0.158 C  
HETATM   21  H   UNL     1      -8.682  11.374  67.950  1.00  0.00     0.000 HD 
HETATM   22  C   UNL     1      -9.708  11.538  64.688  1.00  0.00    -0.242 C  
ENDROOT
BRANCH   4  23
HETATM   23  O   UNL     1     -10.130  14.645  65.263  1.00  0.00    -0.371 OA 
BRANCH  23  24
HETATM   24  C   UNL     1      -9.543  15.799  65.768  1.00  0.00    -0.320 C  
HETATM   25  O   UNL     1      -8.383  15.889  66.128  1.00  0.00    -0.282 OA 
BRANCH  24  26
HETATM   26  O   UNL     1     -10.368  16.875  65.566  1.00  0.00    -0.572 OA 
BRANCH  26  27
HETATM   27  C   UNL     1     -10.038  18.007  66.404  1.00  0.00    -0.384 C  
HETATM   28  C   UNL     1     -10.625  19.333  65.932  1.00  0.00    -0.521 C  
ENDBRANCH  26  27
ENDBRANCH  24  26
ENDBRANCH  23  24
ENDBRANCH   4  23
BRANCH   4  29
HETATM   29  C   UNL     1     -10.679  14.348  67.621  1.00  0.00    -0.263 C  
HETATM   30  O   UNL     1      -9.765  14.503  68.435  1.00  0.00    -0.211 OA 
BRANCH  29  31
HETATM   31  O   UNL     1     -11.886  14.952  67.934  1.00  0.00    -0.338 OA 
HETATM   32  C   UNL     1     -11.922  15.395  69.347  1.00  0.00    -0.327 C  
HETATM   33 CL   UNL     1     -12.302  14.042  70.454  1.00  0.00    -0.409 Cl 
ENDBRANCH  29  31
ENDBRANCH   4  29
TORSDOF 6
ENDMDL
MODEL        9
REMARK 921   NORMALIZED FREE ENERGY PREDICTED BY IDOCK:   -6.15 KCAL/MOL
REMARK 922        TOTAL FREE ENERGY PREDICTED BY IDOCK:   -7.99 KCAL/MOL
REMARK 923 INTER-LIGAND FREE ENERGY PREDICTED BY IDOCK:   -8.38 KCAL/MOL
REMARK 924 INTRA-LIGAND FREE ENERGY PREDICTED BY IDOCK:    0.38 KCAL/MOL
REMARK 927      BINDING AFFINITY PREDICTED BY RF-SCORE:    0.00 PKD
ROOT
HETATM    1  C   UNL     1     -10.436  13.479  68.906  1.00  0.00    -0.145 C  
HETATM    2  C   UNL     1     -11.586  13.839  69.651  1.00  0.00    -0.343 C  
HETATM    3  C   UNL     1     -11.625  13.989  68.171  1.00  0.00    -0.369 C  
HETATM    4  C   UNL     1     -10.187  12.969  67.063  1.00  0.00    -0.245 C  
HETATM    5  C   UNL     1     -11.454  12.655  67.486  1.00  0.00    -0.397 C  
HETATM    6  C   UNL     1      -8.259  16.875  66.003  1.00  0.00    -0.178 C  
HETATM    7  C   UNL     1      -9.107  15.772  69.565  1.00  0.00    -0.202 C  
HETATM    8  C   UNL     1      -9.463  17.256  66.869  1.00  0.00    -0.264 C  
HETATM    9  C   UNL     1     -10.519  18.296  66.271  1.00  0.00    -0.397 C  
HETATM   10  C   UNL     1     -12.015  13.822  66.088  1.00  0.00    -0.449 C  
HETATM   11  C   UNL     1     -10.888  19.484  66.780  1.00  0.00    -0.500 C  
HETATM   12  C   UNL     1     -12.025  11.311  67.864  1.00  0.00    -0.080 C  
HETATM   13  O   UNL     1      -8.749  20.504  66.372  1.00  0.00    -0.104 OA 
HETATM   14  C   UNL     1     -10.915  15.115  65.875  1.00  0.00    -0.339 C  
HETATM   15  C   UNL     1      -9.453  19.862  67.135  1.00  0.00    -0.373 C  
HETATM   16  C   UNL     1      -8.978  19.192  68.355  1.00  0.00    -0.392 C  
HETATM   17  O   UNL     1      -9.871  14.582  65.050  1.00  0.00    -0.502 OA 
HETATM   18  C   UNL     1      -8.906  17.868  68.186  1.00  0.00    -0.265 C  
HETATM   19  C   UNL     1     -10.287  15.965  67.185  1.00  0.00    -0.300 C  
HETATM   20  C   UNL     1      -8.253  16.971  69.202  1.00  0.00    -0.034 C  
HETATM   21  H   UNL     1      -9.260  15.300  64.933  1.00  0.00     0.000 HD 
HETATM   22  C   UNL     1      -9.549  14.986  68.329  1.00  0.00    -0.210 C  
ENDROOT
BRANCH   4  23
HETATM   23  O   UNL     1      -9.263  11.857  67.788  1.00  0.00    -0.172 OA 
BRANCH  23  24
HETATM   24  C   UNL     1      -7.889  11.934  67.985  1.00  0.00    -0.140 C  
HETATM   25  O   UNL     1      -7.121  12.572  67.288  1.00  0.00    -0.148 OA 
BRANCH  24  26
HETATM   26  O   UNL     1      -7.558  11.408  69.207  1.00  0.00    -0.082 OA 
BRANCH  26  27
HETATM   27  C   UNL     1      -7.742   9.974  69.276  1.00  0.00    -0.117 C  
HETATM   28  C   UNL     1      -8.854   9.526  70.219  1.00  0.00    -0.281 C  
ENDBRANCH  26  27
ENDBRANCH  24  26
ENDBRANCH  23  24
ENDBRANCH   4  23
BRANCH   4  29
HETATM   29  C   UNL     1     -10.321  11.927  65.591  1.00  0.00    -0.247 C  
HETATM   30  O   UNL     1     -11.333  11.809  64.894  1.00  0.00    -0.301 OA 
BRANCH  29  31
HETATM   31  O   UNL     1      -9.235  11.148  65.230  1.00  0.00    -0.214 OA 
HETATM   32  C   UNL     1      -9.637   9.751  64.946  1.00  0.00    -0.246 C  
HETATM   33 CL   UNL     1      -9.830   8.801  66.448  1.00  0.00    -0.340 Cl 
ENDBRANCH  29  31
ENDBRANCH   4  29
TORSDOF 6
ENDMDL
MODEL       10
REMARK 921   NORMALIZED FREE ENERGY PREDICTED BY IDOCK:   -6.09 KCAL/MOL
REMARK 922        TOTAL FREE ENERGY PREDICTED BY IDOCK:   -7.91 KCAL/MOL
REMARK 923 INTER-LIGAND FREE ENERGY PREDICTED BY IDOCK:   -8.59 KCAL/MOL
REMARK 924 INTRA-LIGAND FREE ENERGY PREDICTED BY IDOCK:    0.68 KCAL/MOL
REMARK 927      BINDING AFFINITY PREDICTED BY RF-SCORE:    0.00 PKD
ROOT
HETATM    1  C   UNL     1      -8.839  14.666  68.906  1.00  0.00    -0.136 C  
HETATM    2  C   UNL     1      -7.580  14.051  68.686  1.00  0.00    -0.130 C  
HETATM    3  C   UNL     1      -8.096  14.999  67.661  1.00  0.00    -0.184 C  
HETATM    4  C   UNL     1      -9.631  16.286  68.226  1.00  0.00    -0.218 C  
HETATM    5  C   UNL     1      -8.263  16.384  68.237  1.00  0.00    -0.177 C  
HETATM    6  C   UNL     1     -12.460  14.056  65.558  1.00  0.00    -0.533 C  
HETATM    7  C   UNL     1     -10.226  12.423  68.197  1.00  0.00    -0.225 C  
HETATM    8  C   UNL     1     -11.114  13.349  65.377  1.00  0.00    -0.301 C  
HETATM    9  C   UNL     1     -10.537  13.200  63.894  1.00  0.00    -0.195 C  
HETATM   10  C   UNL     1      -8.447  16.642  66.358  1.00  0.00    -0.348 C  
HETATM   11  C   UNL     1     -10.224  12.068  63.239  1.00  0.00    -0.398 C  
HETATM   12  C   UNL     1      -7.370  17.129  69.197  1.00  0.00    -0.172 C  
HETATM   13  O   UNL     1     -12.512  11.349  63.065  1.00  0.00    -0.106 OA 
HETATM   14  C   UNL     1      -9.758  15.740  65.730  1.00  0.00    -0.337 C  
HETATM   15  C   UNL     1     -11.483  11.354  63.721  1.00  0.00    -0.154 C  
HETATM   16  C   UNL     1     -11.370  10.888  65.112  1.00  0.00     0.383 C  
HETATM   17  O   UNL     1     -10.917  16.546  65.982  1.00  0.00    -0.121 OA 
HETATM   18  C   UNL     1     -11.265  11.916  65.961  1.00  0.00    -0.377 C  
HETATM   19  C   UNL     1     -10.019  14.137  66.170  1.00  0.00    -0.328 C  
HETATM   20  C   UNL     1     -11.349  11.728  67.451  1.00  0.00    -0.376 C  
HETATM   21  H   UNL     1     -11.645  16.045  65.634  1.00  0.00     0.000 HD 
HETATM   22  C   UNL     1     -10.120  13.903  67.827  1.00  0.00    -0.241 C  
ENDROOT
BRANCH   4  23
HETATM   23  O   UNL     1     -10.029  16.414  69.789  1.00  0.00    -0.155 OA 
BRANCH  23  24
HETATM   24  C   UNL     1     -11.279  16.160  70.341  1.00  0.00    -0.381 C  
HETATM   25  O   UNL     1     -12.270  15.849  69.705  1.00  0.00    -0.308 OA 
BRANCH  24  26
HETATM   26  O   UNL     1     -11.180  16.057  71.705  1.00  0.00    -0.264 OA 
BRANCH  26  27
HETATM   27  C   UNL     1     -12.047  15.040  72.261  1.00  0.00    -0.362 C  
HETATM   28  C   UNL     1     -12.660  15.403  73.609  1.00  0.00    -0.723 C  
ENDBRANCH  26  27
ENDBRANCH  24  26
ENDBRANCH  23  24
ENDBRANCH   4  23
BRANCH   4  29
HETATM   29  C   UNL     1      -9.848  18.068  68.004  1.00  0.00    -0.323 C  
HETATM   30  O   UNL     1     -10.856  18.609  67.542  1.00  0.00    -0.435 OA 
BRANCH  29  31
HETATM   31  O   UNL     1      -8.792  18.907  68.316  1.00  0.00    -0.310 OA 
HETATM   32  C   UNL     1      -8.853  20.169  67.543  1.00  0.00    -0.342 C  
HETATM   33 CL   UNL     1      -8.210  19.962  65.887  1.00  0.00    -0.316 Cl 
ENDBRANCH  29  31
ENDBRANCH   4  29
TORSDOF 6
ENDMDL
MODEL       11
REMARK 921   NORMALIZED FREE ENERGY PREDICTED BY IDOCK:   -5.97 KCAL/MOL
REMARK 922        TOTAL FREE ENERGY PREDICTED BY IDOCK:   -7.75 KCAL/MOL
REMARK 923 INTER-LIGAND FREE ENERGY PREDICTED BY IDOCK:   -8.21 KCAL/MOL
REMARK 924 INTRA-LIGAND FREE ENERGY PREDICTED BY IDOCK:    0.46 KCAL/MOL
REMARK 927      BINDING AFFINITY PREDICTED BY RF-SCORE:    0.00 PKD
ROOT
HETATM    1  C   UNL     1     -10.710  12.846  64.950  1.00  0.00    -0.333 C  
HETATM    2  C   UNL     1     -11.851  12.353  64.268  1.00  0.00    -0.473 C  
HETATM    3  C   UNL     1     -11.823  12.274  65.754  1.00  0.00    -0.417 C  
HETATM    4  C   UNL     1     -10.440  13.466  66.755  1.00  0.00    -0.275 C  
HETATM    5  C   UNL     1     -11.744  13.650  66.369  1.00  0.00    -0.403 C  
HETATM    6  C   UNL     1      -8.144   9.795  67.917  1.00  0.00    -0.112 C  
HETATM    7  C   UNL     1      -9.212  10.644  64.345  1.00  0.00    -0.267 C  
HETATM    8  C   UNL     1      -9.341   9.271  67.119  1.00  0.00    -0.166 C  
HETATM    9  C   UNL     1     -10.280   8.176  67.807  1.00  0.00    -0.288 C  
HETATM   10  C   UNL     1     -12.151  12.510  67.842  1.00  0.00    -0.120 C  
HETATM   11  C   UNL     1     -10.563   6.937  67.368  1.00  0.00    -0.373 C  
HETATM   12  C   UNL     1     -12.443  14.919  65.953  1.00  0.00     0.237 C  
HETATM   13  O   UNL     1      -8.331   6.124  67.738  1.00  0.00    -0.116 OA 
HETATM   14  C   UNL     1     -10.936  11.327  68.070  1.00  0.00    -0.247 C  
HETATM   15  C   UNL     1      -9.114   6.665  66.974  1.00  0.00    -0.130 C  
HETATM   16  C   UNL     1      -8.743   7.311  65.706  1.00  0.00    -0.129 C  
HETATM   17  O   UNL     1      -9.914  11.987  68.827  1.00  0.00    -0.354 OA 
HETATM   18  C   UNL     1      -8.780   8.644  65.811  1.00  0.00    -0.212 C  
HETATM   19  C   UNL     1     -10.284  10.470  66.776  1.00  0.00    -0.288 C  
HETATM   20  C   UNL     1      -8.244   9.542  64.729  1.00  0.00    -0.143 C  
HETATM   21  H   UNL     1      -9.239  11.331  68.953  1.00  0.00     0.000 HD 
HETATM   22  C   UNL     1      -9.676  11.450  65.559  1.00  0.00    -0.263 C  
ENDROOT
BRANCH   4  23
HETATM   23  O   UNL     1      -9.643  14.615  65.943  1.00  0.00    -0.308 OA 
BRANCH  23  24
HETATM   24  C   UNL     1      -8.558  15.348  66.410  1.00  0.00    -0.209 C  
HETATM   25  O   UNL     1      -7.589  14.873  66.975  1.00  0.00    -0.166 OA 
BRANCH  24  26
HETATM   26  O   UNL     1      -8.609  16.628  65.923  1.00  0.00    -0.473 OA 
BRANCH  26  27
HETATM   27  C   UNL     1      -9.307  17.541  66.803  1.00  0.00    -0.265 C  
HETATM   28  C   UNL     1     -10.433  18.324  66.135  1.00  0.00    -0.403 C  
ENDBRANCH  26  27
ENDBRANCH  24  26
ENDBRANCH  23  24
ENDBRANCH   4  23
BRANCH   4  29
HETATM   29  C   UNL     1     -10.612  14.564  68.181  1.00  0.00    -0.238 C  
HETATM   30  O   UNL     1      -9.835  14.611  69.140  1.00  0.00    -0.202 OA 
BRANCH  29  31
HETATM   31  O   UNL     1     -11.723  15.387  68.254  1.00  0.00    -0.360 OA 
HETATM   32  C   UNL     1     -11.995  15.813  69.646  1.00  0.00    -0.317 C  
HETATM   33 CL   UNL     1     -12.862  14.547  70.566  1.00  0.00    -0.395 Cl 
ENDBRANCH  29  31
ENDBRANCH   4  29
TORSDOF 6
ENDMDL
MODEL       12
REMARK 921   NORMALIZED FREE ENERGY PREDICTED BY IDOCK:   -5.96 KCAL/MOL
REMARK 922        TOTAL FREE ENERGY PREDICTED BY IDOCK:   -7.74 KCAL/MOL
REMARK 923 INTER-LIGAND FREE ENERGY PREDICTED BY IDOCK:   -7.96 KCAL/MOL
REMARK 924 INTRA-LIGAND FREE ENERGY PREDICTED BY IDOCK:    0.22 KCAL/MOL
REMARK 927      BINDING AFFINITY PREDICTED BY RF-SCORE:    0.00 PKD
ROOT
HETATM    1  C   UNL     1     -11.205  15.719  68.483  1.00  0.00    -0.354 C  
HETATM    2  C   UNL     1     -11.563  15.625  69.852  1.00  0.00    -0.354 C  
HETATM    3  C   UNL     1     -10.124  15.525  69.486  1.00  0.00    -0.278 C  
HETATM    4  C   UNL     1      -9.562  16.201  67.599  1.00  0.00    -0.222 C  
HETATM    5  C   UNL     1      -9.641  16.797  68.832  1.00  0.00    -0.249 C  
HETATM    6  C   UNL     1      -8.724  11.976  66.355  1.00  0.00    -0.088 C  
HETATM    7  C   UNL     1     -11.993  13.160  67.946  1.00  0.00    -0.347 C  
HETATM    8  C   UNL     1      -9.179  11.871  67.813  1.00  0.00    -0.184 C  
HETATM    9  C   UNL     1      -8.216  11.127  68.849  1.00  0.00    -0.104 C  
HETATM   10  C   UNL     1      -8.039  15.832  69.201  1.00  0.00    -0.237 C  
HETATM   11  C   UNL     1      -8.489  10.049  69.604  1.00  0.00    -0.193 C  
HETATM   12  C   UNL     1      -9.967  18.228  69.178  1.00  0.00    -0.202 C  
HETATM   13  O   UNL     1      -8.601   8.560  67.720  1.00  0.00    -0.132 OA 
HETATM   14  C   UNL     1      -8.023  14.320  68.400  1.00  0.00    -0.143 C  
HETATM   15  C   UNL     1      -9.193   9.332  68.457  1.00  0.00    -0.135 C  
HETATM   16  C   UNL     1     -10.555   9.838  68.225  1.00  0.00    -0.271 C  
HETATM   17  O   UNL     1      -7.576  14.609  67.070  1.00  0.00    -0.305 OA 
HETATM   18  C   UNL     1     -10.536  11.112  67.816  1.00  0.00    -0.248 C  
HETATM   19  C   UNL     1      -9.371  13.313  68.388  1.00  0.00    -0.157 C  
HETATM   20  C   UNL     1     -11.773  11.802  67.309  1.00  0.00    -0.293 C  
HETATM   21  H   UNL     1      -7.567  13.770  66.625  1.00  0.00     0.000 HD 
HETATM   22  C   UNL     1     -10.762  14.059  67.822  1.00  0.00    -0.248 C  
ENDROOT
BRANCH   4  23
HETATM   23  O   UNL     1     -10.616  17.042  66.707  1.00  0.00    -0.284 OA 
BRANCH  23  24
HETATM   24  C   UNL     1     -10.729  17.011  65.322  1.00  0.00    -0.096 C  
HETATM   25  O   UNL     1     -10.881  16.000  64.659  1.00  0.00    -0.608 OA 
BRANCH  24  26
HETATM   26  O   UNL     1     -10.901  18.280  64.833  1.00  0.00    -0.619 OA 
BRANCH  26  27
HETATM   27  C   UNL     1     -11.027  19.276  65.876  1.00  0.00    -0.104 C  
HETATM   28  C   UNL     1      -9.898  20.301  65.908  1.00  0.00    -0.301 C  
ENDBRANCH  26  27
ENDBRANCH  24  26
ENDBRANCH  23  24
ENDBRANCH   4  23
BRANCH   4  29
HETATM   29  C   UNL     1      -8.214  17.281  67.062  1.00  0.00    -0.208 C  
HETATM   30  O   UNL     1      -7.815  18.276  67.673  1.00  0.00    -0.225 OA 
BRANCH  29  31
HETATM   31  O   UNL     1      -7.604  17.025  65.845  1.00  0.00    -0.354 OA 
HETATM   32  C   UNL     1      -6.336  17.776  65.704  1.00  0.00    -0.116 C  
HETATM   33 CL   UNL     1      -6.624  19.472  65.212  1.00  0.00    -0.302 Cl 
ENDBRANCH  29  31
ENDBRANCH   4  29
TORSDOF 6
ENDMDL
MODEL       13
REMARK 921   NORMALIZED FREE ENERGY PREDICTED BY IDOCK:   -5.94 KCAL/MOL
REMARK 922        TOTAL FREE ENERGY PREDICTED BY IDOCK:   -7.71 KCAL/MOL
REMARK 923 INTER-LIGAND FREE ENERGY PREDICTED BY IDOCK:   -8.23 KCAL/MOL
REMARK 924 INTRA-LIGAND FREE ENERGY PREDICTED BY IDOCK:    0.52 KCAL/MOL
REMARK 927      BINDING AFFINITY PREDICTED BY RF-SCORE:    0.00 PKD
ROOT
HETATM    1  C   UNL     1     -11.698  11.593  68.272  1.00  0.00    -0.374 C  
HETATM    2  C   UNL     1     -11.668  11.294  69.657  1.00  0.00    -0.420 C  
HETATM    3  C   UNL     1     -10.538  12.066  69.074  1.00  0.00    -0.136 C  
HETATM    4  C   UNL     1     -10.839  12.959  67.218  1.00  0.00    -0.255 C  
HETATM    5  C   UNL     1     -11.014  13.383  68.511  1.00  0.00    -0.292 C  
HETATM    6  C   UNL     1      -7.966  10.055  65.372  1.00  0.00    -0.141 C  
HETATM    7  C   UNL     1     -10.944   9.067  67.557  1.00  0.00     0.027 C  
HETATM    8  C   UNL     1      -7.990   9.689  66.859  1.00  0.00    -0.105 C  
HETATM    9  C   UNL     1      -6.600   9.649  67.646  1.00  0.00    -0.066 C  
HETATM   10  C   UNL     1      -9.115  13.547  68.522  1.00  0.00    -0.092 C  
HETATM   11  C   UNL     1      -6.050   8.610  68.300  1.00  0.00    -0.050 C  
HETATM   12  C   UNL     1     -12.035  14.342  69.068  1.00  0.00    -0.342 C  
HETATM   13  O   UNL     1      -5.635   7.359  66.289  1.00  0.00    -0.026 OA 
HETATM   14  C   UNL     1      -8.379  12.343  67.555  1.00  0.00    -0.173 C  
HETATM   15  C   UNL     1      -6.412   7.625  67.192  1.00  0.00    -0.055 C  
HETATM   16  C   UNL     1      -7.829   7.233  67.226  1.00  0.00    -0.111 C  
HETATM   17  O   UNL     1      -8.443  12.852  66.216  1.00  0.00    -0.371 OA 
HETATM   18  C   UNL     1      -8.628   8.275  66.973  1.00  0.00    -0.124 C  
HETATM   19  C   UNL     1      -8.869  10.734  67.622  1.00  0.00    -0.132 C  
HETATM   20  C   UNL     1     -10.104   8.106  66.739  1.00  0.00    -0.365 C  
HETATM   21  H   UNL     1      -8.035  12.183  65.679  1.00  0.00     0.000 HD 
HETATM   22  C   UNL     1     -10.511  10.520  67.360  1.00  0.00    -0.291 C  
ENDROOT
BRANCH   4  23
HETATM   23  O   UNL     1     -12.332  13.024  66.597  1.00  0.00    -0.381 OA 
BRANCH  23  24
HETATM   24  C   UNL     1     -12.657  13.204  65.258  1.00  0.00    -0.472 C  
HETATM   25  O   UNL     1     -12.671  14.278  64.684  1.00  0.00    -0.655 OA 
BRANCH  24  26
HETATM   26  O   UNL     1     -12.706  11.993  64.618  1.00  0.00    -0.419 OA 
BRANCH  26  27
HETATM   27  C   UNL     1     -11.951  11.973  63.384  1.00  0.00    -0.471 C  
HETATM   28  C   UNL     1     -10.444  12.129  63.564  1.00  0.00    -0.490 C  
ENDBRANCH  26  27
ENDBRANCH  24  26
ENDBRANCH  23  24
ENDBRANCH   4  23
BRANCH   4  29
HETATM   29  C   UNL     1     -10.496  14.631  66.620  1.00  0.00    -0.278 C  
HETATM   30  O   UNL     1      -9.700  14.915  65.720  1.00  0.00    -0.323 OA 
BRANCH  29  31
HETATM   31  O   UNL     1     -11.122  15.699  67.242  1.00  0.00    -0.309 OA 
HETATM   32  C   UNL     1     -10.335  16.946  67.104  1.00  0.00    -0.304 C  
HETATM   33 CL   UNL     1      -9.003  17.022  68.295  1.00  0.00    -0.234 Cl 
ENDBRANCH  29  31
ENDBRANCH   4  29
TORSDOF 6
ENDMDL
MODEL       14
REMARK 921   NORMALIZED FREE ENERGY PREDICTED BY IDOCK:   -5.64 KCAL/MOL
REMARK 922        TOTAL FREE ENERGY PREDICTED BY IDOCK:   -7.31 KCAL/MOL
REMARK 923 INTER-LIGAND FREE ENERGY PREDICTED BY IDOCK:   -7.37 KCAL/MOL
REMARK 924 INTRA-LIGAND FREE ENERGY PREDICTED BY IDOCK:    0.07 KCAL/MOL
REMARK 927      BINDING AFFINITY PREDICTED BY RF-SCORE:    0.00 PKD
ROOT
HETATM    1  C   UNL     1      -9.797   9.721  66.183  1.00  0.00    -0.329 C  
HETATM    2  C   UNL     1      -9.328   9.782  64.847  1.00  0.00    -0.327 C  
HETATM    3  C   UNL     1      -8.471  10.345  65.926  1.00  0.00    -0.160 C  
HETATM    4  C   UNL     1      -8.891   9.775  67.883  1.00  0.00    -0.122 C  
HETATM    5  C   UNL     1      -8.064   9.275  66.909  1.00  0.00    -0.108 C  
HETATM    6  C   UNL     1     -10.313  13.933  68.772  1.00  0.00    -0.210 C  
HETATM    7  C   UNL     1     -11.522  11.809  65.831  1.00  0.00    -0.273 C  
HETATM    8  C   UNL     1      -9.870  13.976  67.307  1.00  0.00    -0.242 C  
HETATM    9  C   UNL     1      -8.792  15.075  66.879  1.00  0.00    -0.285 C  
HETATM   10  C   UNL     1      -6.948  10.755  67.351  1.00  0.00    -0.083 C  
HETATM   11  C   UNL     1      -8.921  16.043  65.955  1.00  0.00    -0.345 C  
HETATM   12  C   UNL     1      -7.657   7.847  66.647  1.00  0.00    -0.093 C  
HETATM   13  O   UNL     1     -10.548  17.268  67.235  1.00  0.00    -0.338 OA 
HETATM   14  C   UNL     1      -7.873  12.121  67.805  1.00  0.00    -0.148 C  
HETATM   15  C   UNL     1     -10.335  16.393  66.411  1.00  0.00    -0.313 C  
HETATM   16  C   UNL     1     -11.338  15.434  65.924  1.00  0.00    -0.104 C  
HETATM   17  O   UNL     1      -8.190  11.911  69.187  1.00  0.00    -0.351 OA 
HETATM   18  C   UNL     1     -11.145  14.219  66.450  1.00  0.00    -0.325 C  
HETATM   19  C   UNL     1      -9.230  12.599  66.931  1.00  0.00    -0.216 C  
HETATM   20  C   UNL     1     -12.150  13.113  66.284  1.00  0.00    -0.460 C  
HETATM   21  H   UNL     1      -8.704  12.669  69.439  1.00  0.00     0.000 HD 
HETATM   22  C   UNL     1     -10.367  11.382  66.737  1.00  0.00    -0.271 C  
ENDROOT
BRANCH   4  23
HETATM   23  O   UNL     1      -9.925   8.561  68.156  1.00  0.00    -0.168 OA 
BRANCH  23  24
HETATM   24  C   UNL     1     -10.779   8.440  69.247  1.00  0.00    -0.126 C  
HETATM   25  O   UNL     1     -10.983   7.406  69.858  1.00  0.00    -0.250 OA 
BRANCH  24  26
HETATM   26  O   UNL     1     -11.153   9.681  69.693  1.00  0.00    -0.236 OA 
BRANCH  26  27
HETATM   27  C   UNL     1     -11.413   9.716  71.116  1.00  0.00    -0.384 C  
HETATM   28  C   UNL     1     -12.760  10.323  71.496  1.00  0.00    -0.557 C  
ENDBRANCH  26  27
ENDBRANCH  24  26
ENDBRANCH  23  24
ENDBRANCH   4  23
BRANCH   4  29
HETATM   29  C   UNL     1      -7.821   9.189  69.219  1.00  0.00    -0.095 C  
HETATM   30  O   UNL     1      -7.021   8.253  69.131  1.00  0.00    -0.060 OA 
BRANCH  29  31
HETATM   31  O   UNL     1      -7.930   9.786  70.464  1.00  0.00    -0.220 OA 
HETATM   32  C   UNL     1      -7.356   8.931  71.529  1.00  0.00    -0.052 C  
HETATM   33 CL   UNL     1      -8.497   7.649  72.034  1.00  0.00    -0.122 Cl 
ENDBRANCH  29  31
ENDBRANCH   4  29
TORSDOF 6
ENDMDL
MODEL       15
REMARK 921   NORMALIZED FREE ENERGY PREDICTED BY IDOCK:   -5.58 KCAL/MOL
REMARK 922        TOTAL FREE ENERGY PREDICTED BY IDOCK:   -7.22 KCAL/MOL
REMARK 923 INTER-LIGAND FREE ENERGY PREDICTED BY IDOCK:   -7.46 KCAL/MOL
REMARK 924 INTRA-LIGAND FREE ENERGY PREDICTED BY IDOCK:    0.24 KCAL/MOL
REMARK 927      BINDING AFFINITY PREDICTED BY RF-SCORE:    0.00 PKD
ROOT
HETATM    1  C   UNL     1      -8.596   9.953  70.157  1.00  0.00    -0.141 C  
HETATM    2  C   UNL     1      -7.214   9.687  70.332  1.00  0.00    -0.147 C  
HETATM    3  C   UNL     1      -7.964   8.901  69.315  1.00  0.00    -0.104 C  
HETATM    4  C   UNL     1      -9.801   9.649  68.684  1.00  0.00    -0.161 C  
HETATM    5  C   UNL     1      -8.514   9.798  68.233  1.00  0.00    -0.114 C  
HETATM    6  C   UNL     1     -11.877   6.273  70.780  1.00  0.00    -0.205 C  
HETATM    7  C   UNL     1      -9.300   8.580  72.410  1.00  0.00    -0.349 C  
HETATM    8  C   UNL     1     -10.386   6.029  71.027  1.00  0.00    -0.270 C  
HETATM    9  C   UNL     1      -9.779   4.610  70.612  1.00  0.00    -0.277 C  
HETATM   10  C   UNL     1      -8.747   8.039  67.536  1.00  0.00    -0.125 C  
HETATM   11  C   UNL     1      -9.159   3.714  71.400  1.00  0.00    -0.180 C  
HETATM   12  C   UNL     1      -7.871  10.987  67.566  1.00  0.00    -0.116 C  
HETATM   13  O   UNL     1     -11.155   3.173  72.627  1.00  0.00     0.111 OA 
HETATM   14  C   UNL     1      -9.752   7.095  68.549  1.00  0.00    -0.143 C  
HETATM   15  C   UNL     1     -10.173   3.891  72.526  1.00  0.00    -0.164 C  
HETATM   16  C   UNL     1      -9.947   5.120  73.302  1.00  0.00    -0.182 C  
HETATM   17  O   UNL     1     -11.090   7.449  68.179  1.00  0.00    -0.459 OA 
HETATM   18  C   UNL     1     -10.139   6.211  72.551  1.00  0.00    -0.197 C  
HETATM   19  C   UNL     1      -9.560   7.085  70.221  1.00  0.00    -0.168 C  
HETATM   20  C   UNL     1     -10.179   7.590  73.150  1.00  0.00    -0.382 C  
HETATM   21  H   UNL     1     -11.648   6.925  68.742  1.00  0.00     0.000 HD 
HETATM   22  C   UNL     1      -9.606   8.612  70.912  1.00  0.00    -0.252 C  
ENDROOT
BRANCH   4  23
HETATM   23  O   UNL     1     -10.232  11.154  69.092  1.00  0.00    -0.208 OA 
BRANCH  23  24
HETATM   24  C   UNL     1     -11.432  11.533  69.683  1.00  0.00    -0.301 C  
HETATM   25  O   UNL     1     -11.914  12.650  69.624  1.00  0.00    -0.315 OA 
BRANCH  24  26
HETATM   26  O   UNL     1     -12.115  10.425  70.115  1.00  0.00    -0.275 OA 
BRANCH  26  27
HETATM   27  C   UNL     1     -12.930  10.682  71.283  1.00  0.00    -0.414 C  
HETATM   28  C   UNL     1     -13.282   9.438  72.091  1.00  0.00    -0.541 C  
ENDBRANCH  26  27
ENDBRANCH  24  26
ENDBRANCH  23  24
ENDBRANCH   4  23
BRANCH   4  29
HETATM   29  C   UNL     1     -10.503   9.875  67.032  1.00  0.00    -0.230 C  
HETATM   30  O   UNL     1     -10.106   9.311  66.008  1.00  0.00    -0.297 OA 
BRANCH  29  31
HETATM   31  O   UNL     1     -11.530  10.789  66.868  1.00  0.00    -0.304 OA 
HETATM   32  C   UNL     1     -11.255  11.722  65.751  1.00  0.00    -0.281 C  
HETATM   33 CL   UNL     1     -10.151  13.039  66.247  1.00  0.00    -0.277 Cl 
ENDBRANCH  29  31
ENDBRANCH   4  29
TORSDOF 6
ENDMDL
MODEL       16
REMARK 921   NORMALIZED FREE ENERGY PREDICTED BY IDOCK:   -5.55 KCAL/MOL
REMARK 922        TOTAL FREE ENERGY PREDICTED BY IDOCK:   -7.18 KCAL/MOL
REMARK 923 INTER-LIGAND FREE ENERGY PREDICTED BY IDOCK:   -7.86 KCAL/MOL
REMARK 924 INTRA-LIGAND FREE ENERGY PREDICTED BY IDOCK:    0.68 KCAL/MOL
REMARK 927      BINDING AFFINITY PREDICTED BY RF-SCORE:    0.00 PKD
ROOT
HETATM    1  C   UNL     1     -10.376  12.346  64.805  1.00  0.00    -0.324 C  
HETATM    2  C   UNL     1     -11.305  11.516  64.128  1.00  0.00    -0.349 C  
HETATM    3  C   UNL     1     -11.366  11.585  65.614  1.00  0.00    -0.151 C  
HETATM    4  C   UNL     1     -10.401  13.178  66.544  1.00  0.00    -0.283 C  
HETATM    5  C   UNL     1     -11.678  12.986  66.080  1.00  0.00    -0.445 C  
HETATM    6  C   UNL     1      -7.349  10.342  68.200  1.00  0.00    -0.088 C  
HETATM    7  C   UNL     1      -8.334  10.557  64.511  1.00  0.00    -0.108 C  
HETATM    8  C   UNL     1      -8.316   9.457  67.408  1.00  0.00    -0.125 C  
HETATM    9  C   UNL     1      -8.998   8.227  68.165  1.00  0.00    -0.139 C  
HETATM   10  C   UNL     1     -11.892  11.920  67.646  1.00  0.00    -0.265 C  
HETATM   11  C   UNL     1      -8.930   6.921  67.849  1.00  0.00    -0.121 C  
HETATM   12  C   UNL     1     -12.640  13.990  65.498  1.00  0.00    -0.543 C  
HETATM   13  O   UNL     1      -6.598   6.746  68.407  1.00  0.00    -0.053 OA 
HETATM   14  C   UNL     1     -10.440  11.115  68.056  1.00  0.00    -0.188 C  
HETATM   15  C   UNL     1      -7.435   6.995  67.555  1.00  0.00    -0.097 C  
HETATM   16  C   UNL     1      -7.146   7.595  66.243  1.00  0.00    -0.070 C  
HETATM   17  O   UNL     1      -9.672  12.082  68.785  1.00  0.00    -0.374 OA 
HETATM   18  C   UNL     1      -7.523   8.878  66.202  1.00  0.00    -0.090 C  
HETATM   19  C   UNL     1      -9.502  10.338  66.894  1.00  0.00    -0.200 C  
HETATM   20  C   UNL     1      -7.152   9.779  65.056  1.00  0.00    -0.120 C  
HETATM   21  H   UNL     1      -8.865  11.634  69.012  1.00  0.00     0.000 HD 
HETATM   22  C   UNL     1      -9.072  11.325  65.609  1.00  0.00    -0.203 C  
ENDROOT
BRANCH   4  23
HETATM   23  O   UNL     1      -9.860  14.413  65.651  1.00  0.00    -0.324 OA 
BRANCH  23  24
HETATM   24  C   UNL     1      -9.230  15.557  66.128  1.00  0.00    -0.344 C  
HETATM   25  O   UNL     1      -8.100  15.591  66.580  1.00  0.00    -0.240 OA 
BRANCH  24  26
HETATM   26  O   UNL     1      -9.951  16.671  65.784  1.00  0.00    -0.466 OA 
BRANCH  26  27
HETATM   27  C   UNL     1      -9.379  17.897  66.296  1.00  0.00    -0.197 C  
HETATM   28  C   UNL     1     -10.292  19.114  66.186  1.00  0.00    -0.561 C  
ENDBRANCH  26  27
ENDBRANCH  24  26
ENDBRANCH  23  24
ENDBRANCH   4  23
BRANCH   4  29
HETATM   29  C   UNL     1     -10.945  14.323  67.834  1.00  0.00    -0.267 C  
HETATM   30  O   UNL     1     -12.017  14.933  67.837  1.00  0.00    -0.317 OA 
BRANCH  29  31
HETATM   31  O   UNL     1     -10.083  14.595  68.884  1.00  0.00    -0.232 OA 
HETATM   32  C   UNL     1     -10.710  15.490  69.884  1.00  0.00    -0.311 C  
HETATM   33 CL   UNL     1     -10.643  17.202  69.373  1.00  0.00    -0.268 Cl 
ENDBRANCH  29  31
ENDBRANCH   4  29
TORSDOF 6
ENDMDL
MODEL       17
REMARK 921   NORMALIZED FREE ENERGY PREDICTED BY IDOCK:   -5.51 KCAL/MOL
REMARK 922        TOTAL FREE ENERGY PREDICTED BY IDOCK:   -7.13 KCAL/MOL
REMARK 923 INTER-LIGAND FREE ENERGY PREDICTED BY IDOCK:   -7.05 KCAL/MOL
REMARK 924 INTRA-LIGAND FREE ENERGY PREDICTED BY IDOCK:   -0.08 KCAL/MOL
REMARK 927      BINDING AFFINITY PREDICTED BY RF-SCORE:    0.00 PKD
ROOT
HETATM    1  C   UNL     1      -8.501  10.809  68.958  1.00  0.00    -0.137 C  
HETATM    2  C   UNL     1      -7.108  10.714  69.203  1.00  0.00    -0.095 C  
HETATM    3  C   UNL     1      -7.599  10.517  67.812  1.00  0.00    -0.088 C  
HETATM    4  C   UNL     1      -9.518  11.187  67.365  1.00  0.00    -0.164 C  
HETATM    5  C   UNL     1      -8.275  11.762  67.293  1.00  0.00    -0.163 C  
HETATM    6  C   UNL     1     -10.888   6.937  66.955  1.00  0.00    -0.436 C  
HETATM    7  C   UNL     1      -9.002   8.326  69.978  1.00  0.00    -0.142 C  
HETATM    8  C   UNL     1      -9.397   6.837  67.290  1.00  0.00    -0.148 C  
HETATM    9  C   UNL     1      -8.459   6.004  66.300  1.00  0.00    -0.130 C  
HETATM   10  C   UNL     1      -8.060  10.675  65.742  1.00  0.00    -0.158 C  
HETATM   11  C   UNL     1      -7.698   4.934  66.587  1.00  0.00    -0.092 C  
HETATM   12  C   UNL     1      -7.883  13.206  67.481  1.00  0.00    -0.173 C  
HETATM   13  O   UNL     1      -9.586   3.495  66.972  1.00  0.00    -0.204 OA 
HETATM   14  C   UNL     1      -8.880   9.182  65.908  1.00  0.00    -0.175 C  
HETATM   15  C   UNL     1      -8.789   4.293  67.439  1.00  0.00    -0.110 C  
HETATM   16  C   UNL     1      -8.894   4.903  68.773  1.00  0.00    -0.114 C  
HETATM   17  O   UNL     1     -10.240   9.465  65.556  1.00  0.00    -0.330 OA 
HETATM   18  C   UNL     1      -9.286   6.179  68.695  1.00  0.00    -0.123 C  
HETATM   19  C   UNL     1      -8.788   8.277  67.324  1.00  0.00    -0.137 C  
HETATM   20  C   UNL     1      -9.674   6.968  69.916  1.00  0.00    -0.163 C  
HETATM   21  H   UNL     1     -10.695   8.636  65.649  1.00  0.00     0.000 HD 
HETATM   22  C   UNL     1      -9.221   9.135  68.699  1.00  0.00    -0.136 C  
ENDROOT
BRANCH   4  23
HETATM   23  O   UNL     1     -10.303  12.121  68.426  1.00  0.00    -0.219 OA 
BRANCH  23  24
HETATM   24  C   UNL     1     -11.679  12.161  68.625  1.00  0.00    -0.330 C  
HETATM   25  O   UNL     1     -12.364  11.205  68.941  1.00  0.00    -0.512 OA 
BRANCH  24  26
HETATM   26  O   UNL     1     -12.112  13.461  68.667  1.00  0.00    -0.346 OA 
BRANCH  26  27
HETATM   27  C   UNL     1     -11.082  14.387  69.086  1.00  0.00    -0.265 C  
HETATM   28  C   UNL     1     -10.955  15.627  68.207  1.00  0.00    -0.315 C  
ENDBRANCH  26  27
ENDBRANCH  24  26
ENDBRANCH  23  24
ENDBRANCH   4  23
BRANCH   4  29
HETATM   29  C   UNL     1     -10.156  12.176  65.992  1.00  0.00    -0.235 C  
HETATM   30  O   UNL     1      -9.693  13.258  65.621  1.00  0.00    -0.201 OA 
BRANCH  29  31
HETATM   31  O   UNL     1     -11.285  11.732  65.324  1.00  0.00    -0.307 OA 
HETATM   32  C   UNL     1     -11.837  12.779  64.434  1.00  0.00    -0.384 C  
HETATM   33 CL   UNL     1     -12.827  13.961  65.340  1.00  0.00    -0.523 Cl 
ENDBRANCH  29  31
ENDBRANCH   4  29
TORSDOF 6
ENDMDL
MODEL       18
REMARK 921   NORMALIZED FREE ENERGY PREDICTED BY IDOCK:   -5.49 KCAL/MOL
REMARK 922        TOTAL FREE ENERGY PREDICTED BY IDOCK:   -7.11 KCAL/MOL
REMARK 923 INTER-LIGAND FREE ENERGY PREDICTED BY IDOCK:   -6.87 KCAL/MOL
REMARK 924 INTRA-LIGAND FREE ENERGY PREDICTED BY IDOCK:   -0.24 KCAL/MOL
REMARK 927      BINDING AFFINITY PREDICTED BY RF-SCORE:    0.00 PKD
ROOT
HETATM    1  C   UNL     1      -9.041  10.962  65.999  1.00  0.00    -0.208 C  
HETATM    2  C   UNL     1      -9.655  10.162  65.003  1.00  0.00    -0.362 C  
HETATM    3  C   UNL     1     -10.486  10.638  66.142  1.00  0.00    -0.260 C  
HETATM    4  C   UNL     1      -9.750  12.222  67.274  1.00  0.00    -0.195 C  
HETATM    5  C   UNL     1     -10.559  12.145  66.169  1.00  0.00    -0.290 C  
HETATM    6  C   UNL     1      -9.114   9.436  70.729  1.00  0.00    -0.268 C  
HETATM    7  C   UNL     1      -7.825   8.822  67.181  1.00  0.00    -0.096 C  
HETATM    8  C   UNL     1      -9.712   8.559  69.625  1.00  0.00    -0.179 C  
HETATM    9  C   UNL     1     -11.030   7.722  69.962  1.00  0.00    -0.218 C  
HETATM   10  C   UNL     1     -11.897  11.598  67.410  1.00  0.00    -0.170 C  
HETATM   11  C   UNL     1     -11.202   6.390  69.900  1.00  0.00    -0.485 C  
HETATM   12  C   UNL     1     -10.693  13.111  65.019  1.00  0.00    -0.338 C  
HETATM   13  O   UNL     1      -9.728   5.954  71.749  1.00  0.00    -0.155 OA 
HETATM   14  C   UNL     1     -11.225  10.685  68.691  1.00  0.00    -0.278 C  
HETATM   15  C   UNL     1      -9.847   6.111  70.545  1.00  0.00    -0.178 C  
HETATM   16  C   UNL     1      -8.729   6.273  69.603  1.00  0.00    -0.136 C  
HETATM   17  O   UNL     1     -10.724  11.658  69.617  1.00  0.00    -0.450 OA 
HETATM   18  C   UNL     1      -8.613   7.543  69.201  1.00  0.00    -0.136 C  
HETATM   19  C   UNL     1     -10.097   9.468  68.411  1.00  0.00    -0.199 C  
HETATM   20  C   UNL     1      -7.429   8.020  68.406  1.00  0.00    -0.103 C  
HETATM   21  H   UNL     1     -10.350  11.150  70.328  1.00  0.00     0.000 HD 
HETATM   22  C   UNL     1      -8.764   9.978  67.530  1.00  0.00    -0.125 C  
ENDROOT
BRANCH   4  23
HETATM   23  O   UNL     1      -8.467  13.053  66.744  1.00  0.00    -0.129 OA 
BRANCH  23  24
HETATM   24  C   UNL     1      -7.402  13.500  67.517  1.00  0.00    -0.164 C  
HETATM   25  O   UNL     1      -6.790  14.536  67.326  1.00  0.00    -0.252 OA 
BRANCH  24  26
HETATM   26  O   UNL     1      -7.303  12.752  68.661  1.00  0.00    -0.108 OA 
BRANCH  26  27
HETATM   27  C   UNL     1      -5.984  12.193  68.862  1.00  0.00    -0.064 C  
HETATM   28  C   UNL     1      -5.895  11.177  69.996  1.00  0.00    -0.112 C  
ENDBRANCH  26  27
ENDBRANCH  24  26
ENDBRANCH  23  24
ENDBRANCH   4  23
BRANCH   4  29
HETATM   29  C   UNL     1     -10.527  13.751  67.849  1.00  0.00    -0.246 C  
HETATM   30  O   UNL     1     -11.327  14.430  67.199  1.00  0.00    -0.315 OA 
BRANCH  29  31
HETATM   31  O   UNL     1     -10.171  14.249  69.091  1.00  0.00    -0.193 OA 
HETATM   32  C   UNL     1     -10.399  15.710  69.178  1.00  0.00    -0.241 C  
HETATM   33 CL   UNL     1      -9.069  16.632  68.416  1.00  0.00    -0.218 Cl 
ENDBRANCH  29  31
ENDBRANCH   4  29
TORSDOF 6
ENDMDL
MODEL       19
REMARK 921   NORMALIZED FREE ENERGY PREDICTED BY IDOCK:   -5.47 KCAL/MOL
REMARK 922        TOTAL FREE ENERGY PREDICTED BY IDOCK:   -7.08 KCAL/MOL
REMARK 923 INTER-LIGAND FREE ENERGY PREDICTED BY IDOCK:   -7.12 KCAL/MOL
REMARK 924 INTRA-LIGAND FREE ENERGY PREDICTED BY IDOCK:    0.04 KCAL/MOL
REMARK 927      BINDING AFFINITY PREDICTED BY RF-SCORE:    0.00 PKD
ROOT
HETATM    1  C   UNL     1      -8.849  11.421  66.264  1.00  0.00    -0.196 C  
HETATM    2  C   UNL     1      -9.252  10.665  65.134  1.00  0.00    -0.241 C  
HETATM    3  C   UNL     1     -10.261  10.958  66.188  1.00  0.00    -0.304 C  
HETATM    4  C   UNL     1      -9.834  12.490  67.531  1.00  0.00    -0.198 C  
HETATM    5  C   UNL     1     -10.487  12.443  66.326  1.00  0.00    -0.271 C  
HETATM    6  C   UNL     1      -9.354   9.463  70.804  1.00  0.00    -0.292 C  
HETATM    7  C   UNL     1      -7.580   9.298  67.421  1.00  0.00    -0.088 C  
HETATM    8  C   UNL     1      -9.719   8.643  69.564  1.00  0.00    -0.179 C  
HETATM    9  C   UNL     1     -10.979   7.663  69.655  1.00  0.00    -0.145 C  
HETATM   10  C   UNL     1     -11.908  11.666  67.332  1.00  0.00    -0.170 C  
HETATM   11  C   UNL     1     -11.006   6.333  69.464  1.00  0.00    -0.445 C  
HETATM   12  C   UNL     1     -10.574  13.496  65.250  1.00  0.00    -0.335 C  
HETATM   13  O   UNL     1      -9.737   5.861  71.451  1.00  0.00    -0.163 OA 
HETATM   14  C   UNL     1     -11.311  10.702  68.612  1.00  0.00    -0.281 C  
HETATM   15  C   UNL     1      -9.722   6.117  70.258  1.00  0.00    -0.164 C  
HETATM   16  C   UNL     1      -8.517   6.465  69.489  1.00  0.00    -0.133 C  
HETATM   17  O   UNL     1     -11.029  11.625  69.672  1.00  0.00    -0.440 OA 
HETATM   18  C   UNL     1      -8.481   7.772  69.208  1.00  0.00    -0.138 C  
HETATM   19  C   UNL     1     -10.040   9.622  68.387  1.00  0.00    -0.199 C  
HETATM   20  C   UNL     1      -7.260   8.424  68.618  1.00  0.00    -0.080 C  
HETATM   21  H   UNL     1     -10.697  11.090  70.383  1.00  0.00     0.000 HD 
HETATM   22  C   UNL     1      -8.667  10.328  67.734  1.00  0.00    -0.121 C  
ENDROOT
BRANCH   4  23
HETATM   23  O   UNL     1      -8.585  13.477  67.243  1.00  0.00    -0.198 OA 
BRANCH  23  24
HETATM   24  C   UNL     1      -7.782  14.086  68.201  1.00  0.00    -0.143 C  
HETATM   25  O   UNL     1      -7.059  13.493  68.982  1.00  0.00    -0.110 OA 
BRANCH  24  26
HETATM   26  O   UNL     1      -7.723  15.437  67.977  1.00  0.00    -0.117 OA 
BRANCH  26  27
HETATM   27  C   UNL     1      -7.958  15.792  66.594  1.00  0.00    -0.197 C  
HETATM   28  C   UNL     1      -8.596  17.163  66.395  1.00  0.00    -0.300 C  
ENDBRANCH  26  27
ENDBRANCH  24  26
ENDBRANCH  23  24
ENDBRANCH   4  23
BRANCH   4  29
HETATM   29  C   UNL     1     -10.826  13.883  68.120  1.00  0.00    -0.249 C  
HETATM   30  O   UNL     1     -11.583  14.561  67.420  1.00  0.00    -0.353 OA 
BRANCH  29  31
HETATM   31  O   UNL     1     -10.700  14.273  69.442  1.00  0.00    -0.218 OA 
HETATM   32  C   UNL     1     -11.440  15.528  69.711  1.00  0.00    -0.331 C  
HETATM   33 CL   UNL     1     -10.512  16.966  69.190  1.00  0.00    -0.328 Cl 
ENDBRANCH  29  31
ENDBRANCH   4  29
TORSDOF 6
ENDMDL
MODEL       20
REMARK 921   NORMALIZED FREE ENERGY PREDICTED BY IDOCK:   -5.47 KCAL/MOL
REMARK 922        TOTAL FREE ENERGY PREDICTED BY IDOCK:   -7.07 KCAL/MOL
REMARK 923 INTER-LIGAND FREE ENERGY PREDICTED BY IDOCK:   -7.53 KCAL/MOL
REMARK 924 INTRA-LIGAND FREE ENERGY PREDICTED BY IDOCK:    0.46 KCAL/MOL
REMARK 927      BINDING AFFINITY PREDICTED BY RF-SCORE:    0.00 PKD
ROOT
HETATM    1  C   UNL     1      -7.109   9.836  66.479  1.00  0.00    -0.090 C  
HETATM    2  C   UNL     1      -6.099  10.532  65.768  1.00  0.00    -0.133 C  
HETATM    3  C   UNL     1      -6.736  11.203  66.934  1.00  0.00    -0.128 C  
HETATM    4  C   UNL     1      -7.788  10.007  68.275  1.00  0.00    -0.089 C  
HETATM    5  C   UNL     1      -6.485  10.432  68.207  1.00  0.00    -0.059 C  
HETATM    6  C   UNL     1     -11.627  11.866  66.893  1.00  0.00    -0.358 C  
HETATM    7  C   UNL     1      -9.002  10.333  64.574  1.00  0.00    -0.247 C  
HETATM    8  C   UNL     1     -10.537  12.566  66.076  1.00  0.00    -0.289 C  
HETATM    9  C   UNL     1     -10.473  14.162  66.120  1.00  0.00    -0.297 C  
HETATM   10  C   UNL     1      -7.187  12.099  68.808  1.00  0.00    -0.103 C  
HETATM   11  C   UNL     1     -10.569  15.022  65.091  1.00  0.00    -0.440 C  
HETATM   12  C   UNL     1      -5.231   9.730  68.662  1.00  0.00    -0.036 C  
HETATM   13  O   UNL     1     -12.888  14.528  64.688  1.00  0.00    -0.614 OA 
HETATM   14  C   UNL     1      -8.759  12.373  68.192  1.00  0.00    -0.190 C  
HETATM   15  C   UNL     1     -11.722  14.250  64.457  1.00  0.00    -0.418 C  
HETATM   16  C   UNL     1     -11.271  13.044  63.746  1.00  0.00    -0.396 C  
HETATM   17  O   UNL     1      -9.633  11.655  69.072  1.00  0.00    -0.405 OA 
HETATM   18  C   UNL     1     -10.742  12.152  64.591  1.00  0.00    -0.346 C  
HETATM   19  C   UNL     1      -9.138  12.080  66.578  1.00  0.00    -0.202 C  
HETATM   20  C   UNL     1     -10.398  10.753  64.157  1.00  0.00    -0.382 C  
HETATM   21  H   UNL     1     -10.506  11.807  68.729  1.00  0.00     0.000 HD 
HETATM   22  C   UNL     1      -8.767  10.525  66.073  1.00  0.00    -0.174 C  
ENDROOT
BRANCH   4  23
HETATM   23  O   UNL     1      -7.663   8.398  68.175  1.00  0.00    -0.099 OA 
BRANCH  23  24
HETATM   24  C   UNL     1      -8.659   7.522  67.755  1.00  0.00    -0.120 C  
HETATM   25  O   UNL     1      -8.483   6.573  67.012  1.00  0.00    -0.112 OA 
BRANCH  24  26
HETATM   26  O   UNL     1      -9.800   7.719  68.489  1.00  0.00    -0.163 OA 
BRANCH  26  27
HETATM   27  C   UNL     1     -10.569   6.508  68.677  1.00  0.00    -0.245 C  
HETATM   28  C   UNL     1     -11.478   6.523  69.901  1.00  0.00    -0.467 C  
ENDBRANCH  26  27
ENDBRANCH  24  26
ENDBRANCH  23  24
ENDBRANCH   4  23
BRANCH   4  29
HETATM   29  C   UNL     1      -7.760   9.918  70.081  1.00  0.00    -0.175 C  
HETATM   30  O   UNL     1      -6.762  10.091  70.786  1.00  0.00    -0.260 OA 
BRANCH  29  31
HETATM   31  O   UNL     1      -8.926   9.573  70.745  1.00  0.00    -0.220 OA 
HETATM   32  C   UNL     1      -8.649   8.714  71.919  1.00  0.00    -0.162 C  
HETATM   33 CL   UNL     1      -8.404   7.007  71.446  1.00  0.00    -0.113 Cl 
ENDBRANCH  29  31
ENDBRANCH   4  29
TORSDOF 6
ENDMDL
MODEL       21
REMARK 921   NORMALIZED FREE ENERGY PREDICTED BY IDOCK:   -5.45 KCAL/MOL
REMARK 922        TOTAL FREE ENERGY PREDICTED BY IDOCK:   -7.04 KCAL/MOL
REMARK 923 INTER-LIGAND FREE ENERGY PREDICTED BY IDOCK:   -7.33 KCAL/MOL
REMARK 924 INTRA-LIGAND FREE ENERGY PREDICTED BY IDOCK:    0.29 KCAL/MOL
REMARK 927      BINDING AFFINITY PREDICTED BY RF-SCORE:    0.00 PKD
ROOT
HETATM    1  C   UNL     1     -10.601  10.944  66.749  1.00  0.00    -0.313 C  
HETATM    2  C   UNL     1     -10.487  10.957  65.336  1.00  0.00    -0.291 C  
HETATM    3  C   UNL     1      -9.261  11.185  66.149  1.00  0.00    -0.216 C  
HETATM    4  C   UNL     1      -9.320  10.630  68.155  1.00  0.00    -0.151 C  
HETATM    5  C   UNL     1      -8.946   9.982  67.005  1.00  0.00    -0.152 C  
HETATM    6  C   UNL     1      -9.213  14.953  69.338  1.00  0.00    -0.046 C  
HETATM    7  C   UNL     1     -11.682  13.450  66.835  1.00  0.00    -0.434 C  
HETATM    8  C   UNL     1      -9.161  14.965  67.808  1.00  0.00    -0.185 C  
HETATM    9  C   UNL     1      -7.956  15.743  67.104  1.00  0.00    -0.250 C  
HETATM   10  C   UNL     1      -7.377  11.058  67.126  1.00  0.00    -0.116 C  
HETATM   11  C   UNL     1      -8.028  16.766  66.234  1.00  0.00    -0.352 C  
HETATM   12  C   UNL     1      -9.047   8.518  66.661  1.00  0.00    -0.203 C  
HETATM   13  O   UNL     1      -8.857  18.312  67.879  1.00  0.00    -0.260 OA 
HETATM   14  C   UNL     1      -7.724  12.596  67.790  1.00  0.00    -0.145 C  
HETATM   15  C   UNL     1      -9.119  17.468  67.038  1.00  0.00    -0.248 C  
HETATM   16  C   UNL     1     -10.445  16.863  66.838  1.00  0.00    -0.271 C  
HETATM   17  O   UNL     1      -7.729  12.394  69.209  1.00  0.00    -0.325 OA 
HETATM   18  C   UNL     1     -10.484  15.612  67.309  1.00  0.00    -0.292 C  
HETATM   19  C   UNL     1      -9.060  13.491  67.294  1.00  0.00    -0.225 C  
HETATM   20  C   UNL     1     -11.773  14.845  67.422  1.00  0.00    -0.311 C  
HETATM   21  H   UNL     1      -7.923  13.248  69.578  1.00  0.00     0.000 HD 
HETATM   22  C   UNL     1     -10.510  12.658  67.415  1.00  0.00    -0.233 C  
ENDROOT
BRANCH   4  23
HETATM   23  O   UNL     1     -10.557   9.741  68.700  1.00  0.00    -0.208 OA 
BRANCH  23  24
HETATM   24  C   UNL     1     -11.158   9.848  69.949  1.00  0.00    -0.275 C  
HETATM   25  O   UNL     1     -11.419  10.899  70.507  1.00  0.00    -0.312 OA 
BRANCH  24  26
HETATM   26  O   UNL     1     -11.642   8.629  70.345  1.00  0.00    -0.209 OA 
BRANCH  26  27
HETATM   27  C   UNL     1     -10.664   7.568  70.236  1.00  0.00    -0.238 C  
HETATM   28  C   UNL     1     -11.170   6.315  69.529  1.00  0.00    -0.500 C  
ENDBRANCH  26  27
ENDBRANCH  24  26
ENDBRANCH  23  24
ENDBRANCH   4  23
BRANCH   4  29
HETATM   29  C   UNL     1      -8.165   9.682  69.173  1.00  0.00    -0.120 C  
HETATM   30  O   UNL     1      -7.555   8.674  68.805  1.00  0.00    -0.092 OA 
BRANCH  29  31
HETATM   31  O   UNL     1      -7.974  10.065  70.490  1.00  0.00    -0.224 OA 
HETATM   32  C   UNL     1      -6.770   9.430  71.073  1.00  0.00    -0.076 C  
HETATM   33 CL   UNL     1      -7.097   7.752  71.599  1.00  0.00    -0.062 Cl 
ENDBRANCH  29  31
ENDBRANCH   4  29
TORSDOF 6
ENDMDL
MODEL       22
REMARK 921   NORMALIZED FREE ENERGY PREDICTED BY IDOCK:   -5.43 KCAL/MOL
REMARK 922        TOTAL FREE ENERGY PREDICTED BY IDOCK:   -7.03 KCAL/MOL
REMARK 923 INTER-LIGAND FREE ENERGY PREDICTED BY IDOCK:   -7.06 KCAL/MOL
REMARK 924 INTRA-LIGAND FREE ENERGY PREDICTED BY IDOCK:    0.04 KCAL/MOL
REMARK 927      BINDING AFFINITY PREDICTED BY RF-SCORE:    0.00 PKD
ROOT
HETATM    1  C   UNL     1      -8.385  10.655  69.038  1.00  0.00    -0.153 C  
HETATM    2  C   UNL     1      -6.983  10.528  69.205  1.00  0.00    -0.080 C  
HETATM    3  C   UNL     1      -7.552  10.368  67.839  1.00  0.00    -0.088 C  
HETATM    4  C   UNL     1      -9.479  11.083  67.509  1.00  0.00    -0.163 C  
HETATM    5  C   UNL     1      -8.230  11.636  67.381  1.00  0.00    -0.153 C  
HETATM    6  C   UNL     1     -10.953   6.869  67.094  1.00  0.00    -0.427 C  
HETATM    7  C   UNL     1      -8.881   8.162  70.036  1.00  0.00    -0.139 C  
HETATM    8  C   UNL     1      -9.449   6.734  67.346  1.00  0.00    -0.150 C  
HETATM    9  C   UNL     1      -8.583   5.904  66.290  1.00  0.00    -0.132 C  
HETATM   10  C   UNL     1      -8.121  10.576  65.801  1.00  0.00    -0.158 C  
HETATM   11  C   UNL     1      -7.828   4.814  66.516  1.00  0.00    -0.099 C  
HETATM   12  C   UNL     1      -7.799  13.068  67.575  1.00  0.00    -0.178 C  
HETATM   13  O   UNL     1      -9.721   3.404  66.975  1.00  0.00    -0.149 OA 
HETATM   14  C   UNL     1      -8.960   9.096  65.983  1.00  0.00    -0.181 C  
HETATM   15  C   UNL     1      -8.885   4.177  67.414  1.00  0.00    -0.116 C  
HETATM   16  C   UNL     1      -8.906   4.762  68.763  1.00  0.00    -0.122 C  
HETATM   17  O   UNL     1     -10.331   9.412  65.710  1.00  0.00    -0.257 OA 
HETATM   18  C   UNL     1      -9.276   6.047  68.730  1.00  0.00    -0.123 C  
HETATM   19  C   UNL     1      -8.811   8.162  67.374  1.00  0.00    -0.131 C  
HETATM   20  C   UNL     1      -9.582   6.818  69.985  1.00  0.00    -0.160 C  
HETATM   21  H   UNL     1     -10.797   8.590  65.812  1.00  0.00     0.000 HD 
HETATM   22  C   UNL     1      -9.152   9.000  68.786  1.00  0.00    -0.137 C  
ENDROOT
BRANCH   4  23
HETATM   23  O   UNL     1     -10.187  12.011  68.629  1.00  0.00    -0.214 OA 
BRANCH  23  24
HETATM   24  C   UNL     1     -11.555  12.190  68.801  1.00  0.00    -0.327 C  
HETATM   25  O   UNL     1     -12.142  13.247  68.654  1.00  0.00    -0.337 OA 
BRANCH  24  26
HETATM   26  O   UNL     1     -12.180  10.975  68.906  1.00  0.00    -0.519 OA 
BRANCH  26  27
HETATM   27  C   UNL     1     -12.715  10.724  70.227  1.00  0.00    -0.216 C  
HETATM   28  C   UNL     1     -11.781   9.943  71.146  1.00  0.00    -0.478 C  
ENDBRANCH  26  27
ENDBRANCH  24  26
ENDBRANCH  23  24
ENDBRANCH   4  23
BRANCH   4  29
HETATM   29  C   UNL     1     -10.170  12.111  66.192  1.00  0.00    -0.227 C  
HETATM   30  O   UNL     1      -9.735  13.215  65.850  1.00  0.00    -0.256 OA 
BRANCH  29  31
HETATM   31  O   UNL     1     -11.309  11.673  65.538  1.00  0.00    -0.265 OA 
HETATM   32  C   UNL     1     -11.825  12.696  64.599  1.00  0.00    -0.380 C  
HETATM   33 CL   UNL     1     -12.782  13.947  65.445  1.00  0.00    -0.545 Cl 
ENDBRANCH  29  31
ENDBRANCH   4  29
TORSDOF 6
ENDMDL
MODEL       23
REMARK 921   NORMALIZED FREE ENERGY PREDICTED BY IDOCK:   -5.41 KCAL/MOL
REMARK 922        TOTAL FREE ENERGY PREDICTED BY IDOCK:   -7.00 KCAL/MOL
REMARK 923 INTER-LIGAND FREE ENERGY PREDICTED BY IDOCK:   -6.98 KCAL/MOL
REMARK 924 INTRA-LIGAND FREE ENERGY PREDICTED BY IDOCK:   -0.03 KCAL/MOL
REMARK 927      BINDING AFFINITY PREDICTED BY RF-SCORE:    0.00 PKD
ROOT
HETATM    1  C   UNL     1      -7.504  10.082  67.123  1.00  0.00    -0.091 C  
HETATM    2  C   UNL     1      -6.739   8.958  66.720  1.00  0.00    -0.072 C  
HETATM    3  C   UNL     1      -8.224   8.863  66.666  1.00  0.00    -0.111 C  
HETATM    4  C   UNL     1      -9.305  10.641  66.722  1.00  0.00    -0.157 C  
HETATM    5  C   UNL     1      -8.798   9.874  65.703  1.00  0.00    -0.184 C  
HETATM    6  C   UNL     1     -10.789   9.589  70.819  1.00  0.00    -0.386 C  
HETATM    7  C   UNL     1      -7.110   9.588  69.779  1.00  0.00    -0.075 C  
HETATM    8  C   UNL     1      -9.905   8.409  70.409  1.00  0.00    -0.194 C  
HETATM    9  C   UNL     1     -10.541   6.943  70.452  1.00  0.00    -0.247 C  
HETATM   10  C   UNL     1     -10.264   8.719  66.086  1.00  0.00    -0.028 C  
HETATM   11  C   UNL     1     -10.119   5.880  71.158  1.00  0.00    -0.249 C  
HETATM   12  C   UNL     1      -8.278  10.306  64.355  1.00  0.00    -0.159 C  
HETATM   13  O   UNL     1     -10.715   6.850  73.276  1.00  0.00    -0.284 OA 
HETATM   14  C   UNL     1     -10.639   8.718  67.755  1.00  0.00    -0.191 C  
HETATM   15  C   UNL     1      -9.867   6.717  72.409  1.00  0.00    -0.158 C  
HETATM   16  C   UNL     1      -8.616   7.487  72.329  1.00  0.00    -0.141 C  
HETATM   17  O   UNL     1     -11.463   9.875  67.951  1.00  0.00    -0.569 OA 
HETATM   18  C   UNL     1      -8.673   8.407  71.359  1.00  0.00    -0.218 C  
HETATM   19  C   UNL     1      -9.439   8.616  68.930  1.00  0.00    -0.146 C  
HETATM   20  C   UNL     1      -7.615   9.464  71.204  1.00  0.00     0.042 C  
HETATM   21  H   UNL     1     -11.671   9.875  68.878  1.00  0.00     0.000 HD 
HETATM   22  C   UNL     1      -8.250   9.788  68.780  1.00  0.00    -0.108 C  
ENDROOT
BRANCH   4  23
HETATM   23  O   UNL     1      -8.530  12.051  66.552  1.00  0.00    -0.160 OA 
BRANCH  23  24
HETATM   24  C   UNL     1      -8.884  13.258  67.142  1.00  0.00    -0.222 C  
HETATM   25  O   UNL     1      -8.860  14.340  66.582  1.00  0.00    -0.223 OA 
BRANCH  24  26
HETATM   26  O   UNL     1      -9.500  13.032  68.346  1.00  0.00    -0.215 OA 
BRANCH  26  27
HETATM   27  C   UNL     1     -10.477  14.045  68.682  1.00  0.00    -0.247 C  
HETATM   28  C   UNL     1     -11.664  13.532  69.490  1.00  0.00    -0.382 C  
ENDBRANCH  26  27
ENDBRANCH  24  26
ENDBRANCH  23  24
ENDBRANCH   4  23
BRANCH   4  29
HETATM   29  C   UNL     1     -10.673  11.247  65.706  1.00  0.00    -0.223 C  
HETATM   30  O   UNL     1     -10.731  11.175  64.476  1.00  0.00    -0.336 OA 
BRANCH  29  31
HETATM   31  O   UNL     1     -11.724  11.898  66.331  1.00  0.00    -0.522 OA 
HETATM   32  C   UNL     1     -12.511  12.706  65.371  1.00  0.00    -0.355 C  
HETATM   33 CL   UNL     1     -11.727  14.278  65.033  1.00  0.00    -0.365 Cl 
ENDBRANCH  29  31
ENDBRANCH   4  29
TORSDOF 6
ENDMDL
MODEL       24
REMARK 921   NORMALIZED FREE ENERGY PREDICTED BY IDOCK:   -5.41 KCAL/MOL
REMARK 922        TOTAL FREE ENERGY PREDICTED BY IDOCK:   -7.00 KCAL/MOL
REMARK 923 INTER-LIGAND FREE ENERGY PREDICTED BY IDOCK:   -7.68 KCAL/MOL
REMARK 924 INTRA-LIGAND FREE ENERGY PREDICTED BY IDOCK:    0.68 KCAL/MOL
REMARK 927      BINDING AFFINITY PREDICTED BY RF-SCORE:    0.00 PKD
ROOT
HETATM    1  C   UNL     1     -10.266  16.047  65.371  1.00  0.00    -0.333 C  
HETATM    2  C   UNL     1     -11.645  16.068  65.043  1.00  0.00     0.098 C  
HETATM    3  C   UNL     1     -11.253  16.218  66.471  1.00  0.00     0.267 C  
HETATM    4  C   UNL     1      -9.276  16.730  66.877  1.00  0.00    -0.232 C  
HETATM    5  C   UNL     1     -10.421  17.460  66.678  1.00  0.00    -0.253 C  
HETATM    6  C   UNL     1      -8.581  12.638  68.571  1.00  0.00    -0.051 C  
HETATM    7  C   UNL     1     -10.098  13.332  65.131  1.00  0.00    -0.249 C  
HETATM    8  C   UNL     1     -10.053  12.642  68.151  1.00  0.00    -0.231 C  
HETATM    9  C   UNL     1     -11.149  12.261  69.249  1.00  0.00    -0.220 C  
HETATM   10  C   UNL     1     -10.867  16.904  68.446  1.00  0.00    -0.347 C  
HETATM   11  C   UNL     1     -12.049  11.262  69.207  1.00  0.00    -0.372 C  
HETATM   12  C   UNL     1     -10.584  18.827  66.062  1.00  0.00    -0.442 C  
HETATM   13  O   UNL     1     -10.383   9.539  69.403  1.00  0.00    -0.195 OA 
HETATM   14  C   UNL     1     -10.274  15.333  68.774  1.00  0.00    -0.227 C  
HETATM   15  C   UNL     1     -11.029  10.266  68.665  1.00  0.00    -0.244 C  
HETATM   16  C   UNL     1     -10.773  10.446  67.228  1.00  0.00    -0.331 C  
HETATM   17  O   UNL     1      -8.904  15.524  69.149  1.00  0.00    -0.217 OA 
HETATM   18  C   UNL     1     -10.198  11.628  66.981  1.00  0.00    -0.240 C  
HETATM   19  C   UNL     1     -10.436  14.078  67.664  1.00  0.00    -0.245 C  
HETATM   20  C   UNL     1      -9.641  11.973  65.626  1.00  0.00    -0.205 C  
HETATM   21  H   UNL     1      -8.575  14.651  69.330  1.00  0.00     0.000 HD 
HETATM   22  C   UNL     1      -9.818  14.439  66.148  1.00  0.00    -0.340 C  
ENDROOT
BRANCH   4  23
HETATM   23  O   UNL     1      -8.313  17.208  65.669  1.00  0.00    -0.450 OA 
BRANCH  23  24
HETATM   24  C   UNL     1      -6.999  17.645  65.791  1.00  0.00    -0.119 C  
HETATM   25  O   UNL     1      -6.054  16.936  66.087  1.00  0.00    -0.221 OA 
BRANCH  24  26
HETATM   26  O   UNL     1      -6.876  18.914  65.287  1.00  0.00    -0.474 OA 
BRANCH  26  27
HETATM   27  C   UNL     1      -5.773  19.052  64.360  1.00  0.00    -0.276 C  
HETATM   28  C   UNL     1      -5.902  20.227  63.397  1.00  0.00    -0.281 C  
ENDBRANCH  26  27
ENDBRANCH  24  26
ENDBRANCH  23  24
ENDBRANCH   4  23
BRANCH   4  29
HETATM   29  C   UNL     1      -8.561  17.981  67.970  1.00  0.00    -0.264 C  
HETATM   30  O   UNL     1      -8.924  19.159  68.037  1.00  0.00    -0.294 OA 
BRANCH  29  31
HETATM   31  O   UNL     1      -7.482  17.628  68.763  1.00  0.00    -0.254 OA 
HETATM   32  C   UNL     1      -6.904  18.806  69.451  1.00  0.00    -0.189 C  
HETATM   33 CL   UNL     1      -5.819  19.734  68.373  1.00  0.00    -0.250 Cl 
ENDBRANCH  29  31
ENDBRANCH   4  29
TORSDOF 6
ENDMDL
MODEL       25
REMARK 921   NORMALIZED FREE ENERGY PREDICTED BY IDOCK:   -5.36 KCAL/MOL
REMARK 922        TOTAL FREE ENERGY PREDICTED BY IDOCK:   -6.93 KCAL/MOL
REMARK 923 INTER-LIGAND FREE ENERGY PREDICTED BY IDOCK:   -7.05 KCAL/MOL
REMARK 924 INTRA-LIGAND FREE ENERGY PREDICTED BY IDOCK:    0.12 KCAL/MOL
REMARK 927      BINDING AFFINITY PREDICTED BY RF-SCORE:    0.00 PKD
ROOT
HETATM    1  C   UNL     1      -8.052   8.812  66.932  1.00  0.00    -0.101 C  
HETATM    2  C   UNL     1      -6.775   9.220  66.470  1.00  0.00    -0.072 C  
HETATM    3  C   UNL     1      -7.387   9.958  67.608  1.00  0.00    -0.090 C  
HETATM    4  C   UNL     1      -8.958   9.039  68.618  1.00  0.00    -0.137 C  
HETATM    5  C   UNL     1      -7.598   9.050  68.795  1.00  0.00    -0.087 C  
HETATM    6  C   UNL     1     -11.793  12.083  66.946  1.00  0.00    -0.250 C  
HETATM    7  C   UNL     1      -9.355  10.011  64.853  1.00  0.00    -0.324 C  
HETATM    8  C   UNL     1     -10.422  12.479  66.391  1.00  0.00    -0.269 C  
HETATM    9  C   UNL     1      -9.911  13.971  66.649  1.00  0.00    -0.288 C  
HETATM   10  C   UNL     1      -7.885  10.798  69.497  1.00  0.00    -0.045 C  
HETATM   11  C   UNL     1      -9.572  14.898  65.736  1.00  0.00    -0.311 C  
HETATM   12  C   UNL     1      -6.699   7.965  69.333  1.00  0.00    -0.039 C  
HETATM   13  O   UNL     1     -11.825  15.169  64.942  1.00  0.00    -0.328 OA 
HETATM   14  C   UNL     1      -9.177  11.587  68.700  1.00  0.00    -0.132 C  
HETATM   15  C   UNL     1     -10.768  14.567  64.848  1.00  0.00    -0.429 C  
HETATM   16  C   UNL     1     -10.564  13.341  64.061  1.00  0.00    -0.217 C  
HETATM   17  O   UNL     1     -10.362  11.102  69.345  1.00  0.00    -0.390 OA 
HETATM   18  C   UNL     1     -10.472  12.266  64.852  1.00  0.00    -0.321 C  
HETATM   19  C   UNL     1      -9.333  11.552  67.025  1.00  0.00    -0.185 C  
HETATM   20  C   UNL     1     -10.474  10.868  64.296  1.00  0.00    -0.405 C  
HETATM   21  H   UNL     1     -11.079  11.540  68.902  1.00  0.00     0.000 HD 
HETATM   22  C   UNL     1      -9.343  10.003  66.383  1.00  0.00    -0.211 C  
ENDROOT
BRANCH   4  23
HETATM   23  O   UNL     1      -9.287   7.481  68.331  1.00  0.00    -0.142 OA 
BRANCH  23  24
HETATM   24  C   UNL     1     -10.541   6.942  68.066  1.00  0.00    -0.222 C  
HETATM   25  O   UNL     1     -11.183   7.142  67.050  1.00  0.00    -0.277 OA 
BRANCH  24  26
HETATM   26  O   UNL     1     -10.836   5.963  68.978  1.00  0.00    -0.296 OA 
BRANCH  26  27
HETATM   27  C   UNL     1      -9.691   5.149  69.326  1.00  0.00    -0.172 C  
HETATM   28  C   UNL     1      -9.465   3.953  68.407  1.00  0.00    -0.210 C  
ENDBRANCH  26  27
ENDBRANCH  24  26
ENDBRANCH  23  24
ENDBRANCH   4  23
BRANCH   4  29
HETATM   29  C   UNL     1      -9.277   8.802  70.383  1.00  0.00    -0.180 C  
HETATM   30  O   UNL     1      -8.423   8.516  71.227  1.00  0.00    -0.132 OA 
BRANCH  29  31
HETATM   31  O   UNL     1     -10.582   8.888  70.838  1.00  0.00    -0.204 OA 
HETATM   32  C   UNL     1     -10.696   8.450  72.248  1.00  0.00    -0.347 C  
HETATM   33 CL   UNL     1     -10.758   6.668  72.384  1.00  0.00    -0.238 Cl 
ENDBRANCH  29  31
ENDBRANCH   4  29
TORSDOF 6
ENDMDL
MODEL       26
REMARK 921   NORMALIZED FREE ENERGY PREDICTED BY IDOCK:   -5.32 KCAL/MOL
REMARK 922        TOTAL FREE ENERGY PREDICTED BY IDOCK:   -6.88 KCAL/MOL
REMARK 923 INTER-LIGAND FREE ENERGY PREDICTED BY IDOCK:   -6.90 KCAL/MOL
REMARK 924 INTRA-LIGAND FREE ENERGY PREDICTED BY IDOCK:    0.02 KCAL/MOL
REMARK 927      BINDING AFFINITY PREDICTED BY RF-SCORE:    0.00 PKD
ROOT
HETATM    1  C   UNL     1      -8.469  12.356  68.454  1.00  0.00    -0.131 C  
HETATM    2  C   UNL     1      -7.099  12.545  68.141  1.00  0.00    -0.103 C  
HETATM    3  C   UNL     1      -8.005  12.028  67.079  1.00  0.00    -0.150 C  
HETATM    4  C   UNL     1     -10.053  12.271  67.359  1.00  0.00    -0.200 C  
HETATM    5  C   UNL     1      -9.085  13.030  66.751  1.00  0.00    -0.212 C  
HETATM    6  C   UNL     1     -10.485   7.844  67.925  1.00  0.00    -0.261 C  
HETATM    7  C   UNL     1      -7.993  10.040  69.819  1.00  0.00    -0.190 C  
HETATM    8  C   UNL     1      -8.993   8.060  67.656  1.00  0.00    -0.138 C  
HETATM    9  C   UNL     1      -8.318   7.241  66.461  1.00  0.00    -0.121 C  
HETATM   10  C   UNL     1      -9.211  11.742  65.351  1.00  0.00    -0.023 C  
HETATM   11  C   UNL     1      -7.285   6.384  66.527  1.00  0.00    -0.073 C  
HETATM   12  C   UNL     1      -8.987  14.529  66.632  1.00  0.00    -0.247 C  
HETATM   13  O   UNL     1      -8.528   4.732  67.756  1.00  0.00    -0.103 OA 
HETATM   14  C   UNL     1      -9.556  10.183  65.966  1.00  0.00    -0.210 C  
HETATM   15  C   UNL     1      -7.817   5.724  67.796  1.00  0.00    -0.098 C  
HETATM   16  C   UNL     1      -7.564   6.529  69.000  1.00  0.00    -0.100 C  
HETATM   17  O   UNL     1     -10.977  10.163  66.151  1.00  0.00     0.089 OA 
HETATM   18  C   UNL     1      -8.233   7.686  68.960  1.00  0.00    -0.127 C  
HETATM   19  C   UNL     1      -8.754   9.567  67.312  1.00  0.00    -0.132 C  
HETATM   20  C   UNL     1      -8.317   8.597  70.155  1.00  0.00    -0.126 C  
HETATM   21  H   UNL     1     -11.168   9.298  66.493  1.00  0.00     0.000 HD 
HETATM   22  C   UNL     1      -8.838  10.564  68.658  1.00  0.00    -0.147 C  
ENDROOT
BRANCH   4  23
HETATM   23  O   UNL     1     -10.587  13.227  68.550  1.00  0.00    -0.247 OA 
BRANCH  23  24
HETATM   24  C   UNL     1     -11.759  13.056  69.278  1.00  0.00    -0.320 C  
HETATM   25  O   UNL     1     -12.521  13.953  69.590  1.00  0.00    -0.300 OA 
BRANCH  24  26
HETATM   26  O   UNL     1     -12.065  11.723  69.371  1.00  0.00    -0.292 OA 
BRANCH  26  27
HETATM   27  C   UNL     1     -12.240  11.276  70.736  1.00  0.00    -0.380 C  
HETATM   28  C   UNL     1     -11.682   9.885  71.021  1.00  0.00    -0.466 C  
ENDBRANCH  26  27
ENDBRANCH  24  26
ENDBRANCH  23  24
ENDBRANCH   4  23
BRANCH   4  29
HETATM   29  C   UNL     1     -11.352  12.882  66.259  1.00  0.00    -0.323 C  
HETATM   30  O   UNL     1     -12.484  12.400  66.158  1.00  0.00    -0.507 OA 
BRANCH  29  31
HETATM   31  O   UNL     1     -11.059  13.938  65.411  1.00  0.00    -0.298 OA 
HETATM   32  C   UNL     1     -12.174  14.208  64.474  1.00  0.00    -0.445 C  
HETATM   33 CL   UNL     1     -12.161  13.080  63.087  1.00  0.00    -0.518 Cl 
ENDBRANCH  29  31
ENDBRANCH   4  29
TORSDOF 6
ENDMDL
MODEL       27
REMARK 921   NORMALIZED FREE ENERGY PREDICTED BY IDOCK:   -5.28 KCAL/MOL
REMARK 922        TOTAL FREE ENERGY PREDICTED BY IDOCK:   -6.82 KCAL/MOL
REMARK 923 INTER-LIGAND FREE ENERGY PREDICTED BY IDOCK:   -7.11 KCAL/MOL
REMARK 924 INTRA-LIGAND FREE ENERGY PREDICTED BY IDOCK:    0.30 KCAL/MOL
REMARK 927      BINDING AFFINITY PREDICTED BY RF-SCORE:    0.00 PKD
ROOT
HETATM    1  C   UNL     1      -8.861   9.571  66.665  1.00  0.00    -0.150 C  
HETATM    2  C   UNL     1      -9.595   8.724  65.797  1.00  0.00    -0.190 C  
HETATM    3  C   UNL     1     -10.347   9.644  66.694  1.00  0.00    -0.279 C  
HETATM    4  C   UNL     1      -9.299  11.232  67.539  1.00  0.00    -0.162 C  
HETATM    5  C   UNL     1     -10.026  11.086  66.385  1.00  0.00    -0.264 C  
HETATM    6  C   UNL     1      -9.639   9.290  71.566  1.00  0.00    -0.162 C  
HETATM    7  C   UNL     1      -8.324   7.552  68.424  1.00  0.00    -0.125 C  
HETATM    8  C   UNL     1     -10.371   8.341  70.612  1.00  0.00    -0.220 C  
HETATM    9  C   UNL     1     -11.881   7.948  70.955  1.00  0.00    -0.285 C  
HETATM   10  C   UNL     1     -11.540  11.188  67.538  1.00  0.00    -0.220 C  
HETATM   11  C   UNL     1     -12.389   6.721  71.161  1.00  0.00    -0.386 C  
HETATM   12  C   UNL     1      -9.828  11.750  65.046  1.00  0.00    -0.257 C  
HETATM   13  O   UNL     1     -11.205   6.405  73.230  1.00  0.00    -0.175 OA 
HETATM   14  C   UNL     1     -11.214  10.477  69.060  1.00  0.00    -0.259 C  
HETATM   15  C   UNL     1     -11.200   6.291  72.015  1.00  0.00    -0.281 C  
HETATM   16  C   UNL     1     -10.019   5.951  71.207  1.00  0.00    -0.232 C  
HETATM   17  O   UNL     1     -10.539  11.496  69.809  1.00  0.00    -0.436 OA 
HETATM   18  C   UNL     1      -9.550   7.022  70.558  1.00  0.00    -0.169 C  
HETATM   19  C   UNL     1     -10.426   8.996  69.192  1.00  0.00    -0.239 C  
HETATM   20  C   UNL     1      -8.232   6.997  69.832  1.00  0.00    -0.130 C  
HETATM   21  H   UNL     1     -10.358  11.101  70.653  1.00  0.00     0.000 HD 
HETATM   22  C   UNL     1      -8.951   8.946  68.395  1.00  0.00    -0.134 C  
ENDROOT
BRANCH   4  23
HETATM   23  O   UNL     1      -7.813  11.580  67.006  1.00  0.00    -0.148 OA 
BRANCH  23  24
HETATM   24  C   UNL     1      -6.813  12.225  67.725  1.00  0.00    -0.109 C  
HETATM   25  O   UNL     1      -6.001  12.998  67.248  1.00  0.00    -0.319 OA 
BRANCH  24  26
HETATM   26  O   UNL     1      -7.026  12.071  69.070  1.00  0.00    -0.102 OA 
BRANCH  26  27
HETATM   27  C   UNL     1      -5.854  11.605  69.780  1.00  0.00    -0.111 C  
HETATM   28  C   UNL     1      -6.077  10.342  70.606  1.00  0.00    -0.096 C  
ENDBRANCH  26  27
ENDBRANCH  24  26
ENDBRANCH  23  24
ENDBRANCH   4  23
BRANCH   4  29
HETATM   29  C   UNL     1      -9.688  12.993  67.669  1.00  0.00    -0.212 C  
HETATM   30  O   UNL     1      -9.992  13.579  68.712  1.00  0.00    -0.182 OA 
BRANCH  29  31
HETATM   31  O   UNL     1      -9.708  13.754  66.512  1.00  0.00    -0.277 OA 
HETATM   32  C   UNL     1     -10.756  14.799  66.565  1.00  0.00    -0.319 C  
HETATM   33 CL   UNL     1     -12.369  14.137  66.167  1.00  0.00    -0.481 Cl 
ENDBRANCH  29  31
ENDBRANCH   4  29
TORSDOF 6
ENDMDL
MODEL       28
REMARK 921   NORMALIZED FREE ENERGY PREDICTED BY IDOCK:   -5.24 KCAL/MOL
REMARK 922        TOTAL FREE ENERGY PREDICTED BY IDOCK:   -6.76 KCAL/MOL
REMARK 923 INTER-LIGAND FREE ENERGY PREDICTED BY IDOCK:   -6.98 KCAL/MOL
REMARK 924 INTRA-LIGAND FREE ENERGY PREDICTED BY IDOCK:    0.22 KCAL/MOL
REMARK 927      BINDING AFFINITY PREDICTED BY RF-SCORE:    0.00 PKD
ROOT
HETATM    1  C   UNL     1     -10.903   7.377  69.079  1.00  0.00    -0.108 C  
HETATM    2  C   UNL     1     -10.688   6.199  68.319  1.00  0.00    -0.361 C  
HETATM    3  C   UNL     1      -9.618   6.648  69.251  1.00  0.00    -0.145 C  
HETATM    4  C   UNL     1     -10.141   8.017  70.729  1.00  0.00    -0.192 C  
HETATM    5  C   UNL     1     -10.106   6.646  70.679  1.00  0.00    -0.205 C  
HETATM    6  C   UNL     1      -7.709  11.160  68.654  1.00  0.00    -0.135 C  
HETATM    7  C   UNL     1     -10.385   9.018  66.959  1.00  0.00    -0.339 C  
HETATM    8  C   UNL     1      -7.536   9.903  67.797  1.00  0.00    -0.090 C  
HETATM    9  C   UNL     1      -6.050   9.399  67.494  1.00  0.00    -0.053 C  
HETATM   10  C   UNL     1      -8.220   6.870  70.837  1.00  0.00    -0.118 C  
HETATM   11  C   UNL     1      -5.463   9.232  66.296  1.00  0.00    -0.044 C  
HETATM   12  C   UNL     1     -10.988   5.646  71.382  1.00  0.00    -0.260 C  
HETATM   13  O   UNL     1      -5.403  11.588  65.818  1.00  0.00    -0.264 OA 
HETATM   14  C   UNL     1      -7.691   8.291  70.045  1.00  0.00    -0.095 C  
HETATM   15  C   UNL     1      -6.028  10.541  65.753  1.00  0.00    -0.129 C  
HETATM   16  C   UNL     1      -7.442  10.428  65.366  1.00  0.00    -0.127 C  
HETATM   17  O   UNL     1      -7.923   9.348  70.985  1.00  0.00    -0.303 OA 
HETATM   18  C   UNL     1      -8.218  10.185  66.428  1.00  0.00    -0.122 C  
HETATM   19  C   UNL     1      -8.243   8.704  68.510  1.00  0.00    -0.122 C  
HETATM   20  C   UNL     1      -9.719  10.234  66.343  1.00  0.00    -0.252 C  
HETATM   21  H   UNL     1      -7.630  10.137  70.545  1.00  0.00     0.000 HD 
HETATM   22  C   UNL     1      -9.915   8.770  68.393  1.00  0.00    -0.200 C  
ENDROOT
BRANCH   4  23
HETATM   23  O   UNL     1     -11.703   8.343  70.997  1.00  0.00    -0.277 OA 
BRANCH  23  24
HETATM   24  C   UNL     1     -12.232   9.573  71.371  1.00  0.00    -0.371 C  
HETATM   25  O   UNL     1     -13.082   9.732  72.229  1.00  0.00    -0.416 OA 
BRANCH  24  26
HETATM   26  O   UNL     1     -11.489  10.590  70.831  1.00  0.00    -0.328 OA 
BRANCH  26  27
HETATM   27  C   UNL     1     -12.023  11.076  69.577  1.00  0.00    -0.342 C  
HETATM   28  C   UNL     1     -11.373  12.360  69.071  1.00  0.00    -0.336 C  
ENDBRANCH  26  27
ENDBRANCH  24  26
ENDBRANCH  23  24
ENDBRANCH   4  23
BRANCH   4  29
HETATM   29  C   UNL     1      -9.808   8.052  72.506  1.00  0.00    -0.263 C  
HETATM   30  O   UNL     1      -8.935   8.733  73.052  1.00  0.00    -0.309 OA 
BRANCH  29  31
HETATM   31  O   UNL     1     -10.539   7.216  73.334  1.00  0.00    -0.325 OA 
HETATM   32  C   UNL     1      -9.746   6.784  74.508  1.00  0.00    -0.238 C  
HETATM   33 CL   UNL     1      -8.645   5.435  74.102  1.00  0.00    -0.114 Cl 
ENDBRANCH  29  31
ENDBRANCH   4  29
TORSDOF 6
ENDMDL
MODEL       29
REMARK 921   NORMALIZED FREE ENERGY PREDICTED BY IDOCK:   -5.22 KCAL/MOL
REMARK 922        TOTAL FREE ENERGY PREDICTED BY IDOCK:   -6.74 KCAL/MOL
REMARK 923 INTER-LIGAND FREE ENERGY PREDICTED BY IDOCK:   -6.96 KCAL/MOL
REMARK 924 INTRA-LIGAND FREE ENERGY PREDICTED BY IDOCK:    0.22 KCAL/MOL
REMARK 927      BINDING AFFINITY PREDICTED BY RF-SCORE:    0.00 PKD
ROOT
HETATM    1  C   UNL     1      -8.317   9.567  70.500  1.00  0.00    -0.203 C  
HETATM    2  C   UNL     1      -6.979   9.200  70.792  1.00  0.00    -0.097 C  
HETATM    3  C   UNL     1      -7.735   8.394  69.794  1.00  0.00    -0.093 C  
HETATM    4  C   UNL     1      -9.454   9.238  68.978  1.00  0.00    -0.155 C  
HETATM    5  C   UNL     1      -8.133   9.234  68.606  1.00  0.00    -0.105 C  
HETATM    6  C   UNL     1     -11.954   6.253  71.200  1.00  0.00    -0.154 C  
HETATM    7  C   UNL     1      -9.280   8.465  72.806  1.00  0.00    -0.311 C  
HETATM    8  C   UNL     1     -10.510   5.904  71.569  1.00  0.00    -0.287 C  
HETATM    9  C   UNL     1     -10.011   4.407  71.317  1.00  0.00    -0.245 C  
HETATM   10  C   UNL     1      -8.484   7.447  68.044  1.00  0.00    -0.123 C  
HETATM   11  C   UNL     1      -9.524   3.535  72.218  1.00  0.00    -0.183 C  
HETATM   12  C   UNL     1      -7.345  10.300  67.888  1.00  0.00    -0.087 C  
HETATM   13  O   UNL     1     -11.633   3.279  73.345  1.00  0.00    -0.131 OA 
HETATM   14  C   UNL     1      -9.630   6.686  69.061  1.00  0.00    -0.133 C  
HETATM   15  C   UNL     1     -10.585   3.898  73.252  1.00  0.00    -0.188 C  
HETATM   16  C   UNL     1     -10.295   5.168  73.937  1.00  0.00    -0.289 C  
HETATM   17  O   UNL     1     -10.906   7.120  68.571  1.00  0.00    -0.352 OA 
HETATM   18  C   UNL     1     -10.340   6.199  73.086  1.00  0.00    -0.235 C  
HETATM   19  C   UNL     1      -9.543   6.809  70.737  1.00  0.00    -0.173 C  
HETATM   20  C   UNL     1     -10.290   7.625  73.564  1.00  0.00    -0.306 C  
HETATM   21  H   UNL     1     -11.542   6.698  69.136  1.00  0.00     0.000 HD 
HETATM   22  C   UNL     1      -9.491   8.390  71.293  1.00  0.00    -0.240 C  
ENDROOT
BRANCH   4  23
HETATM   23  O   UNL     1      -9.769  10.804  69.229  1.00  0.00    -0.198 OA 
BRANCH  23  24
HETATM   24  C   UNL     1     -11.029  11.388  69.293  1.00  0.00    -0.229 C  
HETATM   25  O   UNL     1     -11.323  12.463  68.802  1.00  0.00    -0.249 OA 
BRANCH  24  26
HETATM   26  O   UNL     1     -11.946  10.480  69.755  1.00  0.00    -0.272 OA 
BRANCH  26  27
HETATM   27  C   UNL     1     -12.591  10.900  70.981  1.00  0.00    -0.417 C  
HETATM   28  C   UNL     1     -13.267   9.774  71.755  1.00  0.00    -0.532 C  
ENDBRANCH  26  27
ENDBRANCH  24  26
ENDBRANCH  23  24
ENDBRANCH   4  23
BRANCH   4  29
HETATM   29  C   UNL     1     -10.029   9.375  67.269  1.00  0.00    -0.196 C  
HETATM   30  O   UNL     1     -10.805   8.590  66.715  1.00  0.00    -0.153 OA 
BRANCH  29  31
HETATM   31  O   UNL     1      -9.531  10.400  66.483  1.00  0.00    -0.160 OA 
HETATM   32  C   UNL     1      -9.635  10.078  65.040  1.00  0.00    -0.297 C  
HETATM   33 CL   UNL     1      -8.304   9.010  64.505  1.00  0.00    -0.167 Cl 
ENDBRANCH  29  31
ENDBRANCH   4  29
TORSDOF 6
ENDMDL
MODEL       30
REMARK 921   NORMALIZED FREE ENERGY PREDICTED BY IDOCK:   -5.19 KCAL/MOL
REMARK 922        TOTAL FREE ENERGY PREDICTED BY IDOCK:   -6.70 KCAL/MOL
REMARK 923 INTER-LIGAND FREE ENERGY PREDICTED BY IDOCK:   -7.11 KCAL/MOL
REMARK 924 INTRA-LIGAND FREE ENERGY PREDICTED BY IDOCK:    0.41 KCAL/MOL
REMARK 927      BINDING AFFINITY PREDICTED BY RF-SCORE:    0.00 PKD
ROOT
HETATM    1  C   UNL     1      -8.590  10.667  69.324  1.00  0.00    -0.096 C  
HETATM    2  C   UNL     1      -7.174  10.605  69.342  1.00  0.00    -0.126 C  
HETATM    3  C   UNL     1      -7.900   9.916  68.241  1.00  0.00    -0.085 C  
HETATM    4  C   UNL     1      -9.883  10.456  67.910  1.00  0.00    -0.154 C  
HETATM    5  C   UNL     1      -8.685  10.900  67.409  1.00  0.00    -0.130 C  
HETATM    6  C   UNL     1     -11.208   6.443  69.408  1.00  0.00    -0.459 C  
HETATM    7  C   UNL     1      -8.847   8.789  71.290  1.00  0.00    -0.288 C  
HETATM    8  C   UNL     1      -9.679   6.407  69.493  1.00  0.00    -0.167 C  
HETATM    9  C   UNL     1      -8.914   5.215  68.752  1.00  0.00    -0.120 C  
HETATM   10  C   UNL     1      -8.726   9.294  66.383  1.00  0.00    -0.148 C  
HETATM   11  C   UNL     1      -8.090   4.300  69.292  1.00  0.00    -0.066 C  
HETATM   12  C   UNL     1      -8.298  12.285  66.957  1.00  0.00    -0.168 C  
HETATM   13  O   UNL     1      -9.847   3.210  70.520  1.00  0.00    -0.111 OA 
HETATM   14  C   UNL     1      -9.469   8.019  67.249  1.00  0.00    -0.155 C  
HETATM   15  C   UNL     1      -8.998   4.087  70.500  1.00  0.00    -0.097 C  
HETATM   16  C   UNL     1      -8.878   5.164  71.494  1.00  0.00    -0.145 C  
HETATM   17  O   UNL     1     -10.876   8.211  67.056  1.00  0.00    -0.431 OA 
HETATM   18  C   UNL     1      -9.306   6.331  71.000  1.00  0.00    -0.170 C  
HETATM   19  C   UNL     1      -9.107   7.720  68.865  1.00  0.00    -0.141 C  
HETATM   20  C   UNL     1      -9.488   7.544  71.871  1.00  0.00    -0.173 C  
HETATM   21  H   UNL     1     -11.289   7.503  67.537  1.00  0.00     0.000 HD 
HETATM   22  C   UNL     1      -9.307   9.057  69.857  1.00  0.00    -0.182 C  
ENDROOT
BRANCH   4  23
HETATM   23  O   UNL     1     -10.487  11.761  68.649  1.00  0.00    -0.215 OA 
BRANCH  23  24
HETATM   24  C   UNL     1     -11.697  11.832  69.331  1.00  0.00    -0.341 C  
HETATM   25  O   UNL     1     -12.199  10.914  69.954  1.00  0.00    -0.325 OA 
BRANCH  24  26
HETATM   26  O   UNL     1     -12.113  13.135  69.419  1.00  0.00    -0.292 OA 
BRANCH  26  27
HETATM   27  C   UNL     1     -11.114  14.081  68.969  1.00  0.00    -0.264 C  
HETATM   28  C   UNL     1     -11.459  15.541  69.243  1.00  0.00    -0.349 C  
ENDBRANCH  26  27
ENDBRANCH  24  26
ENDBRANCH  23  24
ENDBRANCH   4  23
BRANCH   4  29
HETATM   29  C   UNL     1     -10.776  10.875  66.395  1.00  0.00    -0.194 C  
HETATM   30  O   UNL     1     -10.441  10.538  65.256  1.00  0.00    -0.262 OA 
BRANCH  29  31
HETATM   31  O   UNL     1     -11.897  11.684  66.488  1.00  0.00    -0.500 OA 
HETATM   32  C   UNL     1     -12.083  12.499  65.266  1.00  0.00    -0.444 C  
HETATM   33 CL   UNL     1     -11.030  13.944  65.268  1.00  0.00    -0.317 Cl 
ENDBRANCH  29  31
ENDBRANCH   4  29
TORSDOF 6
ENDMDL
MODEL       31
REMARK 921   NORMALIZED FREE ENERGY PREDICTED BY IDOCK:   -5.17 KCAL/MOL
REMARK 922        TOTAL FREE ENERGY PREDICTED BY IDOCK:   -6.67 KCAL/MOL
REMARK 923 INTER-LIGAND FREE ENERGY PREDICTED BY IDOCK:   -7.50 KCAL/MOL
REMARK 924 INTRA-LIGAND FREE ENERGY PREDICTED BY IDOCK:    0.83 KCAL/MOL
REMARK 927      BINDING AFFINITY PREDICTED BY RF-SCORE:    0.00 PKD
ROOT
HETATM    1  C   UNL     1      -9.993   8.985  68.085  1.00  0.00    -0.206 C  
HETATM    2  C   UNL     1     -11.025   8.134  67.616  1.00  0.00     0.066 C  
HETATM    3  C   UNL     1     -10.001   8.608  66.646  1.00  0.00    -0.357 C  
HETATM    4  C   UNL     1      -8.227   9.378  67.417  1.00  0.00    -0.121 C  
HETATM    5  C   UNL     1      -8.624   8.123  67.029  1.00  0.00    -0.124 C  
HETATM    6  C   UNL     1      -9.415  13.469  66.019  1.00  0.00    -0.109 C  
HETATM    7  C   UNL     1     -11.621  11.177  68.141  1.00  0.00    -0.350 C  
HETATM    8  C   UNL     1     -10.562  12.556  65.577  1.00  0.00    -0.304 C  
HETATM    9  C   UNL     1     -10.971  12.559  64.032  1.00  0.00    -0.443 C  
HETATM   10  C   UNL     1      -8.399   8.797  65.260  1.00  0.00    -0.168 C  
HETATM   11  C   UNL     1     -12.167  12.857  63.494  1.00  0.00    -0.595 C  
HETATM   12  C   UNL     1      -8.206   6.781  67.576  1.00  0.00    -0.122 C  
HETATM   13  O   UNL     1     -12.030  15.185  64.081  1.00  0.00    -0.467 OA 
HETATM   14  C   UNL     1      -8.799  10.457  65.169  1.00  0.00    -0.189 C  
HETATM   15  C   UNL     1     -12.364  14.059  64.413  1.00  0.00    -0.367 C  
HETATM   16  C   UNL     1     -12.778  13.671  65.770  1.00  0.00    -0.470 C  
HETATM   17  O   UNL     1      -7.623  11.147  65.612  1.00  0.00    -0.364 OA 
HETATM   18  C   UNL     1     -11.820  12.974  66.390  1.00  0.00    -0.465 C  
HETATM   19  C   UNL     1     -10.183  11.074  65.902  1.00  0.00    -0.309 C  
HETATM   20  C   UNL     1     -11.901  12.639  67.854  1.00  0.00    -0.388 C  
HETATM   21  H   UNL     1      -7.846  12.069  65.562  1.00  0.00     0.000 HD 
HETATM   22  C   UNL     1     -10.294  10.717  67.536  1.00  0.00    -0.254 C  
ENDROOT
BRANCH   4  23
HETATM   23  O   UNL     1      -7.898   9.197  68.991  1.00  0.00    -0.087 OA 
BRANCH  23  24
HETATM   24  C   UNL     1      -7.326  10.151  69.825  1.00  0.00    -0.158 C  
HETATM   25  O   UNL     1      -6.983  11.265  69.473  1.00  0.00    -0.122 OA 
BRANCH  24  26
HETATM   26  O   UNL     1      -7.440   9.761  71.134  1.00  0.00    -0.301 OA 
BRANCH  26  27
HETATM   27  C   UNL     1      -8.132   8.501  71.292  1.00  0.00    -0.136 C  
HETATM   28  C   UNL     1      -9.389   8.576  72.153  1.00  0.00    -0.353 C  
ENDBRANCH  26  27
ENDBRANCH  24  26
ENDBRANCH  23  24
ENDBRANCH   4  23
BRANCH   4  29
HETATM   29  C   UNL     1      -6.497   9.060  66.998  1.00  0.00    -0.061 C  
HETATM   30  O   UNL     1      -5.613   9.919  66.928  1.00  0.00    -0.045 OA 
BRANCH  29  31
HETATM   31  O   UNL     1      -6.122   7.768  66.670  1.00  0.00    -0.045 OA 
HETATM   32  C   UNL     1      -5.156   7.750  65.547  1.00  0.00    -0.028 C  
HETATM   33 CL   UNL     1      -5.977   7.921  63.967  1.00  0.00    -0.056 Cl 
ENDBRANCH  29  31
ENDBRANCH   4  29
TORSDOF 6
ENDMDL
MODEL       32
REMARK 921   NORMALIZED FREE ENERGY PREDICTED BY IDOCK:   -5.15 KCAL/MOL
REMARK 922        TOTAL FREE ENERGY PREDICTED BY IDOCK:   -6.65 KCAL/MOL
REMARK 923 INTER-LIGAND FREE ENERGY PREDICTED BY IDOCK:   -6.67 KCAL/MOL
REMARK 924 INTRA-LIGAND FREE ENERGY PREDICTED BY IDOCK:    0.02 KCAL/MOL
REMARK 927      BINDING AFFINITY PREDICTED BY RF-SCORE:    0.00 PKD
ROOT
HETATM    1  C   UNL     1     -10.776  10.810  68.943  1.00  0.00    -0.259 C  
HETATM    2  C   UNL     1     -12.149  10.756  68.592  1.00  0.00     0.021 C  
HETATM    3  C   UNL     1     -11.137  10.746  67.501  1.00  0.00    -0.374 C  
HETATM    4  C   UNL     1      -9.175  10.276  68.012  1.00  0.00    -0.135 C  
HETATM    5  C   UNL     1     -10.248   9.530  67.596  1.00  0.00    -0.273 C  
HETATM    6  C   UNL     1      -7.964  14.514  67.190  1.00  0.00    -0.167 C  
HETATM    7  C   UNL     1     -10.861  13.489  69.466  1.00  0.00     0.060 C  
HETATM    8  C   UNL     1      -9.463  14.469  66.880  1.00  0.00    -0.263 C  
HETATM    9  C   UNL     1      -9.947  14.955  65.437  1.00  0.00    -0.367 C  
HETATM   10  C   UNL     1      -9.855  10.255  65.878  1.00  0.00    -0.298 C  
HETATM   11  C   UNL     1     -10.809  15.944  65.144  1.00  0.00    -0.438 C  
HETATM   12  C   UNL     1     -10.613   8.110  67.947  1.00  0.00    -0.212 C  
HETATM   13  O   UNL     1      -9.320  17.678  65.889  1.00  0.00    -0.520 OA 
HETATM   14  C   UNL     1      -9.250  11.851  65.997  1.00  0.00    -0.171 C  
HETATM   15  C   UNL     1     -10.199  16.883  66.180  1.00  0.00    -0.341 C  
HETATM   16  C   UNL     1     -10.626  16.564  67.551  1.00  0.00    -0.313 C  
HETATM   17  O   UNL     1      -7.854  11.698  66.283  1.00  0.00    -0.366 OA 
HETATM   18  C   UNL     1     -10.176  15.364  67.933  1.00  0.00    -0.239 C  
HETATM   19  C   UNL     1      -9.962  12.992  67.009  1.00  0.00    -0.242 C  
HETATM   20  C   UNL     1     -10.290  14.889  69.356  1.00  0.00    -0.217 C  
HETATM   21  H   UNL     1      -7.518  12.584  66.350  1.00  0.00     0.000 HD 
HETATM   22  C   UNL     1     -10.095  12.486  68.602  1.00  0.00    -0.139 C  
ENDROOT
BRANCH   4  23
HETATM   23  O   UNL     1      -8.855   9.684  69.483  1.00  0.00    -0.160 OA 
BRANCH  23  24
HETATM   24  C   UNL     1      -7.771  10.022  70.286  1.00  0.00    -0.073 C  
HETATM   25  O   UNL     1      -7.049  10.987  70.110  1.00  0.00    -0.125 OA 
BRANCH  24  26
HETATM   26  O   UNL     1      -7.785   9.276  71.436  1.00  0.00    -0.334 OA 
BRANCH  26  27
HETATM   27  C   UNL     1      -9.048   8.606  71.661  1.00  0.00    -0.247 C  
HETATM   28  C   UNL     1      -8.986   7.087  71.542  1.00  0.00    -0.139 C  
ENDBRANCH  26  27
ENDBRANCH  24  26
ENDBRANCH  23  24
ENDBRANCH   4  23
BRANCH   4  29
HETATM   29  C   UNL     1      -7.980   9.138  67.272  1.00  0.00    -0.102 C  
HETATM   30  O   UNL     1      -8.255   8.040  66.781  1.00  0.00    -0.108 OA 
BRANCH  29  31
HETATM   31  O   UNL     1      -6.638   9.479  67.296  1.00  0.00    -0.069 OA 
HETATM   32  C   UNL     1      -5.772   8.278  67.281  1.00  0.00    -0.039 C  
HETATM   33 CL   UNL     1      -5.625   7.548  68.907  1.00  0.00    -0.022 Cl 
ENDBRANCH  29  31
ENDBRANCH   4  29
TORSDOF 6
ENDMDL
MODEL       33
REMARK 921   NORMALIZED FREE ENERGY PREDICTED BY IDOCK:   -5.09 KCAL/MOL
REMARK 922        TOTAL FREE ENERGY PREDICTED BY IDOCK:   -6.56 KCAL/MOL
REMARK 923 INTER-LIGAND FREE ENERGY PREDICTED BY IDOCK:   -6.86 KCAL/MOL
REMARK 924 INTRA-LIGAND FREE ENERGY PREDICTED BY IDOCK:    0.30 KCAL/MOL
REMARK 927      BINDING AFFINITY PREDICTED BY RF-SCORE:    0.00 PKD
ROOT
HETATM    1  C   UNL     1     -10.144  12.466  65.530  1.00  0.00    -0.287 C  
HETATM    2  C   UNL     1     -11.122  12.057  64.588  1.00  0.00    -0.375 C  
HETATM    3  C   UNL     1     -11.400  11.849  66.035  1.00  0.00    -0.375 C  
HETATM    4  C   UNL     1     -10.250  12.922  67.399  1.00  0.00    -0.230 C  
HETATM    5  C   UNL     1     -11.447  13.165  66.773  1.00  0.00    -0.386 C  
HETATM    6  C   UNL     1      -8.250   9.118  68.677  1.00  0.00    -0.114 C  
HETATM    7  C   UNL     1      -8.558  10.295  65.052  1.00  0.00    -0.190 C  
HETATM    8  C   UNL     1      -9.258   8.689  67.607  1.00  0.00    -0.148 C  
HETATM    9  C   UNL     1     -10.321   7.559  67.988  1.00  0.00    -0.254 C  
HETATM   10  C   UNL     1     -12.150  11.911  68.024  1.00  0.00    -0.010 C  
HETATM   11  C   UNL     1     -10.511   6.368  67.392  1.00  0.00    -0.312 C  
HETATM   12  C   UNL     1     -12.042  14.480  66.337  1.00  0.00    -0.320 C  
HETATM   13  O   UNL     1      -8.404   5.481  68.137  1.00  0.00    -0.099 OA 
HETATM   14  C   UNL     1     -11.010  10.688  68.390  1.00  0.00    -0.251 C  
HETATM   15  C   UNL     1      -9.012   6.102  67.281  1.00  0.00    -0.112 C  
HETATM   16  C   UNL     1      -8.387   6.848  66.178  1.00  0.00    -0.130 C  
HETATM   17  O   UNL     1     -10.164  11.259  69.395  1.00  0.00    -0.421 OA 
HETATM   18  C   UNL     1      -8.442   8.167  66.391  1.00  0.00    -0.133 C  
HETATM   19  C   UNL     1     -10.108   9.933  67.186  1.00  0.00    -0.270 C  
HETATM   20  C   UNL     1      -7.693   9.143  65.526  1.00  0.00    -0.094 C  
HETATM   21  H   UNL     1      -9.531  10.580  69.598  1.00  0.00     0.000 HD 
HETATM   22  C   UNL     1      -9.261  11.002  66.211  1.00  0.00    -0.200 C  
ENDROOT
BRANCH   4  23
HETATM   23  O   UNL     1      -9.300  14.120  66.873  1.00  0.00    -0.243 OA 
BRANCH  23  24
HETATM   24  C   UNL     1      -7.954  14.294  67.175  1.00  0.00    -0.101 C  
HETATM   25  O   UNL     1      -7.350  15.347  67.079  1.00  0.00    -0.196 OA 
BRANCH  24  26
HETATM   26  O   UNL     1      -7.473  13.191  67.831  1.00  0.00    -0.106 OA 
BRANCH  26  27
HETATM   27  C   UNL     1      -6.286  12.638  67.215  1.00  0.00    -0.094 C  
HETATM   28  C   UNL     1      -5.443  11.766  68.140  1.00  0.00    -0.044 C  
ENDBRANCH  26  27
ENDBRANCH  24  26
ENDBRANCH  23  24
ENDBRANCH   4  23
BRANCH   4  29
HETATM   29  C   UNL     1     -10.709  13.896  68.852  1.00  0.00    -0.236 C  
HETATM   30  O   UNL     1     -11.798  13.841  69.430  1.00  0.00    -0.297 OA 
BRANCH  29  31
HETATM   31  O   UNL     1      -9.804  14.824  69.340  1.00  0.00    -0.168 OA 
HETATM   32  C   UNL     1     -10.460  16.118  69.639  1.00  0.00    -0.291 C  
HETATM   33 CL   UNL     1     -10.685  17.101  68.162  1.00  0.00    -0.375 Cl 
ENDBRANCH  29  31
ENDBRANCH   4  29
TORSDOF 6
ENDMDL
MODEL       34
REMARK 921   NORMALIZED FREE ENERGY PREDICTED BY IDOCK:   -5.03 KCAL/MOL
REMARK 922        TOTAL FREE ENERGY PREDICTED BY IDOCK:   -6.48 KCAL/MOL
REMARK 923 INTER-LIGAND FREE ENERGY PREDICTED BY IDOCK:   -7.09 KCAL/MOL
REMARK 924 INTRA-LIGAND FREE ENERGY PREDICTED BY IDOCK:    0.61 KCAL/MOL
REMARK 927      BINDING AFFINITY PREDICTED BY RF-SCORE:    0.00 PKD
ROOT
HETATM    1  C   UNL     1      -9.662  14.914  69.273  1.00  0.00    -0.147 C  
HETATM    2  C   UNL     1     -10.156  15.610  70.406  1.00  0.00     0.113 C  
HETATM    3  C   UNL     1     -10.565  16.076  69.053  1.00  0.00    -0.257 C  
HETATM    4  C   UNL     1     -10.301  14.761  67.461  1.00  0.00    -0.238 C  
HETATM    5  C   UNL     1     -11.341  15.007  68.321  1.00  0.00    -0.331 C  
HETATM    6  C   UNL     1      -7.050  17.393  65.848  1.00  0.00    -0.152 C  
HETATM    7  C   UNL     1      -7.202  16.087  69.439  1.00  0.00    -0.213 C  
HETATM    8  C   UNL     1      -7.538  18.105  67.112  1.00  0.00    -0.225 C  
HETATM    9  C   UNL     1      -8.015  19.625  66.980  1.00  0.00    -0.311 C  
HETATM   10  C   UNL     1     -11.605  16.572  67.266  1.00  0.00     0.606 C  
HETATM   11  C   UNL     1      -7.528  20.702  67.620  1.00  0.00    -0.298 C  
HETATM   12  C   UNL     1     -12.382  14.055  68.854  1.00  0.00    -0.106 C  
HETATM   13  O   UNL     1      -5.422  20.636  66.462  1.00  0.00    -0.168 OA 
HETATM   14  C   UNL     1     -10.120  17.193  66.686  1.00  0.00    -0.306 C  
HETATM   15  C   UNL     1      -6.082  20.261  67.418  1.00  0.00    -0.199 C  
HETATM   16  C   UNL     1      -5.679  19.199  68.353  1.00  0.00    -0.217 C  
HETATM   17  O   UNL     1      -9.826  16.419  65.516  1.00  0.00    -0.522 OA 
HETATM   18  C   UNL     1      -6.369  18.074  68.137  1.00  0.00    -0.185 C  
HETATM   19  C   UNL     1      -8.771  17.332  67.684  1.00  0.00    -0.219 C  
HETATM   20  C   UNL     1      -6.007  16.778  68.810  1.00  0.00    -0.147 C  
HETATM   21  H   UNL     1      -9.001  16.763  65.195  1.00  0.00     0.000 HD 
HETATM   22  C   UNL     1      -8.346  15.898  68.442  1.00  0.00    -0.174 C  
ENDROOT
BRANCH   4  23
HETATM   23  O   UNL     1      -9.927  13.215  67.758  1.00  0.00    -0.216 OA 
BRANCH  23  24
HETATM   24  C   UNL     1      -8.772  12.557  67.351  1.00  0.00    -0.189 C  
HETATM   25  O   UNL     1      -7.806  12.344  68.061  1.00  0.00    -0.120 OA 
BRANCH  24  26
HETATM   26  O   UNL     1      -8.972  11.964  66.131  1.00  0.00    -0.195 OA 
BRANCH  26  27
HETATM   27  C   UNL     1      -9.815  10.790  66.205  1.00  0.00    -0.221 C  
HETATM   28  C   UNL     1      -9.900   9.992  64.907  1.00  0.00    -0.352 C  
ENDBRANCH  26  27
ENDBRANCH  24  26
ENDBRANCH  23  24
ENDBRANCH   4  23
BRANCH   4  29
HETATM   29  C   UNL     1     -11.408  14.257  66.123  1.00  0.00    -0.342 C  
HETATM   30  O   UNL     1     -12.618  14.043  66.243  1.00  0.00    -0.451 OA 
BRANCH  29  31
HETATM   31  O   UNL     1     -10.870  14.033  64.866  1.00  0.00    -0.364 OA 
HETATM   32  C   UNL     1     -11.928  13.832  63.849  1.00  0.00    -0.371 C  
HETATM   33 CL   UNL     1     -12.569  12.163  63.882  1.00  0.00    -0.577 Cl 
ENDBRANCH  29  31
ENDBRANCH   4  29
TORSDOF 6
ENDMDL
MODEL       35
REMARK 921   NORMALIZED FREE ENERGY PREDICTED BY IDOCK:   -5.02 KCAL/MOL
REMARK 922        TOTAL FREE ENERGY PREDICTED BY IDOCK:   -6.47 KCAL/MOL
REMARK 923 INTER-LIGAND FREE ENERGY PREDICTED BY IDOCK:   -6.58 KCAL/MOL
REMARK 924 INTRA-LIGAND FREE ENERGY PREDICTED BY IDOCK:    0.11 KCAL/MOL
REMARK 927      BINDING AFFINITY PREDICTED BY RF-SCORE:    0.00 PKD
ROOT
HETATM    1  C   UNL     1      -7.895   8.696  66.215  1.00  0.00    -0.102 C  
HETATM    2  C   UNL     1      -6.663   9.199  65.725  1.00  0.00    -0.072 C  
HETATM    3  C   UNL     1      -7.184   9.730  67.014  1.00  0.00    -0.090 C  
HETATM    4  C   UNL     1      -8.661   8.627  67.982  1.00  0.00    -0.141 C  
HETATM    5  C   UNL     1      -7.291   8.636  68.048  1.00  0.00    -0.092 C  
HETATM    6  C   UNL     1     -11.642  11.848  67.065  1.00  0.00    -0.365 C  
HETATM    7  C   UNL     1      -9.372  10.193  64.472  1.00  0.00    -0.345 C  
HETATM    8  C   UNL     1     -10.324  12.356  66.475  1.00  0.00    -0.248 C  
HETATM    9  C   UNL     1      -9.802  13.796  66.932  1.00  0.00    -0.264 C  
HETATM   10  C   UNL     1      -7.530  10.240  69.049  1.00  0.00    -0.097 C  
HETATM   11  C   UNL     1      -9.545  14.865  66.159  1.00  0.00    -0.340 C  
HETATM   12  C   UNL     1      -6.345   7.495  68.327  1.00  0.00    -0.044 C  
HETATM   13  O   UNL     1     -11.857  15.219  65.604  1.00  0.00    -0.060 OA 
HETATM   14  C   UNL     1      -8.887  11.123  68.498  1.00  0.00    -0.161 C  
HETATM   15  C   UNL     1     -10.807  14.661  65.328  1.00  0.00    -0.377 C  
HETATM   16  C   UNL     1     -10.662  13.584  64.337  1.00  0.00    -0.402 C  
HETATM   17  O   UNL     1     -10.012  10.517  69.148  1.00  0.00    -0.204 OA 
HETATM   18  C   UNL     1     -10.499  12.396  64.930  1.00  0.00    -0.327 C  
HETATM   19  C   UNL     1      -9.181  11.360  66.858  1.00  0.00    -0.183 C  
HETATM   20  C   UNL     1     -10.538  11.108  64.154  1.00  0.00    -0.436 C  
HETATM   21  H   UNL     1     -10.766  11.007  68.841  1.00  0.00     0.000 HD 
HETATM   22  C   UNL     1      -9.234   9.936  65.973  1.00  0.00    -0.215 C  
ENDROOT
BRANCH   4  23
HETATM   23  O   UNL     1      -9.003   7.131  67.471  1.00  0.00    -0.122 OA 
BRANCH  23  24
HETATM   24  C   UNL     1     -10.272   6.614  67.237  1.00  0.00    -0.198 C  
HETATM   25  O   UNL     1     -11.279   7.282  67.087  1.00  0.00    -0.215 OA 
BRANCH  24  26
HETATM   26  O   UNL     1     -10.189   5.277  66.945  1.00  0.00    -0.191 OA 
BRANCH  26  27
HETATM   27  C   UNL     1      -9.244   4.985  65.889  1.00  0.00    -0.157 C  
HETATM   28  C   UNL     1      -9.704   3.909  64.910  1.00  0.00    -0.188 C  
ENDBRANCH  26  27
ENDBRANCH  24  26
ENDBRANCH  23  24
ENDBRANCH   4  23
BRANCH   4  29
HETATM   29  C   UNL     1      -8.832   8.100  69.703  1.00  0.00    -0.143 C  
HETATM   30  O   UNL     1      -7.902   7.749  70.435  1.00  0.00    -0.087 OA 
BRANCH  29  31
HETATM   31  O   UNL     1     -10.103   8.022  70.249  1.00  0.00    -0.189 OA 
HETATM   32  C   UNL     1     -10.197   6.938  71.255  1.00  0.00    -0.198 C  
HETATM   33 CL   UNL     1     -10.420   5.339  70.484  1.00  0.00    -0.332 Cl 
ENDBRANCH  29  31
ENDBRANCH   4  29
TORSDOF 6
ENDMDL
MODEL       36
REMARK 921   NORMALIZED FREE ENERGY PREDICTED BY IDOCK:   -5.00 KCAL/MOL
REMARK 922        TOTAL FREE ENERGY PREDICTED BY IDOCK:   -6.44 KCAL/MOL
REMARK 923 INTER-LIGAND FREE ENERGY PREDICTED BY IDOCK:   -7.47 KCAL/MOL
REMARK 924 INTRA-LIGAND FREE ENERGY PREDICTED BY IDOCK:    1.03 KCAL/MOL
REMARK 927      BINDING AFFINITY PREDICTED BY RF-SCORE:    0.00 PKD
ROOT
HETATM    1  C   UNL     1     -11.107  12.887  66.731  1.00  0.00    -0.315 C  
HETATM    2  C   UNL     1     -12.390  12.785  66.137  1.00  0.00    -0.190 C  
HETATM    3  C   UNL     1     -11.921  14.124  66.586  1.00  0.00    -0.470 C  
HETATM    4  C   UNL     1      -9.882  14.362  66.935  1.00  0.00    -0.261 C  
HETATM    5  C   UNL     1     -10.681  14.544  65.835  1.00  0.00    -0.308 C  
HETATM    6  C   UNL     1     -10.696  14.729  71.329  1.00  0.00     0.619 C  
HETATM    7  C   UNL     1     -11.966  11.879  69.119  1.00  0.00    -0.336 C  
HETATM    8  C   UNL     1     -12.076  14.547  70.690  1.00  0.00    -0.392 C  
HETATM    9  C   UNL     1     -13.196  15.645  70.996  1.00  0.00    -0.435 C  
HETATM   10  C   UNL     1     -11.239  16.133  66.728  1.00  0.00     0.154 C  
HETATM   11  C   UNL     1     -14.403  15.460  71.559  1.00  0.00    -0.572 C  
HETATM   12  C   UNL     1     -10.346  14.364  64.376  1.00  0.00     0.273 C  
HETATM   13  O   UNL     1     -13.489  14.921  73.717  1.00  0.00    -0.106 OA 
HETATM   14  C   UNL     1     -11.260  15.920  68.425  1.00  0.00    -0.368 C  
HETATM   15  C   UNL     1     -13.844  14.518  72.621  1.00  0.00    -0.382 C  
HETATM   16  C   UNL     1     -13.591  13.166  72.100  1.00  0.00    -0.637 C  
HETATM   17  O   UNL     1      -9.905  16.128  68.842  1.00  0.00    -0.217 OA 
HETATM   18  C   UNL     1     -12.627  13.176  71.173  1.00  0.00    -0.403 C  
HETATM   19  C   UNL     1     -11.915  14.541  69.134  1.00  0.00    -0.344 C  
HETATM   20  C   UNL     1     -12.030  11.905  70.634  1.00  0.00    -0.289 C  
HETATM   21  H   UNL     1      -9.917  16.009  69.785  1.00  0.00     0.000 HD 
HETATM   22  C   UNL     1     -11.260  13.111  68.552  1.00  0.00    -0.307 C  
ENDROOT
BRANCH   4  23
HETATM   23  O   UNL     1      -8.853  13.206  66.465  1.00  0.00    -0.124 OA 
BRANCH  23  24
HETATM   24  C   UNL     1      -8.085  12.401  67.299  1.00  0.00    -0.182 C  
HETATM   25  O   UNL     1      -7.735  12.702  68.426  1.00  0.00    -0.126 OA 
BRANCH  24  26
HETATM   26  O   UNL     1      -7.998  11.135  66.781  1.00  0.00    -0.144 OA 
BRANCH  26  27
HETATM   27  C   UNL     1      -9.280  10.594  66.385  1.00  0.00    -0.168 C  
HETATM   28  C   UNL     1      -9.752   9.410  67.222  1.00  0.00    -0.215 C  
ENDBRANCH  26  27
ENDBRANCH  24  26
ENDBRANCH  23  24
ENDBRANCH   4  23
BRANCH   4  29
HETATM   29  C   UNL     1      -8.716  15.642  66.414  1.00  0.00    -0.318 C  
HETATM   30  O   UNL     1      -7.492  15.593  66.567  1.00  0.00    -0.077 OA 
BRANCH  29  31
HETATM   31  O   UNL     1      -9.215  16.802  65.848  1.00  0.00    -0.486 OA 
HETATM   32  C   UNL     1      -8.262  17.928  65.983  1.00  0.00    -0.068 C  
HETATM   33 CL   UNL     1      -8.346  18.674  67.607  1.00  0.00    -0.277 Cl 
ENDBRANCH  29  31
ENDBRANCH   4  29
TORSDOF 6
ENDMDL
MODEL       37
REMARK 921   NORMALIZED FREE ENERGY PREDICTED BY IDOCK:   -4.98 KCAL/MOL
REMARK 922        TOTAL FREE ENERGY PREDICTED BY IDOCK:   -6.42 KCAL/MOL
REMARK 923 INTER-LIGAND FREE ENERGY PREDICTED BY IDOCK:   -7.17 KCAL/MOL
REMARK 924 INTRA-LIGAND FREE ENERGY PREDICTED BY IDOCK:    0.75 KCAL/MOL
REMARK 927      BINDING AFFINITY PREDICTED BY RF-SCORE:    0.00 PKD
ROOT
HETATM    1  C   UNL     1     -11.112  13.499  66.580  1.00  0.00    -0.310 C  
HETATM    2  C   UNL     1     -11.050  13.591  65.166  1.00  0.00    -0.326 C  
HETATM    3  C   UNL     1      -9.843  13.123  65.900  1.00  0.00    -0.241 C  
HETATM    4  C   UNL     1     -10.100  12.474  67.861  1.00  0.00    -0.214 C  
HETATM    5  C   UNL     1     -10.124  11.840  66.644  1.00  0.00    -0.231 C  
HETATM    6  C   UNL     1      -7.871  16.076  69.328  1.00  0.00    -0.222 C  
HETATM    7  C   UNL     1     -10.837  16.195  66.918  1.00  0.00    -0.175 C  
HETATM    8  C   UNL     1      -7.868  16.209  67.803  1.00  0.00    -0.157 C  
HETATM    9  C   UNL     1      -6.460  16.376  67.066  1.00  0.00    -0.202 C  
HETATM   10  C   UNL     1      -8.227  12.012  66.722  1.00  0.00    -0.110 C  
HETATM   11  C   UNL     1      -6.054  17.387  66.277  1.00  0.00    -0.238 C  
HETATM   12  C   UNL     1     -10.934  10.646  66.209  1.00  0.00    -0.017 C  
HETATM   13  O   UNL     1      -5.976  18.974  68.082  1.00  0.00    -0.204 OA 
HETATM   14  C   UNL     1      -7.763  13.456  67.515  1.00  0.00    -0.176 C  
HETATM   15  C   UNL     1      -6.641  18.446  67.206  1.00  0.00    -0.194 C  
HETATM   16  C   UNL     1      -8.100  18.575  67.064  1.00  0.00    -0.254 C  
HETATM   17  O   UNL     1      -7.820  13.146  68.913  1.00  0.00    -0.311 OA 
HETATM   18  C   UNL     1      -8.726  17.457  67.450  1.00  0.00    -0.227 C  
HETATM   19  C   UNL     1      -8.511  14.926  67.182  1.00  0.00    -0.244 C  
HETATM   20  C   UNL     1     -10.221  17.398  67.605  1.00  0.00    -0.342 C  
HETATM   21  H   UNL     1      -7.563  13.947  69.353  1.00  0.00     0.000 HD 
HETATM   22  C   UNL     1     -10.179  14.885  67.353  1.00  0.00    -0.234 C  
ENDROOT
BRANCH   4  23
HETATM   23  O   UNL     1     -11.595  12.241  68.434  1.00  0.00    -0.281 OA 
BRANCH  23  24
HETATM   24  C   UNL     1     -12.046  12.567  69.708  1.00  0.00    -0.224 C  
HETATM   25  O   UNL     1     -11.922  11.859  70.692  1.00  0.00    -0.342 OA 
BRANCH  24  26
HETATM   26  O   UNL     1     -12.412  13.887  69.756  1.00  0.00    -0.311 OA 
BRANCH  26  27
HETATM   27  C   UNL     1     -11.673  14.645  70.741  1.00  0.00    -0.279 C  
HETATM   28  C   UNL     1     -12.476  15.019  71.982  1.00  0.00    -0.409 C  
ENDBRANCH  26  27
ENDBRANCH  24  26
ENDBRANCH  23  24
ENDBRANCH   4  23
BRANCH   4  29
HETATM   29  C   UNL     1      -9.518  10.994  68.723  1.00  0.00    -0.183 C  
HETATM   30  O   UNL     1      -8.463  10.911  69.358  1.00  0.00    -0.061 OA 
BRANCH  29  31
HETATM   31  O   UNL     1     -10.270   9.835  68.631  1.00  0.00    -0.176 OA 
HETATM   32  C   UNL     1      -9.413   8.627  68.657  1.00  0.00    -0.142 C  
HETATM   33 CL   UNL     1      -8.691   8.295  67.054  1.00  0.00    -0.127 Cl 
ENDBRANCH  29  31
ENDBRANCH   4  29
TORSDOF 6
ENDMDL
MODEL       38
REMARK 921   NORMALIZED FREE ENERGY PREDICTED BY IDOCK:   -4.95 KCAL/MOL
REMARK 922        TOTAL FREE ENERGY PREDICTED BY IDOCK:   -6.37 KCAL/MOL
REMARK 923 INTER-LIGAND FREE ENERGY PREDICTED BY IDOCK:   -6.28 KCAL/MOL
REMARK 924 INTRA-LIGAND FREE ENERGY PREDICTED BY IDOCK:   -0.09 KCAL/MOL
REMARK 927      BINDING AFFINITY PREDICTED BY RF-SCORE:    0.00 PKD
ROOT
HETATM    1  C   UNL     1     -11.025   7.287  70.931  1.00  0.00    -0.275 C  
HETATM    2  C   UNL     1     -12.146   6.720  70.272  1.00  0.00    -0.211 C  
HETATM    3  C   UNL     1     -10.850   6.784  69.542  1.00  0.00    -0.315 C  
HETATM    4  C   UNL     1      -9.126   7.093  70.666  1.00  0.00    -0.158 C  
HETATM    5  C   UNL     1      -9.791   5.970  70.244  1.00  0.00    -0.221 C  
HETATM    6  C   UNL     1      -8.723  11.190  68.890  1.00  0.00    -0.086 C  
HETATM    7  C   UNL     1     -11.899   9.844  70.539  1.00  0.00    -0.350 C  
HETATM    8  C   UNL     1      -9.974  10.600  68.233  1.00  0.00    -0.173 C  
HETATM    9  C   UNL     1     -10.037  10.564  66.637  1.00  0.00    -0.275 C  
HETATM   10  C   UNL     1      -9.017   6.370  68.548  1.00  0.00    -0.125 C  
HETATM   11  C   UNL     1     -10.953  11.132  65.833  1.00  0.00    -0.171 C  
HETATM   12  C   UNL     1      -9.915   4.627  70.918  1.00  0.00    -0.273 C  
HETATM   13  O   UNL     1     -10.249  13.372  66.351  1.00  0.00    -0.280 OA 
HETATM   14  C   UNL     1      -8.875   8.058  68.310  1.00  0.00    -0.133 C  
HETATM   15  C   UNL     1     -10.965  12.427  66.639  1.00  0.00    -0.268 C  
HETATM   16  C   UNL     1     -11.746  12.311  67.881  1.00  0.00    -0.410 C  
HETATM   17  O   UNL     1      -7.663   8.427  68.982  1.00  0.00    -0.093 OA 
HETATM   18  C   UNL     1     -11.188  11.437  68.726  1.00  0.00    -0.308 C  
HETATM   19  C   UNL     1     -10.131   9.112  68.688  1.00  0.00    -0.212 C  
HETATM   20  C   UNL     1     -11.665  11.289  70.145  1.00  0.00    -0.429 C  
HETATM   21  H   UNL     1      -7.585   9.364  68.849  1.00  0.00     0.000 HD 
HETATM   22  C   UNL     1     -10.676   8.968  70.267  1.00  0.00    -0.262 C  
ENDROOT
BRANCH   4  23
HETATM   23  O   UNL     1      -9.196   6.986  72.279  1.00  0.00    -0.134 OA 
BRANCH  23  24
HETATM   24  C   UNL     1      -8.395   7.674  73.183  1.00  0.00    -0.138 C  
HETATM   25  O   UNL     1      -8.057   8.838  73.066  1.00  0.00    -0.409 OA 
BRANCH  24  26
HETATM   26  O   UNL     1      -8.254   6.947  74.336  1.00  0.00    -0.125 OA 
BRANCH  26  27
HETATM   27  C   UNL     1      -8.852   5.632  74.254  1.00  0.00    -0.121 C  
HETATM   28  C   UNL     1      -7.858   4.480  74.352  1.00  0.00    -0.092 C  
ENDBRANCH  26  27
ENDBRANCH  24  26
ENDBRANCH  23  24
ENDBRANCH   4  23
BRANCH   4  29
HETATM   29  C   UNL     1      -7.522   6.257  70.660  1.00  0.00    -0.087 C  
HETATM   30  O   UNL     1      -7.358   5.034  70.668  1.00  0.00    -0.061 OA 
BRANCH  29  31
HETATM   31  O   UNL     1      -6.373   7.028  70.706  1.00  0.00    -0.041 OA 
HETATM   32  C   UNL     1      -5.196   6.227  71.116  1.00  0.00    -0.018 C  
HETATM   33 CL   UNL     1      -5.131   6.008  72.890  1.00  0.00    -0.025 Cl 
ENDBRANCH  29  31
ENDBRANCH   4  29
TORSDOF 6
ENDMDL
MODEL       39
REMARK 921   NORMALIZED FREE ENERGY PREDICTED BY IDOCK:   -4.93 KCAL/MOL
REMARK 922        TOTAL FREE ENERGY PREDICTED BY IDOCK:   -6.35 KCAL/MOL
REMARK 923 INTER-LIGAND FREE ENERGY PREDICTED BY IDOCK:   -6.37 KCAL/MOL
REMARK 924 INTRA-LIGAND FREE ENERGY PREDICTED BY IDOCK:    0.02 KCAL/MOL
REMARK 927      BINDING AFFINITY PREDICTED BY RF-SCORE:    0.00 PKD
ROOT
HETATM    1  C   UNL     1      -9.772  10.034  68.991  1.00  0.00    -0.204 C  
HETATM    2  C   UNL     1     -10.895   9.176  69.112  1.00  0.00    -0.131 C  
HETATM    3  C   UNL     1     -10.086   9.116  67.863  1.00  0.00    -0.246 C  
HETATM    4  C   UNL     1      -8.177   9.944  67.912  1.00  0.00    -0.113 C  
HETATM    5  C   UNL     1      -8.669   8.686  68.155  1.00  0.00    -0.142 C  
HETATM    6  C   UNL     1      -9.554  13.234  65.195  1.00  0.00     0.185 C  
HETATM    7  C   UNL     1     -11.312  12.219  68.436  1.00  0.00    -0.340 C  
HETATM    8  C   UNL     1     -10.785  12.343  65.385  1.00  0.00    -0.317 C  
HETATM    9  C   UNL     1     -11.506  11.771  64.079  1.00  0.00    -0.444 C  
HETATM   10  C   UNL     1      -8.805   8.571  66.257  1.00  0.00    -0.187 C  
HETATM   11  C   UNL     1     -12.783  11.950  63.695  1.00  0.00    -0.509 C  
HETATM   12  C   UNL     1      -8.172   7.640  69.119  1.00  0.00    -0.130 C  
HETATM   13  O   UNL     1     -12.483  14.291  63.234  1.00  0.00    -0.705 OA 
HETATM   14  C   UNL     1      -9.184  10.088  65.564  1.00  0.00    -0.198 C  
HETATM   15  C   UNL     1     -12.762  13.432  64.056  1.00  0.00     0.031 C  
HETATM   16  C   UNL     1     -12.891  13.663  65.503  1.00  0.00    -0.443 C  
HETATM   17  O   UNL     1      -7.930  10.773  65.461  1.00  0.00    -0.255 OA 
HETATM   18  C   UNL     1     -11.838  13.178  66.168  1.00  0.00    -0.453 C  
HETATM   19  C   UNL     1     -10.374  11.084  66.217  1.00  0.00    -0.304 C  
HETATM   20  C   UNL     1     -11.619  13.466  67.629  1.00  0.00    -0.377 C  
HETATM   21  H   UNL     1      -8.141  11.616  65.077  1.00  0.00     0.000 HD 
HETATM   22  C   UNL     1     -10.148  11.423  67.844  1.00  0.00    -0.198 C  
ENDROOT
BRANCH   4  23
HETATM   23  O   UNL     1      -7.531  10.374  69.331  1.00  0.00    -0.107 OA 
BRANCH  23  24
HETATM   24  C   UNL     1      -6.765  11.508  69.574  1.00  0.00    -0.106 C  
HETATM   25  O   UNL     1      -5.869  11.580  70.397  1.00  0.00    -0.141 OA 
BRANCH  24  26
HETATM   26  O   UNL     1      -6.982  12.442  68.595  1.00  0.00    -0.081 OA 
BRANCH  26  27
HETATM   27  C   UNL     1      -6.935  13.802  69.087  1.00  0.00    -0.082 C  
HETATM   28  C   UNL     1      -8.118  14.667  68.665  1.00  0.00    -0.150 C  
ENDBRANCH  26  27
ENDBRANCH  24  26
ENDBRANCH  23  24
ENDBRANCH   4  23
BRANCH   4  29
HETATM   29  C   UNL     1      -6.579   9.310  67.353  1.00  0.00    -0.064 C  
HETATM   30  O   UNL     1      -5.746   9.952  66.707  1.00  0.00    -0.049 OA 
BRANCH  29  31
HETATM   31  O   UNL     1      -6.265   7.986  67.610  1.00  0.00    -0.049 OA 
HETATM   32  C   UNL     1      -5.219   7.486  66.687  1.00  0.00    -0.024 C  
HETATM   33 CL   UNL     1      -5.904   7.026  65.100  1.00  0.00    -0.035 Cl 
ENDBRANCH  29  31
ENDBRANCH   4  29
TORSDOF 6
ENDMDL
MODEL       40
REMARK 921   NORMALIZED FREE ENERGY PREDICTED BY IDOCK:   -4.92 KCAL/MOL
REMARK 922        TOTAL FREE ENERGY PREDICTED BY IDOCK:   -6.33 KCAL/MOL
REMARK 923 INTER-LIGAND FREE ENERGY PREDICTED BY IDOCK:   -6.71 KCAL/MOL
REMARK 924 INTRA-LIGAND FREE ENERGY PREDICTED BY IDOCK:    0.37 KCAL/MOL
REMARK 927      BINDING AFFINITY PREDICTED BY RF-SCORE:    0.00 PKD
ROOT
HETATM    1  C   UNL     1      -8.059   8.685  68.975  1.00  0.00    -0.121 C  
HETATM    2  C   UNL     1      -7.013   9.279  69.727  1.00  0.00    -0.058 C  
HETATM    3  C   UNL     1      -8.411   9.420  70.220  1.00  0.00    -0.217 C  
HETATM    4  C   UNL     1      -9.840   8.119  69.447  1.00  0.00    -0.182 C  
HETATM    5  C   UNL     1      -9.012   8.073  70.540  1.00  0.00    -0.152 C  
HETATM    6  C   UNL     1     -11.752  11.539  67.269  1.00  0.00    -0.193 C  
HETATM    7  C   UNL     1      -8.034  10.664  67.094  1.00  0.00    -0.121 C  
HETATM    8  C   UNL     1     -10.578  12.166  68.026  1.00  0.00    -0.232 C  
HETATM    9  C   UNL     1     -10.884  13.393  69.002  1.00  0.00    -0.220 C  
HETATM   10  C   UNL     1     -10.241   9.318  71.296  1.00  0.00    -0.383 C  
HETATM   11  C   UNL     1     -10.374  14.637  68.951  1.00  0.00    -0.245 C  
HETATM   12  C   UNL     1      -8.371   6.878  71.199  1.00  0.00    -0.119 C  
HETATM   13  O   UNL     1     -11.521  15.195  66.913  1.00  0.00    -0.314 OA 
HETATM   14  C   UNL     1     -10.891  10.357  70.102  1.00  0.00    -0.271 C  
HETATM   15  C   UNL     1     -10.526  14.717  67.435  1.00  0.00    -0.255 C  
HETATM   16  C   UNL     1      -9.475  13.975  66.722  1.00  0.00    -0.292 C  
HETATM   17  O   UNL     1     -11.964   9.615  69.509  1.00  0.00    -0.372 OA 
HETATM   18  C   UNL     1      -9.558  12.662  66.963  1.00  0.00    -0.219 C  
HETATM   19  C   UNL     1      -9.918  11.073  68.930  1.00  0.00    -0.201 C  
HETATM   20  C   UNL     1      -8.740  11.660  66.195  1.00  0.00    -0.094 C  
HETATM   21  H   UNL     1     -12.324  10.192  68.845  1.00  0.00     0.000 HD 
HETATM   22  C   UNL     1      -9.000   9.974  68.058  1.00  0.00    -0.128 C  
ENDROOT
BRANCH   4  23
HETATM   23  O   UNL     1      -9.366   6.848  68.565  1.00  0.00    -0.136 OA 
BRANCH  23  24
HETATM   24  C   UNL     1      -9.681   6.611  67.231  1.00  0.00    -0.134 C  
HETATM   25  O   UNL     1     -10.687   7.010  66.673  1.00  0.00    -0.249 OA 
BRANCH  24  26
HETATM   26  O   UNL     1      -8.594   6.094  66.575  1.00  0.00    -0.119 OA 
BRANCH  26  27
HETATM   27  C   UNL     1      -8.049   6.996  65.583  1.00  0.00    -0.129 C  
HETATM   28  C   UNL     1      -6.618   7.446  65.858  1.00  0.00    -0.045 C  
ENDBRANCH  26  27
ENDBRANCH  24  26
ENDBRANCH  23  24
ENDBRANCH   4  23
BRANCH   4  29
HETATM   29  C   UNL     1     -11.109   7.113  70.252  1.00  0.00    -0.274 C  
HETATM   30  O   UNL     1     -11.881   6.345  69.672  1.00  0.00    -0.323 OA 
BRANCH  29  31
HETATM   31  O   UNL     1     -11.285   7.239  71.620  1.00  0.00    -0.239 OA 
HETATM   32  C   UNL     1     -12.590   6.689  72.053  1.00  0.00    -0.206 C  
HETATM   33 CL   UNL     1     -13.923   7.847  71.767  1.00  0.00    -0.464 Cl 
ENDBRANCH  29  31
ENDBRANCH   4  29
TORSDOF 6
ENDMDL
MODEL       41
REMARK 921   NORMALIZED FREE ENERGY PREDICTED BY IDOCK:   -4.88 KCAL/MOL
REMARK 922        TOTAL FREE ENERGY PREDICTED BY IDOCK:   -6.28 KCAL/MOL
REMARK 923 INTER-LIGAND FREE ENERGY PREDICTED BY IDOCK:   -6.56 KCAL/MOL
REMARK 924 INTRA-LIGAND FREE ENERGY PREDICTED BY IDOCK:    0.28 KCAL/MOL
REMARK 927      BINDING AFFINITY PREDICTED BY RF-SCORE:    0.00 PKD
ROOT
HETATM    1  C   UNL     1     -10.756   9.890  70.200  1.00  0.00    -0.361 C  
HETATM    2  C   UNL     1     -12.114   9.508  70.344  1.00  0.00    -0.061 C  
HETATM    3  C   UNL     1     -11.395   9.114  69.103  1.00  0.00     0.275 C  
HETATM    4  C   UNL     1      -9.314   9.186  69.132  1.00  0.00    -0.152 C  
HETATM    5  C   UNL     1     -10.231   8.205  69.415  1.00  0.00    -0.211 C  
HETATM    6  C   UNL     1      -9.412  12.659  66.297  1.00  0.00    -0.207 C  
HETATM    7  C   UNL     1     -11.393  12.468  69.563  1.00  0.00    -0.240 C  
HETATM    8  C   UNL     1     -10.882  12.288  66.512  1.00  0.00    -0.297 C  
HETATM    9  C   UNL     1     -11.774  11.977  65.223  1.00  0.00    -0.312 C  
HETATM   10  C   UNL     1     -10.415   8.084  67.522  1.00  0.00    -0.331 C  
HETATM   11  C   UNL     1     -12.899  12.597  64.827  1.00  0.00    -0.349 C  
HETATM   12  C   UNL     1     -10.144   7.082  70.417  1.00  0.00    -0.198 C  
HETATM   13  O   UNL     1     -11.766  14.649  64.288  1.00  0.00    -0.358 OA 
HETATM   14  C   UNL     1     -10.218   9.611  66.776  1.00  0.00    -0.239 C  
HETATM   15  C   UNL     1     -12.333  13.980  65.137  1.00  0.00    -0.453 C  
HETATM   16  C   UNL     1     -12.358  14.291  66.575  1.00  0.00    -0.345 C  
HETATM   17  O   UNL     1      -8.800   9.784  66.655  1.00  0.00    -0.136 OA 
HETATM   18  C   UNL     1     -11.550  13.476  67.262  1.00  0.00    -0.398 C  
HETATM   19  C   UNL     1     -10.955  10.994  67.389  1.00  0.00    -0.349 C  
HETATM   20  C   UNL     1     -11.229  13.712  68.712  1.00  0.00    -0.314 C  
HETATM   21  H   UNL     1      -8.691  10.632  66.241  1.00  0.00     0.000 HD 
HETATM   22  C   UNL     1     -10.607  11.281  69.004  1.00  0.00    -0.241 C  
ENDROOT
BRANCH   4  23
HETATM   23  O   UNL     1      -8.544   9.397  70.539  1.00  0.00    -0.206 OA 
BRANCH  23  24
HETATM   24  C   UNL     1      -7.247   9.869  70.701  1.00  0.00    -0.017 C  
HETATM   25  O   UNL     1      -6.809  10.888  70.198  1.00  0.00    -0.171 OA 
BRANCH  24  26
HETATM   26  O   UNL     1      -6.614   9.176  71.700  1.00  0.00    -0.189 OA 
BRANCH  26  27
HETATM   27  C   UNL     1      -7.512   8.333  72.461  1.00  0.00    -0.113 C  
HETATM   28  C   UNL     1      -6.985   6.925  72.721  1.00  0.00    -0.070 C  
ENDBRANCH  26  27
ENDBRANCH  24  26
ENDBRANCH  23  24
ENDBRANCH   4  23
BRANCH   4  29
HETATM   29  C   UNL     1      -8.064   7.992  68.602  1.00  0.00    -0.125 C  
HETATM   30  O   UNL     1      -7.295   8.144  67.649  1.00  0.00    -0.089 OA 
BRANCH  29  31
HETATM   31  O   UNL     1      -7.981   6.780  69.268  1.00  0.00    -0.112 OA 
HETATM   32  C   UNL     1      -7.593   5.682  68.352  1.00  0.00    -0.081 C  
HETATM   33 CL   UNL     1      -8.991   5.081  67.413  1.00  0.00    -0.109 Cl 
ENDBRANCH  29  31
ENDBRANCH   4  29
TORSDOF 6
ENDMDL
MODEL       42
REMARK 921   NORMALIZED FREE ENERGY PREDICTED BY IDOCK:   -4.82 KCAL/MOL
REMARK 922        TOTAL FREE ENERGY PREDICTED BY IDOCK:   -6.20 KCAL/MOL
REMARK 923 INTER-LIGAND FREE ENERGY PREDICTED BY IDOCK:   -6.69 KCAL/MOL
REMARK 924 INTRA-LIGAND FREE ENERGY PREDICTED BY IDOCK:    0.49 KCAL/MOL
REMARK 927      BINDING AFFINITY PREDICTED BY RF-SCORE:    0.00 PKD
ROOT
HETATM    1  C   UNL     1      -7.759  13.673  67.518  1.00  0.00    -0.183 C  
HETATM    2  C   UNL     1      -6.872  13.842  68.612  1.00  0.00    -0.101 C  
HETATM    3  C   UNL     1      -8.331  14.021  68.847  1.00  0.00     0.032 C  
HETATM    4  C   UNL     1      -9.637  13.251  67.421  1.00  0.00    -0.223 C  
HETATM    5  C   UNL     1      -9.086  12.744  68.570  1.00  0.00    -0.049 C  
HETATM    6  C   UNL     1     -10.747  17.423  66.210  1.00  0.00    -0.082 C  
HETATM    7  C   UNL     1      -7.161  16.119  66.462  1.00  0.00     0.044 C  
HETATM    8  C   UNL     1      -9.735  17.601  67.345  1.00  0.00    -0.283 C  
HETATM    9  C   UNL     1     -10.164  18.489  68.602  1.00  0.00    -0.363 C  
HETATM   10  C   UNL     1     -10.361  13.850  69.454  1.00  0.00     0.163 C  
HETATM   11  C   UNL     1      -9.567  19.597  69.074  1.00  0.00    -0.378 C  
HETATM   12  C   UNL     1      -8.701  11.322  68.894  1.00  0.00    -0.053 C  
HETATM   13  O   UNL     1     -10.175  20.930  67.167  1.00  0.00    -0.157 OA 
HETATM   14  C   UNL     1     -10.644  15.296  68.584  1.00  0.00    -0.236 C  
HETATM   15  C   UNL     1      -9.363  20.173  67.676  1.00  0.00    -0.365 C  
HETATM   16  C   UNL     1      -8.234  19.551  66.968  1.00  0.00    -0.308 C  
HETATM   17  O   UNL     1     -11.604  14.942  67.580  1.00  0.00    -0.338 OA 
HETATM   18  C   UNL     1      -8.466  18.255  66.728  1.00  0.00    -0.272 C  
HETATM   19  C   UNL     1      -9.380  16.196  67.932  1.00  0.00    -0.212 C  
HETATM   20  C   UNL     1      -7.569  17.440  65.837  1.00  0.00    -0.106 C  
HETATM   21  H   UNL     1     -11.761  15.745  67.096  1.00  0.00     0.000 HD 
HETATM   22  C   UNL     1      -8.369  15.308  66.931  1.00  0.00    -0.278 C  
ENDROOT
BRANCH   4  23
HETATM   23  O   UNL     1      -9.069  12.269  66.267  1.00  0.00    -0.206 OA 
BRANCH  23  24
HETATM   24  C   UNL     1      -9.667  12.015  65.038  1.00  0.00    -0.121 C  
HETATM   25  O   UNL     1     -10.008  10.913  64.645  1.00  0.00    -0.258 OA 
BRANCH  24  26
HETATM   26  O   UNL     1     -10.049  13.191  64.448  1.00  0.00    -0.334 OA 
BRANCH  26  27
HETATM   27  C   UNL     1     -11.478  13.279  64.233  1.00  0.00    -0.396 C  
HETATM   28  C   UNL     1     -12.042  14.694  64.316  1.00  0.00    -0.437 C  
ENDBRANCH  26  27
ENDBRANCH  24  26
ENDBRANCH  23  24
ENDBRANCH   4  23
BRANCH   4  29
HETATM   29  C   UNL     1     -11.126  12.237  67.579  1.00  0.00    -0.275 C  
HETATM   30  O   UNL     1     -12.274  12.617  67.333  1.00  0.00    -0.406 OA 
BRANCH  29  31
HETATM   31  O   UNL     1     -11.000  10.947  68.067  1.00  0.00    -0.222 OA 
HETATM   32  C   UNL     1     -12.158  10.569  68.910  1.00  0.00     0.165 C  
HETATM   33 CL   UNL     1     -12.008  11.220  70.569  1.00  0.00    -0.456 Cl 
ENDBRANCH  29  31
ENDBRANCH   4  29
TORSDOF 6
ENDMDL
MODEL       43
REMARK 921   NORMALIZED FREE ENERGY PREDICTED BY IDOCK:   -4.79 KCAL/MOL
REMARK 922        TOTAL FREE ENERGY PREDICTED BY IDOCK:   -6.16 KCAL/MOL
REMARK 923 INTER-LIGAND FREE ENERGY PREDICTED BY IDOCK:   -6.43 KCAL/MOL
REMARK 924 INTRA-LIGAND FREE ENERGY PREDICTED BY IDOCK:    0.27 KCAL/MOL
REMARK 927      BINDING AFFINITY PREDICTED BY RF-SCORE:    0.00 PKD
ROOT
HETATM    1  C   UNL     1     -10.347   7.837  69.029  1.00  0.00    -0.219 C  
HETATM    2  C   UNL     1     -11.406   7.094  68.448  1.00  0.00     0.257 C  
HETATM    3  C   UNL     1     -10.173   7.317  67.646  1.00  0.00    -0.257 C  
HETATM    4  C   UNL     1      -8.456   7.907  68.664  1.00  0.00    -0.128 C  
HETATM    5  C   UNL     1      -8.972   6.687  68.308  1.00  0.00    -0.122 C  
HETATM    6  C   UNL     1      -8.740  11.958  66.763  1.00  0.00    -0.193 C  
HETATM    7  C   UNL     1     -11.601  10.228  68.620  1.00  0.00    -0.096 C  
HETATM    8  C   UNL     1      -9.925  11.174  66.192  1.00  0.00    -0.273 C  
HETATM    9  C   UNL     1     -10.064  11.075  64.603  1.00  0.00    -0.370 C  
HETATM   10  C   UNL     1      -8.352   7.137  66.563  1.00  0.00    -0.117 C  
HETATM   11  C   UNL     1     -11.092  11.480  63.837  1.00  0.00    -0.458 C  
HETATM   12  C   UNL     1      -8.866   5.364  69.023  1.00  0.00    -0.108 C  
HETATM   13  O   UNL     1     -10.694  13.814  64.257  1.00  0.00    -0.372 OA 
HETATM   14  C   UNL     1      -8.468   8.819  66.273  1.00  0.00    -0.124 C  
HETATM   15  C   UNL     1     -11.250  12.786  64.609  1.00  0.00    -0.319 C  
HETATM   16  C   UNL     1     -11.941  12.602  65.894  1.00  0.00    -0.497 C  
HETATM   17  O   UNL     1      -7.290   9.379  66.867  1.00  0.00    -0.089 OA 
HETATM   18  C   UNL     1     -11.221  11.845  66.729  1.00  0.00    -0.384 C  
HETATM   19  C   UNL     1      -9.842   9.695  66.694  1.00  0.00    -0.285 C  
HETATM   20  C   UNL     1     -11.598  11.678  68.176  1.00  0.00    -0.389 C  
HETATM   21  H   UNL     1      -7.354  10.313  66.707  1.00  0.00     0.000 HD 
HETATM   22  C   UNL     1     -10.279   9.527  68.304  1.00  0.00    -0.225 C  
ENDROOT
BRANCH   4  23
HETATM   23  O   UNL     1      -8.427   7.846  70.280  1.00  0.00    -0.125 OA 
BRANCH  23  24
HETATM   24  C   UNL     1      -7.993   8.854  71.133  1.00  0.00    -0.144 C  
HETATM   25  O   UNL     1      -7.477   9.897  70.771  1.00  0.00    -0.313 OA 
BRANCH  24  26
HETATM   26  O   UNL     1      -8.453   8.628  72.404  1.00  0.00    -0.342 OA 
BRANCH  26  27
HETATM   27  C   UNL     1      -9.325   7.477  72.494  1.00  0.00    -0.153 C  
HETATM   28  C   UNL     1     -10.797   7.815  72.706  1.00  0.00    -0.438 C  
ENDBRANCH  26  27
ENDBRANCH  24  26
ENDBRANCH  23  24
ENDBRANCH   4  23
BRANCH   4  29
HETATM   29  C   UNL     1      -6.751   7.309  68.591  1.00  0.00    -0.060 C  
HETATM   30  O   UNL     1      -5.756   8.018  68.412  1.00  0.00    -0.031 OA 
BRANCH  29  31
HETATM   31  O   UNL     1      -6.522   5.947  68.683  1.00  0.00    -0.041 OA 
HETATM   32  C   UNL     1      -5.222   5.571  68.081  1.00  0.00    -0.004 C  
HETATM   33 CL   UNL     1      -5.332   5.440  66.300  1.00  0.00    -0.012 Cl 
ENDBRANCH  29  31
ENDBRANCH   4  29
TORSDOF 6
ENDMDL
MODEL       44
REMARK 921   NORMALIZED FREE ENERGY PREDICTED BY IDOCK:   -4.67 KCAL/MOL
REMARK 922        TOTAL FREE ENERGY PREDICTED BY IDOCK:   -5.99 KCAL/MOL
REMARK 923 INTER-LIGAND FREE ENERGY PREDICTED BY IDOCK:   -6.65 KCAL/MOL
REMARK 924 INTRA-LIGAND FREE ENERGY PREDICTED BY IDOCK:    0.66 KCAL/MOL
REMARK 927      BINDING AFFINITY PREDICTED BY RF-SCORE:    0.00 PKD
ROOT
HETATM    1  C   UNL     1      -9.098   9.696  65.342  1.00  0.00    -0.265 C  
HETATM    2  C   UNL     1      -8.172  10.401  64.532  1.00  0.00    -0.131 C  
HETATM    3  C   UNL     1      -7.974  10.409  66.007  1.00  0.00    -0.144 C  
HETATM    4  C   UNL     1      -8.975   8.963  67.121  1.00  0.00    -0.127 C  
HETATM    5  C   UNL     1      -7.737   9.014  66.532  1.00  0.00    -0.096 C  
HETATM    6  C   UNL     1     -11.605  12.148  68.865  1.00  0.00    -0.377 C  
HETATM    7  C   UNL     1     -11.001  11.643  65.123  1.00  0.00    -0.326 C  
HETATM    8  C   UNL     1     -10.648  12.898  67.933  1.00  0.00    -0.232 C  
HETATM    9  C   UNL     1      -9.794  14.102  68.545  1.00  0.00    -0.230 C  
HETATM   10  C   UNL     1      -7.285  10.141  68.001  1.00  0.00    -0.085 C  
HETATM   11  C   UNL     1      -9.783  15.389  68.154  1.00  0.00    -0.212 C  
HETATM   12  C   UNL     1      -6.923   7.897  65.929  1.00  0.00    -0.057 C  
HETATM   13  O   UNL     1     -12.028  15.803  68.911  1.00  0.00    -0.382 OA 
HETATM   14  C   UNL     1      -8.618  11.095  68.489  1.00  0.00    -0.157 C  
HETATM   15  C   UNL     1     -11.301  15.433  68.003  1.00  0.00    -0.341 C  
HETATM   16  C   UNL     1     -11.763  14.790  66.764  1.00  0.00    -0.309 C  
HETATM   17  O   UNL     1      -9.390  10.243  69.345  1.00  0.00    -0.204 OA 
HETATM   18  C   UNL     1     -11.501  13.478  66.770  1.00  0.00    -0.374 C  
HETATM   19  C   UNL     1      -9.594  11.887  67.371  1.00  0.00    -0.176 C  
HETATM   20  C   UNL     1     -12.055  12.552  65.722  1.00  0.00    -0.443 C  
HETATM   21  H   UNL     1     -10.131  10.772  69.616  1.00  0.00     0.000 HD 
HETATM   22  C   UNL     1     -10.228  10.873  66.195  1.00  0.00    -0.304 C  
ENDROOT
BRANCH   4  23
HETATM   23  O   UNL     1      -9.702   7.733  66.361  1.00  0.00    -0.206 OA 
BRANCH  23  24
HETATM   24  C   UNL     1     -10.305   6.637  66.965  1.00  0.00    -0.262 C  
HETATM   25  O   UNL     1     -11.390   6.657  67.520  1.00  0.00    -0.271 OA 
BRANCH  24  26
HETATM   26  O   UNL     1      -9.638   5.487  66.630  1.00  0.00    -0.137 OA 
BRANCH  26  27
HETATM   27  C   UNL     1      -9.715   4.468  67.654  1.00  0.00    -0.157 C  
HETATM   28  C   UNL     1      -9.173   3.106  67.230  1.00  0.00    -0.219 C  
ENDBRANCH  26  27
ENDBRANCH  24  26
ENDBRANCH  23  24
ENDBRANCH   4  23
BRANCH   4  29
HETATM   29  C   UNL     1      -8.408   7.847  68.426  1.00  0.00    -0.124 C  
HETATM   30  O   UNL     1      -8.985   7.659  69.501  1.00  0.00    -0.139 OA 
BRANCH  29  31
HETATM   31  O   UNL     1      -7.205   7.183  68.254  1.00  0.00    -0.085 OA 
HETATM   32  C   UNL     1      -6.698   6.635  69.533  1.00  0.00    -0.050 C  
HETATM   33 CL   UNL     1      -5.876   7.888  70.509  1.00  0.00    -0.029 Cl 
ENDBRANCH  29  31
ENDBRANCH   4  29
TORSDOF 6
ENDMDL
MODEL       45
REMARK 921   NORMALIZED FREE ENERGY PREDICTED BY IDOCK:   -4.67 KCAL/MOL
REMARK 922        TOTAL FREE ENERGY PREDICTED BY IDOCK:   -5.99 KCAL/MOL
REMARK 923 INTER-LIGAND FREE ENERGY PREDICTED BY IDOCK:   -6.30 KCAL/MOL
REMARK 924 INTRA-LIGAND FREE ENERGY PREDICTED BY IDOCK:    0.30 KCAL/MOL
REMARK 927      BINDING AFFINITY PREDICTED BY RF-SCORE:    0.00 PKD
ROOT
HETATM    1  C   UNL     1      -7.522  10.001  67.640  1.00  0.00    -0.090 C  
HETATM    2  C   UNL     1      -6.692   8.927  67.231  1.00  0.00    -0.066 C  
HETATM    3  C   UNL     1      -8.166   8.777  67.094  1.00  0.00    -0.104 C  
HETATM    4  C   UNL     1      -9.321  10.507  67.169  1.00  0.00    -0.154 C  
HETATM    5  C   UNL     1      -8.731   9.807  66.147  1.00  0.00    -0.150 C  
HETATM    6  C   UNL     1     -10.969   9.215  71.133  1.00  0.00    -0.390 C  
HETATM    7  C   UNL     1      -7.244   9.403  70.291  1.00  0.00    -0.104 C  
HETATM    8  C   UNL     1     -10.016   8.090  70.720  1.00  0.00    -0.202 C  
HETATM    9  C   UNL     1     -10.593   6.600  70.666  1.00  0.00    -0.268 C  
HETATM   10  C   UNL     1     -10.167   8.579  66.402  1.00  0.00    -0.193 C  
HETATM   11  C   UNL     1     -10.165   5.523  71.348  1.00  0.00    -0.275 C  
HETATM   12  C   UNL     1      -8.162  10.318  64.848  1.00  0.00    -0.157 C  
HETATM   13  O   UNL     1     -10.908   6.374  73.471  1.00  0.00    -0.260 OA 
HETATM   14  C   UNL     1     -10.627   8.489  68.047  1.00  0.00    -0.137 C  
HETATM   15  C   UNL     1     -10.011   6.312  72.645  1.00  0.00    -0.172 C  
HETATM   16  C   UNL     1      -8.791   7.134  72.664  1.00  0.00    -0.143 C  
HETATM   17  O   UNL     1     -11.506   9.603  68.248  1.00  0.00    -0.502 OA 
HETATM   18  C   UNL     1      -8.836   8.093  71.733  1.00  0.00    -0.206 C  
HETATM   19  C   UNL     1      -9.485   8.381  69.279  1.00  0.00    -0.155 C  
HETATM   20  C   UNL     1      -7.816   9.197  71.679  1.00  0.00     0.154 C  
HETATM   21  H   UNL     1     -11.761   9.554  69.162  1.00  0.00     0.000 HD 
HETATM   22  C   UNL     1      -8.339   9.604  69.242  1.00  0.00    -0.137 C  
ENDROOT
BRANCH   4  23
HETATM   23  O   UNL     1      -8.597  11.952  67.101  1.00  0.00    -0.158 OA 
BRANCH  23  24
HETATM   24  C   UNL     1      -8.630  12.934  68.084  1.00  0.00    -0.188 C  
HETATM   25  O   UNL     1      -9.578  13.154  68.816  1.00  0.00    -0.078 OA 
BRANCH  24  26
HETATM   26  O   UNL     1      -7.372  13.441  68.286  1.00  0.00    -0.093 OA 
BRANCH  26  27
HETATM   27  C   UNL     1      -7.369  14.643  69.091  1.00  0.00    -0.143 C  
HETATM   28  C   UNL     1      -5.997  15.039  69.628  1.00  0.00    -0.116 C  
ENDBRANCH  26  27
ENDBRANCH  24  26
ENDBRANCH  23  24
ENDBRANCH   4  23
BRANCH   4  29
HETATM   29  C   UNL     1     -10.659  11.105  66.109  1.00  0.00    -0.248 C  
HETATM   30  O   UNL     1     -10.684  11.017  64.879  1.00  0.00    -0.286 OA 
BRANCH  29  31
HETATM   31  O   UNL     1     -11.724  11.767  66.697  1.00  0.00    -0.548 OA 
HETATM   32  C   UNL     1     -12.176  12.911  65.872  1.00  0.00    -0.407 C  
HETATM   33 CL   UNL     1     -11.139  14.348  66.110  1.00  0.00    -0.323 Cl 
ENDBRANCH  29  31
ENDBRANCH   4  29
TORSDOF 6
ENDMDL
MODEL       46
REMARK 921   NORMALIZED FREE ENERGY PREDICTED BY IDOCK:   -4.64 KCAL/MOL
REMARK 922        TOTAL FREE ENERGY PREDICTED BY IDOCK:   -5.95 KCAL/MOL
REMARK 923 INTER-LIGAND FREE ENERGY PREDICTED BY IDOCK:   -5.96 KCAL/MOL
REMARK 924 INTRA-LIGAND FREE ENERGY PREDICTED BY IDOCK:    0.00 KCAL/MOL
REMARK 927      BINDING AFFINITY PREDICTED BY RF-SCORE:    0.00 PKD
ROOT
HETATM    1  C   UNL     1      -7.895   8.105  69.807  1.00  0.00    -0.105 C  
HETATM    2  C   UNL     1      -6.494   7.897  69.725  1.00  0.00    -0.034 C  
HETATM    3  C   UNL     1      -7.200   8.453  68.538  1.00  0.00    -0.081 C  
HETATM    4  C   UNL     1      -9.097   9.256  68.836  1.00  0.00    -0.139 C  
HETATM    5  C   UNL     1      -7.832   9.786  68.858  1.00  0.00    -0.087 C  
HETATM    6  C   UNL     1     -10.884   5.841  66.545  1.00  0.00    -0.227 C  
HETATM    7  C   UNL     1      -8.459   5.454  69.476  1.00  0.00    -0.100 C  
HETATM    8  C   UNL     1      -9.375   5.582  66.519  1.00  0.00    -0.154 C  
HETATM    9  C   UNL     1      -8.670   5.388  65.098  1.00  0.00    -0.133 C  
HETATM   10  C   UNL     1      -7.945   9.666  66.959  1.00  0.00    -0.109 C  
HETATM   11  C   UNL     1      -7.973   4.326  64.660  1.00  0.00    -0.090 C  
HETATM   12  C   UNL     1      -7.289  10.921  69.689  1.00  0.00    -0.068 C  
HETATM   13  O   UNL     1      -9.904   2.896  64.568  1.00  0.00    -0.143 OA 
HETATM   14  C   UNL     1      -8.860   8.305  66.472  1.00  0.00    -0.150 C  
HETATM   15  C   UNL     1      -8.980   3.334  65.234  1.00  0.00    -0.142 C  
HETATM   16  C   UNL     1      -8.834   3.159  66.688  1.00  0.00    -0.153 C  
HETATM   17  O   UNL     1     -10.227   8.728  66.555  1.00  0.00    -0.288 OA 
HETATM   18  C   UNL     1      -9.118   4.289  67.344  1.00  0.00    -0.155 C  
HETATM   19  C   UNL     1      -8.642   6.795  67.183  1.00  0.00    -0.120 C  
HETATM   20  C   UNL     1      -9.250   4.326  68.842  1.00  0.00    -0.205 C  
HETATM   21  H   UNL     1     -10.735   7.972  66.286  1.00  0.00     0.000 HD 
HETATM   22  C   UNL     1      -8.791   6.810  68.853  1.00  0.00    -0.128 C  
ENDROOT
BRANCH   4  23
HETATM   23  O   UNL     1      -9.632   9.500  70.343  1.00  0.00    -0.244 OA 
BRANCH  23  24
HETATM   24  C   UNL     1     -10.914   9.238  70.811  1.00  0.00    -0.284 C  
HETATM   25  O   UNL     1     -11.588  10.012  71.467  1.00  0.00    -0.353 OA 
BRANCH  24  26
HETATM   26  O   UNL     1     -11.408   8.102  70.222  1.00  0.00    -0.236 OA 
BRANCH  26  27
HETATM   27  C   UNL     1     -12.155   7.267  71.138  1.00  0.00    -0.340 C  
HETATM   28  C   UNL     1     -11.366   6.092  71.706  1.00  0.00    -0.346 C  
ENDBRANCH  26  27
ENDBRANCH  24  26
ENDBRANCH  23  24
ENDBRANCH   4  23
BRANCH   4  29
HETATM   29  C   UNL     1      -9.839  10.815  68.298  1.00  0.00    -0.166 C  
HETATM   30  O   UNL     1      -9.228  11.877  68.142  1.00  0.00    -0.176 OA 
BRANCH  29  31
HETATM   31  O   UNL     1     -11.208  10.862  68.093  1.00  0.00    -0.255 OA 
HETATM   32  C   UNL     1     -11.720  12.251  68.149  1.00  0.00    -0.349 C  
HETATM   33 CL   UNL     1     -11.945  12.805  69.834  1.00  0.00    -0.395 Cl 
ENDBRANCH  29  31
ENDBRANCH   4  29
TORSDOF 6
ENDMDL
MODEL       47
REMARK 921   NORMALIZED FREE ENERGY PREDICTED BY IDOCK:   -4.63 KCAL/MOL
REMARK 922        TOTAL FREE ENERGY PREDICTED BY IDOCK:   -5.94 KCAL/MOL
REMARK 923 INTER-LIGAND FREE ENERGY PREDICTED BY IDOCK:   -6.29 KCAL/MOL
REMARK 924 INTRA-LIGAND FREE ENERGY PREDICTED BY IDOCK:    0.36 KCAL/MOL
REMARK 927      BINDING AFFINITY PREDICTED BY RF-SCORE:    0.00 PKD
ROOT
HETATM    1  C   UNL     1      -8.881  14.058  67.769  1.00  0.00    -0.187 C  
HETATM    2  C   UNL     1      -7.903  13.578  68.676  1.00  0.00    -0.084 C  
HETATM    3  C   UNL     1      -9.186  12.834  68.557  1.00  0.00    -0.062 C  
HETATM    4  C   UNL     1     -10.359  13.202  66.877  1.00  0.00    -0.247 C  
HETATM    5  C   UNL     1      -9.372  12.292  67.160  1.00  0.00    -0.196 C  
HETATM    6  C   UNL     1     -13.400  15.237  69.468  1.00  0.00     1.196 C  
HETATM    7  C   UNL     1      -9.667  16.065  69.446  1.00  0.00    -0.248 C  
HETATM    8  C   UNL     1     -12.306  14.779  70.436  1.00  0.00    -0.402 C  
HETATM    9  C   UNL     1     -12.735  13.866  71.676  1.00  0.00    -0.416 C  
HETATM   10  C   UNL     1     -10.724  11.415  68.179  1.00  0.00    -0.241 C  
HETATM   11  C   UNL     1     -12.564  14.119  72.986  1.00  0.00    -0.222 C  
HETATM   12  C   UNL     1      -8.353  11.675  66.236  1.00  0.00    -0.027 C  
HETATM   13  O   UNL     1     -14.143  15.932  73.004  1.00  0.00    -0.518 OA 
HETATM   14  C   UNL     1     -11.804  12.540  68.883  1.00  0.00    -0.301 C  
HETATM   15  C   UNL     1     -12.988  15.577  72.836  1.00  0.00    -0.477 C  
HETATM   16  C   UNL     1     -11.924  16.418  72.268  1.00  0.00    -0.521 C  
HETATM   17  O   UNL     1     -12.745  12.848  67.847  1.00  0.00     0.417 OA 
HETATM   18  C   UNL     1     -11.637  16.059  71.012  1.00  0.00    -0.472 C  
HETATM   19  C   UNL     1     -11.253  13.935  69.645  1.00  0.00    -0.196 C  
HETATM   20  C   UNL     1     -10.740  16.887  70.133  1.00  0.00     0.141 C  
HETATM   21  H   UNL     1     -13.344  13.473  68.237  1.00  0.00     0.000 HD 
HETATM   22  C   UNL     1     -10.253  14.877  68.683  1.00  0.00    -0.236 C  
ENDROOT
BRANCH   4  23
HETATM   23  O   UNL     1      -9.744  14.052  65.646  1.00  0.00    -0.251 OA 
BRANCH  23  24
HETATM   24  C   UNL     1     -10.283  15.211  65.098  1.00  0.00    -0.351 C  
HETATM   25  O   UNL     1     -11.435  15.332  64.722  1.00  0.00    -0.401 OA 
BRANCH  24  26
HETATM   26  O   UNL     1      -9.420  16.261  65.277  1.00  0.00    -0.316 OA 
BRANCH  26  27
HETATM   27  C   UNL     1     -10.064  17.435  65.825  1.00  0.00    -0.123 C  
HETATM   28  C   UNL     1      -9.205  18.223  66.810  1.00  0.00    -0.288 C  
ENDBRANCH  26  27
ENDBRANCH  24  26
ENDBRANCH  23  24
ENDBRANCH   4  23
BRANCH   4  29
HETATM   29  C   UNL     1     -11.184  12.083  65.720  1.00  0.00    -0.334 C  
HETATM   30  O   UNL     1     -10.670  11.084  65.209  1.00  0.00    -0.246 OA 
BRANCH  29  31
HETATM   31  O   UNL     1     -12.475  12.381  65.316  1.00  0.00    -0.611 OA 
HETATM   32  C   UNL     1     -12.715  11.972  63.913  1.00  0.00    -0.354 C  
HETATM   33 CL   UNL     1     -12.067  13.171  62.755  1.00  0.00     0.279 Cl 
ENDBRANCH  29  31
ENDBRANCH   4  29
TORSDOF 6
ENDMDL
MODEL       48
REMARK 921   NORMALIZED FREE ENERGY PREDICTED BY IDOCK:   -4.62 KCAL/MOL
REMARK 922        TOTAL FREE ENERGY PREDICTED BY IDOCK:   -5.93 KCAL/MOL
REMARK 923 INTER-LIGAND FREE ENERGY PREDICTED BY IDOCK:   -5.68 KCAL/MOL
REMARK 924 INTRA-LIGAND FREE ENERGY PREDICTED BY IDOCK:   -0.24 KCAL/MOL
REMARK 927      BINDING AFFINITY PREDICTED BY RF-SCORE:    0.00 PKD
ROOT
HETATM    1  C   UNL     1      -8.894   7.290  69.852  1.00  0.00    -0.142 C  
HETATM    2  C   UNL     1      -9.849   7.506  70.878  1.00  0.00    -0.177 C  
HETATM    3  C   UNL     1     -10.334   7.331  69.481  1.00  0.00    -0.230 C  
HETATM    4  C   UNL     1      -9.020   6.485  68.106  1.00  0.00    -0.116 C  
HETATM    5  C   UNL     1      -9.971   5.966  68.948  1.00  0.00    -0.201 C  
HETATM    6  C   UNL     1      -8.701  10.434  66.008  1.00  0.00    -0.163 C  
HETATM    7  C   UNL     1      -8.175   9.923  69.761  1.00  0.00    -0.191 C  
HETATM    8  C   UNL     1      -9.678  10.682  67.160  1.00  0.00    -0.199 C  
HETATM    9  C   UNL     1     -11.116  11.284  66.809  1.00  0.00    -0.314 C  
HETATM   10  C   UNL     1     -11.212   6.644  67.671  1.00  0.00    -0.260 C  
HETATM   11  C   UNL     1     -11.666  12.426  67.259  1.00  0.00    -0.419 C  
HETATM   12  C   UNL     1      -9.993   4.633  69.653  1.00  0.00    -0.281 C  
HETATM   13  O   UNL     1     -10.122  13.828  66.062  1.00  0.00    -0.295 OA 
HETATM   14  C   UNL     1     -10.646   8.093  66.958  1.00  0.00    -0.275 C  
HETATM   15  C   UNL     1     -10.367  13.208  67.084  1.00  0.00    -0.247 C  
HETATM   16  C   UNL     1      -9.400  12.943  68.160  1.00  0.00    -0.214 C  
HETATM   17  O   UNL     1      -9.759   7.671  65.914  1.00  0.00    -0.427 OA 
HETATM   18  C   UNL     1      -8.989  11.671  68.142  1.00  0.00    -0.182 C  
HETATM   19  C   UNL     1      -9.964   9.323  67.882  1.00  0.00    -0.228 C  
HETATM   20  C   UNL     1      -7.848  11.192  68.998  1.00  0.00    -0.103 C  
HETATM   21  H   UNL     1      -9.444   8.475  65.519  1.00  0.00     0.000 HD 
HETATM   22  C   UNL     1      -8.686   8.814  68.840  1.00  0.00    -0.134 C  
ENDROOT
BRANCH   4  23
HETATM   23  O   UNL     1      -7.647   5.808  68.628  1.00  0.00    -0.086 OA 
BRANCH  23  24
HETATM   24  C   UNL     1      -6.401   5.906  68.020  1.00  0.00    -0.041 C  
HETATM   25  O   UNL     1      -5.588   5.001  67.949  1.00  0.00    -0.015 OA 
BRANCH  24  26
HETATM   26  O   UNL     1      -6.320   7.067  67.296  1.00  0.00    -0.047 OA 
BRANCH  26  27
HETATM   27  C   UNL     1      -5.204   7.902  67.686  1.00  0.00    -0.032 C  
HETATM   28  C   UNL     1      -5.144   9.248  66.973  1.00  0.00    -0.035 C  
ENDBRANCH  26  27
ENDBRANCH  24  26
ENDBRANCH  23  24
ENDBRANCH   4  23
BRANCH   4  29
HETATM   29  C   UNL     1      -9.238   5.159  66.896  1.00  0.00    -0.118 C  
HETATM   30  O   UNL     1      -9.900   4.133  67.077  1.00  0.00    -0.212 OA 
BRANCH  29  31
HETATM   31  O   UNL     1      -8.574   5.252  65.684  1.00  0.00    -0.131 OA 
HETATM   32  C   UNL     1      -8.446   3.929  65.030  1.00  0.00    -0.109 C  
HETATM   33 CL   UNL     1      -7.089   2.985  65.710  1.00  0.00    -0.060 Cl 
ENDBRANCH  29  31
ENDBRANCH   4  29
TORSDOF 6
ENDMDL
MODEL       49
REMARK 921   NORMALIZED FREE ENERGY PREDICTED BY IDOCK:   -4.59 KCAL/MOL
REMARK 922        TOTAL FREE ENERGY PREDICTED BY IDOCK:   -5.89 KCAL/MOL
REMARK 923 INTER-LIGAND FREE ENERGY PREDICTED BY IDOCK:   -6.30 KCAL/MOL
REMARK 924 INTRA-LIGAND FREE ENERGY PREDICTED BY IDOCK:    0.40 KCAL/MOL
REMARK 927      BINDING AFFINITY PREDICTED BY RF-SCORE:    0.00 PKD
ROOT
HETATM    1  C   UNL     1      -8.298   7.027  68.102  1.00  0.00    -0.123 C  
HETATM    2  C   UNL     1      -7.164   7.090  67.254  1.00  0.00    -0.089 C  
HETATM    3  C   UNL     1      -7.177   7.926  68.485  1.00  0.00    -0.085 C  
HETATM    4  C   UNL     1      -8.550   7.432  69.970  1.00  0.00    -0.140 C  
HETATM    5  C   UNL     1      -7.250   7.067  69.724  1.00  0.00    -0.079 C  
HETATM    6  C   UNL     1     -10.832  11.189  69.084  1.00  0.00    -0.284 C  
HETATM    7  C   UNL     1      -9.801   8.607  66.458  1.00  0.00    -0.348 C  
HETATM    8  C   UNL     1      -9.642  11.217  68.119  1.00  0.00    -0.186 C  
HETATM    9  C   UNL     1      -8.695  12.504  68.134  1.00  0.00    -0.190 C  
HETATM   10  C   UNL     1      -6.828   8.802  70.391  1.00  0.00    -0.045 C  
HETATM   11  C   UNL     1      -8.415  13.336  67.115  1.00  0.00    -0.182 C  
HETATM   12  C   UNL     1      -6.557   5.761  70.019  1.00  0.00    -0.043 C  
HETATM   13  O   UNL     1     -10.643  14.236  67.029  1.00  0.00    -0.276 OA 
HETATM   14  C   UNL     1      -8.039   9.940  69.984  1.00  0.00    -0.177 C  
HETATM   15  C   UNL     1      -9.868  13.373  66.649  1.00  0.00    -0.278 C  
HETATM   16  C   UNL     1     -10.252  12.166  65.901  1.00  0.00    -0.272 C  
HETATM   17  O   UNL     1      -9.055   9.773  70.981  1.00  0.00    -0.341 OA 
HETATM   18  C   UNL     1     -10.215  11.080  66.680  1.00  0.00    -0.280 C  
HETATM   19  C   UNL     1      -8.703  10.008  68.439  1.00  0.00    -0.117 C  
HETATM   20  C   UNL     1     -10.763   9.755  66.223  1.00  0.00     0.044 C  
HETATM   21  H   UNL     1      -9.728  10.404  70.755  1.00  0.00     0.000 HD 
HETATM   22  C   UNL     1      -9.325   8.543  67.910  1.00  0.00    -0.148 C  
ENDROOT
BRANCH   4  23
HETATM   23  O   UNL     1      -9.357   6.034  69.876  1.00  0.00    -0.145 OA 
BRANCH  23  24
HETATM   24  C   UNL     1     -10.573   5.745  70.484  1.00  0.00    -0.289 C  
HETATM   25  O   UNL     1     -10.716   4.996  71.433  1.00  0.00    -0.151 OA 
BRANCH  24  26
HETATM   26  O   UNL     1     -11.540   6.609  70.037  1.00  0.00    -0.380 OA 
BRANCH  26  27
HETATM   27  C   UNL     1     -12.030   7.494  71.072  1.00  0.00    -0.290 C  
HETATM   28  C   UNL     1     -13.466   7.221  71.506  1.00  0.00    -0.439 C  
ENDBRANCH  26  27
ENDBRANCH  24  26
ENDBRANCH  23  24
ENDBRANCH   4  23
BRANCH   4  29
HETATM   29  C   UNL     1      -8.365   7.230  71.757  1.00  0.00    -0.104 C  
HETATM   30  O   UNL     1      -7.734   6.324  72.308  1.00  0.00    -0.101 OA 
BRANCH  29  31
HETATM   31  O   UNL     1      -9.021   8.115  72.596  1.00  0.00    -0.186 OA 
HETATM   32  C   UNL     1      -9.038   7.629  73.995  1.00  0.00    -0.225 C  
HETATM   33 CL   UNL     1     -10.325   6.415  74.257  1.00  0.00    -0.346 Cl 
ENDBRANCH  29  31
ENDBRANCH   4  29
TORSDOF 6
ENDMDL
MODEL       50
REMARK 921   NORMALIZED FREE ENERGY PREDICTED BY IDOCK:   -4.58 KCAL/MOL
REMARK 922        TOTAL FREE ENERGY PREDICTED BY IDOCK:   -5.87 KCAL/MOL
REMARK 923 INTER-LIGAND FREE ENERGY PREDICTED BY IDOCK:   -6.36 KCAL/MOL
REMARK 924 INTRA-LIGAND FREE ENERGY PREDICTED BY IDOCK:    0.49 KCAL/MOL
REMARK 927      BINDING AFFINITY PREDICTED BY RF-SCORE:    0.00 PKD
ROOT
HETATM    1  C   UNL     1     -10.215   5.802  68.755  1.00  0.00    -0.255 C  
HETATM    2  C   UNL     1      -9.678   4.885  67.817  1.00  0.00    -0.199 C  
HETATM    3  C   UNL     1      -8.773   5.451  68.854  1.00  0.00    -0.099 C  
HETATM    4  C   UNL     1      -9.654   6.336  70.520  1.00  0.00    -0.165 C  
HETATM    5  C   UNL     1      -9.226   5.062  70.240  1.00  0.00    -0.190 C  
HETATM    6  C   UNL     1      -8.248  10.353  69.109  1.00  0.00    -0.157 C  
HETATM    7  C   UNL     1     -10.211   7.866  66.967  1.00  0.00    -0.382 C  
HETATM    8  C   UNL     1      -7.730   9.366  68.059  1.00  0.00    -0.084 C  
HETATM    9  C   UNL     1      -6.165   9.367  67.736  1.00  0.00    -0.054 C  
HETATM   10  C   UNL     1      -7.483   5.783  70.511  1.00  0.00    -0.086 C  
HETATM   11  C   UNL     1      -5.565   9.585  66.553  1.00  0.00    -0.049 C  
HETATM   12  C   UNL     1      -9.777   3.746  70.727  1.00  0.00    -0.235 C  
HETATM   13  O   UNL     1      -6.190  11.906  66.483  1.00  0.00    -0.109 OA 
HETATM   14  C   UNL     1      -7.392   7.411  69.994  1.00  0.00    -0.082 C  
HETATM   15  C   UNL     1      -6.488  10.753  66.216  1.00  0.00    -0.134 C  
HETATM   16  C   UNL     1      -7.814  10.311  65.758  1.00  0.00    -0.145 C  
HETATM   17  O   UNL     1      -7.910   8.177  71.089  1.00  0.00    -0.082 OA 
HETATM   18  C   UNL     1      -8.477   9.675  66.731  1.00  0.00    -0.129 C  
HETATM   19  C   UNL     1      -8.055   7.910  68.529  1.00  0.00    -0.123 C  
HETATM   20  C   UNL     1      -9.929   9.309  66.594  1.00  0.00    -0.333 C  
HETATM   21  H   UNL     1      -7.860   9.081  70.801  1.00  0.00     0.000 HD 
HETATM   22  C   UNL     1      -9.676   7.516  68.356  1.00  0.00    -0.161 C  
ENDROOT
BRANCH   4  23
HETATM   23  O   UNL     1     -11.241   6.151  70.775  1.00  0.00    -0.302 OA 
BRANCH  23  24
HETATM   24  C   UNL     1     -12.144   7.160  71.088  1.00  0.00    -0.358 C  
HETATM   25  O   UNL     1     -13.220   6.987  71.633  1.00  0.00    -0.374 OA 
BRANCH  24  26
HETATM   26  O   UNL     1     -11.553   8.387  70.934  1.00  0.00    -0.277 OA 
BRANCH  26  27
HETATM   27  C   UNL     1     -12.450   9.488  71.211  1.00  0.00    -0.346 C  
HETATM   28  C   UNL     1     -12.018  10.821  70.610  1.00  0.00    -0.466 C  
ENDBRANCH  26  27
ENDBRANCH  24  26
ENDBRANCH  23  24
ENDBRANCH   4  23
BRANCH   4  29
HETATM   29  C   UNL     1      -9.328   6.154  72.290  1.00  0.00    -0.146 C  
HETATM   30  O   UNL     1      -8.296   5.685  72.778  1.00  0.00    -0.119 OA 
BRANCH  29  31
HETATM   31  O   UNL     1     -10.321   6.511  73.186  1.00  0.00    -0.200 OA 
HETATM   32  C   UNL     1     -10.521   5.470  74.220  1.00  0.00    -0.247 C  
HETATM   33 CL   UNL     1     -11.536   4.126  73.617  1.00  0.00    -0.274 Cl 
ENDBRANCH  29  31
ENDBRANCH   4  29
TORSDOF 6
ENDMDL
MODEL       51
REMARK 921   NORMALIZED FREE ENERGY PREDICTED BY IDOCK:   -4.52 KCAL/MOL
REMARK 922        TOTAL FREE ENERGY PREDICTED BY IDOCK:   -5.80 KCAL/MOL
REMARK 923 INTER-LIGAND FREE ENERGY PREDICTED BY IDOCK:   -5.77 KCAL/MOL
REMARK 924 INTRA-LIGAND FREE ENERGY PREDICTED BY IDOCK:   -0.03 KCAL/MOL
REMARK 927      BINDING AFFINITY PREDICTED BY RF-SCORE:    0.00 PKD
ROOT
HETATM    1  C   UNL     1      -7.582   7.220  68.455  1.00  0.00    -0.118 C  
HETATM    2  C   UNL     1      -6.272   7.563  68.033  1.00  0.00    -0.040 C  
HETATM    3  C   UNL     1      -6.907   8.376  69.106  1.00  0.00    -0.055 C  
HETATM    4  C   UNL     1      -8.553   7.560  70.085  1.00  0.00    -0.141 C  
HETATM    5  C   UNL     1      -7.202   7.533  70.323  1.00  0.00    -0.064 C  
HETATM    6  C   UNL     1     -11.201  10.613  68.144  1.00  0.00    -0.366 C  
HETATM    7  C   UNL     1      -8.748   8.360  66.265  1.00  0.00    -0.164 C  
HETATM    8  C   UNL     1      -9.793  10.935  67.634  1.00  0.00    -0.192 C  
HETATM    9  C   UNL     1      -9.240  12.420  67.844  1.00  0.00    -0.192 C  
HETATM   10  C   UNL     1      -7.457   9.323  70.929  1.00  0.00    -0.123 C  
HETATM   11  C   UNL     1      -8.828  13.289  66.905  1.00  0.00    -0.186 C  
HETATM   12  C   UNL     1      -6.368   6.446  70.952  1.00  0.00    -0.047 C  
HETATM   13  O   UNL     1     -11.033  13.597  65.997  1.00  0.00    -0.286 OA 
HETATM   14  C   UNL     1      -8.683  10.115  70.037  1.00  0.00     0.027 C  
HETATM   15  C   UNL     1      -9.995  12.956  65.980  1.00  0.00    -0.272 C  
HETATM   16  C   UNL     1      -9.801  11.687  65.262  1.00  0.00    -0.279 C  
HETATM   17  O   UNL     1      -9.912   9.703  70.649  1.00  0.00    -0.273 OA 
HETATM   18  C   UNL     1      -9.782  10.649  66.106  1.00  0.00    -0.253 C  
HETATM   19  C   UNL     1      -8.767  10.004  68.360  1.00  0.00    -0.117 C  
HETATM   20  C   UNL     1      -9.810   9.227  65.617  1.00  0.00    -0.237 C  
HETATM   21  H   UNL     1     -10.593  10.142  70.153  1.00  0.00     0.000 HD 
HETATM   22  C   UNL     1      -8.804   8.427  67.792  1.00  0.00    -0.137 C  
ENDROOT
BRANCH   4  23
HETATM   23  O   UNL     1      -8.925   6.002  69.858  1.00  0.00    -0.138 OA 
BRANCH  23  24
HETATM   24  C   UNL     1     -10.200   5.450  69.885  1.00  0.00    -0.281 C  
HETATM   25  O   UNL     1     -11.206   6.001  69.475  1.00  0.00    -0.398 OA 
BRANCH  24  26
HETATM   26  O   UNL     1     -10.130   4.116  70.195  1.00  0.00    -0.163 OA 
BRANCH  26  27
HETATM   27  C   UNL     1      -8.917   3.762  70.899  1.00  0.00    -0.092 C  
HETATM   28  C   UNL     1      -8.150   2.595  70.285  1.00  0.00    -0.056 C  
ENDBRANCH  26  27
ENDBRANCH  24  26
ENDBRANCH  23  24
ENDBRANCH   4  23
BRANCH   4  29
HETATM   29  C   UNL     1      -8.957   7.420  71.843  1.00  0.00    -0.125 C  
HETATM   30  O   UNL     1      -8.222   6.930  72.704  1.00  0.00    -0.109 OA 
BRANCH  29  31
HETATM   31  O   UNL     1     -10.207   7.838  72.270  1.00  0.00    -0.200 OA 
HETATM   32  C   UNL     1     -10.594   7.184  73.541  1.00  0.00    -0.374 C  
HETATM   33 CL   UNL     1     -11.230   5.534  73.268  1.00  0.00    -0.319 Cl 
ENDBRANCH  29  31
ENDBRANCH   4  29
TORSDOF 6
ENDMDL
MODEL       52
REMARK 921   NORMALIZED FREE ENERGY PREDICTED BY IDOCK:   -4.52 KCAL/MOL
REMARK 922        TOTAL FREE ENERGY PREDICTED BY IDOCK:   -5.80 KCAL/MOL
REMARK 923 INTER-LIGAND FREE ENERGY PREDICTED BY IDOCK:   -7.33 KCAL/MOL
REMARK 924 INTRA-LIGAND FREE ENERGY PREDICTED BY IDOCK:    1.54 KCAL/MOL
REMARK 927      BINDING AFFINITY PREDICTED BY RF-SCORE:    0.00 PKD
ROOT
HETATM    1  C   UNL     1      -8.244  13.476  67.519  1.00  0.00    -0.186 C  
HETATM    2  C   UNL     1      -7.741  13.502  68.844  1.00  0.00     0.030 C  
HETATM    3  C   UNL     1      -9.185  13.792  68.627  1.00  0.00    -0.069 C  
HETATM    4  C   UNL     1     -10.016  13.225  66.804  1.00  0.00    -0.263 C  
HETATM    5  C   UNL     1      -9.892  12.604  68.021  1.00  0.00    -0.218 C  
HETATM    6  C   UNL     1     -10.418  17.542  65.663  1.00  0.00    -0.156 C  
HETATM    7  C   UNL     1      -7.188  15.921  66.911  1.00  0.00    -0.173 C  
HETATM    8  C   UNL     1      -9.809  17.564  67.068  1.00  0.00    -0.295 C  
HETATM    9  C   UNL     1     -10.559  18.409  68.198  1.00  0.00    -0.298 C  
HETATM   10  C   UNL     1     -11.310  13.762  68.553  1.00  0.00    -0.318 C  
HETATM   11  C   UNL     1     -10.074  19.431  68.925  1.00  0.00    -0.459 C  
HETATM   12  C   UNL     1      -9.721  11.138  68.328  1.00  0.00    -0.190 C  
HETATM   13  O   UNL     1      -9.958  20.923  67.043  1.00  0.00    -0.324 OA 
HETATM   14  C   UNL     1     -11.209  15.276  67.762  1.00  0.00    -0.326 C  
HETATM   15  C   UNL     1      -9.401  20.070  67.714  1.00  0.00    -0.354 C  
HETATM   16  C   UNL     1      -8.147  19.395  67.344  1.00  0.00    -0.313 C  
HETATM   17  O   UNL     1     -11.821  15.067  66.483  1.00  0.00    -0.215 OA 
HETATM   18  C   UNL     1      -8.372  18.142  66.936  1.00  0.00    -0.258 C  
HETATM   19  C   UNL     1      -9.749  16.100  67.616  1.00  0.00    -0.233 C  
HETATM   20  C   UNL     1      -7.292  17.306  66.304  1.00  0.00    -0.342 C  
HETATM   21  H   UNL     1     -11.765  15.908  66.044  1.00  0.00     0.000 HD 
HETATM   22  C   UNL     1      -8.531  15.190  66.910  1.00  0.00    -0.278 C  
ENDROOT
BRANCH   4  23
HETATM   23  O   UNL     1      -9.174  12.269  65.807  1.00  0.00    -0.120 OA 
BRANCH  23  24
HETATM   24  C   UNL     1      -9.458  12.026  64.468  1.00  0.00     0.139 C  
HETATM   25  O   UNL     1      -9.670  12.889  63.635  1.00  0.00    -0.078 OA 
BRANCH  24  26
HETATM   26  O   UNL     1      -9.213  10.712  64.165  1.00  0.00    -0.205 OA 
BRANCH  26  27
HETATM   27  C   UNL     1      -8.285  10.082  65.080  1.00  0.00    -0.148 C  
HETATM   28  C   UNL     1      -8.722   8.707  65.573  1.00  0.00    -0.219 C  
ENDBRANCH  26  27
ENDBRANCH  24  26
ENDBRANCH  23  24
ENDBRANCH   4  23
BRANCH   4  29
HETATM   29  C   UNL     1     -11.539  12.336  66.403  1.00  0.00    -0.383 C  
HETATM   30  O   UNL     1     -11.672  11.109  66.421  1.00  0.00    -0.174 OA 
BRANCH  29  31
HETATM   31  O   UNL     1     -12.641  13.065  65.987  1.00  0.00    -0.453 OA 
HETATM   32  C   UNL     1     -13.161  12.572  64.691  1.00  0.00     0.118 C  
HETATM   33 CL   UNL     1     -12.211  13.205  63.314  1.00  0.00    -0.575 Cl 
ENDBRANCH  29  31
ENDBRANCH   4  29
TORSDOF 6
ENDMDL
MODEL       53
REMARK 921   NORMALIZED FREE ENERGY PREDICTED BY IDOCK:   -4.48 KCAL/MOL
REMARK 922        TOTAL FREE ENERGY PREDICTED BY IDOCK:   -5.74 KCAL/MOL
REMARK 923 INTER-LIGAND FREE ENERGY PREDICTED BY IDOCK:   -5.88 KCAL/MOL
REMARK 924 INTRA-LIGAND FREE ENERGY PREDICTED BY IDOCK:    0.15 KCAL/MOL
REMARK 927      BINDING AFFINITY PREDICTED BY RF-SCORE:    0.00 PKD
ROOT
HETATM    1  C   UNL     1      -7.422   9.170  69.250  1.00  0.00    -0.075 C  
HETATM    2  C   UNL     1      -7.165   9.491  70.607  1.00  0.00    -0.130 C  
HETATM    3  C   UNL     1      -8.547   9.096  70.220  1.00  0.00    -0.218 C  
HETATM    4  C   UNL     1      -8.794   8.117  68.399  1.00  0.00    -0.133 C  
HETATM    5  C   UNL     1      -8.579   7.686  69.684  1.00  0.00    -0.136 C  
HETATM    6  C   UNL     1     -10.874  11.733  66.757  1.00  0.00    -0.312 C  
HETATM    7  C   UNL     1      -7.462  11.791  68.481  1.00  0.00    -0.110 C  
HETATM    8  C   UNL     1     -10.532  12.103  68.203  1.00  0.00    -0.225 C  
HETATM    9  C   UNL     1     -11.720  12.588  69.155  1.00  0.00    -0.375 C  
HETATM   10  C   UNL     1     -10.416   8.120  69.945  1.00  0.00    -0.226 C  
HETATM   11  C   UNL     1     -11.830  13.758  69.808  1.00  0.00    -0.394 C  
HETATM   12  C   UNL     1      -7.831   6.468  70.166  1.00  0.00    -0.107 C  
HETATM   13  O   UNL     1     -12.121  15.037  67.793  1.00  0.00    -0.211 OA 
HETATM   14  C   UNL     1     -10.878   9.473  69.006  1.00  0.00    -0.160 C  
HETATM   15  C   UNL     1     -11.344  14.560  68.605  1.00  0.00    -0.276 C  
HETATM   16  C   UNL     1      -9.885  14.494  68.434  1.00  0.00    -0.227 C  
HETATM   17  O   UNL     1     -11.159   8.943  67.705  1.00  0.00    -0.478 OA 
HETATM   18  C   UNL     1      -9.485  13.251  68.147  1.00  0.00    -0.222 C  
HETATM   19  C   UNL     1      -9.916  10.852  68.912  1.00  0.00    -0.208 C  
HETATM   20  C   UNL     1      -8.075  12.949  67.718  1.00  0.00    -0.166 C  
HETATM   21  H   UNL     1     -11.415   9.695  67.183  1.00  0.00     0.000 HD 
HETATM   22  C   UNL     1      -8.341  10.540  68.431  1.00  0.00    -0.126 C  
ENDROOT
BRANCH   4  23
HETATM   23  O   UNL     1      -7.494   7.581  67.600  1.00  0.00    -0.099 OA 
BRANCH  23  24
HETATM   24  C   UNL     1      -7.367   7.469  66.220  1.00  0.00    -0.082 C  
HETATM   25  O   UNL     1      -6.968   6.478  65.636  1.00  0.00    -0.054 OA 
BRANCH  24  26
HETATM   26  O   UNL     1      -7.990   8.524  65.603  1.00  0.00    -0.097 OA 
BRANCH  26  27
HETATM   27  C   UNL     1      -7.164   9.161  64.601  1.00  0.00    -0.098 C  
HETATM   28  C   UNL     1      -7.702   9.053  63.178  1.00  0.00    -0.115 C  
ENDBRANCH  26  27
ENDBRANCH  24  26
ENDBRANCH  23  24
ENDBRANCH   4  23
BRANCH   4  29
HETATM   29  C   UNL     1      -9.710   6.623  67.954  1.00  0.00    -0.122 C  
HETATM   30  O   UNL     1      -9.758   5.591  68.629  1.00  0.00    -0.128 OA 
BRANCH  29  31
HETATM   31  O   UNL     1     -10.372   6.589  66.738  1.00  0.00    -0.212 OA 
HETATM   32  C   UNL     1     -10.772   5.210  66.374  1.00  0.00    -0.210 C  
HETATM   33 CL   UNL     1      -9.409   4.292  65.667  1.00  0.00    -0.149 Cl 
ENDBRANCH  29  31
ENDBRANCH   4  29
TORSDOF 6
ENDMDL
MODEL       54
REMARK 921   NORMALIZED FREE ENERGY PREDICTED BY IDOCK:   -4.45 KCAL/MOL
REMARK 922        TOTAL FREE ENERGY PREDICTED BY IDOCK:   -5.70 KCAL/MOL
REMARK 923 INTER-LIGAND FREE ENERGY PREDICTED BY IDOCK:   -6.09 KCAL/MOL
REMARK 924 INTRA-LIGAND FREE ENERGY PREDICTED BY IDOCK:    0.39 KCAL/MOL
REMARK 927      BINDING AFFINITY PREDICTED BY RF-SCORE:    0.00 PKD
ROOT
HETATM    1  C   UNL     1     -10.114   8.456  69.263  1.00  0.00    -0.202 C  
HETATM    2  C   UNL     1     -11.283   7.725  68.931  1.00  0.00     0.363 C  
HETATM    3  C   UNL     1     -10.300   8.021  67.853  1.00  0.00    -0.282 C  
HETATM    4  C   UNL     1      -8.381   8.587  68.428  1.00  0.00    -0.124 C  
HETATM    5  C   UNL     1      -8.966   7.379  68.143  1.00  0.00    -0.129 C  
HETATM    6  C   UNL     1      -9.171  12.734  66.916  1.00  0.00    -0.229 C  
HETATM    7  C   UNL     1     -11.443  10.840  69.339  1.00  0.00    -0.366 C  
HETATM    8  C   UNL     1     -10.459  11.959  66.623  1.00  0.00    -0.250 C  
HETATM    9  C   UNL     1     -11.003  11.949  65.120  1.00  0.00    -0.365 C  
HETATM   10  C   UNL     1      -8.820   7.941  66.328  1.00  0.00    -0.188 C  
HETATM   11  C   UNL     1     -12.197  12.375  64.671  1.00  0.00    -0.499 C  
HETATM   12  C   UNL     1      -8.671   6.019  68.725  1.00  0.00    -0.111 C  
HETATM   13  O   UNL     1     -11.717  14.689  65.116  1.00  0.00    -0.357 OA 
HETATM   14  C   UNL     1      -9.016   9.634  66.181  1.00  0.00    -0.154 C  
HETATM   15  C   UNL     1     -12.157  13.631  65.537  1.00  0.00    -0.411 C  
HETATM   16  C   UNL     1     -12.491  13.358  66.943  1.00  0.00    -0.114 C  
HETATM   17  O   UNL     1      -7.728  10.185  66.484  1.00  0.00    -0.104 OA 
HETATM   18  C   UNL     1     -11.575  12.571  67.516  1.00  0.00    -0.424 C  
HETATM   19  C   UNL     1     -10.240  10.456  66.994  1.00  0.00    -0.277 C  
HETATM   20  C   UNL     1     -11.564  12.312  68.998  1.00  0.00    -0.368 C  
HETATM   21  H   UNL     1      -7.837  11.125  66.403  1.00  0.00     0.000 HD 
HETATM   22  C   UNL     1     -10.245  10.186  68.650  1.00  0.00    -0.193 C  
ENDROOT
BRANCH   4  23
HETATM   23  O   UNL     1      -7.936   8.433  69.975  1.00  0.00    -0.103 OA 
BRANCH  23  24
HETATM   24  C   UNL     1      -7.317   9.406  70.752  1.00  0.00    -0.111 C  
HETATM   25  O   UNL     1      -7.083  10.544  70.386  1.00  0.00    -0.273 OA 
BRANCH  24  26
HETATM   26  O   UNL     1      -7.242   8.991  72.056  1.00  0.00    -0.315 OA 
BRANCH  26  27
HETATM   27  C   UNL     1      -8.419   8.271  72.491  1.00  0.00    -0.187 C  
HETATM   28  C   UNL     1      -8.137   6.882  73.054  1.00  0.00    -0.115 C  
ENDBRANCH  26  27
ENDBRANCH  24  26
ENDBRANCH  23  24
ENDBRANCH   4  23
BRANCH   4  29
HETATM   29  C   UNL     1      -6.750   8.031  67.881  1.00  0.00    -0.068 C  
HETATM   30  O   UNL     1      -5.710   8.690  67.962  1.00  0.00    -0.035 OA 
BRANCH  29  31
HETATM   31  O   UNL     1      -6.643   6.793  67.269  1.00  0.00    -0.050 OA 
HETATM   32  C   UNL     1      -5.436   6.712  66.414  1.00  0.00    -0.017 C  
HETATM   33 CL   UNL     1      -5.700   7.486  64.823  1.00  0.00    -0.037 Cl 
ENDBRANCH  29  31
ENDBRANCH   4  29
TORSDOF 6
ENDMDL
MODEL       55
REMARK 921   NORMALIZED FREE ENERGY PREDICTED BY IDOCK:   -4.45 KCAL/MOL
REMARK 922        TOTAL FREE ENERGY PREDICTED BY IDOCK:   -5.70 KCAL/MOL
REMARK 923 INTER-LIGAND FREE ENERGY PREDICTED BY IDOCK:   -5.60 KCAL/MOL
REMARK 924 INTRA-LIGAND FREE ENERGY PREDICTED BY IDOCK:   -0.10 KCAL/MOL
REMARK 927      BINDING AFFINITY PREDICTED BY RF-SCORE:    0.00 PKD
ROOT
HETATM    1  C   UNL     1      -9.654   9.281  68.914  1.00  0.00    -0.155 C  
HETATM    2  C   UNL     1     -10.720   9.778  68.122  1.00  0.00    -0.280 C  
HETATM    3  C   UNL     1     -10.908   8.485  68.834  1.00  0.00    -0.009 C  
HETATM    4  C   UNL     1      -9.598   8.043  70.390  1.00  0.00    -0.174 C  
HETATM    5  C   UNL     1     -10.818   8.669  70.329  1.00  0.00    -0.250 C  
HETATM    6  C   UNL     1      -7.760   4.799  67.901  1.00  0.00    -0.082 C  
HETATM    7  C   UNL     1      -8.248   8.410  66.741  1.00  0.00    -0.102 C  
HETATM    8  C   UNL     1      -8.866   5.387  67.021  1.00  0.00    -0.110 C  
HETATM    9  C   UNL     1      -9.970   4.390  66.437  1.00  0.00    -0.252 C  
HETATM   10  C   UNL     1     -11.510   6.905  70.123  1.00  0.00    -0.354 C  
HETATM   11  C   UNL     1     -10.277   4.161  65.148  1.00  0.00    -0.218 C  
HETATM   12  C   UNL     1     -11.357   9.788  71.183  1.00  0.00    -0.459 C  
HETATM   13  O   UNL     1      -8.183   3.076  64.678  1.00  0.00    -0.086 OA 
HETATM   14  C   UNL     1     -10.428   5.908  69.251  1.00  0.00    -0.274 C  
HETATM   15  C   UNL     1      -8.810   4.121  64.729  1.00  0.00    -0.135 C  
HETATM   16  C   UNL     1      -8.218   5.463  64.620  1.00  0.00    -0.133 C  
HETATM   17  O   UNL     1      -9.477   5.452  70.222  1.00  0.00    -0.151 OA 
HETATM   18  C   UNL     1      -8.173   6.073  65.810  1.00  0.00    -0.136 C  
HETATM   19  C   UNL     1      -9.663   6.447  67.852  1.00  0.00    -0.124 C  
HETATM   20  C   UNL     1      -7.427   7.362  66.015  1.00  0.00    -0.083 C  
HETATM   21  H   UNL     1      -8.876   4.899  69.737  1.00  0.00     0.000 HD 
HETATM   22  C   UNL     1      -8.820   7.881  68.057  1.00  0.00    -0.124 C  
ENDROOT
BRANCH   4  23
HETATM   23  O   UNL     1      -8.613   9.196  70.954  1.00  0.00    -0.196 OA 
BRANCH  23  24
HETATM   24  C   UNL     1      -7.237   9.091  71.119  1.00  0.00    -0.097 C  
HETATM   25  O   UNL     1      -6.598   8.061  70.994  1.00  0.00    -0.037 OA 
BRANCH  24  26
HETATM   26  O   UNL     1      -6.673  10.339  71.186  1.00  0.00    -0.312 OA 
BRANCH  26  27
HETATM   27  C   UNL     1      -6.016  10.730  69.958  1.00  0.00    -0.094 C  
HETATM   28  C   UNL     1      -6.809  11.714  69.104  1.00  0.00    -0.111 C  
ENDBRANCH  26  27
ENDBRANCH  24  26
ENDBRANCH  23  24
ENDBRANCH   4  23
BRANCH   4  29
HETATM   29  C   UNL     1      -9.890   7.442  72.071  1.00  0.00    -0.162 C  
HETATM   30  O   UNL     1     -10.826   7.787  72.797  1.00  0.00    -0.317 OA 
BRANCH  29  31
HETATM   31  O   UNL     1      -8.973   6.567  72.630  1.00  0.00    -0.132 OA 
HETATM   32  C   UNL     1      -8.884   6.737  74.098  1.00  0.00    -0.165 C  
HETATM   33 CL   UNL     1      -7.843   8.124  74.541  1.00  0.00    -0.286 Cl 
ENDBRANCH  29  31
ENDBRANCH   4  29
TORSDOF 6
ENDMDL
MODEL       56
REMARK 921   NORMALIZED FREE ENERGY PREDICTED BY IDOCK:   -4.39 KCAL/MOL
REMARK 922        TOTAL FREE ENERGY PREDICTED BY IDOCK:   -5.62 KCAL/MOL
REMARK 923 INTER-LIGAND FREE ENERGY PREDICTED BY IDOCK:   -5.85 KCAL/MOL
REMARK 924 INTRA-LIGAND FREE ENERGY PREDICTED BY IDOCK:    0.23 KCAL/MOL
REMARK 927      BINDING AFFINITY PREDICTED BY RF-SCORE:    0.00 PKD
ROOT
HETATM    1  C   UNL     1      -8.112   9.339  69.066  1.00  0.00    -0.106 C  
HETATM    2  C   UNL     1      -8.871   9.586  70.238  1.00  0.00    -0.281 C  
HETATM    3  C   UNL     1      -9.573   9.060  69.035  1.00  0.00    -0.160 C  
HETATM    4  C   UNL     1      -8.407   8.198  67.541  1.00  0.00    -0.123 C  
HETATM    5  C   UNL     1      -9.045   7.700  68.649  1.00  0.00    -0.135 C  
HETATM    6  C   UNL     1      -9.336  11.656  64.843  1.00  0.00    -0.024 C  
HETATM    7  C   UNL     1      -7.990  11.986  68.407  1.00  0.00    -0.152 C  
HETATM    8  C   UNL     1     -10.099  11.954  66.137  1.00  0.00    -0.257 C  
HETATM    9  C   UNL     1     -11.671  12.223  66.037  1.00  0.00    -0.451 C  
HETATM   10  C   UNL     1     -10.626   7.894  67.603  1.00  0.00    -0.276 C  
HETATM   11  C   UNL     1     -12.347  13.320  66.420  1.00  0.00    -0.347 C  
HETATM   12  C   UNL     1      -8.650   6.547  69.536  1.00  0.00    -0.134 C  
HETATM   13  O   UNL     1     -11.395  14.703  64.699  1.00  0.00    -0.387 OA 
HETATM   14  C   UNL     1     -10.526   9.250  66.565  1.00  0.00    -0.134 C  
HETATM   15  C   UNL     1     -11.300  14.262  65.833  1.00  0.00    -0.328 C  
HETATM   16  C   UNL     1     -10.107  14.381  66.685  1.00  0.00    -0.276 C  
HETATM   17  O   UNL     1      -9.793   8.789  65.423  1.00  0.00    -0.394 OA 
HETATM   18  C   UNL     1      -9.451  13.219  66.769  1.00  0.00    -0.257 C  
HETATM   19  C   UNL     1      -9.947  10.735  67.105  1.00  0.00    -0.230 C  
HETATM   20  C   UNL     1      -8.090  13.118  67.402  1.00  0.00    -0.181 C  
HETATM   21  H   UNL     1      -9.736   9.542  64.846  1.00  0.00     0.000 HD 
HETATM   22  C   UNL     1      -8.429  10.648  67.811  1.00  0.00    -0.116 C  
ENDROOT
BRANCH   4  23
HETATM   23  O   UNL     1      -6.848   7.879  67.831  1.00  0.00    -0.068 OA 
BRANCH  23  24
HETATM   24  C   UNL     1      -5.823   7.877  66.892  1.00  0.00    -0.044 C  
HETATM   25  O   UNL     1      -5.324   6.877  66.409  1.00  0.00    -0.020 OA 
BRANCH  24  26
HETATM   26  O   UNL     1      -5.631   9.143  66.401  1.00  0.00    -0.050 OA 
BRANCH  26  27
HETATM   27  C   UNL     1      -5.323   9.161  64.987  1.00  0.00    -0.041 C  
HETATM   28  C   UNL     1      -6.540   9.299  64.078  1.00  0.00    -0.091 C  
ENDBRANCH  26  27
ENDBRANCH  24  26
ENDBRANCH  23  24
ENDBRANCH   4  23
BRANCH   4  29
HETATM   29  C   UNL     1      -8.577   6.643  66.633  1.00  0.00    -0.123 C  
HETATM   30  O   UNL     1      -8.365   6.498  65.425  1.00  0.00    -0.145 OA 
BRANCH  29  31
HETATM   31  O   UNL     1      -9.034   5.526  67.311  1.00  0.00    -0.113 OA 
HETATM   32  C   UNL     1      -9.224   4.375  66.399  1.00  0.00    -0.142 C  
HETATM   33 CL   UNL     1     -10.775   4.482  65.514  1.00  0.00    -0.266 Cl 
ENDBRANCH  29  31
ENDBRANCH   4  29
TORSDOF 6
ENDMDL
MODEL       57
REMARK 921   NORMALIZED FREE ENERGY PREDICTED BY IDOCK:   -4.39 KCAL/MOL
REMARK 922        TOTAL FREE ENERGY PREDICTED BY IDOCK:   -5.62 KCAL/MOL
REMARK 923 INTER-LIGAND FREE ENERGY PREDICTED BY IDOCK:   -5.89 KCAL/MOL
REMARK 924 INTRA-LIGAND FREE ENERGY PREDICTED BY IDOCK:    0.27 KCAL/MOL
REMARK 927      BINDING AFFINITY PREDICTED BY RF-SCORE:    0.00 PKD
ROOT
HETATM    1  C   UNL     1     -10.405   9.532  70.823  1.00  0.00    -0.377 C  
HETATM    2  C   UNL     1     -11.384  10.248  70.089  1.00  0.00    -0.388 C  
HETATM    3  C   UNL     1     -11.241   8.787  69.843  1.00  0.00    -0.059 C  
HETATM    4  C   UNL     1     -10.223   7.666  71.271  1.00  0.00    -0.187 C  
HETATM    5  C   UNL     1     -11.543   7.995  71.091  1.00  0.00    -0.307 C  
HETATM    6  C   UNL     1      -6.857   7.059  68.372  1.00  0.00    -0.074 C  
HETATM    7  C   UNL     1      -8.352  10.460  69.279  1.00  0.00    -0.161 C  
HETATM    8  C   UNL     1      -7.887   7.894  67.606  1.00  0.00    -0.122 C  
HETATM    9  C   UNL     1      -8.407   7.340  66.201  1.00  0.00    -0.133 C  
HETATM   10  C   UNL     1     -11.494   6.680  69.711  1.00  0.00    -0.388 C  
HETATM   11  C   UNL     1      -8.330   7.935  64.998  1.00  0.00    -0.111 C  
HETATM   12  C   UNL     1     -12.617   8.221  72.125  1.00  0.00    -0.379 C  
HETATM   13  O   UNL     1      -5.937   7.728  64.872  1.00  0.00    -0.038 OA 
HETATM   14  C   UNL     1      -9.967   6.641  68.941  1.00  0.00    -0.152 C  
HETATM   15  C   UNL     1      -6.894   8.394  65.234  1.00  0.00    -0.067 C  
HETATM   16  C   UNL     1      -6.815   9.571  66.112  1.00  0.00    -0.090 C  
HETATM   17  O   UNL     1      -9.146   5.824  69.786  1.00  0.00    -0.133 OA 
HETATM   18  C   UNL     1      -7.246   9.287  67.346  1.00  0.00    -0.080 C  
HETATM   19  C   UNL     1      -9.168   8.052  68.490  1.00  0.00    -0.135 C  
HETATM   20  C   UNL     1      -7.075  10.250  68.489  1.00  0.00    -0.074 C  
HETATM   21  H   UNL     1      -8.298   5.803  69.359  1.00  0.00     0.000 HD 
HETATM   22  C   UNL     1      -8.962   9.139  69.749  1.00  0.00    -0.168 C  
ENDROOT
BRANCH   4  23
HETATM   23  O   UNL     1      -9.862   8.334  72.700  1.00  0.00    -0.271 OA 
BRANCH  23  24
HETATM   24  C   UNL     1      -8.678   8.166  73.408  1.00  0.00    -0.251 C  
HETATM   25  O   UNL     1      -8.535   7.415  74.357  1.00  0.00    -0.186 OA 
BRANCH  24  26
HETATM   26  O   UNL     1      -7.640   8.761  72.740  1.00  0.00    -0.361 OA 
BRANCH  26  27
HETATM   27  C   UNL     1      -6.462   7.924  72.662  1.00  0.00    -0.070 C  
HETATM   28  C   UNL     1      -5.513   8.277  71.521  1.00  0.00    -0.034 C  
ENDBRANCH  26  27
ENDBRANCH  24  26
ENDBRANCH  23  24
ENDBRANCH   4  23
BRANCH   4  29
HETATM   29  C   UNL     1     -10.629   6.101  72.082  1.00  0.00    -0.209 C  
HETATM   30  O   UNL     1     -11.746   5.788  72.503  1.00  0.00    -0.309 OA 
BRANCH  29  31
HETATM   31  O   UNL     1      -9.612   5.190  72.310  1.00  0.00    -0.147 OA 
HETATM   32  C   UNL     1     -10.141   3.820  72.499  1.00  0.00    -0.167 C  
HETATM   33 CL   UNL     1     -10.749   3.570  74.162  1.00  0.00    -0.264 Cl 
ENDBRANCH  29  31
ENDBRANCH   4  29
TORSDOF 6
ENDMDL
MODEL       58
REMARK 921   NORMALIZED FREE ENERGY PREDICTED BY IDOCK:   -4.39 KCAL/MOL
REMARK 922        TOTAL FREE ENERGY PREDICTED BY IDOCK:   -5.62 KCAL/MOL
REMARK 923 INTER-LIGAND FREE ENERGY PREDICTED BY IDOCK:   -5.73 KCAL/MOL
REMARK 924 INTRA-LIGAND FREE ENERGY PREDICTED BY IDOCK:    0.11 KCAL/MOL
REMARK 927      BINDING AFFINITY PREDICTED BY RF-SCORE:    0.00 PKD
ROOT
HETATM    1  C   UNL     1     -10.856   7.094  70.831  1.00  0.00    -0.266 C  
HETATM    2  C   UNL     1     -12.048   6.590  70.253  1.00  0.00    -0.113 C  
HETATM    3  C   UNL     1     -10.803   6.575  69.438  1.00  0.00    -0.363 C  
HETATM    4  C   UNL     1      -8.992   6.790  70.442  1.00  0.00    -0.152 C  
HETATM    5  C   UNL     1      -9.747   5.705  70.074  1.00  0.00    -0.227 C  
HETATM    6  C   UNL     1      -8.476  10.849  68.608  1.00  0.00    -0.152 C  
HETATM    7  C   UNL     1     -11.607   9.696  70.476  1.00  0.00    -0.341 C  
HETATM    8  C   UNL     1      -9.800  10.329  68.041  1.00  0.00    -0.171 C  
HETATM    9  C   UNL     1      -9.972  10.288  66.453  1.00  0.00    -0.287 C  
HETATM   10  C   UNL     1      -9.067   6.052  68.328  1.00  0.00    -0.111 C  
HETATM   11  C   UNL     1     -10.905  10.905  65.706  1.00  0.00    -0.120 C  
HETATM   12  C   UNL     1      -9.902   4.375  70.767  1.00  0.00    -0.273 C  
HETATM   13  O   UNL     1     -10.042  13.103  66.157  1.00  0.00    -0.280 OA 
HETATM   14  C   UNL     1      -8.845   7.728  68.066  1.00  0.00    -0.124 C  
HETATM   15  C   UNL     1     -10.790  12.202  66.501  1.00  0.00    -0.270 C  
HETATM   16  C   UNL     1     -11.491  12.138  67.792  1.00  0.00    -0.398 C  
HETATM   17  O   UNL     1      -7.572   8.030  68.653  1.00  0.00    -0.096 OA 
HETATM   18  C   UNL     1     -10.928  11.237  68.606  1.00  0.00    -0.266 C  
HETATM   19  C   UNL     1     -10.010   8.854  68.518  1.00  0.00    -0.195 C  
HETATM   20  C   UNL     1     -11.317  11.123  70.055  1.00  0.00    -0.326 C  
HETATM   21  H   UNL     1      -7.449   8.960  68.507  1.00  0.00     0.000 HD 
HETATM   22  C   UNL     1     -10.456   8.749  70.131  1.00  0.00    -0.230 C  
ENDROOT
BRANCH   4  23
HETATM   23  O   UNL     1      -8.961   6.695  72.057  1.00  0.00    -0.139 OA 
BRANCH  23  24
HETATM   24  C   UNL     1      -7.961   7.187  72.888  1.00  0.00    -0.101 C  
HETATM   25  O   UNL     1      -7.266   6.505  73.620  1.00  0.00    -0.081 OA 
BRANCH  24  26
HETATM   26  O   UNL     1      -7.696   8.497  72.583  1.00  0.00    -0.280 OA 
BRANCH  26  27
HETATM   27  C   UNL     1      -6.281   8.794  72.540  1.00  0.00    -0.044 C  
HETATM   28  C   UNL     1      -5.835   9.562  71.301  1.00  0.00    -0.075 C  
ENDBRANCH  26  27
ENDBRANCH  24  26
ENDBRANCH  23  24
ENDBRANCH   4  23
BRANCH   4  29
HETATM   29  C   UNL     1      -7.443   5.863  70.336  1.00  0.00    -0.089 C  
HETATM   30  O   UNL     1      -6.366   6.321  69.944  1.00  0.00    -0.032 OA 
BRANCH  29  31
HETATM   31  O   UNL     1      -7.453   4.517  70.663  1.00  0.00    -0.051 OA 
HETATM   32  C   UNL     1      -6.357   3.786  69.986  1.00  0.00    -0.028 C  
HETATM   33 CL   UNL     1      -6.775   3.387  68.294  1.00  0.00    -0.044 Cl 
ENDBRANCH  29  31
ENDBRANCH   4  29
TORSDOF 6
ENDMDL
MODEL       59
REMARK 921   NORMALIZED FREE ENERGY PREDICTED BY IDOCK:   -4.38 KCAL/MOL
REMARK 922        TOTAL FREE ENERGY PREDICTED BY IDOCK:   -5.60 KCAL/MOL
REMARK 923 INTER-LIGAND FREE ENERGY PREDICTED BY IDOCK:   -5.55 KCAL/MOL
REMARK 924 INTRA-LIGAND FREE ENERGY PREDICTED BY IDOCK:   -0.06 KCAL/MOL
REMARK 927      BINDING AFFINITY PREDICTED BY RF-SCORE:    0.00 PKD
ROOT
HETATM    1  C   UNL     1      -8.652   8.117  69.907  1.00  0.00    -0.130 C  
HETATM    2  C   UNL     1      -9.593   8.507  70.894  1.00  0.00    -0.228 C  
HETATM    3  C   UNL     1     -10.101   8.013  69.585  1.00  0.00    -0.198 C  
HETATM    4  C   UNL     1      -8.778   6.948  68.380  1.00  0.00    -0.124 C  
HETATM    5  C   UNL     1      -9.682   6.582  69.346  1.00  0.00    -0.155 C  
HETATM    6  C   UNL     1      -8.706  10.360  65.473  1.00  0.00    -0.190 C  
HETATM    7  C   UNL     1      -8.068  10.696  69.228  1.00  0.00    -0.133 C  
HETATM    8  C   UNL     1      -9.667  10.808  66.577  1.00  0.00    -0.236 C  
HETATM    9  C   UNL     1     -11.141  11.257  66.152  1.00  0.00    -0.207 C  
HETATM   10  C   UNL     1     -10.985   6.913  67.994  1.00  0.00    -0.241 C  
HETATM   11  C   UNL     1     -11.737  12.443  66.365  1.00  0.00    -0.453 C  
HETATM   12  C   UNL     1      -9.621   5.434  70.320  1.00  0.00    -0.236 C  
HETATM   13  O   UNL     1     -10.293  13.620  64.844  1.00  0.00    -0.377 OA 
HETATM   14  C   UNL     1     -10.509   8.197  66.969  1.00  0.00    -0.326 C  
HETATM   15  C   UNL     1     -10.483  13.225  65.983  1.00  0.00    -0.286 C  
HETATM   16  C   UNL     1      -9.479  13.242  67.058  1.00  0.00    -0.243 C  
HETATM   17  O   UNL     1      -9.627   7.598  66.011  1.00  0.00    -0.418 OA 
HETATM   18  C   UNL     1      -9.005  12.015  67.300  1.00  0.00    -0.180 C  
HETATM   19  C   UNL     1      -9.868   9.626  67.583  1.00  0.00    -0.202 C  
HETATM   20  C   UNL     1      -7.822  11.783  68.199  1.00  0.00    -0.135 C  
HETATM   21  H   UNL     1      -9.362   8.311  65.441  1.00  0.00     0.000 HD 
HETATM   22  C   UNL     1      -8.544   9.393  68.585  1.00  0.00    -0.123 C  
ENDROOT
BRANCH   4  23
HETATM   23  O   UNL     1      -7.361   6.460  68.989  1.00  0.00    -0.084 OA 
BRANCH  23  24
HETATM   24  C   UNL     1      -6.190   6.245  68.272  1.00  0.00    -0.032 C  
HETATM   25  O   UNL     1      -5.677   7.053  67.519  1.00  0.00    -0.022 OA 
BRANCH  24  26
HETATM   26  O   UNL     1      -5.563   5.112  68.722  1.00  0.00    -0.013 OA 
BRANCH  26  27
HETATM   27  C   UNL     1      -6.114   4.615  69.964  1.00  0.00    -0.018 C  
HETATM   28  C   UNL     1      -6.593   3.168  69.907  1.00  0.00    -0.033 C  
ENDBRANCH  26  27
ENDBRANCH  24  26
ENDBRANCH  23  24
ENDBRANCH   4  23
BRANCH   4  29
HETATM   29  C   UNL     1      -8.958   5.383  67.491  1.00  0.00    -0.108 C  
HETATM   30  O   UNL     1      -9.487   4.365  67.945  1.00  0.00    -0.143 OA 
BRANCH  29  31
HETATM   31  O   UNL     1      -8.417   5.277  66.221  1.00  0.00    -0.113 OA 
HETATM   32  C   UNL     1      -8.291   3.863  65.799  1.00  0.00    -0.109 C  
HETATM   33 CL   UNL     1      -6.834   3.093  66.493  1.00  0.00    -0.051 Cl 
ENDBRANCH  29  31
ENDBRANCH   4  29
TORSDOF 6
ENDMDL
MODEL       60
REMARK 921   NORMALIZED FREE ENERGY PREDICTED BY IDOCK:   -4.38 KCAL/MOL
REMARK 922        TOTAL FREE ENERGY PREDICTED BY IDOCK:   -5.60 KCAL/MOL
REMARK 923 INTER-LIGAND FREE ENERGY PREDICTED BY IDOCK:   -5.70 KCAL/MOL
REMARK 924 INTRA-LIGAND FREE ENERGY PREDICTED BY IDOCK:    0.10 KCAL/MOL
REMARK 927      BINDING AFFINITY PREDICTED BY RF-SCORE:    0.00 PKD
ROOT
HETATM    1  C   UNL     1      -6.858   9.146  69.617  1.00  0.00    -0.054 C  
HETATM    2  C   UNL     1      -6.513  10.268  70.411  1.00  0.00    -0.131 C  
HETATM    3  C   UNL     1      -7.871   9.679  70.566  1.00  0.00    -0.150 C  
HETATM    4  C   UNL     1      -8.175   7.754  69.832  1.00  0.00    -0.125 C  
HETATM    5  C   UNL     1      -7.792   8.252  71.052  1.00  0.00    -0.097 C  
HETATM    6  C   UNL     1     -10.799   9.419  66.601  1.00  0.00     0.050 C  
HETATM    7  C   UNL     1      -7.269  10.663  67.384  1.00  0.00    -0.092 C  
HETATM    8  C   UNL     1     -10.366  10.639  67.420  1.00  0.00    -0.262 C  
HETATM    9  C   UNL     1     -11.507  11.588  68.012  1.00  0.00    -0.381 C  
HETATM   10  C   UNL     1      -9.634   8.702  71.244  1.00  0.00    -0.292 C  
HETATM   11  C   UNL     1     -11.689  12.901  67.788  1.00  0.00    -0.412 C  
HETATM   12  C   UNL     1      -6.868   7.647  72.079  1.00  0.00    -0.063 C  
HETATM   13  O   UNL     1     -12.311  12.584  65.487  1.00  0.00    -0.600 OA 
HETATM   14  C   UNL     1     -10.333   9.126  69.742  1.00  0.00    -0.215 C  
HETATM   15  C   UNL     1     -11.413  12.760  66.294  1.00  0.00    -0.354 C  
HETATM   16  C   UNL     1      -9.978  12.640  65.994  1.00  0.00    -0.267 C  
HETATM   17  O   UNL     1     -10.673   7.878  69.125  1.00  0.00    -0.326 OA 
HETATM   18  C   UNL     1      -9.467  11.513  66.501  1.00  0.00    -0.220 C  
HETATM   19  C   UNL     1      -9.548  10.150  68.660  1.00  0.00    -0.165 C  
HETATM   20  C   UNL     1      -8.078  11.046  66.160  1.00  0.00    -0.141 C  
HETATM   21  H   UNL     1     -11.060   8.113  68.290  1.00  0.00     0.000 HD 
HETATM   22  C   UNL     1      -7.999   9.647  68.262  1.00  0.00    -0.096 C  
ENDROOT
BRANCH   4  23
HETATM   23  O   UNL     1      -6.903   6.867  69.373  1.00  0.00    -0.051 OA 
BRANCH  23  24
HETATM   24  C   UNL     1      -6.866   5.976  68.306  1.00  0.00    -0.070 C  
HETATM   25  O   UNL     1      -6.365   4.867  68.344  1.00  0.00    -0.034 OA 
BRANCH  24  26
HETATM   26  O   UNL     1      -7.687   6.413  67.299  1.00  0.00    -0.097 OA 
BRANCH  26  27
HETATM   27  C   UNL     1      -6.964   6.809  66.110  1.00  0.00    -0.061 C  
HETATM   28  C   UNL     1      -5.665   7.561  66.383  1.00  0.00    -0.036 C  
ENDBRANCH  26  27
ENDBRANCH  24  26
ENDBRANCH  23  24
ENDBRANCH   4  23
BRANCH   4  29
HETATM   29  C   UNL     1      -8.952   6.297  70.569  1.00  0.00    -0.151 C  
HETATM   30  O   UNL     1      -9.565   5.426  69.945  1.00  0.00    -0.149 OA 
BRANCH  29  31
HETATM   31  O   UNL     1      -8.919   6.153  71.946  1.00  0.00    -0.140 OA 
HETATM   32  C   UNL     1      -9.908   5.154  72.413  1.00  0.00    -0.167 C  
HETATM   33 CL   UNL     1     -11.552   5.851  72.516  1.00  0.00    -0.350 Cl 
ENDBRANCH  29  31
ENDBRANCH   4  29
TORSDOF 6
ENDMDL
MODEL       61
REMARK 921   NORMALIZED FREE ENERGY PREDICTED BY IDOCK:   -4.37 KCAL/MOL
REMARK 922        TOTAL FREE ENERGY PREDICTED BY IDOCK:   -5.59 KCAL/MOL
REMARK 923 INTER-LIGAND FREE ENERGY PREDICTED BY IDOCK:   -6.57 KCAL/MOL
REMARK 924 INTRA-LIGAND FREE ENERGY PREDICTED BY IDOCK:    0.98 KCAL/MOL
REMARK 927      BINDING AFFINITY PREDICTED BY RF-SCORE:    0.00 PKD
ROOT
HETATM    1  C   UNL     1      -8.202  12.271  68.137  1.00  0.00    -0.168 C  
HETATM    2  C   UNL     1      -7.165  11.825  67.279  1.00  0.00    -0.142 C  
HETATM    3  C   UNL     1      -8.571  11.490  66.926  1.00  0.00    -0.163 C  
HETATM    4  C   UNL     1     -10.083  12.583  67.851  1.00  0.00    -0.214 C  
HETATM    5  C   UNL     1      -9.382  12.739  66.682  1.00  0.00    -0.242 C  
HETATM    6  C   UNL     1     -11.276   8.936  70.171  1.00  0.00    -0.175 C  
HETATM    7  C   UNL     1      -7.716  10.320  69.985  1.00  0.00    -0.090 C  
HETATM    8  C   UNL     1     -10.108   8.477  69.294  1.00  0.00    -0.203 C  
HETATM    9  C   UNL     1     -10.337   7.215  68.340  1.00  0.00    -0.220 C  
HETATM   10  C   UNL     1     -10.497  11.334  66.038  1.00  0.00    -0.310 C  
HETATM   11  C   UNL     1      -9.657   6.055  68.326  1.00  0.00    -0.126 C  
HETATM   12  C   UNL     1      -8.982  14.010  65.975  1.00  0.00     0.322 C  
HETATM   13  O   UNL     1     -10.506   5.350  70.463  1.00  0.00    -0.260 OA 
HETATM   14  C   UNL     1     -10.874  10.218  67.278  1.00  0.00    -0.250 C  
HETATM   15  C   UNL     1      -9.645   5.959  69.849  1.00  0.00    -0.158 C  
HETATM   16  C   UNL     1      -8.641   6.842  70.462  1.00  0.00    -0.142 C  
HETATM   17  O   UNL     1     -11.975  10.806  67.984  1.00  0.00    -0.780 OA 
HETATM   18  C   UNL     1      -8.929   8.130  70.246  1.00  0.00    -0.146 C  
HETATM   19  C   UNL     1      -9.700   9.648  68.341  1.00  0.00    -0.163 C  
HETATM   20  C   UNL     1      -8.184   9.238  70.939  1.00  0.00    -0.179 C  
HETATM   21  H   UNL     1     -12.184  10.186  68.673  1.00  0.00     0.000 HD 
HETATM   22  C   UNL     1      -8.860  10.866  69.129  1.00  0.00    -0.050 C  
ENDROOT
BRANCH   4  23
HETATM   23  O   UNL     1      -9.704  13.910  68.695  1.00  0.00    -0.220 OA 
BRANCH  23  24
HETATM   24  C   UNL     1     -10.599  14.750  69.347  1.00  0.00    -0.218 C  
HETATM   25  O   UNL     1     -10.975  15.829  68.924  1.00  0.00    -0.248 OA 
BRANCH  24  26
HETATM   26  O   UNL     1     -11.189  14.091  70.394  1.00  0.00    -0.028 OA 
BRANCH  26  27
HETATM   27  C   UNL     1     -11.663  14.982  71.431  1.00  0.00    -0.357 C  
HETATM   28  C   UNL     1     -13.140  15.349  71.319  1.00  0.00    -0.564 C  
ENDBRANCH  26  27
ENDBRANCH  24  26
ENDBRANCH  23  24
ENDBRANCH   4  23
BRANCH   4  29
HETATM   29  C   UNL     1     -11.553  13.400  67.186  1.00  0.00    -0.358 C  
HETATM   30  O   UNL     1     -12.706  13.226  67.589  1.00  0.00     0.311 OA 
BRANCH  29  31
HETATM   31  O   UNL     1     -11.405  14.251  66.103  1.00  0.00    -0.328 OA 
HETATM   32  C   UNL     1     -12.639  14.309  65.285  1.00  0.00    -0.394 C  
HETATM   33 CL   UNL     1     -12.765  12.909  64.180  1.00  0.00    -0.306 Cl 
ENDBRANCH  29  31
ENDBRANCH   4  29
TORSDOF 6
ENDMDL
MODEL       62
REMARK 921   NORMALIZED FREE ENERGY PREDICTED BY IDOCK:   -4.32 KCAL/MOL
REMARK 922        TOTAL FREE ENERGY PREDICTED BY IDOCK:   -5.52 KCAL/MOL
REMARK 923 INTER-LIGAND FREE ENERGY PREDICTED BY IDOCK:   -5.83 KCAL/MOL
REMARK 924 INTRA-LIGAND FREE ENERGY PREDICTED BY IDOCK:    0.31 KCAL/MOL
REMARK 927      BINDING AFFINITY PREDICTED BY RF-SCORE:    0.00 PKD
ROOT
HETATM    1  C   UNL     1     -10.735   9.714  67.506  1.00  0.00    -0.321 C  
HETATM    2  C   UNL     1     -11.533   9.848  68.670  1.00  0.00     0.046 C  
HETATM    3  C   UNL     1     -10.052   9.883  68.817  1.00  0.00    -0.186 C  
HETATM    4  C   UNL     1      -8.924  10.237  67.104  1.00  0.00    -0.135 C  
HETATM    5  C   UNL     1      -9.460  11.052  68.069  1.00  0.00    -0.169 C  
HETATM    6  C   UNL     1      -7.432   6.010  67.234  1.00  0.00    -0.081 C  
HETATM    7  C   UNL     1     -11.120   7.014  67.370  1.00  0.00    -0.265 C  
HETATM    8  C   UNL     1      -8.352   6.138  68.452  1.00  0.00    -0.114 C  
HETATM    9  C   UNL     1      -7.755   5.763  69.886  1.00  0.00    -0.087 C  
HETATM   10  C   UNL     1      -8.021  10.418  69.147  1.00  0.00    -0.141 C  
HETATM   11  C   UNL     1      -8.198   4.832  70.748  1.00  0.00    -0.086 C  
HETATM   12  C   UNL     1      -9.979  12.461  67.942  1.00  0.00    -0.204 C  
HETATM   13  O   UNL     1      -7.559   2.993  69.336  1.00  0.00    -0.044 OA 
HETATM   14  C   UNL     1      -7.632   8.794  68.777  1.00  0.00    -0.095 C  
HETATM   15  C   UNL     1      -8.418   3.805  69.641  1.00  0.00    -0.060 C  
HETATM   16  C   UNL     1      -9.648   4.056  68.874  1.00  0.00    -0.213 C  
HETATM   17  O   UNL     1      -6.776   8.870  67.629  1.00  0.00    -0.064 OA 
HETATM   18  C   UNL     1      -9.574   5.210  68.202  1.00  0.00    -0.173 C  
HETATM   19  C   UNL     1      -8.825   7.624  68.575  1.00  0.00    -0.130 C  
HETATM   20  C   UNL     1     -10.606   5.601  67.179  1.00  0.00    -0.344 C  
HETATM   21  H   UNL     1      -6.560   7.968  67.424  1.00  0.00     0.000 HD 
HETATM   22  C   UNL     1      -9.983   8.036  67.435  1.00  0.00    -0.270 C  
ENDROOT
BRANCH   4  23
HETATM   23  O   UNL     1      -9.662  10.723  65.749  1.00  0.00    -0.206 OA 
BRANCH  23  24
HETATM   24  C   UNL     1      -9.461  10.206  64.474  1.00  0.00    -0.303 C  
HETATM   25  O   UNL     1      -8.833   9.193  64.225  1.00  0.00    -0.186 OA 
BRANCH  24  26
HETATM   26  O   UNL     1     -10.274  10.844  63.574  1.00  0.00    -0.339 OA 
BRANCH  26  27
HETATM   27  C   UNL     1     -11.034  11.926  64.163  1.00  0.00    -0.369 C  
HETATM   28  C   UNL     1     -12.397  12.162  63.521  1.00  0.00    -0.682 C  
ENDBRANCH  26  27
ENDBRANCH  24  26
ENDBRANCH  23  24
ENDBRANCH   4  23
BRANCH   4  29
HETATM   29  C   UNL     1      -7.549  11.367  66.784  1.00  0.00    -0.143 C  
HETATM   30  O   UNL     1      -6.530  11.085  66.146  1.00  0.00    -0.128 OA 
BRANCH  29  31
HETATM   31  O   UNL     1      -7.593  12.637  67.335  1.00  0.00    -0.144 OA 
HETATM   32  C   UNL     1      -6.236  13.207  67.498  1.00  0.00    -0.122 C  
HETATM   33 CL   UNL     1      -5.431  12.587  68.970  1.00  0.00    -0.066 Cl 
ENDBRANCH  29  31
ENDBRANCH   4  29
TORSDOF 6
ENDMDL
MODEL       63
REMARK 921   NORMALIZED FREE ENERGY PREDICTED BY IDOCK:   -4.30 KCAL/MOL
REMARK 922        TOTAL FREE ENERGY PREDICTED BY IDOCK:   -5.50 KCAL/MOL
REMARK 923 INTER-LIGAND FREE ENERGY PREDICTED BY IDOCK:   -5.73 KCAL/MOL
REMARK 924 INTRA-LIGAND FREE ENERGY PREDICTED BY IDOCK:    0.24 KCAL/MOL
REMARK 927      BINDING AFFINITY PREDICTED BY RF-SCORE:    0.00 PKD
ROOT
HETATM    1  C   UNL     1      -9.655   9.091  69.687  1.00  0.00    -0.175 C  
HETATM    2  C   UNL     1     -10.463   9.783  68.750  1.00  0.00    -0.240 C  
HETATM    3  C   UNL     1     -10.936   8.467  69.260  1.00  0.00     0.028 C  
HETATM    4  C   UNL     1     -10.053   7.735  70.997  1.00  0.00    -0.185 C  
HETATM    5  C   UNL     1     -11.158   8.510  70.752  1.00  0.00    -0.288 C  
HETATM    6  C   UNL     1      -8.057   4.511  68.604  1.00  0.00    -0.081 C  
HETATM    7  C   UNL     1      -7.903   8.240  67.773  1.00  0.00    -0.114 C  
HETATM    8  C   UNL     1      -8.877   5.305  67.583  1.00  0.00    -0.105 C  
HETATM    9  C   UNL     1      -9.922   4.507  66.675  1.00  0.00    -0.253 C  
HETATM   10  C   UNL     1     -11.966   6.870  70.214  1.00  0.00    -0.257 C  
HETATM   11  C   UNL     1      -9.960   4.429  65.334  1.00  0.00    -0.231 C  
HETATM   12  C   UNL     1     -11.753   9.611  71.593  1.00  0.00    -0.439 C  
HETATM   13  O   UNL     1      -7.937   3.135  65.193  1.00  0.00    -0.081 OA 
HETATM   14  C   UNL     1     -10.828   5.824  69.482  1.00  0.00    -0.340 C  
HETATM   15  C   UNL     1      -8.449   4.243  65.228  1.00  0.00    -0.115 C  
HETATM   16  C   UNL     1      -7.712   5.505  65.393  1.00  0.00    -0.089 C  
HETATM   17  O   UNL     1     -10.166   5.173  70.574  1.00  0.00    -0.238 OA 
HETATM   18  C   UNL     1      -7.867   6.000  66.626  1.00  0.00    -0.101 C  
HETATM   19  C   UNL     1      -9.723   6.381  68.341  1.00  0.00    -0.131 C  
HETATM   20  C   UNL     1      -7.055   7.165  67.123  1.00  0.00    -0.087 C  
HETATM   21  H   UNL     1      -9.534   4.592  70.167  1.00  0.00     0.000 HD 
HETATM   22  C   UNL     1      -8.802   7.677  68.874  1.00  0.00    -0.135 C  
ENDROOT
BRANCH   4  23
HETATM   23  O   UNL     1      -9.103   8.703  71.877  1.00  0.00    -0.227 OA 
BRANCH  23  24
HETATM   24  C   UNL     1      -7.999   8.310  72.626  1.00  0.00    -0.137 C  
HETATM   25  O   UNL     1      -7.789   8.638  73.780  1.00  0.00    -0.407 OA 
BRANCH  24  26
HETATM   26  O   UNL     1      -7.323   7.309  71.980  1.00  0.00    -0.077 OA 
BRANCH  26  27
HETATM   27  C   UNL     1      -5.942   7.643  71.704  1.00  0.00    -0.035 C  
HETATM   28  C   UNL     1      -5.394   7.044  70.413  1.00  0.00    -0.023 C  
ENDBRANCH  26  27
ENDBRANCH  24  26
ENDBRANCH  23  24
ENDBRANCH   4  23
BRANCH   4  29
HETATM   29  C   UNL     1     -10.767   7.033  72.503  1.00  0.00    -0.242 C  
HETATM   30  O   UNL     1     -11.239   7.687  73.438  1.00  0.00    -0.314 OA 
BRANCH  29  31
HETATM   31  O   UNL     1     -10.744   5.658  72.669  1.00  0.00    -0.214 OA 
HETATM   32  C   UNL     1     -10.441   5.284  74.070  1.00  0.00    -0.281 C  
HETATM   33 CL   UNL     1      -8.686   5.363  74.409  1.00  0.00    -0.118 Cl 
ENDBRANCH  29  31
ENDBRANCH   4  29
TORSDOF 6
ENDMDL
MODEL       64
REMARK 921   NORMALIZED FREE ENERGY PREDICTED BY IDOCK:   -4.28 KCAL/MOL
REMARK 922        TOTAL FREE ENERGY PREDICTED BY IDOCK:   -5.47 KCAL/MOL
REMARK 923 INTER-LIGAND FREE ENERGY PREDICTED BY IDOCK:   -5.93 KCAL/MOL
REMARK 924 INTRA-LIGAND FREE ENERGY PREDICTED BY IDOCK:    0.46 KCAL/MOL
REMARK 927      BINDING AFFINITY PREDICTED BY RF-SCORE:    0.00 PKD
ROOT
HETATM    1  C   UNL     1      -8.228  10.410  68.953  1.00  0.00    -0.132 C  
HETATM    2  C   UNL     1      -6.821  10.573  68.892  1.00  0.00    -0.063 C  
HETATM    3  C   UNL     1      -7.556  10.275  67.633  1.00  0.00    -0.090 C  
HETATM    4  C   UNL     1      -9.615  10.579  67.624  1.00  0.00    -0.157 C  
HETATM    5  C   UNL     1      -8.540  11.371  67.306  1.00  0.00    -0.146 C  
HETATM    6  C   UNL     1     -10.252   6.147  67.392  1.00  0.00    -0.226 C  
HETATM    7  C   UNL     1      -8.044   7.888  69.983  1.00  0.00    -0.117 C  
HETATM    8  C   UNL     1      -8.731   6.324  67.399  1.00  0.00    -0.105 C  
HETATM    9  C   UNL     1      -7.894   5.666  66.208  1.00  0.00    -0.100 C  
HETATM   10  C   UNL     1      -8.471  10.325  65.714  1.00  0.00    -0.161 C  
HETATM   11  C   UNL     1      -6.908   4.755  66.295  1.00  0.00    -0.062 C  
HETATM   12  C   UNL     1      -8.383  12.864  67.448  1.00  0.00    -0.190 C  
HETATM   13  O   UNL     1      -8.379   3.001  67.031  1.00  0.00    -0.086 OA 
HETATM   14  C   UNL     1      -8.953   8.710  66.007  1.00  0.00    -0.184 C  
HETATM   15  C   UNL     1      -7.658   3.935  67.341  1.00  0.00    -0.072 C  
HETATM   16  C   UNL     1      -7.582   4.529  68.685  1.00  0.00    -0.064 C  
HETATM   17  O   UNL     1     -10.386   8.736  65.962  1.00  0.00    -0.341 OA 
HETATM   18  C   UNL     1      -8.205   5.712  68.728  1.00  0.00    -0.103 C  
HETATM   19  C   UNL     1      -8.399   7.851  67.345  1.00  0.00    -0.123 C  
HETATM   20  C   UNL     1      -8.457   6.430  70.026  1.00  0.00    -0.135 C  
HETATM   21  H   UNL     1     -10.653   7.839  66.125  1.00  0.00     0.000 HD 
HETATM   22  C   UNL     1      -8.674   8.630  68.804  1.00  0.00    -0.135 C  
ENDROOT
BRANCH   4  23
HETATM   23  O   UNL     1     -10.309  11.366  68.855  1.00  0.00    -0.206 OA 
BRANCH  23  24
HETATM   24  C   UNL     1     -11.402  10.931  69.596  1.00  0.00    -0.292 C  
HETATM   25  O   UNL     1     -12.277  11.655  70.036  1.00  0.00    -0.296 OA 
BRANCH  24  26
HETATM   26  O   UNL     1     -11.494   9.564  69.541  1.00  0.00    -0.069 OA 
BRANCH  26  27
HETATM   27  C   UNL     1     -11.863   8.970  70.808  1.00  0.00    -0.206 C  
HETATM   28  C   UNL     1     -12.078   7.461  70.757  1.00  0.00    -0.233 C  
ENDBRANCH  26  27
ENDBRANCH  24  26
ENDBRANCH  23  24
ENDBRANCH   4  23
BRANCH   4  29
HETATM   29  C   UNL     1     -10.700  11.421  66.447  1.00  0.00    -0.275 C  
HETATM   30  O   UNL     1     -10.470  11.560  65.243  1.00  0.00    -0.264 OA 
BRANCH  29  31
HETATM   31  O   UNL     1     -11.858  12.014  66.921  1.00  0.00    -0.580 OA 
HETATM   32  C   UNL     1     -12.324  13.094  66.021  1.00  0.00    -0.359 C  
HETATM   33 CL   UNL     1     -11.424  14.616  66.294  1.00  0.00    -0.359 Cl 
ENDBRANCH  29  31
ENDBRANCH   4  29
TORSDOF 6
ENDMDL
MODEL       65
REMARK 921   NORMALIZED FREE ENERGY PREDICTED BY IDOCK:   -4.22 KCAL/MOL
REMARK 922        TOTAL FREE ENERGY PREDICTED BY IDOCK:   -5.39 KCAL/MOL
REMARK 923 INTER-LIGAND FREE ENERGY PREDICTED BY IDOCK:   -5.88 KCAL/MOL
REMARK 924 INTRA-LIGAND FREE ENERGY PREDICTED BY IDOCK:    0.49 KCAL/MOL
REMARK 927      BINDING AFFINITY PREDICTED BY RF-SCORE:    0.00 PKD
ROOT
HETATM    1  C   UNL     1      -7.972   9.910  69.105  1.00  0.00    -0.112 C  
HETATM    2  C   UNL     1      -6.964  10.220  70.052  1.00  0.00    -0.152 C  
HETATM    3  C   UNL     1      -6.955   8.872  69.421  1.00  0.00    -0.053 C  
HETATM    4  C   UNL     1      -8.063   8.618  67.677  1.00  0.00    -0.107 C  
HETATM    5  C   UNL     1      -6.761   8.972  67.928  1.00  0.00    -0.068 C  
HETATM    6  C   UNL     1     -10.947   6.010  69.909  1.00  0.00    -0.458 C  
HETATM    7  C   UNL     1      -9.866   9.503  71.030  1.00  0.00    -0.236 C  
HETATM    8  C   UNL     1      -9.893   6.406  70.947  1.00  0.00    -0.204 C  
HETATM    9  C   UNL     1      -9.146   5.237  71.740  1.00  0.00    -0.154 C  
HETATM   10  C   UNL     1      -6.518   7.119  68.300  1.00  0.00    -0.044 C  
HETATM   11  C   UNL     1      -9.108   5.033  73.069  1.00  0.00    -0.128 C  
HETATM   12  C   UNL     1      -5.858   9.892  67.146  1.00  0.00    -0.051 C  
HETATM   13  O   UNL     1     -11.437   4.452  73.206  1.00  0.00    -0.277 OA 
HETATM   14  C   UNL     1      -7.919   6.434  69.003  1.00  0.00    -0.111 C  
HETATM   15  C   UNL     1     -10.594   5.334  73.232  1.00  0.00    -0.245 C  
HETATM   16  C   UNL     1     -10.885   6.776  73.199  1.00  0.00    -0.315 C  
HETATM   17  O   UNL     1      -8.778   6.129  67.897  1.00  0.00    -0.114 OA 
HETATM   18  C   UNL     1     -10.603   7.301  72.002  1.00  0.00    -0.236 C  
HETATM   19  C   UNL     1      -8.760   7.214  70.235  1.00  0.00    -0.144 C  
HETATM   20  C   UNL     1     -11.004   8.704  71.635  1.00  0.00    -0.378 C  
HETATM   21  H   UNL     1      -9.556   5.749  68.288  1.00  0.00     0.000 HD 
HETATM   22  C   UNL     1      -9.221   8.779  69.846  1.00  0.00    -0.160 C  
ENDROOT
BRANCH   4  23
HETATM   23  O   UNL     1      -8.665   9.914  66.920  1.00  0.00    -0.128 OA 
BRANCH  23  24
HETATM   24  C   UNL     1      -9.882   9.982  66.251  1.00  0.00    -0.236 C  
HETATM   25  O   UNL     1     -10.010  10.016  65.041  1.00  0.00    -0.326 OA 
BRANCH  24  26
HETATM   26  O   UNL     1     -10.913   9.748  67.124  1.00  0.00    -0.202 OA 
BRANCH  26  27
HETATM   27  C   UNL     1     -11.284  10.918  67.891  1.00  0.00    -0.321 C  
HETATM   28  C   UNL     1     -11.423  12.194  67.066  1.00  0.00    -0.415 C  
ENDBRANCH  26  27
ENDBRANCH  24  26
ENDBRANCH  23  24
ENDBRANCH   4  23
BRANCH   4  29
HETATM   29  C   UNL     1      -7.646   7.859  66.089  1.00  0.00    -0.083 C  
HETATM   30  O   UNL     1      -6.612   8.073  65.449  1.00  0.00    -0.048 OA 
BRANCH  29  31
HETATM   31  O   UNL     1      -8.567   7.011  65.498  1.00  0.00    -0.146 OA 
HETATM   32  C   UNL     1      -7.937   6.159  64.463  1.00  0.00    -0.123 C  
HETATM   33 CL   UNL     1      -7.739   7.035  62.917  1.00  0.00    -0.103 Cl 
ENDBRANCH  29  31
ENDBRANCH   4  29
TORSDOF 6
ENDMDL
MODEL       66
REMARK 921   NORMALIZED FREE ENERGY PREDICTED BY IDOCK:   -4.15 KCAL/MOL
REMARK 922        TOTAL FREE ENERGY PREDICTED BY IDOCK:   -5.30 KCAL/MOL
REMARK 923 INTER-LIGAND FREE ENERGY PREDICTED BY IDOCK:   -5.41 KCAL/MOL
REMARK 924 INTRA-LIGAND FREE ENERGY PREDICTED BY IDOCK:    0.12 KCAL/MOL
REMARK 927      BINDING AFFINITY PREDICTED BY RF-SCORE:    0.00 PKD
ROOT
HETATM    1  C   UNL     1      -7.662   6.658  69.660  1.00  0.00    -0.107 C  
HETATM    2  C   UNL     1      -6.249   6.652  69.772  1.00  0.00    -0.041 C  
HETATM    3  C   UNL     1      -6.953   7.963  69.745  1.00  0.00    -0.050 C  
HETATM    4  C   UNL     1      -8.999   7.965  70.132  1.00  0.00    -0.151 C  
HETATM    5  C   UNL     1      -7.886   8.102  70.923  1.00  0.00    -0.091 C  
HETATM    6  C   UNL     1      -9.789   9.041  65.851  1.00  0.00    -0.257 C  
HETATM    7  C   UNL     1      -7.602   6.115  66.984  1.00  0.00    -0.095 C  
HETATM    8  C   UNL     1      -8.263   8.963  65.960  1.00  0.00    -0.117 C  
HETATM    9  C   UNL     1      -7.413  10.236  65.501  1.00  0.00    -0.149 C  
HETATM   10  C   UNL     1      -7.805   9.860  70.190  1.00  0.00    -0.186 C  
HETATM   11  C   UNL     1      -6.464  10.297  64.550  1.00  0.00    -0.092 C  
HETATM   12  C   UNL     1      -7.680   7.679  72.355  1.00  0.00    -0.113 C  
HETATM   13  O   UNL     1      -8.021   9.940  62.752  1.00  0.00    -0.122 OA 
HETATM   14  C   UNL     1      -8.354   9.887  68.570  1.00  0.00    -0.108 C  
HETATM   15  C   UNL     1      -7.276   9.442  63.581  1.00  0.00    -0.101 C  
HETATM   16  C   UNL     1      -7.222   8.009  63.911  1.00  0.00    -0.092 C  
HETATM   17  O   UNL     1      -9.783   9.962  68.665  1.00  0.00    -0.150 OA 
HETATM   18  C   UNL     1      -7.802   7.760  65.090  1.00  0.00    -0.123 C  
HETATM   19  C   UNL     1      -7.874   8.722  67.455  1.00  0.00    -0.102 C  
HETATM   20  C   UNL     1      -8.070   6.357  65.562  1.00  0.00    -0.130 C  
HETATM   21  H   UNL     1     -10.088   9.977  67.765  1.00  0.00     0.000 HD 
HETATM   22  C   UNL     1      -8.167   7.149  67.959  1.00  0.00    -0.120 C  
ENDROOT
BRANCH   4  23
HETATM   23  O   UNL     1      -9.703   6.626  70.703  1.00  0.00    -0.172 OA 
BRANCH  23  24
HETATM   24  C   UNL     1     -11.045   6.285  70.576  1.00  0.00    -0.335 C  
HETATM   25  O   UNL     1     -11.706   6.432  69.564  1.00  0.00    -0.366 OA 
BRANCH  24  26
HETATM   26  O   UNL     1     -11.445   5.535  71.651  1.00  0.00    -0.097 OA 
BRANCH  26  27
HETATM   27  C   UNL     1     -10.377   5.280  72.593  1.00  0.00    -0.202 C  
HETATM   28  C   UNL     1     -10.518   6.017  73.921  1.00  0.00    -0.286 C  
ENDBRANCH  26  27
ENDBRANCH  24  26
ENDBRANCH  23  24
ENDBRANCH   4  23
BRANCH   4  29
HETATM   29  C   UNL     1     -10.014   8.989  71.223  1.00  0.00    -0.311 C  
HETATM   30  O   UNL     1      -9.898   9.052  72.450  1.00  0.00    -0.166 OA 
BRANCH  29  31
HETATM   31  O   UNL     1     -11.046   9.727  70.668  1.00  0.00    -0.279 OA 
HETATM   32  C   UNL     1     -12.117   9.993  71.656  1.00  0.00    -0.334 C  
HETATM   33 CL   UNL     1     -13.209   8.589  71.841  1.00  0.00    -0.370 Cl 
ENDBRANCH  29  31
ENDBRANCH   4  29
TORSDOF 6
ENDMDL
MODEL       67
REMARK 921   NORMALIZED FREE ENERGY PREDICTED BY IDOCK:   -4.15 KCAL/MOL
REMARK 922        TOTAL FREE ENERGY PREDICTED BY IDOCK:   -5.29 KCAL/MOL
REMARK 923 INTER-LIGAND FREE ENERGY PREDICTED BY IDOCK:   -5.44 KCAL/MOL
REMARK 924 INTRA-LIGAND FREE ENERGY PREDICTED BY IDOCK:    0.15 KCAL/MOL
REMARK 927      BINDING AFFINITY PREDICTED BY RF-SCORE:    0.00 PKD
ROOT
HETATM    1  C   UNL     1     -10.626   7.126  68.916  1.00  0.00    -0.218 C  
HETATM    2  C   UNL     1     -10.980   6.104  69.832  1.00  0.00    -0.458 C  
HETATM    3  C   UNL     1      -9.543   6.464  69.691  1.00  0.00    -0.157 C  
HETATM    4  C   UNL     1      -9.091   8.286  68.790  1.00  0.00    -0.144 C  
HETATM    5  C   UNL     1      -9.302   7.900  70.090  1.00  0.00    -0.156 C  
HETATM    6  C   UNL     1      -7.444   6.100  65.239  1.00  0.00    -0.084 C  
HETATM    7  C   UNL     1     -10.903   5.488  66.749  1.00  0.00    -0.252 C  
HETATM    8  C   UNL     1      -7.893   4.998  66.202  1.00  0.00    -0.099 C  
HETATM    9  C   UNL     1      -6.821   3.893  66.630  1.00  0.00    -0.058 C  
HETATM   10  C   UNL     1      -7.551   7.157  69.962  1.00  0.00    -0.091 C  
HETATM   11  C   UNL     1      -6.895   2.561  66.462  1.00  0.00    -0.044 C  
HETATM   12  C   UNL     1      -9.901   8.684  71.230  1.00  0.00    -0.307 C  
HETATM   13  O   UNL     1      -6.692   2.693  64.069  1.00  0.00    -0.030 OA 
HETATM   14  C   UNL     1      -7.235   6.572  68.386  1.00  0.00    -0.085 C  
HETATM   15  C   UNL     1      -7.432   2.696  65.040  1.00  0.00    -0.071 C  
HETATM   16  C   UNL     1      -8.861   3.042  65.007  1.00  0.00    -0.125 C  
HETATM   17  O   UNL     1      -6.831   7.725  67.637  1.00  0.00    -0.065 OA 
HETATM   18  C   UNL     1      -9.080   4.255  65.527  1.00  0.00    -0.138 C  
HETATM   19  C   UNL     1      -8.366   5.657  67.539  1.00  0.00    -0.100 C  
HETATM   20  C   UNL     1     -10.418   4.935  65.423  1.00  0.00    -0.010 C  
HETATM   21  H   UNL     1      -6.655   7.401  66.761  1.00  0.00     0.000 HD 
HETATM   22  C   UNL     1      -9.864   6.397  67.407  1.00  0.00    -0.158 C  
ENDROOT
BRANCH   4  23
HETATM   23  O   UNL     1     -10.274   9.356  68.521  1.00  0.00    -0.185 OA 
BRANCH  23  24
HETATM   24  C   UNL     1     -10.515  10.029  67.328  1.00  0.00    -0.254 C  
HETATM   25  O   UNL     1      -9.909   9.842  66.289  1.00  0.00    -0.212 OA 
BRANCH  24  26
HETATM   26  O   UNL     1     -11.686  10.738  67.416  1.00  0.00    -0.462 OA 
BRANCH  26  27
HETATM   27  C   UNL     1     -11.533  12.131  67.056  1.00  0.00    -0.350 C  
HETATM   28  C   UNL     1     -12.026  12.478  65.655  1.00  0.00    -0.492 C  
ENDBRANCH  26  27
ENDBRANCH  24  26
ENDBRANCH  23  24
ENDBRANCH   4  23
BRANCH   4  29
HETATM   29  C   UNL     1      -7.967   9.617  69.272  1.00  0.00    -0.104 C  
HETATM   30  O   UNL     1      -7.827  10.049  70.419  1.00  0.00    -0.216 OA 
BRANCH  29  31
HETATM   31  O   UNL     1      -7.236  10.257  68.284  1.00  0.00    -0.081 OA 
HETATM   32  C   UNL     1      -6.891  11.643  68.674  1.00  0.00    -0.079 C  
HETATM   33 CL   UNL     1      -8.257  12.765  68.401  1.00  0.00    -0.152 Cl 
ENDBRANCH  29  31
ENDBRANCH   4  29
TORSDOF 6
ENDMDL
MODEL       68
REMARK 921   NORMALIZED FREE ENERGY PREDICTED BY IDOCK:   -4.15 KCAL/MOL
REMARK 922        TOTAL FREE ENERGY PREDICTED BY IDOCK:   -5.29 KCAL/MOL
REMARK 923 INTER-LIGAND FREE ENERGY PREDICTED BY IDOCK:   -5.56 KCAL/MOL
REMARK 924 INTRA-LIGAND FREE ENERGY PREDICTED BY IDOCK:    0.27 KCAL/MOL
REMARK 927      BINDING AFFINITY PREDICTED BY RF-SCORE:    0.00 PKD
ROOT
HETATM    1  C   UNL     1      -8.233  10.472  69.023  1.00  0.00    -0.145 C  
HETATM    2  C   UNL     1      -7.078  10.614  69.834  1.00  0.00    -0.133 C  
HETATM    3  C   UNL     1      -7.050   9.621  68.725  1.00  0.00    -0.067 C  
HETATM    4  C   UNL     1      -8.492   9.800  67.235  1.00  0.00    -0.125 C  
HETATM    5  C   UNL     1      -7.222  10.296  67.386  1.00  0.00    -0.092 C  
HETATM    6  C   UNL     1     -10.436   6.030  68.686  1.00  0.00    -0.297 C  
HETATM    7  C   UNL     1      -9.563   9.015  70.911  1.00  0.00    -0.328 C  
HETATM    8  C   UNL     1      -9.227   6.225  69.605  1.00  0.00    -0.144 C  
HETATM    9  C   UNL     1      -8.178   5.027  69.730  1.00  0.00    -0.077 C  
HETATM   10  C   UNL     1      -6.673   8.526  66.942  1.00  0.00    -0.062 C  
HETATM   11  C   UNL     1      -7.807   4.365  70.841  1.00  0.00    -0.067 C  
HETATM   12  C   UNL     1      -6.646  11.601  66.898  1.00  0.00    -0.129 C  
HETATM   13  O   UNL     1      -9.951   3.312  71.119  1.00  0.00    -0.133 OA 
HETATM   14  C   UNL     1      -7.777   7.362  67.536  1.00  0.00    -0.111 C  
HETATM   15  C   UNL     1      -9.241   4.276  71.355  1.00  0.00    -0.134 C  
HETATM   16  C   UNL     1      -9.707   5.539  71.949  1.00  0.00    -0.197 C  
HETATM   17  O   UNL     1      -8.825   7.313  66.559  1.00  0.00    -0.129 OA 
HETATM   18  C   UNL     1      -9.777   6.510  71.032  1.00  0.00    -0.189 C  
HETATM   19  C   UNL     1      -8.399   7.451  69.097  1.00  0.00    -0.132 C  
HETATM   20  C   UNL     1     -10.422   7.837  71.327  1.00  0.00    -0.230 C  
HETATM   21  H   UNL     1      -9.438   6.667  66.890  1.00  0.00     0.000 HD 
HETATM   22  C   UNL     1      -9.127   8.920  69.448  1.00  0.00    -0.145 C  
ENDROOT
BRANCH   4  23
HETATM   23  O   UNL     1      -9.409  11.131  67.170  1.00  0.00    -0.163 OA 
BRANCH  23  24
HETATM   24  C   UNL     1     -10.794  11.180  67.278  1.00  0.00    -0.274 C  
HETATM   25  O   UNL     1     -11.501  10.239  67.592  1.00  0.00    -0.345 OA 
BRANCH  24  26
HETATM   26  O   UNL     1     -11.225  12.481  67.236  1.00  0.00    -0.264 OA 
BRANCH  26  27
HETATM   27  C   UNL     1     -11.990  12.863  68.403  1.00  0.00    -0.248 C  
HETATM   28  C   UNL     1     -11.258  12.671  69.727  1.00  0.00     0.005 C  
ENDBRANCH  26  27
ENDBRANCH  24  26
ENDBRANCH  23  24
ENDBRANCH   4  23
BRANCH   4  29
HETATM   29  C   UNL     1      -8.365   9.775  65.431  1.00  0.00    -0.139 C  
HETATM   30  O   UNL     1      -7.340  10.017  64.787  1.00  0.00    -0.135 OA 
BRANCH  29  31
HETATM   31  O   UNL     1      -9.507   9.520  64.690  1.00  0.00    -0.228 OA 
HETATM   32  C   UNL     1      -9.571  10.372  63.480  1.00  0.00    -0.310 C  
HETATM   33 CL   UNL     1     -10.172  12.013  63.858  1.00  0.00    -0.390 Cl 
ENDBRANCH  29  31
ENDBRANCH   4  29
TORSDOF 6
ENDMDL
MODEL       69
REMARK 921   NORMALIZED FREE ENERGY PREDICTED BY IDOCK:   -4.14 KCAL/MOL
REMARK 922        TOTAL FREE ENERGY PREDICTED BY IDOCK:   -5.29 KCAL/MOL
REMARK 923 INTER-LIGAND FREE ENERGY PREDICTED BY IDOCK:   -5.69 KCAL/MOL
REMARK 924 INTRA-LIGAND FREE ENERGY PREDICTED BY IDOCK:    0.41 KCAL/MOL
REMARK 927      BINDING AFFINITY PREDICTED BY RF-SCORE:    0.00 PKD
ROOT
HETATM    1  C   UNL     1      -7.827   8.503  70.056  1.00  0.00    -0.102 C  
HETATM    2  C   UNL     1      -7.474   9.850  70.325  1.00  0.00    -0.173 C  
HETATM    3  C   UNL     1      -8.837   9.565  69.801  1.00  0.00    -0.211 C  
HETATM    4  C   UNL     1      -9.528   7.605  69.929  1.00  0.00    -0.160 C  
HETATM    5  C   UNL     1      -9.616   8.696  70.757  1.00  0.00    -0.231 C  
HETATM    6  C   UNL     1      -9.261   7.237  65.469  1.00  0.00     0.278 C  
HETATM    7  C   UNL     1      -6.415   8.443  67.719  1.00  0.00    -0.061 C  
HETATM    8  C   UNL     1      -8.812   8.669  65.770  1.00  0.00    -0.231 C  
HETATM    9  C   UNL     1      -9.570   9.865  65.030  1.00  0.00    -0.364 C  
HETATM   10  C   UNL     1     -10.928   9.305  69.516  1.00  0.00    -0.169 C  
HETATM   11  C   UNL     1      -9.044  10.804  64.224  1.00  0.00    -0.216 C  
HETATM   12  C   UNL     1      -9.664   8.745  72.263  1.00  0.00    -0.282 C  
HETATM   13  O   UNL     1      -8.538   9.241  62.469  1.00  0.00    -0.194 OA 
HETATM   14  C   UNL     1     -10.554   8.814  67.921  1.00  0.00    -0.174 C  
HETATM   15  C   UNL     1      -8.168   9.792  63.493  1.00  0.00    -0.156 C  
HETATM   16  C   UNL     1      -6.975   9.415  64.267  1.00  0.00    -0.102 C  
HETATM   17  O   UNL     1     -11.043   7.470  67.822  1.00  0.00    -0.493 OA 
HETATM   18  C   UNL     1      -7.308   8.768  65.389  1.00  0.00    -0.085 C  
HETATM   19  C   UNL     1      -8.995   8.946  67.299  1.00  0.00    -0.140 C  
HETATM   20  C   UNL     1      -6.278   8.090  66.251  1.00  0.00    -0.046 C  
HETATM   21  H   UNL     1     -10.835   7.198  66.936  1.00  0.00     0.000 HD 
HETATM   22  C   UNL     1      -7.830   8.193  68.241  1.00  0.00    -0.122 C  
ENDROOT
BRANCH   4  23
HETATM   23  O   UNL     1      -8.708   6.528  70.814  1.00  0.00    -0.141 OA 
BRANCH  23  24
HETATM   24  C   UNL     1      -8.649   5.157  70.591  1.00  0.00    -0.119 C  
HETATM   25  O   UNL     1      -8.622   4.631  69.493  1.00  0.00    -0.080 OA 
BRANCH  24  26
HETATM   26  O   UNL     1      -8.370   4.500  71.762  1.00  0.00    -0.103 OA 
BRANCH  26  27
HETATM   27  C   UNL     1      -9.234   4.895  72.853  1.00  0.00    -0.130 C  
HETATM   28  C   UNL     1     -10.495   4.049  72.995  1.00  0.00    -0.250 C  
ENDBRANCH  26  27
ENDBRANCH  24  26
ENDBRANCH  23  24
ENDBRANCH   4  23
BRANCH   4  29
HETATM   29  C   UNL     1     -11.097   6.921  70.513  1.00  0.00    -0.288 C  
HETATM   30  O   UNL     1     -11.861   6.223  69.841  1.00  0.00    -0.340 OA 
BRANCH  29  31
HETATM   31  O   UNL     1     -11.523   7.237  71.792  1.00  0.00    -0.254 OA 
HETATM   32  C   UNL     1     -12.996   7.379  71.855  1.00  0.00    -0.258 C  
HETATM   33 CL   UNL     1     -13.532   8.982  71.271  1.00  0.00    -0.296 Cl 
ENDBRANCH  29  31
ENDBRANCH   4  29
TORSDOF 6
ENDMDL
MODEL       70
REMARK 921   NORMALIZED FREE ENERGY PREDICTED BY IDOCK:   -4.13 KCAL/MOL
REMARK 922        TOTAL FREE ENERGY PREDICTED BY IDOCK:   -5.26 KCAL/MOL
REMARK 923 INTER-LIGAND FREE ENERGY PREDICTED BY IDOCK:   -5.69 KCAL/MOL
REMARK 924 INTRA-LIGAND FREE ENERGY PREDICTED BY IDOCK:    0.43 KCAL/MOL
REMARK 927      BINDING AFFINITY PREDICTED BY RF-SCORE:    0.00 PKD
ROOT
HETATM    1  C   UNL     1      -9.055   8.300  69.561  1.00  0.00    -0.154 C  
HETATM    2  C   UNL     1     -10.181   8.549  70.385  1.00  0.00    -0.215 C  
HETATM    3  C   UNL     1     -10.413   8.110  68.982  1.00  0.00    -0.211 C  
HETATM    4  C   UNL     1      -8.817   7.234  67.973  1.00  0.00    -0.129 C  
HETATM    5  C   UNL     1      -9.838   6.735  68.741  1.00  0.00    -0.143 C  
HETATM    6  C   UNL     1      -8.540  10.836  65.318  1.00  0.00    -0.153 C  
HETATM    7  C   UNL     1      -8.587  10.957  69.139  1.00  0.00    -0.060 C  
HETATM    8  C   UNL     1      -9.712  11.133  66.258  1.00  0.00    -0.244 C  
HETATM    9  C   UNL     1     -11.124  11.498  65.605  1.00  0.00    -0.261 C  
HETATM   10  C   UNL     1     -10.913   7.061  67.202  1.00  0.00    -0.393 C  
HETATM   11  C   UNL     1     -11.847  12.619  65.774  1.00  0.00    -0.497 C  
HETATM   12  C   UNL     1      -9.846   5.530  69.646  1.00  0.00    -0.258 C  
HETATM   13  O   UNL     1     -10.270  14.004  64.600  1.00  0.00    -0.420 OA 
HETATM   14  C   UNL     1     -10.380   8.445  66.349  1.00  0.00     0.025 C  
HETATM   15  C   UNL     1     -10.618  13.517  65.664  1.00  0.00    -0.284 C  
HETATM   16  C   UNL     1      -9.819  13.535  66.899  1.00  0.00    -0.257 C  
HETATM   17  O   UNL     1      -9.299   7.982  65.531  1.00  0.00    -0.411 OA 
HETATM   18  C   UNL     1      -9.290  12.333  67.152  1.00  0.00    -0.196 C  
HETATM   19  C   UNL     1      -9.979   9.873  67.145  1.00  0.00    -0.252 C  
HETATM   20  C   UNL     1      -8.263  12.128  68.232  1.00  0.00    -0.168 C  
HETATM   21  H   UNL     1      -9.002   8.751  65.057  1.00  0.00     0.000 HD 
HETATM   22  C   UNL     1      -8.832   9.670  68.351  1.00  0.00    -0.123 C  
ENDROOT
BRANCH   4  23
HETATM   23  O   UNL     1      -7.489   6.813  68.794  1.00  0.00    -0.091 OA 
BRANCH  23  24
HETATM   24  C   UNL     1      -6.184   7.188  68.494  1.00  0.00    -0.035 C  
HETATM   25  O   UNL     1      -5.789   7.504  67.386  1.00  0.00    -0.033 OA 
BRANCH  24  26
HETATM   26  O   UNL     1      -5.476   7.398  69.649  1.00  0.00    -0.022 OA 
BRANCH  26  27
HETATM   27  C   UNL     1      -5.667   6.351  70.629  1.00  0.00    -0.023 C  
HETATM   28  C   UNL     1      -5.130   6.682  72.017  1.00  0.00    -0.027 C  
ENDBRANCH  26  27
ENDBRANCH  24  26
ENDBRANCH  23  24
ENDBRANCH   4  23
BRANCH   4  29
HETATM   29  C   UNL     1      -8.706   5.726  66.981  1.00  0.00    -0.109 C  
HETATM   30  O   UNL     1      -8.032   5.598  65.955  1.00  0.00    -0.102 OA 
BRANCH  29  31
HETATM   31  O   UNL     1      -9.472   4.633  67.349  1.00  0.00    -0.135 OA 
HETATM   32  C   UNL     1      -9.580   3.648  66.248  1.00  0.00    -0.130 C  
HETATM   33 CL   UNL     1     -10.822   4.126  65.053  1.00  0.00    -0.179 Cl 
ENDBRANCH  29  31
ENDBRANCH   4  29
TORSDOF 6
ENDMDL
MODEL       71
REMARK 921   NORMALIZED FREE ENERGY PREDICTED BY IDOCK:   -3.96 KCAL/MOL
REMARK 922        TOTAL FREE ENERGY PREDICTED BY IDOCK:   -5.04 KCAL/MOL
REMARK 923 INTER-LIGAND FREE ENERGY PREDICTED BY IDOCK:   -5.32 KCAL/MOL
REMARK 924 INTRA-LIGAND FREE ENERGY PREDICTED BY IDOCK:    0.28 KCAL/MOL
REMARK 927      BINDING AFFINITY PREDICTED BY RF-SCORE:    0.00 PKD
ROOT
HETATM    1  C   UNL     1      -9.639   7.651  67.797  1.00  0.00    -0.169 C  
HETATM    2  C   UNL     1     -10.851   7.114  67.294  1.00  0.00    -0.382 C  
HETATM    3  C   UNL     1      -9.948   7.832  66.353  1.00  0.00    -0.164 C  
HETATM    4  C   UNL     1      -7.975   8.124  66.947  1.00  0.00    -0.104 C  
HETATM    5  C   UNL     1      -8.614   7.136  66.243  1.00  0.00    -0.143 C  
HETATM    6  C   UNL     1      -8.761  12.521  67.338  1.00  0.00    -0.189 C  
HETATM    7  C   UNL     1     -10.889   9.785  68.954  1.00  0.00    -0.220 C  
HETATM    8  C   UNL     1     -10.090  11.927  66.863  1.00  0.00    -0.229 C  
HETATM    9  C   UNL     1     -10.751  12.531  65.539  1.00  0.00    -0.303 C  
HETATM   10  C   UNL     1      -8.596   8.395  64.812  1.00  0.00    -0.077 C  
HETATM   11  C   UNL     1     -11.964  13.097  65.406  1.00  0.00    -0.448 C  
HETATM   12  C   UNL     1      -8.313   5.660  66.189  1.00  0.00    -0.120 C  
HETATM   13  O   UNL     1     -11.384  15.027  66.718  1.00  0.00    -0.341 OA 
HETATM   14  C   UNL     1      -8.754   9.998  65.389  1.00  0.00    -0.159 C  
HETATM   15  C   UNL     1     -11.820  13.887  66.703  1.00  0.00    -0.420 C  
HETATM   16  C   UNL     1     -12.050  13.059  67.897  1.00  0.00    -0.234 C  
HETATM   17  O   UNL     1      -7.431  10.383  65.781  1.00  0.00    -0.138 OA 
HETATM   18  C   UNL     1     -11.114  12.111  68.018  1.00  0.00    -0.292 C  
HETATM   19  C   UNL     1      -9.886  10.405  66.566  1.00  0.00    -0.256 C  
HETATM   20  C   UNL     1     -10.994  11.267  69.257  1.00  0.00    -0.297 C  
HETATM   21  H   UNL     1      -7.519  11.273  66.102  1.00  0.00     0.000 HD 
HETATM   22  C   UNL     1      -9.768   9.480  67.960  1.00  0.00    -0.168 C  
ENDROOT
BRANCH   4  23
HETATM   23  O   UNL     1      -7.412   7.351  68.252  1.00  0.00    -0.103 OA 
BRANCH  23  24
HETATM   24  C   UNL     1      -6.371   7.773  69.071  1.00  0.00    -0.036 C  
HETATM   25  O   UNL     1      -5.197   7.493  68.903  1.00  0.00    -0.017 OA 
BRANCH  24  26
HETATM   26  O   UNL     1      -6.811   8.746  69.930  1.00  0.00    -0.041 OA 
BRANCH  26  27
HETATM   27  C   UNL     1      -5.851   9.812  70.118  1.00  0.00    -0.047 C  
HETATM   28  C   UNL     1      -5.819  10.839  68.990  1.00  0.00    -0.040 C  
ENDBRANCH  26  27
ENDBRANCH  24  26
ENDBRANCH  23  24
ENDBRANCH   4  23
BRANCH   4  29
HETATM   29  C   UNL     1      -6.408   7.852  66.086  1.00  0.00    -0.046 C  
HETATM   30  O   UNL     1      -5.572   8.725  65.838  1.00  0.00    -0.044 OA 
BRANCH  29  31
HETATM   31  O   UNL     1      -6.127   6.583  65.608  1.00  0.00    -0.029 OA 
HETATM   32  C   UNL     1      -5.128   6.622  64.515  1.00  0.00    -0.026 C  
HETATM   33 CL   UNL     1      -5.876   7.055  62.950  1.00  0.00    -0.040 Cl 
ENDBRANCH  29  31
ENDBRANCH   4  29
TORSDOF 6
ENDMDL
MODEL       72
REMARK 921   NORMALIZED FREE ENERGY PREDICTED BY IDOCK:   -3.88 KCAL/MOL
REMARK 922        TOTAL FREE ENERGY PREDICTED BY IDOCK:   -4.92 KCAL/MOL
REMARK 923 INTER-LIGAND FREE ENERGY PREDICTED BY IDOCK:   -5.57 KCAL/MOL
REMARK 924 INTRA-LIGAND FREE ENERGY PREDICTED BY IDOCK:    0.65 KCAL/MOL
REMARK 927      BINDING AFFINITY PREDICTED BY RF-SCORE:    0.00 PKD
ROOT
HETATM    1  C   UNL     1      -7.161   7.371  68.199  1.00  0.00    -0.085 C  
HETATM    2  C   UNL     1      -7.070   5.983  68.471  1.00  0.00    -0.082 C  
HETATM    3  C   UNL     1      -8.300   6.497  67.809  1.00  0.00    -0.119 C  
HETATM    4  C   UNL     1      -8.204   8.383  66.933  1.00  0.00    -0.103 C  
HETATM    5  C   UNL     1      -7.979   7.112  66.469  1.00  0.00    -0.112 C  
HETATM    6  C   UNL     1     -10.935   9.979  70.110  1.00  0.00    -0.368 C  
HETATM    7  C   UNL     1      -7.740   7.993  70.794  1.00  0.00    -0.082 C  
HETATM    8  C   UNL     1     -10.777   8.493  70.441  1.00  0.00    -0.246 C  
HETATM    9  C   UNL     1     -12.102   7.610  70.583  1.00  0.00    -0.068 C  
HETATM   10  C   UNL     1      -9.880   6.970  66.468  1.00  0.00    -0.175 C  
HETATM   11  C   UNL     1     -12.514   6.903  71.650  1.00  0.00    -0.418 C  
HETATM   12  C   UNL     1      -7.009   6.641  65.415  1.00  0.00    -0.056 C  
HETATM   13  O   UNL     1     -12.956   8.861  72.975  1.00  0.00    -0.297 OA 
HETATM   14  C   UNL     1     -10.573   7.866  67.750  1.00  0.00    -0.175 C  
HETATM   15  C   UNL     1     -12.145   8.019  72.624  1.00  0.00    -0.227 C  
HETATM   16  C   UNL     1     -10.701   8.078  72.894  1.00  0.00    -0.403 C  
HETATM   17  O   UNL     1     -10.645   9.213  67.265  1.00  0.00    -0.271 OA 
HETATM   18  C   UNL     1     -10.014   8.403  71.793  1.00  0.00    -0.312 C  
HETATM   19  C   UNL     1      -9.942   7.808  69.309  1.00  0.00    -0.182 C  
HETATM   20  C   UNL     1      -8.548   8.736  71.840  1.00  0.00    -0.169 C  
HETATM   21  H   UNL     1     -11.029   9.710  67.977  1.00  0.00     0.000 HD 
HETATM   22  C   UNL     1      -8.310   8.181  69.387  1.00  0.00    -0.123 C  
ENDROOT
BRANCH   4  23
HETATM   23  O   UNL     1      -6.769   9.107  66.755  1.00  0.00    -0.074 OA 
BRANCH  23  24
HETATM   24  C   UNL     1      -6.526  10.475  66.814  1.00  0.00    -0.081 C  
HETATM   25  O   UNL     1      -5.899  11.107  65.983  1.00  0.00    -0.144 OA 
BRANCH  24  26
HETATM   26  O   UNL     1      -7.300  11.049  67.789  1.00  0.00    -0.089 OA 
BRANCH  26  27
HETATM   27  C   UNL     1      -6.722  12.258  68.333  1.00  0.00    -0.064 C  
HETATM   28  C   UNL     1      -6.241  12.135  69.775  1.00  0.00    -0.132 C  
ENDBRANCH  26  27
ENDBRANCH  24  26
ENDBRANCH  23  24
ENDBRANCH   4  23
BRANCH   4  29
HETATM   29  C   UNL     1      -8.730   8.981  65.309  1.00  0.00    -0.193 C  
HETATM   30  O   UNL     1      -8.033   8.978  64.291  1.00  0.00    -0.127 OA 
BRANCH  29  31
HETATM   31  O   UNL     1      -9.991   9.541  65.186  1.00  0.00    -0.196 OA 
HETATM   32  C   UNL     1      -9.961  10.770  64.360  1.00  0.00    -0.338 C  
HETATM   33 CL   UNL     1      -9.413  12.188  65.303  1.00  0.00    -0.065 Cl 
ENDBRANCH  29  31
ENDBRANCH   4  29
TORSDOF 6
ENDMDL
MODEL       73
REMARK 921   NORMALIZED FREE ENERGY PREDICTED BY IDOCK:   -3.87 KCAL/MOL
REMARK 922        TOTAL FREE ENERGY PREDICTED BY IDOCK:   -4.92 KCAL/MOL
REMARK 923 INTER-LIGAND FREE ENERGY PREDICTED BY IDOCK:   -5.12 KCAL/MOL
REMARK 924 INTRA-LIGAND FREE ENERGY PREDICTED BY IDOCK:    0.20 KCAL/MOL
REMARK 927      BINDING AFFINITY PREDICTED BY RF-SCORE:    0.00 PKD
ROOT
HETATM    1  C   UNL     1     -11.022   7.259  70.247  1.00  0.00    -0.281 C  
HETATM    2  C   UNL     1     -11.723   7.371  71.474  1.00  0.00    -0.314 C  
HETATM    3  C   UNL     1     -10.379   8.000  71.364  1.00  0.00    -0.243 C  
HETATM    4  C   UNL     1      -9.613   8.308  69.453  1.00  0.00    -0.171 C  
HETATM    5  C   UNL     1     -10.367   9.075  70.305  1.00  0.00    -0.243 C  
HETATM    6  C   UNL     1      -6.524   5.145  70.200  1.00  0.00    -0.031 C  
HETATM    7  C   UNL     1     -10.282   4.676  70.733  1.00  0.00    -0.214 C  
HETATM    8  C   UNL     1      -7.330   5.219  71.500  1.00  0.00    -0.087 C  
HETATM    9  C   UNL     1      -6.535   5.477  72.862  1.00  0.00    -0.065 C  
HETATM   10  C   UNL     1      -8.725   9.330  71.238  1.00  0.00    -0.031 C  
HETATM   11  C   UNL     1      -6.500   4.698  73.958  1.00  0.00    -0.057 C  
HETATM   12  C   UNL     1     -11.423  10.101  69.979  1.00  0.00    -0.344 C  
HETATM   13  O   UNL     1      -5.266   2.946  72.869  1.00  0.00     0.000 OA 
HETATM   14  C   UNL     1      -7.734   7.938  71.150  1.00  0.00    -0.085 C  
HETATM   15  C   UNL     1      -6.357   3.420  73.137  1.00  0.00    -0.020 C  
HETATM   16  C   UNL     1      -7.633   2.983  72.549  1.00  0.00    -0.057 C  
HETATM   17  O   UNL     1      -7.064   8.039  69.887  1.00  0.00    -0.055 OA 
HETATM   18  C   UNL     1      -8.082   3.867  71.652  1.00  0.00    -0.073 C  
HETATM   19  C   UNL     1      -8.357   6.394  71.392  1.00  0.00    -0.122 C  
HETATM   20  C   UNL     1      -9.251   3.564  70.754  1.00  0.00    -0.204 C  
HETATM   21  H   UNL     1      -6.515   7.266  69.838  1.00  0.00     0.000 HD 
HETATM   22  C   UNL     1      -9.658   6.032  70.398  1.00  0.00    -0.194 C  
ENDROOT
BRANCH   4  23
HETATM   23  O   UNL     1     -10.577   8.116  68.168  1.00  0.00    -0.190 OA 
BRANCH  23  24
HETATM   24  C   UNL     1     -10.314   7.324  67.056  1.00  0.00    -0.306 C  
HETATM   25  O   UNL     1      -9.412   7.517  66.262  1.00  0.00    -0.169 OA 
BRANCH  24  26
HETATM   26  O   UNL     1     -11.042   6.164  67.122  1.00  0.00    -0.333 OA 
BRANCH  26  27
HETATM   27  C   UNL     1     -10.481   5.097  66.322  1.00  0.00    -0.289 C  
HETATM   28  C   UNL     1      -9.782   4.007  67.128  1.00  0.00    -0.207 C  
ENDBRANCH  26  27
ENDBRANCH  24  26
ENDBRANCH  23  24
ENDBRANCH   4  23
BRANCH   4  29
HETATM   29  C   UNL     1      -8.843   9.753  68.686  1.00  0.00    -0.126 C  
HETATM   30  O   UNL     1      -9.163  10.926  68.899  1.00  0.00    -0.184 OA 
BRANCH  29  31
HETATM   31  O   UNL     1      -7.852   9.552  67.740  1.00  0.00    -0.094 OA 
HETATM   32  C   UNL     1      -7.703  10.727  66.850  1.00  0.00    -0.130 C  
HETATM   33 CL   UNL     1      -8.943  10.742  65.561  1.00  0.00    -0.203 Cl 
ENDBRANCH  29  31
ENDBRANCH   4  29
TORSDOF 6
ENDMDL
MODEL       74
REMARK 921   NORMALIZED FREE ENERGY PREDICTED BY IDOCK:   -3.82 KCAL/MOL
REMARK 922        TOTAL FREE ENERGY PREDICTED BY IDOCK:   -4.85 KCAL/MOL
REMARK 923 INTER-LIGAND FREE ENERGY PREDICTED BY IDOCK:   -5.12 KCAL/MOL
REMARK 924 INTRA-LIGAND FREE ENERGY PREDICTED BY IDOCK:    0.27 KCAL/MOL
REMARK 927      BINDING AFFINITY PREDICTED BY RF-SCORE:    0.00 PKD
ROOT
HETATM    1  C   UNL     1     -10.382   7.542  67.795  1.00  0.00    -0.278 C  
HETATM    2  C   UNL     1     -11.114   6.727  66.894  1.00  0.00    -0.283 C  
HETATM    3  C   UNL     1      -9.675   6.419  67.121  1.00  0.00    -0.170 C  
HETATM    4  C   UNL     1      -8.771   7.238  68.808  1.00  0.00    -0.125 C  
HETATM    5  C   UNL     1      -9.419   6.054  68.563  1.00  0.00    -0.127 C  
HETATM    6  C   UNL     1      -6.334   9.927  66.176  1.00  0.00    -0.077 C  
HETATM    7  C   UNL     1     -10.137   9.577  65.990  1.00  0.00    -0.319 C  
HETATM    8  C   UNL     1      -7.179   9.094  65.208  1.00  0.00    -0.089 C  
HETATM    9  C   UNL     1      -6.421   8.276  64.063  1.00  0.00    -0.067 C  
HETATM   10  C   UNL     1      -7.807   5.565  67.671  1.00  0.00    -0.097 C  
HETATM   11  C   UNL     1      -6.580   8.377  62.732  1.00  0.00    -0.087 C  
HETATM   12  C   UNL     1     -10.259   5.218  69.495  1.00  0.00    -0.338 C  
HETATM   13  O   UNL     1      -5.622  10.580  62.625  1.00  0.00    -0.124 OA 
HETATM   14  C   UNL     1      -7.076   6.916  66.918  1.00  0.00    -0.075 C  
HETATM   15  C   UNL     1      -6.625   9.902  62.779  1.00  0.00    -0.118 C  
HETATM   16  C   UNL     1      -7.926  10.414  63.236  1.00  0.00    -0.117 C  
HETATM   17  O   UNL     1      -6.336   7.565  67.960  1.00  0.00    -0.045 OA 
HETATM   18  C   UNL     1      -8.166  10.068  64.505  1.00  0.00    -0.164 C  
HETATM   19  C   UNL     1      -7.975   8.023  66.025  1.00  0.00    -0.101 C  
HETATM   20  C   UNL     1      -9.322  10.639  65.279  1.00  0.00    -0.256 C  
HETATM   21  H   UNL     1      -5.930   8.316  67.543  1.00  0.00     0.000 HD 
HETATM   22  C   UNL     1      -9.267   8.677  66.869  1.00  0.00    -0.198 C  
ENDROOT
BRANCH   4  23
HETATM   23  O   UNL     1      -9.687   7.939  69.942  1.00  0.00    -0.175 OA 
BRANCH  23  24
HETATM   24  C   UNL     1      -9.326   9.023  70.734  1.00  0.00    -0.249 C  
HETATM   25  O   UNL     1      -8.448   9.822  70.461  1.00  0.00    -0.171 OA 
BRANCH  24  26
HETATM   26  O   UNL     1     -10.256   9.215  71.723  1.00  0.00    -0.338 OA 
BRANCH  26  27
HETATM   27  C   UNL     1     -11.514   8.553  71.454  1.00  0.00    -0.287 C  
HETATM   28  C   UNL     1     -12.648   9.493  71.056  1.00  0.00    -0.331 C  
ENDBRANCH  26  27
ENDBRANCH  24  26
ENDBRANCH  23  24
ENDBRANCH   4  23
BRANCH   4  29
HETATM   29  C   UNL     1      -7.719   6.503  70.082  1.00  0.00    -0.102 C  
HETATM   30  O   UNL     1      -6.675   6.999  70.516  1.00  0.00    -0.050 OA 
BRANCH  29  31
HETATM   31  O   UNL     1      -8.061   5.259  70.587  1.00  0.00    -0.103 OA 
HETATM   32  C   UNL     1      -6.931   4.640  71.318  1.00  0.00    -0.042 C  
HETATM   33 CL   UNL     1      -5.762   3.875  70.201  1.00  0.00    -0.016 Cl 
ENDBRANCH  29  31
ENDBRANCH   4  29
TORSDOF 6
ENDMDL
MODEL       75
REMARK 921   NORMALIZED FREE ENERGY PREDICTED BY IDOCK:   -3.82 KCAL/MOL
REMARK 922        TOTAL FREE ENERGY PREDICTED BY IDOCK:   -4.84 KCAL/MOL
REMARK 923 INTER-LIGAND FREE ENERGY PREDICTED BY IDOCK:   -5.58 KCAL/MOL
REMARK 924 INTRA-LIGAND FREE ENERGY PREDICTED BY IDOCK:    0.74 KCAL/MOL
REMARK 927      BINDING AFFINITY PREDICTED BY RF-SCORE:    0.00 PKD
ROOT
HETATM    1  C   UNL     1      -6.941   8.439  70.086  1.00  0.00    -0.042 C  
HETATM    2  C   UNL     1      -6.315   9.672  70.402  1.00  0.00    -0.081 C  
HETATM    3  C   UNL     1      -7.791   9.564  70.563  1.00  0.00    -0.182 C  
HETATM    4  C   UNL     1      -8.614   7.653  70.633  1.00  0.00    -0.135 C  
HETATM    5  C   UNL     1      -8.150   8.519  71.591  1.00  0.00    -0.195 C  
HETATM    6  C   UNL     1     -10.510   8.341  66.629  1.00  0.00    -0.217 C  
HETATM    7  C   UNL     1      -6.804   8.887  67.396  1.00  0.00    -0.070 C  
HETATM    8  C   UNL     1      -9.773   9.646  66.942  1.00  0.00    -0.240 C  
HETATM    9  C   UNL     1     -10.610  11.007  66.908  1.00  0.00    -0.307 C  
HETATM   10  C   UNL     1      -9.787   9.446  71.286  1.00  0.00    -0.245 C  
HETATM   11  C   UNL     1     -10.391  12.092  66.144  1.00  0.00    -0.264 C  
HETATM   12  C   UNL     1      -7.484   8.212  72.908  1.00  0.00    -0.165 C  
HETATM   13  O   UNL     1     -10.989  10.973  64.102  1.00  0.00    -0.314 OA 
HETATM   14  C   UNL     1     -10.273   9.335  69.650  1.00  0.00    -0.208 C  
HETATM   15  C   UNL     1     -10.111  11.253  64.901  1.00  0.00    -0.281 C  
HETATM   16  C   UNL     1      -8.762  10.666  64.910  1.00  0.00    -0.178 C  
HETATM   17  O   UNL     1     -10.938   8.069  69.546  1.00  0.00    -0.396 OA 
HETATM   18  C   UNL     1      -8.623   9.783  65.905  1.00  0.00    -0.149 C  
HETATM   19  C   UNL     1      -9.182   9.559  68.387  1.00  0.00    -0.130 C  
HETATM   20  C   UNL     1      -7.419   8.887  66.010  1.00  0.00    -0.090 C  
HETATM   21  H   UNL     1     -11.207   8.007  68.637  1.00  0.00     0.000 HD 
HETATM   22  C   UNL     1      -7.833   8.567  68.481  1.00  0.00    -0.108 C  
ENDROOT
BRANCH   4  23
HETATM   23  O   UNL     1      -7.640   6.370  70.783  1.00  0.00    -0.092 OA 
BRANCH  23  24
HETATM   24  C   UNL     1      -7.391   5.410  69.809  1.00  0.00    -0.065 C  
HETATM   25  O   UNL     1      -6.299   4.924  69.574  1.00  0.00    -0.028 OA 
BRANCH  24  26
HETATM   26  O   UNL     1      -8.573   4.905  69.333  1.00  0.00    -0.086 OA 
BRANCH  26  27
HETATM   27  C   UNL     1      -8.811   5.233  67.944  1.00  0.00    -0.105 C  
HETATM   28  C   UNL     1      -8.364   4.160  66.957  1.00  0.00    -0.100 C  
ENDBRANCH  26  27
ENDBRANCH  24  26
ENDBRANCH  23  24
ENDBRANCH   4  23
BRANCH   4  29
HETATM   29  C   UNL     1      -9.811   6.901  71.762  1.00  0.00    -0.163 C  
HETATM   30  O   UNL     1      -9.788   7.002  72.992  1.00  0.00    -0.166 OA 
BRANCH  29  31
HETATM   31  O   UNL     1     -10.807   6.099  71.232  1.00  0.00    -0.245 OA 
HETATM   32  C   UNL     1     -11.877   5.836  72.222  1.00  0.00    -0.153 C  
HETATM   33 CL   UNL     1     -11.420   4.533  73.359  1.00  0.00    -0.383 Cl 
ENDBRANCH  29  31
ENDBRANCH   4  29
TORSDOF 6
ENDMDL
MODEL       76
REMARK 921   NORMALIZED FREE ENERGY PREDICTED BY IDOCK:   -3.80 KCAL/MOL
REMARK 922        TOTAL FREE ENERGY PREDICTED BY IDOCK:   -4.82 KCAL/MOL
REMARK 923 INTER-LIGAND FREE ENERGY PREDICTED BY IDOCK:   -5.34 KCAL/MOL
REMARK 924 INTRA-LIGAND FREE ENERGY PREDICTED BY IDOCK:    0.52 KCAL/MOL
REMARK 927      BINDING AFFINITY PREDICTED BY RF-SCORE:    0.00 PKD
ROOT
HETATM    1  C   UNL     1      -8.380   9.352  70.152  1.00  0.00    -0.197 C  
HETATM    2  C   UNL     1      -7.276   8.958  70.949  1.00  0.00    -0.093 C  
HETATM    3  C   UNL     1      -7.086   9.067  69.477  1.00  0.00    -0.059 C  
HETATM    4  C   UNL     1      -8.502  10.149  68.401  1.00  0.00    -0.118 C  
HETATM    5  C   UNL     1      -7.315  10.481  69.003  1.00  0.00    -0.103 C  
HETATM    6  C   UNL     1      -9.953   6.347  66.520  1.00  0.00    -0.162 C  
HETATM    7  C   UNL     1      -9.547   6.886  70.283  1.00  0.00    -0.170 C  
HETATM    8  C   UNL     1      -8.805   5.916  67.436  1.00  0.00    -0.106 C  
HETATM    9  C   UNL     1      -7.606   5.076  66.794  1.00  0.00    -0.088 C  
HETATM   10  C   UNL     1      -6.520   9.616  67.502  1.00  0.00    -0.069 C  
HETATM   11  C   UNL     1      -7.177   3.850  67.141  1.00  0.00    -0.067 C  
HETATM   12  C   UNL     1      -6.909  11.780  69.653  1.00  0.00     0.026 C  
HETATM   13  O   UNL     1      -9.165   2.756  66.345  1.00  0.00    -0.143 OA 
HETATM   14  C   UNL     1      -7.471   8.299  66.965  1.00  0.00    -0.088 C  
HETATM   15  C   UNL     1      -8.598   3.310  67.273  1.00  0.00    -0.110 C  
HETATM   16  C   UNL     1      -9.245   3.723  68.528  1.00  0.00    -0.214 C  
HETATM   17  O   UNL     1      -8.478   8.884  66.130  1.00  0.00    -0.116 OA 
HETATM   18  C   UNL     1      -9.423   5.048  68.569  1.00  0.00    -0.185 C  
HETATM   19  C   UNL     1      -8.137   7.193  68.045  1.00  0.00    -0.120 C  
HETATM   20  C   UNL     1     -10.248   5.706  69.641  1.00  0.00    -0.321 C  
HETATM   21  H   UNL     1      -9.007   8.153  65.833  1.00  0.00     0.000 HD 
HETATM   22  C   UNL     1      -9.066   7.903  69.247  1.00  0.00    -0.148 C  
ENDROOT
BRANCH   4  23
HETATM   23  O   UNL     1      -9.589  11.047  69.193  1.00  0.00    -0.166 OA 
BRANCH  23  24
HETATM   24  C   UNL     1     -10.962  11.056  68.976  1.00  0.00    -0.233 C  
HETATM   25  O   UNL     1     -11.569  10.223  68.327  1.00  0.00    -0.264 OA 
BRANCH  24  26
HETATM   26  O   UNL     1     -11.563  11.975  69.796  1.00  0.00    -0.299 OA 
BRANCH  26  27
HETATM   27  C   UNL     1     -12.333  11.367  70.860  1.00  0.00    -0.381 C  
HETATM   28  C   UNL     1     -13.063  12.361  71.757  1.00  0.00    -0.446 C  
ENDBRANCH  26  27
ENDBRANCH  24  26
ENDBRANCH  23  24
ENDBRANCH   4  23
BRANCH   4  29
HETATM   29  C   UNL     1      -8.328  11.434  67.141  1.00  0.00    -0.155 C  
HETATM   30  O   UNL     1      -7.256  11.879  66.723  1.00  0.00    -0.108 OA 
BRANCH  29  31
HETATM   31  O   UNL     1      -9.474  12.019  66.629  1.00  0.00    -0.205 OA 
HETATM   32  C   UNL     1      -9.330  13.489  66.514  1.00  0.00    -0.215 C  
HETATM   33 CL   UNL     1      -9.603  14.304  68.083  1.00  0.00    -0.212 Cl 
ENDBRANCH  29  31
ENDBRANCH   4  29
TORSDOF 6
ENDMDL
MODEL       77
REMARK 921   NORMALIZED FREE ENERGY PREDICTED BY IDOCK:   -3.78 KCAL/MOL
REMARK 922        TOTAL FREE ENERGY PREDICTED BY IDOCK:   -4.79 KCAL/MOL
REMARK 923 INTER-LIGAND FREE ENERGY PREDICTED BY IDOCK:   -4.90 KCAL/MOL
REMARK 924 INTRA-LIGAND FREE ENERGY PREDICTED BY IDOCK:    0.11 KCAL/MOL
REMARK 927      BINDING AFFINITY PREDICTED BY RF-SCORE:    0.00 PKD
ROOT
HETATM    1  C   UNL     1     -10.050   7.528  66.924  1.00  0.00    -0.336 C  
HETATM    2  C   UNL     1     -10.350   8.912  66.998  1.00  0.00    -0.340 C  
HETATM    3  C   UNL     1      -9.011   8.450  67.454  1.00  0.00    -0.143 C  
HETATM    4  C   UNL     1      -8.385   6.560  66.846  1.00  0.00    -0.113 C  
HETATM    5  C   UNL     1      -8.238   7.820  66.321  1.00  0.00    -0.122 C  
HETATM    6  C   UNL     1      -8.775   5.092  71.064  1.00  0.00    -0.139 C  
HETATM    7  C   UNL     1     -11.522   6.937  69.147  1.00  0.00    -0.025 C  
HETATM    8  C   UNL     1      -9.167   6.571  71.127  1.00  0.00    -0.156 C  
HETATM    9  C   UNL     1      -8.387   7.511  72.157  1.00  0.00    -0.127 C  
HETATM   10  C   UNL     1      -6.938   8.044  67.696  1.00  0.00    -0.075 C  
HETATM   11  C   UNL     1      -8.901   8.238  73.166  1.00  0.00    -0.292 C  
HETATM   12  C   UNL     1      -8.151   8.244  64.877  1.00  0.00    -0.150 C  
HETATM   13  O   UNL     1      -9.504   6.304  74.462  1.00  0.00    -0.189 OA 
HETATM   14  C   UNL     1      -7.368   7.183  69.110  1.00  0.00    -0.092 C  
HETATM   15  C   UNL     1      -9.829   7.109  73.604  1.00  0.00    -0.300 C  
HETATM   16  C   UNL     1     -11.015   6.987  72.742  1.00  0.00    -0.329 C  
HETATM   17  O   UNL     1      -6.928   5.840  68.875  1.00  0.00    -0.063 OA 
HETATM   18  C   UNL     1     -10.676   6.630  71.498  1.00  0.00    -0.263 C  
HETATM   19  C   UNL     1      -8.936   7.216  69.721  1.00  0.00    -0.142 C  
HETATM   20  C   UNL     1     -11.707   6.233  70.477  1.00  0.00    -0.289 C  
HETATM   21  H   UNL     1      -7.168   5.361  69.660  1.00  0.00     0.000 HD 
HETATM   22  C   UNL     1     -10.103   6.771  68.601  1.00  0.00    -0.163 C  
ENDROOT
BRANCH   4  23
HETATM   23  O   UNL     1      -9.219   5.774  65.705  1.00  0.00    -0.148 OA 
BRANCH  23  24
HETATM   24  C   UNL     1      -9.454   4.404  65.658  1.00  0.00    -0.175 C  
HETATM   25  O   UNL     1      -9.485   3.670  66.629  1.00  0.00    -0.188 OA 
BRANCH  24  26
HETATM   26  O   UNL     1      -9.897   4.045  64.412  1.00  0.00    -0.169 OA 
BRANCH  26  27
HETATM   27  C   UNL     1      -9.880   2.614  64.195  1.00  0.00    -0.132 C  
HETATM   28  C   UNL     1      -9.296   2.186  62.853  1.00  0.00    -0.090 C  
ENDBRANCH  26  27
ENDBRANCH  24  26
ENDBRANCH  23  24
ENDBRANCH   4  23
BRANCH   4  29
HETATM   29  C   UNL     1      -6.826   5.983  66.133  1.00  0.00    -0.061 C  
HETATM   30  O   UNL     1      -6.243   6.508  65.181  1.00  0.00    -0.032 OA 
BRANCH  29  31
HETATM   31  O   UNL     1      -6.251   4.831  66.643  1.00  0.00    -0.030 OA 
HETATM   32  C   UNL     1      -5.351   4.190  65.657  1.00  0.00    -0.009 C  
HETATM   33 CL   UNL     1      -6.261   3.218  64.464  1.00  0.00    -0.023 Cl 
ENDBRANCH  29  31
ENDBRANCH   4  29
TORSDOF 6
ENDMDL
MODEL       78
REMARK 921   NORMALIZED FREE ENERGY PREDICTED BY IDOCK:   -3.66 KCAL/MOL
REMARK 922        TOTAL FREE ENERGY PREDICTED BY IDOCK:   -4.63 KCAL/MOL
REMARK 923 INTER-LIGAND FREE ENERGY PREDICTED BY IDOCK:   -5.54 KCAL/MOL
REMARK 924 INTRA-LIGAND FREE ENERGY PREDICTED BY IDOCK:    0.92 KCAL/MOL
REMARK 927      BINDING AFFINITY PREDICTED BY RF-SCORE:    0.00 PKD
ROOT
HETATM    1  C   UNL     1      -9.763   8.409  71.510  1.00  0.00    -0.276 C  
HETATM    2  C   UNL     1     -10.856   9.307  71.605  1.00  0.00    -0.418 C  
HETATM    3  C   UNL     1     -10.957   8.163  70.657  1.00  0.00    -0.255 C  
HETATM    4  C   UNL     1      -9.628   6.581  70.913  1.00  0.00    -0.175 C  
HETATM    5  C   UNL     1     -10.889   6.844  71.388  1.00  0.00    -0.256 C  
HETATM    6  C   UNL     1      -7.552   7.732  67.110  1.00  0.00    -0.100 C  
HETATM    7  C   UNL     1      -8.286  10.135  69.993  1.00  0.00    -0.046 C  
HETATM    8  C   UNL     1      -8.692   8.743  67.254  1.00  0.00    -0.133 C  
HETATM    9  C   UNL     1      -9.720   8.895  66.040  1.00  0.00    -0.308 C  
HETATM   10  C   UNL     1     -11.453   6.369  69.631  1.00  0.00    -0.446 C  
HETATM   11  C   UNL     1     -10.002  10.001  65.329  1.00  0.00    -0.368 C  
HETATM   12  C   UNL     1     -11.510   6.453  72.705  1.00  0.00    -0.234 C  
HETATM   13  O   UNL     1      -7.835  10.080  64.291  1.00  0.00    -0.138 OA 
HETATM   14  C   UNL     1     -10.299   6.833  68.457  1.00  0.00    -0.190 C  
HETATM   15  C   UNL     1      -8.534  10.406  65.236  1.00  0.00    -0.169 C  
HETATM   16  C   UNL     1      -8.037  11.016  66.479  1.00  0.00    -0.161 C  
HETATM   17  O   UNL     1      -9.325   5.782  68.459  1.00  0.00    -0.119 OA 
HETATM   18  C   UNL     1      -8.042  10.137  67.488  1.00  0.00    -0.113 C  
HETATM   19  C   UNL     1      -9.566   8.348  68.490  1.00  0.00    -0.155 C  
HETATM   20  C   UNL     1      -7.389  10.439  68.809  1.00  0.00    -0.089 C  
HETATM   21  H   UNL     1      -8.683   6.040  67.807  1.00  0.00     0.000 HD 
HETATM   22  C   UNL     1      -8.827   8.705  69.952  1.00  0.00    -0.144 C  
ENDROOT
BRANCH   4  23
HETATM   23  O   UNL     1      -8.730   6.504  72.256  1.00  0.00    -0.130 OA 
BRANCH  23  24
HETATM   24  C   UNL     1      -7.347   6.374  72.312  1.00  0.00    -0.091 C  
HETATM   25  O   UNL     1      -6.585   7.224  72.737  1.00  0.00    -0.062 OA 
BRANCH  24  26
HETATM   26  O   UNL     1      -6.986   5.075  72.067  1.00  0.00    -0.061 OA 
BRANCH  26  27
HETATM   27  C   UNL     1      -5.903   4.958  71.114  1.00  0.00    -0.017 C  
HETATM   28  C   UNL     1      -6.264   5.386  69.695  1.00  0.00    -0.026 C  
ENDBRANCH  26  27
ENDBRANCH  24  26
ENDBRANCH  23  24
ENDBRANCH   4  23
BRANCH   4  29
HETATM   29  C   UNL     1      -9.886   4.792  70.959  1.00  0.00    -0.197 C  
HETATM   30  O   UNL     1      -9.602   4.009  70.048  1.00  0.00    -0.179 OA 
BRANCH  29  31
HETATM   31  O   UNL     1     -10.502   4.239  72.070  1.00  0.00    -0.137 OA 
HETATM   32  C   UNL     1      -9.694   3.141  72.649  1.00  0.00    -0.135 C  
HETATM   33 CL   UNL     1      -9.919   1.611  71.753  1.00  0.00    -0.216 Cl 
ENDBRANCH  29  31
ENDBRANCH   4  29
TORSDOF 6
ENDMDL
MODEL       79
REMARK 921   NORMALIZED FREE ENERGY PREDICTED BY IDOCK:   -3.56 KCAL/MOL
REMARK 922        TOTAL FREE ENERGY PREDICTED BY IDOCK:   -4.49 KCAL/MOL
REMARK 923 INTER-LIGAND FREE ENERGY PREDICTED BY IDOCK:   -4.83 KCAL/MOL
REMARK 924 INTRA-LIGAND FREE ENERGY PREDICTED BY IDOCK:    0.34 KCAL/MOL
REMARK 927      BINDING AFFINITY PREDICTED BY RF-SCORE:    0.00 PKD
ROOT
HETATM    1  C   UNL     1     -11.032   8.564  69.569  1.00  0.00    -0.057 C  
HETATM    2  C   UNL     1     -11.743   9.394  70.472  1.00  0.00    -0.254 C  
HETATM    3  C   UNL     1     -10.341   9.756  70.130  1.00  0.00    -0.335 C  
HETATM    4  C   UNL     1      -9.509   8.885  68.432  1.00  0.00    -0.140 C  
HETATM    5  C   UNL     1     -10.200  10.049  68.656  1.00  0.00    -0.198 C  
HETATM    6  C   UNL     1      -6.767   6.474  71.035  1.00  0.00    -0.055 C  
HETATM    7  C   UNL     1     -10.563   6.652  71.462  1.00  0.00    -0.251 C  
HETATM    8  C   UNL     1      -7.588   7.321  72.011  1.00  0.00    -0.088 C  
HETATM    9  C   UNL     1      -6.800   8.240  73.054  1.00  0.00    -0.122 C  
HETATM   10  C   UNL     1      -8.560  10.665  69.406  1.00  0.00    -0.046 C  
HETATM   11  C   UNL     1      -6.865   8.210  74.397  1.00  0.00    -0.165 C  
HETATM   12  C   UNL     1     -11.141  10.787  67.738  1.00  0.00    -0.381 C  
HETATM   13  O   UNL     1      -5.790   6.065  74.559  1.00  0.00    -0.059 OA 
HETATM   14  C   UNL     1      -7.711   9.397  70.180  1.00  0.00    -0.136 C  
HETATM   15  C   UNL     1      -6.834   6.685  74.438  1.00  0.00    -0.091 C  
HETATM   16  C   UNL     1      -8.134   6.085  74.100  1.00  0.00    -0.102 C  
HETATM   17  O   UNL     1      -7.009   8.725  69.127  1.00  0.00    -0.057 OA 
HETATM   18  C   UNL     1      -8.475   6.343  72.833  1.00  0.00    -0.117 C  
HETATM   19  C   UNL     1      -8.491   8.303  71.193  1.00  0.00    -0.164 C  
HETATM   20  C   UNL     1      -9.649   5.673  72.173  1.00  0.00    -0.170 C  
HETATM   21  H   UNL     1      -6.538   8.020  69.556  1.00  0.00     0.000 HD 
HETATM   22  C   UNL     1      -9.801   7.539  70.477  1.00  0.00    -0.183 C  
ENDROOT
BRANCH   4  23
HETATM   23  O   UNL     1     -10.460   8.075  67.404  1.00  0.00    -0.258 OA 
BRANCH  23  24
HETATM   24  C   UNL     1     -10.199   6.824  66.857  1.00  0.00    -0.231 C  
HETATM   25  O   UNL     1      -9.403   6.609  65.960  1.00  0.00    -0.112 OA 
BRANCH  24  26
HETATM   26  O   UNL     1     -10.765   5.844  67.630  1.00  0.00    -0.252 OA 
BRANCH  26  27
HETATM   27  C   UNL     1     -10.114   4.560  67.483  1.00  0.00    -0.039 C  
HETATM   28  C   UNL     1      -9.273   4.137  68.683  1.00  0.00    -0.203 C  
ENDBRANCH  26  27
ENDBRANCH  24  26
ENDBRANCH  23  24
ENDBRANCH   4  23
BRANCH   4  29
HETATM   29  C   UNL     1      -8.583   9.593  67.050  1.00  0.00    -0.128 C  
HETATM   30  O   UNL     1      -8.895  10.617  66.435  1.00  0.00    -0.146 OA 
BRANCH  29  31
HETATM   31  O   UNL     1      -7.463   8.921  66.589  1.00  0.00    -0.084 OA 
HETATM   32  C   UNL     1      -6.687   9.747  65.635  1.00  0.00    -0.092 C  
HETATM   33 CL   UNL     1      -7.397   9.704  63.995  1.00  0.00    -0.116 Cl 
ENDBRANCH  29  31
ENDBRANCH   4  29
TORSDOF 6
ENDMDL
MODEL       80
REMARK 921   NORMALIZED FREE ENERGY PREDICTED BY IDOCK:   -3.54 KCAL/MOL
REMARK 922        TOTAL FREE ENERGY PREDICTED BY IDOCK:   -4.47 KCAL/MOL
REMARK 923 INTER-LIGAND FREE ENERGY PREDICTED BY IDOCK:   -4.74 KCAL/MOL
REMARK 924 INTRA-LIGAND FREE ENERGY PREDICTED BY IDOCK:    0.27 KCAL/MOL
REMARK 927      BINDING AFFINITY PREDICTED BY RF-SCORE:    0.00 PKD
ROOT
HETATM    1  C   UNL     1      -9.632   9.112  66.416  1.00  0.00    -0.309 C  
HETATM    2  C   UNL     1     -10.856   9.811  66.260  1.00  0.00     0.193 C  
HETATM    3  C   UNL     1      -9.917  10.254  67.326  1.00  0.00    -0.233 C  
HETATM    4  C   UNL     1      -7.942   9.609  67.198  1.00  0.00    -0.106 C  
HETATM    5  C   UNL     1      -8.606  10.717  66.737  1.00  0.00    -0.129 C  
HETATM    6  C   UNL     1      -8.578   7.006  70.793  1.00  0.00    -0.143 C  
HETATM    7  C   UNL     1     -10.821   7.013  67.696  1.00  0.00    -0.312 C  
HETATM    8  C   UNL     1      -9.921   7.710  70.577  1.00  0.00    -0.184 C  
HETATM    9  C   UNL     1     -10.544   8.529  71.800  1.00  0.00    -0.371 C  
HETATM   10  C   UNL     1      -8.526  11.296  68.551  1.00  0.00    -0.156 C  
HETATM   11  C   UNL     1     -11.734   8.344  72.398  1.00  0.00    -0.452 C  
HETATM   12  C   UNL     1      -8.357  11.525  65.489  1.00  0.00     0.339 C  
HETATM   13  O   UNL     1     -11.103   6.230  73.355  1.00  0.00    -0.202 OA 
HETATM   14  C   UNL     1      -8.635   9.976  69.633  1.00  0.00    -0.184 C  
HETATM   15  C   UNL     1     -11.579   6.826  72.402  1.00  0.00    -0.245 C  
HETATM   16  C   UNL     1     -11.853   6.227  71.087  1.00  0.00    -0.234 C  
HETATM   17  O   UNL     1      -7.304   9.451  69.713  1.00  0.00    -0.067 OA 
HETATM   18  C   UNL     1     -10.952   6.617  70.178  1.00  0.00    -0.358 C  
HETATM   19  C   UNL     1      -9.767   8.749  69.418  1.00  0.00    -0.172 C  
HETATM   20  C   UNL     1     -10.878   5.989  68.813  1.00  0.00    -0.391 C  
HETATM   21  H   UNL     1      -7.365   8.717  70.314  1.00  0.00     0.000 HD 
HETATM   22  C   UNL     1      -9.699   8.031  67.904  1.00  0.00    -0.189 C  
ENDROOT
BRANCH   4  23
HETATM   23  O   UNL     1      -7.424   8.891  65.844  1.00  0.00    -0.091 OA 
BRANCH  23  24
HETATM   24  C   UNL     1      -6.652   7.737  65.770  1.00  0.00    -0.045 C  
HETATM   25  O   UNL     1      -6.340   7.047  66.723  1.00  0.00    -0.045 OA 
BRANCH  24  26
HETATM   26  O   UNL     1      -6.509   7.349  64.463  1.00  0.00    -0.040 OA 
BRANCH  26  27
HETATM   27  C   UNL     1      -7.774   7.121  63.798  1.00  0.00    -0.119 C  
HETATM   28  C   UNL     1      -8.117   5.651  63.582  1.00  0.00    -0.116 C  
ENDBRANCH  26  27
ENDBRANCH  24  26
ENDBRANCH  23  24
ENDBRANCH   4  23
BRANCH   4  29
HETATM   29  C   UNL     1      -6.375  10.499  67.350  1.00  0.00    -0.058 C  
HETATM   30  O   UNL     1      -5.366  10.070  67.917  1.00  0.00    -0.039 OA 
BRANCH  29  31
HETATM   31  O   UNL     1      -6.294  11.787  66.848  1.00  0.00    -0.148 OA 
HETATM   32  C   UNL     1      -5.160  12.532  67.443  1.00  0.00    -0.064 C  
HETATM   33 CL   UNL     1      -5.570  13.179  69.059  1.00  0.00    -0.069 Cl 
ENDBRANCH  29  31
ENDBRANCH   4  29
TORSDOF 6
ENDMDL
MODEL       81
REMARK 921   NORMALIZED FREE ENERGY PREDICTED BY IDOCK:   -3.50 KCAL/MOL
REMARK 922        TOTAL FREE ENERGY PREDICTED BY IDOCK:   -4.41 KCAL/MOL
REMARK 923 INTER-LIGAND FREE ENERGY PREDICTED BY IDOCK:   -5.08 KCAL/MOL
REMARK 924 INTRA-LIGAND FREE ENERGY PREDICTED BY IDOCK:    0.67 KCAL/MOL
REMARK 927      BINDING AFFINITY PREDICTED BY RF-SCORE:    0.00 PKD
ROOT
HETATM    1  C   UNL     1     -10.844   9.705  67.874  1.00  0.00    -0.272 C  
HETATM    2  C   UNL     1     -11.138   9.303  69.202  1.00  0.00    -0.002 C  
HETATM    3  C   UNL     1      -9.772   9.812  68.900  1.00  0.00    -0.172 C  
HETATM    4  C   UNL     1      -9.515  10.891  67.138  1.00  0.00    -0.160 C  
HETATM    5  C   UNL     1      -9.818  11.245  68.429  1.00  0.00    -0.200 C  
HETATM    6  C   UNL     1      -7.108   7.511  65.439  1.00  0.00    -0.063 C  
HETATM    7  C   UNL     1     -10.581   7.133  66.994  1.00  0.00    -0.413 C  
HETATM    8  C   UNL     1      -7.487   7.051  66.849  1.00  0.00    -0.086 C  
HETATM    9  C   UNL     1      -6.312   6.605  67.835  1.00  0.00    -0.047 C  
HETATM   10  C   UNL     1      -7.968  10.928  68.759  1.00  0.00    -0.139 C  
HETATM   11  C   UNL     1      -6.147   5.416  68.441  1.00  0.00    -0.026 C  
HETATM   12  C   UNL     1     -10.673  12.382  68.928  1.00  0.00    -0.202 C  
HETATM   13  O   UNL     1      -5.674   4.257  66.387  1.00  0.00    -0.017 OA 
HETATM   14  C   UNL     1      -7.369   9.656  67.784  1.00  0.00    -0.086 C  
HETATM   15  C   UNL     1      -6.519   4.640  67.181  1.00  0.00    -0.042 C  
HETATM   16  C   UNL     1      -7.970   4.611  66.943  1.00  0.00    -0.102 C  
HETATM   17  O   UNL     1      -7.068  10.266  66.523  1.00  0.00    -0.097 OA 
HETATM   18  C   UNL     1      -8.446   5.836  66.692  1.00  0.00    -0.113 C  
HETATM   19  C   UNL     1      -8.223   8.220  67.583  1.00  0.00    -0.127 C  
HETATM   20  C   UNL     1      -9.853   6.059  66.210  1.00  0.00    -0.102 C  
HETATM   21  H   UNL     1      -6.736   9.560  65.981  1.00  0.00     0.000 HD 
HETATM   22  C   UNL     1      -9.794   8.444  67.041  1.00  0.00    -0.296 C  
ENDROOT
BRANCH   4  23
HETATM   23  O   UNL     1     -10.813  11.373  66.302  1.00  0.00    -0.272 OA 
BRANCH  23  24
HETATM   24  C   UNL     1     -11.014  11.215  64.936  1.00  0.00    -0.121 C  
HETATM   25  O   UNL     1     -10.406  10.431  64.229  1.00  0.00    -0.282 OA 
BRANCH  24  26
HETATM   26  O   UNL     1     -12.152  11.873  64.548  1.00  0.00    -0.274 OA 
BRANCH  26  27
HETATM   27  C   UNL     1     -12.041  13.311  64.655  1.00  0.00    -0.408 C  
HETATM   28  C   UNL     1     -12.958  13.939  65.699  1.00  0.00    -0.361 C  
ENDBRANCH  26  27
ENDBRANCH  24  26
ENDBRANCH  23  24
ENDBRANCH   4  23
BRANCH   4  29
HETATM   29  C   UNL     1      -8.690  12.465  66.804  1.00  0.00    -0.160 C  
HETATM   30  O   UNL     1      -7.471  12.617  66.683  1.00  0.00     0.195 OA 
BRANCH  29  31
HETATM   31  O   UNL     1      -9.460  13.614  66.731  1.00  0.00    -0.254 OA 
HETATM   32  C   UNL     1      -8.636  14.833  66.901  1.00  0.00    -0.224 C  
HETATM   33 CL   UNL     1      -8.293  15.163  68.625  1.00  0.00    -0.151 Cl 
ENDBRANCH  29  31
ENDBRANCH   4  29
TORSDOF 6
ENDMDL
MODEL       82
REMARK 921   NORMALIZED FREE ENERGY PREDICTED BY IDOCK:   -3.48 KCAL/MOL
REMARK 922        TOTAL FREE ENERGY PREDICTED BY IDOCK:   -4.39 KCAL/MOL
REMARK 923 INTER-LIGAND FREE ENERGY PREDICTED BY IDOCK:   -5.13 KCAL/MOL
REMARK 924 INTRA-LIGAND FREE ENERGY PREDICTED BY IDOCK:    0.75 KCAL/MOL
REMARK 927      BINDING AFFINITY PREDICTED BY RF-SCORE:    0.00 PKD
ROOT
HETATM    1  C   UNL     1      -8.382  13.994  67.947  1.00  0.00    -0.168 C  
HETATM    2  C   UNL     1      -7.350  13.869  68.911  1.00  0.00    -0.088 C  
HETATM    3  C   UNL     1      -8.498  12.924  68.974  1.00  0.00     0.454 C  
HETATM    4  C   UNL     1      -9.697  12.752  67.280  1.00  0.00    -0.206 C  
HETATM    5  C   UNL     1      -8.581  12.086  67.721  1.00  0.00    -0.157 C  
HETATM    6  C   UNL     1     -13.050  14.769  69.469  1.00  0.00     0.748 C  
HETATM    7  C   UNL     1      -9.495  16.151  69.199  1.00  0.00    -0.251 C  
HETATM    8  C   UNL     1     -11.908  14.695  70.486  1.00  0.00    -0.367 C  
HETATM    9  C   UNL     1     -12.200  13.999  71.894  1.00  0.00    -0.115 C  
HETATM   10  C   UNL     1      -9.788  11.234  68.925  1.00  0.00    -0.153 C  
HETATM   11  C   UNL     1     -12.086  14.537  73.121  1.00  0.00    -0.105 C  
HETATM   12  C   UNL     1      -7.467  11.461  66.920  1.00  0.00    -0.147 C  
HETATM   13  O   UNL     1     -13.933  16.045  72.805  1.00  0.00    -0.526 OA 
HETATM   14  C   UNL     1     -11.040  12.294  69.409  1.00  0.00    -0.101 C  
HETATM   15  C   UNL     1     -12.734  15.849  72.688  1.00  0.00    -0.463 C  
HETATM   16  C   UNL     1     -11.810  16.714  71.938  1.00  0.00    -0.062 C  
HETATM   17  O   UNL     1     -12.006  12.233  68.353  1.00  0.00    -0.326 OA 
HETATM   18  C   UNL     1     -11.457  16.155  70.775  1.00  0.00    -0.408 C  
HETATM   19  C   UNL     1     -10.725  13.885  69.860  1.00  0.00     0.334 C  
HETATM   20  C   UNL     1     -10.692  16.917  69.727  1.00  0.00    -0.084 C  
HETATM   21  H   UNL     1     -12.702  12.822  68.621  1.00  0.00     0.000 HD 
HETATM   22  C   UNL     1      -9.877  14.755  68.705  1.00  0.00    -0.227 C  
ENDROOT
BRANCH   4  23
HETATM   23  O   UNL     1      -9.210  13.419  65.889  1.00  0.00    -0.000 OA 
BRANCH  23  24
HETATM   24  C   UNL     1      -9.956  14.270  65.082  1.00  0.00    -0.231 C  
HETATM   25  O   UNL     1      -9.793  15.475  65.004  1.00  0.00    -0.290 OA 
BRANCH  24  26
HETATM   26  O   UNL     1     -10.718  13.542  64.205  1.00  0.00    -0.403 OA 
BRANCH  26  27
HETATM   27  C   UNL     1     -12.130  13.842  64.297  1.00  0.00    -0.440 C  
HETATM   28  C   UNL     1     -12.588  14.306  65.676  1.00  0.00    -0.429 C  
ENDBRANCH  26  27
ENDBRANCH  24  26
ENDBRANCH  23  24
ENDBRANCH   4  23
BRANCH   4  29
HETATM   29  C   UNL     1     -10.321  11.305  66.392  1.00  0.00    -0.245 C  
HETATM   30  O   UNL     1     -11.505  11.101  66.110  1.00  0.00    -0.151 OA 
BRANCH  29  31
HETATM   31  O   UNL     1      -9.427  10.308  66.041  1.00  0.00    -0.168 OA 
HETATM   32  C   UNL     1     -10.081   8.979  66.007  1.00  0.00    -0.084 C  
HETATM   33 CL   UNL     1     -10.234   8.276  67.645  1.00  0.00    -0.274 Cl 
ENDBRANCH  29  31
ENDBRANCH   4  29
TORSDOF 6
ENDMDL
MODEL       83
REMARK 921   NORMALIZED FREE ENERGY PREDICTED BY IDOCK:   -3.43 KCAL/MOL
REMARK 922        TOTAL FREE ENERGY PREDICTED BY IDOCK:   -4.32 KCAL/MOL
REMARK 923 INTER-LIGAND FREE ENERGY PREDICTED BY IDOCK:   -4.97 KCAL/MOL
REMARK 924 INTRA-LIGAND FREE ENERGY PREDICTED BY IDOCK:    0.65 KCAL/MOL
REMARK 927      BINDING AFFINITY PREDICTED BY RF-SCORE:    0.00 PKD
ROOT
HETATM    1  C   UNL     1     -10.663   6.316  68.209  1.00  0.00    -0.356 C  
HETATM    2  C   UNL     1     -10.901   6.294  66.812  1.00  0.00    -0.367 C  
HETATM    3  C   UNL     1      -9.492   6.263  67.293  1.00  0.00    -0.126 C  
HETATM    4  C   UNL     1      -9.166   5.748  69.283  1.00  0.00    -0.117 C  
HETATM    5  C   UNL     1      -9.227   5.027  68.117  1.00  0.00    -0.143 C  
HETATM    6  C   UNL     1      -7.893   9.960  70.146  1.00  0.00    -0.186 C  
HETATM    7  C   UNL     1     -11.156   8.995  68.402  1.00  0.00     0.159 C  
HETATM    8  C   UNL     1      -8.219   9.949  68.650  1.00  0.00    -0.108 C  
HETATM    9  C   UNL     1      -7.092  10.448  67.633  1.00  0.00    -0.085 C  
HETATM   10  C   UNL     1      -7.492   5.747  67.794  1.00  0.00    -0.078 C  
HETATM   11  C   UNL     1      -7.168  11.457  66.747  1.00  0.00    -0.131 C  
HETATM   12  C   UNL     1      -9.706   3.615  67.896  1.00  0.00    -0.108 C  
HETATM   13  O   UNL     1      -7.232  13.156  68.447  1.00  0.00    -0.091 OA 
HETATM   14  C   UNL     1      -7.344   7.329  68.430  1.00  0.00    -0.103 C  
HETATM   15  C   UNL     1      -7.860  12.380  67.745  1.00  0.00    -0.154 C  
HETATM   16  C   UNL     1      -9.288  12.068  67.905  1.00  0.00    -0.190 C  
HETATM   17  O   UNL     1      -7.039   7.144  69.818  1.00  0.00    -0.069 OA 
HETATM   18  C   UNL     1      -9.464  10.858  68.446  1.00  0.00    -0.178 C  
HETATM   19  C   UNL     1      -8.549   8.483  68.215  1.00  0.00    -0.139 C  
HETATM   20  C   UNL     1     -10.814  10.382  68.909  1.00  0.00    -0.273 C  
HETATM   21  H   UNL     1      -6.958   8.022  70.171  1.00  0.00     0.000 HD 
HETATM   22  C   UNL     1     -10.063   7.977  68.730  1.00  0.00    -0.206 C  
ENDROOT
BRANCH   4  23
HETATM   23  O   UNL     1     -10.384   5.146  70.160  1.00  0.00    -0.273 OA 
BRANCH  23  24
HETATM   24  C   UNL     1     -10.777   5.575  71.423  1.00  0.00    -0.221 C  
HETATM   25  O   UNL     1     -10.713   4.903  72.437  1.00  0.00    -0.211 OA 
BRANCH  24  26
HETATM   26  O   UNL     1     -11.000   6.927  71.414  1.00  0.00    -0.233 OA 
BRANCH  26  27
HETATM   27  C   UNL     1     -12.363   7.279  71.749  1.00  0.00    -0.341 C  
HETATM   28  C   UNL     1     -12.617   8.778  71.865  1.00  0.00    -0.428 C  
ENDBRANCH  26  27
ENDBRANCH  24  26
ENDBRANCH  23  24
ENDBRANCH   4  23
BRANCH   4  29
HETATM   29  C   UNL     1      -8.012   4.585  70.049  1.00  0.00    -0.063 C  
HETATM   30  O   UNL     1      -6.984   4.899  70.655  1.00  0.00    -0.039 OA 
BRANCH  29  31
HETATM   31  O   UNL     1      -8.250   3.228  69.910  1.00  0.00    -0.051 OA 
HETATM   32  C   UNL     1      -7.000   2.442  70.026  1.00  0.00    -0.033 C  
HETATM   33 CL   UNL     1      -6.073   2.445  68.496  1.00  0.00    -0.024 Cl 
ENDBRANCH  29  31
ENDBRANCH   4  29
TORSDOF 6
ENDMDL
MODEL       84
REMARK 921   NORMALIZED FREE ENERGY PREDICTED BY IDOCK:   -3.37 KCAL/MOL
REMARK 922        TOTAL FREE ENERGY PREDICTED BY IDOCK:   -4.25 KCAL/MOL
REMARK 923 INTER-LIGAND FREE ENERGY PREDICTED BY IDOCK:   -5.85 KCAL/MOL
REMARK 924 INTRA-LIGAND FREE ENERGY PREDICTED BY IDOCK:    1.61 KCAL/MOL
REMARK 927      BINDING AFFINITY PREDICTED BY RF-SCORE:    0.00 PKD
ROOT
HETATM    1  C   UNL     1     -10.883  12.631  68.333  1.00  0.00    -0.268 C  
HETATM    2  C   UNL     1     -10.416  13.539  69.317  1.00  0.00     0.108 C  
HETATM    3  C   UNL     1      -9.516  12.434  68.887  1.00  0.00     0.224 C  
HETATM    4  C   UNL     1      -9.969  11.465  67.100  1.00  0.00    -0.192 C  
HETATM    5  C   UNL     1      -9.184  12.545  67.419  1.00  0.00    -0.186 C  
HETATM    6  C   UNL     1     -11.082   7.781  69.400  1.00  0.00     0.040 C  
HETATM    7  C   UNL     1     -12.453  11.279  70.112  1.00  0.00    -0.297 C  
HETATM    8  C   UNL     1     -10.643   8.790  70.466  1.00  0.00    -0.252 C  
HETATM    9  C   UNL     1      -9.490   8.354  71.482  1.00  0.00    -0.267 C  
HETATM   10  C   UNL     1      -7.962  11.235  68.070  1.00  0.00    -0.119 C  
HETATM   11  C   UNL     1      -9.552   8.290  72.824  1.00  0.00    -0.338 C  
HETATM   12  C   UNL     1      -8.883  13.776  66.602  1.00  0.00    -0.089 C  
HETATM   13  O   UNL     1     -11.081   6.434  72.825  1.00  0.00    -0.247 OA 
HETATM   14  C   UNL     1      -8.784   9.888  68.730  1.00  0.00    -0.132 C  
HETATM   15  C   UNL     1     -10.935   7.646  72.804  1.00  0.00    -0.377 C  
HETATM   16  C   UNL     1     -12.006   8.618  72.541  1.00  0.00    -0.358 C  
HETATM   17  O   UNL     1      -9.110   9.064  67.603  1.00  0.00    -0.132 OA 
HETATM   18  C   UNL     1     -11.900   9.137  71.313  1.00  0.00    -0.396 C  
HETATM   19  C   UNL     1     -10.105  10.075  69.755  1.00  0.00    -0.284 C  
HETATM   20  C   UNL     1     -12.984   9.994  70.716  1.00  0.00    -0.330 C  
HETATM   21  H   UNL     1      -9.567   8.316  67.969  1.00  0.00     0.000 HD 
HETATM   22  C   UNL     1     -11.328  11.022  69.108  1.00  0.00    -0.348 C  
ENDROOT
BRANCH   4  23
HETATM   23  O   UNL     1     -11.088  12.093  66.115  1.00  0.00    -0.285 OA 
BRANCH  23  24
HETATM   24  C   UNL     1     -11.111  11.990  64.729  1.00  0.00    -0.317 C  
HETATM   25  O   UNL     1     -11.595  11.061  64.108  1.00  0.00     0.178 OA 
BRANCH  24  26
HETATM   26  O   UNL     1     -10.749  13.185  64.162  1.00  0.00    -0.402 OA 
BRANCH  26  27
HETATM   27  C   UNL     1     -11.733  14.227  64.360  1.00  0.00    -0.389 C  
HETATM   28  C   UNL     1     -11.153  15.567  64.800  1.00  0.00    -0.421 C  
ENDBRANCH  26  27
ENDBRANCH  24  26
ENDBRANCH  23  24
ENDBRANCH   4  23
BRANCH   4  29
HETATM   29  C   UNL     1      -8.939  11.020  65.682  1.00  0.00    -0.199 C  
HETATM   30  O   UNL     1      -8.130  11.769  65.128  1.00  0.00     0.795 OA 
BRANCH  29  31
HETATM   31  O   UNL     1      -9.094   9.764  65.119  1.00  0.00    -0.189 OA 
HETATM   32  C   UNL     1      -8.213   9.582  63.942  1.00  0.00    -0.161 C  
HETATM   33 CL   UNL     1      -8.907  10.334  62.475  1.00  0.00    -0.222 Cl 
ENDBRANCH  29  31
ENDBRANCH   4  29
TORSDOF 6
ENDMDL
MODEL       85
REMARK 921   NORMALIZED FREE ENERGY PREDICTED BY IDOCK:   -3.22 KCAL/MOL
REMARK 922        TOTAL FREE ENERGY PREDICTED BY IDOCK:   -4.03 KCAL/MOL
REMARK 923 INTER-LIGAND FREE ENERGY PREDICTED BY IDOCK:   -4.50 KCAL/MOL
REMARK 924 INTRA-LIGAND FREE ENERGY PREDICTED BY IDOCK:    0.46 KCAL/MOL
REMARK 927      BINDING AFFINITY PREDICTED BY RF-SCORE:    0.00 PKD
ROOT
HETATM    1  C   UNL     1      -9.797   8.432  68.567  1.00  0.00    -0.186 C  
HETATM    2  C   UNL     1     -10.956   8.975  67.957  1.00  0.00     0.002 C  
HETATM    3  C   UNL     1     -10.429   7.678  67.451  1.00  0.00    -0.367 C  
HETATM    4  C   UNL     1      -9.101   6.638  68.670  1.00  0.00    -0.126 C  
HETATM    5  C   UNL     1     -10.465   6.621  68.527  1.00  0.00    -0.246 C  
HETATM    6  C   UNL     1      -5.788   7.509  65.777  1.00  0.00    -0.037 C  
HETATM    7  C   UNL     1      -8.123  10.150  67.260  1.00  0.00    -0.114 C  
HETATM    8  C   UNL     1      -7.030   8.156  65.156  1.00  0.00    -0.063 C  
HETATM    9  C   UNL     1      -7.423   7.744  63.663  1.00  0.00    -0.108 C  
HETATM   10  C   UNL     1     -10.103   5.642  66.931  1.00  0.00    -0.230 C  
HETATM   11  C   UNL     1      -7.548   8.546  62.590  1.00  0.00    -0.113 C  
HETATM   12  C   UNL     1     -11.527   6.354  69.563  1.00  0.00    -0.412 C  
HETATM   13  O   UNL     1      -5.194   9.026  62.477  1.00  0.00    -0.070 OA 
HETATM   14  C   UNL     1      -8.648   6.161  66.197  1.00  0.00    -0.141 C  
HETATM   15  C   UNL     1      -6.284   9.328  62.936  1.00  0.00    -0.094 C  
HETATM   16  C   UNL     1      -6.501  10.303  64.015  1.00  0.00    -0.084 C  
HETATM   17  O   UNL     1      -7.610   5.461  66.896  1.00  0.00    -0.087 OA 
HETATM   18  C   UNL     1      -6.801   9.693  65.168  1.00  0.00    -0.098 C  
HETATM   19  C   UNL     1      -8.278   7.794  66.028  1.00  0.00    -0.123 C  
HETATM   20  C   UNL     1      -6.862  10.443  66.471  1.00  0.00    -0.107 C  
HETATM   21  H   UNL     1      -6.802   5.750  66.488  1.00  0.00     0.000 HD 
HETATM   22  C   UNL     1      -8.335   8.650  67.469  1.00  0.00    -0.120 C  
ENDROOT
BRANCH   4  23
HETATM   23  O   UNL     1      -8.891   7.109  70.203  1.00  0.00    -0.144 OA 
BRANCH  23  24
HETATM   24  C   UNL     1      -7.683   7.455  70.798  1.00  0.00    -0.088 C  
HETATM   25  O   UNL     1      -6.597   7.401  70.249  1.00  0.00    -0.045 OA 
BRANCH  24  26
HETATM   26  O   UNL     1      -7.909   8.101  71.985  1.00  0.00    -0.100 OA 
BRANCH  26  27
HETATM   27  C   UNL     1      -8.785   7.366  72.872  1.00  0.00    -0.128 C  
HETATM   28  C   UNL     1     -10.214   7.896  72.930  1.00  0.00    -0.397 C  
ENDBRANCH  26  27
ENDBRANCH  24  26
ENDBRANCH  23  24
ENDBRANCH   4  23
BRANCH   4  29
HETATM   29  C   UNL     1      -9.040   4.902  69.173  1.00  0.00    -0.103 C  
HETATM   30  O   UNL     1      -9.644   3.980  68.618  1.00  0.00    -0.158 OA 
BRANCH  29  31
HETATM   31  O   UNL     1      -8.310   4.564  70.300  1.00  0.00    -0.072 OA 
HETATM   32  C   UNL     1      -8.973   3.491  71.077  1.00  0.00    -0.094 C  
HETATM   33 CL   UNL     1     -10.284   4.135  72.108  1.00  0.00    -0.245 Cl 
ENDBRANCH  29  31
ENDBRANCH   4  29
TORSDOF 6
ENDMDL
MODEL       86
REMARK 921   NORMALIZED FREE ENERGY PREDICTED BY IDOCK:   -3.21 KCAL/MOL
REMARK 922        TOTAL FREE ENERGY PREDICTED BY IDOCK:   -4.02 KCAL/MOL
REMARK 923 INTER-LIGAND FREE ENERGY PREDICTED BY IDOCK:   -4.77 KCAL/MOL
REMARK 924 INTRA-LIGAND FREE ENERGY PREDICTED BY IDOCK:    0.75 KCAL/MOL
REMARK 927      BINDING AFFINITY PREDICTED BY RF-SCORE:    0.00 PKD
ROOT
HETATM    1  C   UNL     1     -10.613   6.909  71.537  1.00  0.00    -0.239 C  
HETATM    2  C   UNL     1     -11.871   6.593  70.965  1.00  0.00    -0.427 C  
HETATM    3  C   UNL     1     -10.733   5.662  70.733  1.00  0.00    -0.320 C  
HETATM    4  C   UNL     1      -9.084   5.827  71.993  1.00  0.00    -0.137 C  
HETATM    5  C   UNL     1     -10.235   5.081  72.034  1.00  0.00    -0.262 C  
HETATM    6  C   UNL     1      -6.654   7.413  68.576  1.00  0.00    -0.049 C  
HETATM    7  C   UNL     1     -10.056   8.795  69.642  1.00  0.00    -0.204 C  
HETATM    8  C   UNL     1      -8.036   7.138  67.977  1.00  0.00    -0.119 C  
HETATM    9  C   UNL     1      -8.123   6.187  66.696  1.00  0.00    -0.109 C  
HETATM   10  C   UNL     1      -9.380   4.023  70.698  1.00  0.00    -0.217 C  
HETATM   11  C   UNL     1      -8.625   6.479  65.483  1.00  0.00    -0.109 C  
HETATM   12  C   UNL     1     -11.023   4.613  73.230  1.00  0.00    -0.381 C  
HETATM   13  O   UNL     1      -6.868   8.033  64.955  1.00  0.00    -0.057 OA 
HETATM   14  C   UNL     1      -8.395   4.980  69.679  1.00  0.00    -0.088 C  
HETATM   15  C   UNL     1      -7.965   7.855  65.459  1.00  0.00    -0.119 C  
HETATM   16  C   UNL     1      -8.683   8.840  66.282  1.00  0.00    -0.169 C  
HETATM   17  O   UNL     1      -7.160   5.130  70.391  1.00  0.00    -0.053 OA 
HETATM   18  C   UNL     1      -8.645   8.512  67.578  1.00  0.00    -0.128 C  
HETATM   19  C   UNL     1      -8.929   6.453  69.063  1.00  0.00    -0.128 C  
HETATM   20  C   UNL     1      -9.117   9.454  68.651  1.00  0.00    -0.132 C  
HETATM   21  H   UNL     1      -6.613   5.662  69.825  1.00  0.00     0.000 HD 
HETATM   22  C   UNL     1      -9.457   7.522  70.242  1.00  0.00    -0.165 C  
ENDROOT
BRANCH   4  23
HETATM   23  O   UNL     1      -9.185   6.744  73.322  1.00  0.00    -0.130 OA 
BRANCH  23  24
HETATM   24  C   UNL     1      -8.301   7.752  73.693  1.00  0.00    -0.207 C  
HETATM   25  O   UNL     1      -8.492   8.942  73.521  1.00  0.00    -0.237 OA 
BRANCH  24  26
HETATM   26  O   UNL     1      -7.317   7.242  74.500  1.00  0.00    -0.110 OA 
BRANCH  26  27
HETATM   27  C   UNL     1      -5.994   7.363  73.926  1.00  0.00    -0.064 C  
HETATM   28  C   UNL     1      -5.975   7.479  72.405  1.00  0.00    -0.040 C  
ENDBRANCH  26  27
ENDBRANCH  24  26
ENDBRANCH  23  24
ENDBRANCH   4  23
BRANCH   4  29
HETATM   29  C   UNL     1      -8.136   4.582  72.899  1.00  0.00    -0.096 C  
HETATM   30  O   UNL     1      -7.028   4.151  72.567  1.00  0.00    -0.048 OA 
BRANCH  29  31
HETATM   31  O   UNL     1      -8.701   4.011  74.028  1.00  0.00    -0.093 OA 
HETATM   32  C   UNL     1      -8.253   2.611  74.211  1.00  0.00    -0.067 C  
HETATM   33 CL   UNL     1      -9.172   1.483  73.171  1.00  0.00    -0.068 Cl 
ENDBRANCH  29  31
ENDBRANCH   4  29
TORSDOF 6
ENDMDL
MODEL       87
REMARK 921   NORMALIZED FREE ENERGY PREDICTED BY IDOCK:   -3.20 KCAL/MOL
REMARK 922        TOTAL FREE ENERGY PREDICTED BY IDOCK:   -4.02 KCAL/MOL
REMARK 923 INTER-LIGAND FREE ENERGY PREDICTED BY IDOCK:   -4.50 KCAL/MOL
REMARK 924 INTRA-LIGAND FREE ENERGY PREDICTED BY IDOCK:    0.48 KCAL/MOL
REMARK 927      BINDING AFFINITY PREDICTED BY RF-SCORE:    0.00 PKD
ROOT
HETATM    1  C   UNL     1     -10.033   7.674  66.920  1.00  0.00    -0.325 C  
HETATM    2  C   UNL     1     -10.944   8.727  67.187  1.00  0.00     0.136 C  
HETATM    3  C   UNL     1      -9.511   8.921  67.541  1.00  0.00    -0.172 C  
HETATM    4  C   UNL     1      -8.122   7.640  66.669  1.00  0.00    -0.119 C  
HETATM    5  C   UNL     1      -8.636   8.862  66.314  1.00  0.00    -0.145 C  
HETATM    6  C   UNL     1      -7.399   5.732  70.661  1.00  0.00    -0.084 C  
HETATM    7  C   UNL     1     -10.848   6.220  69.083  1.00  0.00    -0.403 C  
HETATM    8  C   UNL     1      -8.437   6.825  70.932  1.00  0.00    -0.136 C  
HETATM    9  C   UNL     1      -8.107   7.911  72.057  1.00  0.00    -0.141 C  
HETATM   10  C   UNL     1      -7.481   9.538  67.671  1.00  0.00    -0.091 C  
HETATM   11  C   UNL     1      -8.812   8.191  73.168  1.00  0.00    -0.325 C  
HETATM   12  C   UNL     1      -8.887   9.425  64.938  1.00  0.00    -0.240 C  
HETATM   13  O   UNL     1      -8.313   6.082  74.209  1.00  0.00    -0.108 OA 
HETATM   14  C   UNL     1      -7.327   8.433  68.968  1.00  0.00    -0.088 C  
HETATM   15  C   UNL     1      -9.054   6.716  73.476  1.00  0.00    -0.128 C  
HETATM   16  C   UNL     1     -10.111   6.130  72.637  1.00  0.00    -0.199 C  
HETATM   17  O   UNL     1      -6.326   7.500  68.542  1.00  0.00    -0.041 OA 
HETATM   18  C   UNL     1      -9.755   6.113  71.348  1.00  0.00    -0.187 C  
HETATM   19  C   UNL     1      -8.663   7.645  69.619  1.00  0.00    -0.136 C  
HETATM   20  C   UNL     1     -10.560   5.378  70.311  1.00  0.00    -0.329 C  
HETATM   21  H   UNL     1      -6.241   6.885  69.262  1.00  0.00     0.000 HD 
HETATM   22  C   UNL     1      -9.574   6.815  68.482  1.00  0.00    -0.130 C  
ENDROOT
BRANCH   4  23
HETATM   23  O   UNL     1      -8.582   6.673  65.456  1.00  0.00    -0.149 OA 
BRANCH  23  24
HETATM   24  C   UNL     1      -7.999   5.460  65.108  1.00  0.00    -0.111 C  
HETATM   25  O   UNL     1      -6.880   5.333  64.646  1.00  0.00    -0.046 OA 
BRANCH  24  26
HETATM   26  O   UNL     1      -8.751   4.420  65.591  1.00  0.00    -0.117 OA 
BRANCH  26  27
HETATM   27  C   UNL     1      -8.173   3.799  66.762  1.00  0.00    -0.096 C  
HETATM   28  C   UNL     1      -9.191   3.190  67.721  1.00  0.00    -0.241 C  
ENDBRANCH  26  27
ENDBRANCH  24  26
ENDBRANCH  23  24
ENDBRANCH   4  23
BRANCH   4  29
HETATM   29  C   UNL     1      -6.545   7.961  65.843  1.00  0.00    -0.049 C  
HETATM   30  O   UNL     1      -5.434   7.678  66.299  1.00  0.00    -0.027 OA 
BRANCH  29  31
HETATM   31  O   UNL     1      -6.557   8.625  64.628  1.00  0.00    -0.066 OA 
HETATM   32  C   UNL     1      -5.295   9.367  64.402  1.00  0.00    -0.059 C  
HETATM   33 CL   UNL     1      -5.284  10.932  65.267  1.00  0.00    -0.143 Cl 
ENDBRANCH  29  31
ENDBRANCH   4  29
TORSDOF 6
ENDMDL
MODEL       88
REMARK 921   NORMALIZED FREE ENERGY PREDICTED BY IDOCK:   -3.11 KCAL/MOL
REMARK 922        TOTAL FREE ENERGY PREDICTED BY IDOCK:   -3.89 KCAL/MOL
REMARK 923 INTER-LIGAND FREE ENERGY PREDICTED BY IDOCK:   -5.30 KCAL/MOL
REMARK 924 INTRA-LIGAND FREE ENERGY PREDICTED BY IDOCK:    1.41 KCAL/MOL
REMARK 927      BINDING AFFINITY PREDICTED BY RF-SCORE:    0.00 PKD
ROOT
HETATM    1  C   UNL     1      -7.991  14.738  69.051  1.00  0.00    -0.152 C  
HETATM    2  C   UNL     1      -6.616  14.782  68.706  1.00  0.00    -0.088 C  
HETATM    3  C   UNL     1      -7.624  14.999  67.633  1.00  0.00    -0.198 C  
HETATM    4  C   UNL     1      -9.565  15.475  68.217  1.00  0.00    -0.201 C  
HETATM    5  C   UNL     1      -8.457  16.226  67.911  1.00  0.00    -0.166 C  
HETATM    6  C   UNL     1     -10.963  11.465  66.781  1.00  0.00    -0.347 C  
HETATM    7  C   UNL     1      -8.028  12.010  69.171  1.00  0.00     0.291 C  
HETATM    8  C   UNL     1      -9.463  11.488  66.475  1.00  0.00    -0.220 C  
HETATM    9  C   UNL     1      -8.998  11.200  64.974  1.00  0.00    -0.081 C  
HETATM   10  C   UNL     1      -8.879  15.782  66.106  1.00  0.00    -0.346 C  
HETATM   11  C   UNL     1      -8.181  10.228  64.534  1.00  0.00    -0.158 C  
HETATM   12  C   UNL     1      -8.030  17.560  68.466  1.00  0.00    -0.271 C  
HETATM   13  O   UNL     1      -9.748   8.470  65.021  1.00  0.00     0.593 OA 
HETATM   14  C   UNL     1      -9.556  14.214  65.990  1.00  0.00    -0.225 C  
HETATM   15  C   UNL     1      -8.835   9.174  65.422  1.00  0.00    -0.196 C  
HETATM   16  C   UNL     1      -8.398   9.266  66.823  1.00  0.00    -0.123 C  
HETATM   17  O   UNL     1     -10.944  14.386  66.302  1.00  0.00    -0.308 OA 
HETATM   18  C   UNL     1      -8.794  10.415  67.381  1.00  0.00    -0.133 C  
HETATM   19  C   UNL     1      -8.899  12.906  66.819  1.00  0.00    -0.152 C  
HETATM   20  C   UNL     1      -8.662  10.669  68.858  1.00  0.00    -0.163 C  
HETATM   21  H   UNL     1     -11.320  13.516  66.238  1.00  0.00     0.000 HD 
HETATM   22  C   UNL     1      -8.747  13.164  68.469  1.00  0.00    -0.049 C  
ENDROOT
BRANCH   4  23
HETATM   23  O   UNL     1      -9.861  15.857  69.760  1.00  0.00    -0.262 OA 
BRANCH  23  24
HETATM   24  C   UNL     1     -11.077  15.719  70.421  1.00  0.00    -0.366 C  
HETATM   25  O   UNL     1     -11.564  16.553  71.163  1.00  0.00    -0.330 OA 
BRANCH  24  26
HETATM   26  O   UNL     1     -11.763  14.641  69.925  1.00  0.00    -0.266 OA 
BRANCH  26  27
HETATM   27  C   UNL     1     -12.681  14.065  70.883  1.00  0.00    -0.350 C  
HETATM   28  C   UNL     1     -12.313  14.318  72.341  1.00  0.00    -0.186 C  
ENDBRANCH  26  27
ENDBRANCH  24  26
ENDBRANCH  23  24
ENDBRANCH   4  23
BRANCH   4  29
HETATM   29  C   UNL     1     -10.705  16.763  67.658  1.00  0.00    -0.305 C  
HETATM   30  O   UNL     1     -11.536  16.633  66.754  1.00  0.00     0.433 OA 
BRANCH  29  31
HETATM   31  O   UNL     1     -10.620  18.019  68.235  1.00  0.00    -0.363 OA 
HETATM   32  C   UNL     1     -11.148  19.069  67.333  1.00  0.00    -0.105 C  
HETATM   33 CL   UNL     1      -9.945  19.546  66.099  1.00  0.00    -0.505 Cl 
ENDBRANCH  29  31
ENDBRANCH   4  29
TORSDOF 6
ENDMDL
MODEL       89
REMARK 921   NORMALIZED FREE ENERGY PREDICTED BY IDOCK:   -3.05 KCAL/MOL
REMARK 922        TOTAL FREE ENERGY PREDICTED BY IDOCK:   -3.81 KCAL/MOL
REMARK 923 INTER-LIGAND FREE ENERGY PREDICTED BY IDOCK:   -5.28 KCAL/MOL
REMARK 924 INTRA-LIGAND FREE ENERGY PREDICTED BY IDOCK:    1.47 KCAL/MOL
REMARK 927      BINDING AFFINITY PREDICTED BY RF-SCORE:    0.00 PKD
ROOT
HETATM    1  C   UNL     1      -5.640  16.953  67.385  1.00  0.00    -0.179 C  
HETATM    2  C   UNL     1      -5.128  16.842  66.067  1.00  0.00     0.529 C  
HETATM    3  C   UNL     1      -6.544  17.266  66.245  1.00  0.00    -0.248 C  
HETATM    4  C   UNL     1      -7.116  17.947  68.127  1.00  0.00    -0.224 C  
HETATM    5  C   UNL     1      -6.630  18.567  67.004  1.00  0.00    -0.203 C  
HETATM    6  C   UNL     1      -9.616  14.267  68.681  1.00  0.00    -0.192 C  
HETATM    7  C   UNL     1      -5.931  14.251  67.659  1.00  0.00    -0.043 C  
HETATM    8  C   UNL     1      -9.004  14.117  67.285  1.00  0.00    -0.221 C  
HETATM    9  C   UNL     1      -9.993  13.881  66.053  1.00  0.00    -0.325 C  
HETATM   10  C   UNL     1      -8.392  18.314  66.323  1.00  0.00    -0.230 C  
HETATM   11  C   UNL     1     -10.013  12.845  65.196  1.00  0.00    -0.175 C  
HETATM   12  C   UNL     1      -5.756  19.791  66.896  1.00  0.00    -0.173 C  
HETATM   13  O   UNL     1     -10.750  11.276  66.862  1.00  0.00    -0.247 OA 
HETATM   14  C   UNL     1      -9.083  16.860  66.904  1.00  0.00    -0.230 C  
HETATM   15  C   UNL     1      -9.809  11.823  66.310  1.00  0.00    -0.221 C  
HETATM   16  C   UNL     1      -8.412  11.756  66.766  1.00  0.00    -0.177 C  
HETATM   17  O   UNL     1      -9.600  17.188  68.200  1.00  0.00    -0.254 OA 
HETATM   18  C   UNL     1      -8.033  12.904  67.338  1.00  0.00    -0.178 C  
HETATM   19  C   UNL     1      -8.212  15.421  66.938  1.00  0.00    -0.281 C  
HETATM   20  C   UNL     1      -6.727  13.030  68.076  1.00  0.00    -0.114 C  
HETATM   21  H   UNL     1      -9.984  16.381  68.523  1.00  0.00     0.000 HD 
HETATM   22  C   UNL     1      -6.755  15.536  67.759  1.00  0.00    -0.186 C  
ENDROOT
BRANCH   4  23
HETATM   23  O   UNL     1      -5.984  18.250  69.242  1.00  0.00    -0.218 OA 
BRANCH  23  24
HETATM   24  C   UNL     1      -5.809  17.569  70.442  1.00  0.00    -0.036 C  
HETATM   25  O   UNL     1      -6.000  16.377  70.598  1.00  0.00     0.007 OA 
BRANCH  24  26
HETATM   26  O   UNL     1      -5.154  18.366  71.345  1.00  0.00    -0.447 OA 
BRANCH  26  27
HETATM   27  C   UNL     1      -5.176  19.767  70.985  1.00  0.00    -0.257 C  
HETATM   28  C   UNL     1      -5.996  20.646  71.924  1.00  0.00     0.146 C  
ENDBRANCH  26  27
ENDBRANCH  24  26
ENDBRANCH  23  24
ENDBRANCH   4  23
BRANCH   4  29
HETATM   29  C   UNL     1      -8.046  19.409  68.644  1.00  0.00    -0.366 C  
HETATM   30  O   UNL     1      -8.683  19.511  69.696  1.00  0.00     0.105 OA 
BRANCH  29  31
HETATM   31  O   UNL     1      -8.111  20.491  67.782  1.00  0.00    -0.241 OA 
HETATM   32  C   UNL     1      -9.468  21.085  67.756  1.00  0.00     0.055 C  
HETATM   33 CL   UNL     1     -10.573  20.162  66.695  1.00  0.00    -0.452 Cl 
ENDBRANCH  29  31
ENDBRANCH   4  29
TORSDOF 6
ENDMDL
MODEL       90
REMARK 921   NORMALIZED FREE ENERGY PREDICTED BY IDOCK:   -2.98 KCAL/MOL
REMARK 922        TOTAL FREE ENERGY PREDICTED BY IDOCK:   -3.71 KCAL/MOL
REMARK 923 INTER-LIGAND FREE ENERGY PREDICTED BY IDOCK:   -4.92 KCAL/MOL
REMARK 924 INTRA-LIGAND FREE ENERGY PREDICTED BY IDOCK:    1.20 KCAL/MOL
REMARK 927      BINDING AFFINITY PREDICTED BY RF-SCORE:    0.00 PKD
ROOT
HETATM    1  C   UNL     1      -6.832  13.346  68.144  1.00  0.00    -0.117 C  
HETATM    2  C   UNL     1      -6.592  13.785  69.470  1.00  0.00    -0.081 C  
HETATM    3  C   UNL     1      -7.992  13.487  69.064  1.00  0.00     0.199 C  
HETATM    4  C   UNL     1      -8.274  12.346  67.346  1.00  0.00    -0.180 C  
HETATM    5  C   UNL     1      -8.148  12.037  68.677  1.00  0.00    -0.069 C  
HETATM    6  C   UNL     1      -9.916  15.949  65.243  1.00  0.00    -0.121 C  
HETATM    7  C   UNL     1      -6.578  15.859  67.106  1.00  0.00    -0.132 C  
HETATM    8  C   UNL     1      -9.588  16.437  66.657  1.00  0.00    -0.273 C  
HETATM    9  C   UNL     1     -10.753  17.136  67.498  1.00  0.00    -0.276 C  
HETATM   10  C   UNL     1      -9.940  12.674  68.808  1.00  0.00    -0.023 C  
HETATM   11  C   UNL     1     -10.766  18.375  68.020  1.00  0.00    -0.277 C  
HETATM   12  C   UNL     1      -7.546  10.812  69.316  1.00  0.00    -0.129 C  
HETATM   13  O   UNL     1     -10.855  19.451  65.872  1.00  0.00    -0.420 OA 
HETATM   14  C   UNL     1     -10.228  13.957  67.713  1.00  0.00    -0.237 C  
HETATM   15  C   UNL     1     -10.160  18.991  66.763  1.00  0.00    -0.379 C  
HETATM   16  C   UNL     1      -8.709  18.765  66.668  1.00  0.00    -0.306 C  
HETATM   17  O   UNL     1     -10.516  13.319  66.462  1.00  0.00    -0.275 OA 
HETATM   18  C   UNL     1      -8.428  17.465  66.529  1.00  0.00    -0.298 C  
HETATM   19  C   UNL     1      -9.129  15.216  67.519  1.00  0.00    -0.187 C  
HETATM   20  C   UNL     1      -7.042  16.982  66.199  1.00  0.00    -0.142 C  
HETATM   21  H   UNL     1     -10.676  14.031  65.854  1.00  0.00     0.000 HD 
HETATM   22  C   UNL     1      -7.577  14.702  67.146  1.00  0.00    -0.078 C  
ENDROOT
BRANCH   4  23
HETATM   23  O   UNL     1      -7.008  11.602  66.667  1.00  0.00    -0.115 OA 
BRANCH  23  24
HETATM   24  C   UNL     1      -7.060  10.663  65.643  1.00  0.00    -0.076 C  
HETATM   25  O   UNL     1      -7.566  10.852  64.551  1.00  0.00     0.208 OA 
BRANCH  24  26
HETATM   26  O   UNL     1      -6.248   9.599  65.937  1.00  0.00    -0.065 OA 
BRANCH  26  27
HETATM   27  C   UNL     1      -6.795   8.331  65.505  1.00  0.00    -0.066 C  
HETATM   28  C   UNL     1      -6.096   7.110  66.092  1.00  0.00    -0.036 C  
ENDBRANCH  26  27
ENDBRANCH  24  26
ENDBRANCH  23  24
ENDBRANCH   4  23
BRANCH   4  29
HETATM   29  C   UNL     1      -9.321  10.909  67.017  1.00  0.00    -0.163 C  
HETATM   30  O   UNL     1     -10.255  10.879  66.211  1.00  0.00    -0.232 OA 
BRANCH  29  31
HETATM   31  O   UNL     1      -9.115   9.756  67.757  1.00  0.00    -0.131 OA 
HETATM   32  C   UNL     1     -10.393   9.077  68.074  1.00  0.00    -0.224 C  
HETATM   33 CL   UNL     1     -11.214   9.836  69.470  1.00  0.00    -0.216 Cl 
ENDBRANCH  29  31
ENDBRANCH   4  29
TORSDOF 6
ENDMDL
MODEL       91
REMARK 921   NORMALIZED FREE ENERGY PREDICTED BY IDOCK:   -2.96 KCAL/MOL
REMARK 922        TOTAL FREE ENERGY PREDICTED BY IDOCK:   -3.68 KCAL/MOL
REMARK 923 INTER-LIGAND FREE ENERGY PREDICTED BY IDOCK:   -4.37 KCAL/MOL
REMARK 924 INTRA-LIGAND FREE ENERGY PREDICTED BY IDOCK:    0.69 KCAL/MOL
REMARK 927      BINDING AFFINITY PREDICTED BY RF-SCORE:    0.00 PKD
ROOT
HETATM    1  C   UNL     1     -10.086   8.463  69.832  1.00  0.00    -0.195 C  
HETATM    2  C   UNL     1     -11.298   8.777  69.167  1.00  0.00     0.419 C  
HETATM    3  C   UNL     1     -11.133   7.411  69.735  1.00  0.00    -0.169 C  
HETATM    4  C   UNL     1      -9.632   7.132  71.150  1.00  0.00    -0.164 C  
HETATM    5  C   UNL     1     -10.961   7.463  71.234  1.00  0.00    -0.263 C  
HETATM    6  C   UNL     1      -7.333   4.661  68.199  1.00  0.00    -0.066 C  
HETATM    7  C   UNL     1      -8.709   8.159  67.493  1.00  0.00    -0.129 C  
HETATM    8  C   UNL     1      -8.613   5.062  67.460  1.00  0.00    -0.104 C  
HETATM    9  C   UNL     1      -9.512   3.900  66.831  1.00  0.00    -0.225 C  
HETATM   10  C   UNL     1     -11.257   5.616  70.868  1.00  0.00    -0.106 C  
HETATM   11  C   UNL     1      -9.867   3.735  65.545  1.00  0.00    -0.116 C  
HETATM   12  C   UNL     1     -11.662   8.338  72.242  1.00  0.00    -0.453 C  
HETATM   13  O   UNL     1      -7.632   3.213  64.829  1.00  0.00    -0.074 OA 
HETATM   14  C   UNL     1     -10.058   4.986  69.823  1.00  0.00    -0.267 C  
HETATM   15  C   UNL     1      -8.469   4.076  65.037  1.00  0.00    -0.113 C  
HETATM   16  C   UNL     1      -8.202   5.522  65.049  1.00  0.00    -0.139 C  
HETATM   17  O   UNL     1      -8.951   4.669  70.678  1.00  0.00    -0.110 OA 
HETATM   18  C   UNL     1      -8.194   6.005  66.296  1.00  0.00    -0.118 C  
HETATM   19  C   UNL     1      -9.553   5.822  68.453  1.00  0.00    -0.147 C  
HETATM   20  C   UNL     1      -7.739   7.406  66.603  1.00  0.00    -0.101 C  
HETATM   21  H   UNL     1      -8.285   4.319  70.097  1.00  0.00     0.000 HD 
HETATM   22  C   UNL     1      -9.036   7.385  68.771  1.00  0.00    -0.129 C  
ENDROOT
BRANCH   4  23
HETATM   23  O   UNL     1      -8.884   8.420  71.783  1.00  0.00    -0.157 OA 
BRANCH  23  24
HETATM   24  C   UNL     1      -7.516   8.663  71.768  1.00  0.00    -0.081 C  
HETATM   25  O   UNL     1      -6.656   7.816  71.929  1.00  0.00    -0.045 OA 
BRANCH  24  26
HETATM   26  O   UNL     1      -7.267   9.927  71.298  1.00  0.00    -0.259 OA 
BRANCH  26  27
HETATM   27  C   UNL     1      -6.013  10.029  70.583  1.00  0.00    -0.094 C  
HETATM   28  C   UNL     1      -6.150  10.467  69.129  1.00  0.00    -0.041 C  
ENDBRANCH  26  27
ENDBRANCH  24  26
ENDBRANCH  23  24
ENDBRANCH   4  23
BRANCH   4  29
HETATM   29  C   UNL     1      -9.639   6.317  72.764  1.00  0.00    -0.154 C  
HETATM   30  O   UNL     1      -8.695   6.304  73.558  1.00  0.00    -0.124 OA 
BRANCH  29  31
HETATM   31  O   UNL     1     -10.762   5.598  73.138  1.00  0.00    -0.230 OA 
HETATM   32  C   UNL     1     -10.490   4.735  74.311  1.00  0.00    -0.287 C  
HETATM   33 CL   UNL     1      -9.665   3.220  73.841  1.00  0.00    -0.130 Cl 
ENDBRANCH  29  31
ENDBRANCH   4  29
TORSDOF 6
ENDMDL
MODEL       92
REMARK 921   NORMALIZED FREE ENERGY PREDICTED BY IDOCK:   -2.91 KCAL/MOL
REMARK 922        TOTAL FREE ENERGY PREDICTED BY IDOCK:   -3.61 KCAL/MOL
REMARK 923 INTER-LIGAND FREE ENERGY PREDICTED BY IDOCK:   -3.77 KCAL/MOL
REMARK 924 INTRA-LIGAND FREE ENERGY PREDICTED BY IDOCK:    0.16 KCAL/MOL
REMARK 927      BINDING AFFINITY PREDICTED BY RF-SCORE:    0.00 PKD
ROOT
HETATM    1  C   UNL     1     -10.447   6.054  68.663  1.00  0.00    -0.297 C  
HETATM    2  C   UNL     1     -11.513   6.564  69.447  1.00  0.00    -0.346 C  
HETATM    3  C   UNL     1     -10.212   7.286  69.463  1.00  0.00    -0.200 C  
HETATM    4  C   UNL     1      -8.864   6.874  67.931  1.00  0.00    -0.123 C  
HETATM    5  C   UNL     1      -9.861   7.803  68.089  1.00  0.00    -0.190 C  
HETATM    6  C   UNL     1      -6.168   4.832  70.875  1.00  0.00    -0.019 C  
HETATM    7  C   UNL     1      -9.889   4.062  70.445  1.00  0.00    -0.209 C  
HETATM    8  C   UNL     1      -7.356   5.323  71.707  1.00  0.00    -0.089 C  
HETATM    9  C   UNL     1      -7.053   6.248  72.975  1.00  0.00    -0.079 C  
HETATM   10  C   UNL     1      -8.617   8.675  69.241  1.00  0.00    -0.131 C  
HETATM   11  C   UNL     1      -7.374   6.019  74.261  1.00  0.00    -0.087 C  
HETATM   12  C   UNL     1     -10.759   8.421  67.048  1.00  0.00    -0.204 C  
HETATM   13  O   UNL     1      -5.838   4.182  74.482  1.00  0.00    -0.021 OA 
HETATM   14  C   UNL     1      -7.642   7.545  70.077  1.00  0.00    -0.088 C  
HETATM   15  C   UNL     1      -6.961   4.552  74.179  1.00  0.00    -0.071 C  
HETATM   16  C   UNL     1      -7.969   3.718  73.507  1.00  0.00    -0.087 C  
HETATM   17  O   UNL     1      -6.596   7.206  69.157  1.00  0.00    -0.042 OA 
HETATM   18  C   UNL     1      -8.106   4.062  72.222  1.00  0.00    -0.086 C  
HETATM   19  C   UNL     1      -8.299   6.170  70.792  1.00  0.00    -0.126 C  
HETATM   20  C   UNL     1      -8.914   3.235  71.260  1.00  0.00    -0.159 C  
HETATM   21  H   UNL     1      -6.055   6.578  69.622  1.00  0.00     0.000 HD 
HETATM   22  C   UNL     1      -9.200   5.229  69.736  1.00  0.00    -0.167 C  
ENDROOT
BRANCH   4  23
HETATM   23  O   UNL     1      -9.351   6.015  66.650  1.00  0.00    -0.136 OA 
BRANCH  23  24
HETATM   24  C   UNL     1      -8.577   5.121  65.918  1.00  0.00    -0.128 C  
HETATM   25  O   UNL     1      -8.455   5.137  64.706  1.00  0.00    -0.141 OA 
BRANCH  24  26
HETATM   26  O   UNL     1      -7.777   4.392  66.759  1.00  0.00    -0.092 OA 
BRANCH  26  27
HETATM   27  C   UNL     1      -7.096   3.304  66.091  1.00  0.00    -0.062 C  
HETATM   28  C   UNL     1      -5.577   3.436  66.062  1.00  0.00    -0.018 C  
ENDBRANCH  26  27
ENDBRANCH  24  26
ENDBRANCH  23  24
ENDBRANCH   4  23
BRANCH   4  29
HETATM   29  C   UNL     1      -7.895   7.961  66.858  1.00  0.00    -0.104 C  
HETATM   30  O   UNL     1      -8.281   9.045  66.410  1.00  0.00    -0.108 OA 
BRANCH  29  31
HETATM   31  O   UNL     1      -6.641   7.542  66.449  1.00  0.00    -0.051 OA 
HETATM   32  C   UNL     1      -6.086   8.429  65.400  1.00  0.00    -0.045 C  
HETATM   33 CL   UNL     1      -6.753   8.040  63.786  1.00  0.00    -0.070 Cl 
ENDBRANCH  29  31
ENDBRANCH   4  29
TORSDOF 6
ENDMDL
MODEL       93
REMARK 921   NORMALIZED FREE ENERGY PREDICTED BY IDOCK:   -2.85 KCAL/MOL
REMARK 922        TOTAL FREE ENERGY PREDICTED BY IDOCK:   -3.54 KCAL/MOL
REMARK 923 INTER-LIGAND FREE ENERGY PREDICTED BY IDOCK:   -3.96 KCAL/MOL
REMARK 924 INTRA-LIGAND FREE ENERGY PREDICTED BY IDOCK:    0.42 KCAL/MOL
REMARK 927      BINDING AFFINITY PREDICTED BY RF-SCORE:    0.00 PKD
ROOT
HETATM    1  C   UNL     1      -9.830   9.981  67.419  1.00  0.00    -0.226 C  
HETATM    2  C   UNL     1     -11.090   9.917  66.772  1.00  0.00     0.172 C  
HETATM    3  C   UNL     1     -10.749   8.865  67.768  1.00  0.00    -0.204 C  
HETATM    4  C   UNL     1      -9.185   9.257  69.084  1.00  0.00    -0.149 C  
HETATM    5  C   UNL     1     -10.540   9.462  69.138  1.00  0.00    -0.234 C  
HETATM    6  C   UNL     1      -6.700   6.140  67.031  1.00  0.00    -0.061 C  
HETATM    7  C   UNL     1      -8.496   9.005  65.245  1.00  0.00    -0.181 C  
HETATM    8  C   UNL     1      -8.039   6.124  66.289  1.00  0.00    -0.113 C  
HETATM    9  C   UNL     1      -8.814   4.731  66.169  1.00  0.00    -0.120 C  
HETATM   10  C   UNL     1     -10.629   7.586  69.462  1.00  0.00    -0.239 C  
HETATM   11  C   UNL     1      -9.186   4.086  65.049  1.00  0.00    -0.151 C  
HETATM   12  C   UNL     1     -11.309  10.564  69.823  1.00  0.00    -0.367 C  
HETATM   13  O   UNL     1      -6.926   3.568  64.409  1.00  0.00    -0.050 OA 
HETATM   14  C   UNL     1      -9.395   6.748  68.623  1.00  0.00    -0.131 C  
HETATM   15  C   UNL     1      -7.853   4.362  64.360  1.00  0.00    -0.086 C  
HETATM   16  C   UNL     1      -7.756   5.737  63.847  1.00  0.00    -0.094 C  
HETATM   17  O   UNL     1      -8.235   6.866  69.457  1.00  0.00    -0.127 OA 
HETATM   18  C   UNL     1      -7.768   6.629  64.844  1.00  0.00    -0.109 C  
HETATM   19  C   UNL     1      -9.032   7.089  67.016  1.00  0.00    -0.130 C  
HETATM   20  C   UNL     1      -7.471   8.085  64.610  1.00  0.00    -0.097 C  
HETATM   21  H   UNL     1      -7.550   6.401  68.991  1.00  0.00     0.000 HD 
HETATM   22  C   UNL     1      -8.692   8.707  66.732  1.00  0.00    -0.135 C  
ENDROOT
BRANCH   4  23
HETATM   23  O   UNL     1      -8.575  10.752  69.175  1.00  0.00    -0.150 OA 
BRANCH  23  24
HETATM   24  C   UNL     1      -7.238  11.083  69.367  1.00  0.00    -0.114 C  
HETATM   25  O   UNL     1      -6.744  11.390  70.437  1.00  0.00    -0.148 OA 
BRANCH  24  26
HETATM   26  O   UNL     1      -6.510  10.769  68.249  1.00  0.00    -0.057 OA 
BRANCH  26  27
HETATM   27  C   UNL     1      -5.220  10.188  68.557  1.00  0.00    -0.035 C  
HETATM   28  C   UNL     1      -5.237   8.673  68.734  1.00  0.00    -0.033 C  
ENDBRANCH  26  27
ENDBRANCH  24  26
ENDBRANCH  23  24
ENDBRANCH   4  23
BRANCH   4  29
HETATM   29  C   UNL     1      -9.050   9.071  70.878  1.00  0.00    -0.250 C  
HETATM   30  O   UNL     1      -8.124   8.504  71.466  1.00  0.00    -0.127 OA 
BRANCH  29  31
HETATM   31  O   UNL     1     -10.081   9.543  71.673  1.00  0.00    -0.153 OA 
HETATM   32  C   UNL     1     -10.258   8.711  72.885  1.00  0.00     0.252 C  
HETATM   33 CL   UNL     1     -11.194   7.227  72.538  1.00  0.00    -0.315 Cl 
ENDBRANCH  29  31
ENDBRANCH   4  29
TORSDOF 6
ENDMDL
MODEL       94
REMARK 921   NORMALIZED FREE ENERGY PREDICTED BY IDOCK:   -2.84 KCAL/MOL
REMARK 922        TOTAL FREE ENERGY PREDICTED BY IDOCK:   -3.52 KCAL/MOL
REMARK 923 INTER-LIGAND FREE ENERGY PREDICTED BY IDOCK:   -5.02 KCAL/MOL
REMARK 924 INTRA-LIGAND FREE ENERGY PREDICTED BY IDOCK:    1.50 KCAL/MOL
REMARK 927      BINDING AFFINITY PREDICTED BY RF-SCORE:    0.00 PKD
ROOT
HETATM    1  C   UNL     1      -7.831  13.442  68.285  1.00  0.00    -0.143 C  
HETATM    2  C   UNL     1      -6.630  13.111  67.608  1.00  0.00    -0.165 C  
HETATM    3  C   UNL     1      -7.907  13.077  66.844  1.00  0.00     0.137 C  
HETATM    4  C   UNL     1      -9.544  14.070  67.662  1.00  0.00    -0.221 C  
HETATM    5  C   UNL     1      -8.547  14.443  66.796  1.00  0.00    -0.139 C  
HETATM    6  C   UNL     1     -11.529  10.125  68.435  1.00  0.00    -0.086 C  
HETATM    7  C   UNL     1      -7.975  11.015  69.528  1.00  0.00     0.133 C  
HETATM    8  C   UNL     1     -10.198   9.769  67.767  1.00  0.00    -0.254 C  
HETATM    9  C   UNL     1     -10.237   8.857  66.455  1.00  0.00    -0.319 C  
HETATM   10  C   UNL     1      -9.529  13.429  65.516  1.00  0.00     0.161 C  
HETATM   11  C   UNL     1      -9.648   7.664  66.261  1.00  0.00    -0.155 C  
HETATM   12  C   UNL     1      -7.898  15.792  66.617  1.00  0.00    -0.192 C  
HETATM   13  O   UNL     1     -11.080   6.525  67.821  1.00  0.00    -0.313 OA 
HETATM   14  C   UNL     1     -10.291  12.079  66.240  1.00  0.00    -0.221 C  
HETATM   15  C   UNL     1     -10.051   7.156  67.642  1.00  0.00    -0.180 C  
HETATM   16  C   UNL     1      -9.198   7.695  68.712  1.00  0.00    -0.142 C  
HETATM   17  O   UNL     1     -11.504  12.595  66.803  1.00  0.00    -0.310 OA 
HETATM   18  C   UNL     1      -9.340   9.020  68.826  1.00  0.00    -0.140 C  
HETATM   19  C   UNL     1      -9.480  11.089  67.333  1.00  0.00    -0.173 C  
HETATM   20  C   UNL     1      -8.745   9.788  69.975  1.00  0.00    -0.237 C  
HETATM   21  H   UNL     1     -11.926  11.845  67.205  1.00  0.00     0.000 HD 
HETATM   22  C   UNL     1      -8.812  11.922  68.626  1.00  0.00    -0.041 C  
ENDROOT
BRANCH   4  23
HETATM   23  O   UNL     1      -9.328  15.054  68.928  1.00  0.00    -0.195 OA 
BRANCH  23  24
HETATM   24  C   UNL     1     -10.197  15.213  70.002  1.00  0.00    -0.127 C  
HETATM   25  O   UNL     1     -10.186  16.156  70.772  1.00  0.00     0.462 OA 
BRANCH  24  26
HETATM   26  O   UNL     1     -11.219  14.303  69.919  1.00  0.00    -0.228 OA 
BRANCH  26  27
HETATM   27  C   UNL     1     -12.087  14.319  71.077  1.00  0.00    -0.344 C  
HETATM   28  C   UNL     1     -13.192  15.370  71.021  1.00  0.00    -0.560 C  
ENDBRANCH  26  27
ENDBRANCH  24  26
ENDBRANCH  23  24
ENDBRANCH   4  23
BRANCH   4  29
HETATM   29  C   UNL     1     -10.730  15.227  66.939  1.00  0.00    -0.313 C  
HETATM   30  O   UNL     1     -11.014  15.298  65.740  1.00  0.00    -0.338 OA 
BRANCH  29  31
HETATM   31  O   UNL     1     -11.341  16.154  67.768  1.00  0.00    -0.257 OA 
HETATM   32  C   UNL     1     -11.137  17.538  67.279  1.00  0.00     0.142 C  
HETATM   33 CL   UNL     1      -9.530  18.171  67.741  1.00  0.00    -0.264 Cl 
ENDBRANCH  29  31
ENDBRANCH   4  29
TORSDOF 6
ENDMDL
MODEL       95
REMARK 921   NORMALIZED FREE ENERGY PREDICTED BY IDOCK:   -2.71 KCAL/MOL
REMARK 922        TOTAL FREE ENERGY PREDICTED BY IDOCK:   -3.35 KCAL/MOL
REMARK 923 INTER-LIGAND FREE ENERGY PREDICTED BY IDOCK:   -5.71 KCAL/MOL
REMARK 924 INTRA-LIGAND FREE ENERGY PREDICTED BY IDOCK:    2.36 KCAL/MOL
REMARK 927      BINDING AFFINITY PREDICTED BY RF-SCORE:    0.00 PKD
ROOT
HETATM    1  C   UNL     1      -9.871  17.970  66.447  1.00  0.00    -0.340 C  
HETATM    2  C   UNL     1     -11.240  18.341  66.448  1.00  0.00     0.764 C  
HETATM    3  C   UNL     1     -10.630  17.876  67.724  1.00  0.00    -0.399 C  
HETATM    4  C   UNL     1      -8.552  17.864  67.848  1.00  0.00    -0.252 C  
HETATM    5  C   UNL     1      -9.513  18.793  68.158  1.00  0.00    -0.365 C  
HETATM    6  C   UNL     1      -8.595  13.381  67.864  1.00  0.00    -0.184 C  
HETATM    7  C   UNL     1     -10.371  15.557  65.270  1.00  0.00    -0.416 C  
HETATM    8  C   UNL     1     -10.071  13.786  67.794  1.00  0.00    -0.245 C  
HETATM    9  C   UNL     1     -11.062  13.206  68.905  1.00  0.00    -0.310 C  
HETATM   10  C   UNL     1      -9.826  17.695  69.684  1.00  0.00     0.377 C  
HETATM   11  C   UNL     1     -12.166  12.460  68.719  1.00  0.00     0.025 C  
HETATM   12  C   UNL     1      -9.438  20.298  68.092  1.00  0.00    -0.267 C  
HETATM   13  O   UNL     1     -10.933  10.540  67.959  1.00  0.00    -0.247 OA 
HETATM   14  C   UNL     1      -9.574  16.041  69.325  1.00  0.00    -0.255 C  
HETATM   15  C   UNL     1     -11.489  11.587  67.667  1.00  0.00    -0.285 C  
HETATM   16  C   UNL     1     -11.400  12.250  66.356  1.00  0.00    -0.405 C  
HETATM   17  O   UNL     1      -8.159  15.848  69.441  1.00  0.00    -0.234 OA 
HETATM   18  C   UNL     1     -10.606  13.325  66.409  1.00  0.00    -0.288 C  
HETATM   19  C   UNL     1     -10.174  15.342  67.917  1.00  0.00    -0.235 C  
HETATM   20  C   UNL     1     -10.178  14.057  65.166  1.00  0.00    -0.396 C  
HETATM   21  H   UNL     1      -8.019  14.930  69.242  1.00  0.00     0.000 HD 
HETATM   22  C   UNL     1      -9.705  16.138  66.518  1.00  0.00    -0.282 C  
ENDROOT
BRANCH   4  23
HETATM   23  O   UNL     1      -7.680  18.594  66.698  1.00  0.00    -0.231 OA 
BRANCH  23  24
HETATM   24  C   UNL     1      -6.484  18.135  66.158  1.00  0.00    -0.235 C  
HETATM   25  O   UNL     1      -6.120  18.325  65.012  1.00  0.00    -0.218 OA 
BRANCH  24  26
HETATM   26  O   UNL     1      -5.667  17.666  67.154  1.00  0.00    -0.121 OA 
BRANCH  26  27
HETATM   27  C   UNL     1      -5.135  16.349  66.878  1.00  0.00     0.126 C  
HETATM   28  C   UNL     1      -5.584  15.270  67.858  1.00  0.00    -0.143 C  
ENDBRANCH  26  27
ENDBRANCH  24  26
ENDBRANCH  23  24
ENDBRANCH   4  23
BRANCH   4  29
HETATM   29  C   UNL     1      -7.422  18.475  69.121  1.00  0.00    -0.123 C  
HETATM   30  O   UNL     1      -6.374  17.921  69.467  1.00  0.00    -0.244 OA 
BRANCH  29  31
HETATM   31  O   UNL     1      -7.765  19.622  69.817  1.00  0.00    -0.021 OA 
HETATM   32  C   UNL     1      -6.566  20.340  70.308  1.00  0.00    -0.076 C  
HETATM   33 CL   UNL     1      -5.928  19.610  71.811  1.00  0.00    -0.189 Cl 
ENDBRANCH  29  31
ENDBRANCH   4  29
TORSDOF 6
ENDMDL
MODEL       96
REMARK 921   NORMALIZED FREE ENERGY PREDICTED BY IDOCK:   -2.59 KCAL/MOL
REMARK 922        TOTAL FREE ENERGY PREDICTED BY IDOCK:   -3.18 KCAL/MOL
REMARK 923 INTER-LIGAND FREE ENERGY PREDICTED BY IDOCK:   -5.85 KCAL/MOL
REMARK 924 INTRA-LIGAND FREE ENERGY PREDICTED BY IDOCK:    2.67 KCAL/MOL
REMARK 927      BINDING AFFINITY PREDICTED BY RF-SCORE:    0.00 PKD
ROOT
HETATM    1  C   UNL     1      -7.540  15.424  69.470  1.00  0.00    -0.212 C  
HETATM    2  C   UNL     1      -6.337  16.054  69.060  1.00  0.00    -0.140 C  
HETATM    3  C   UNL     1      -7.283  15.580  68.013  1.00  0.00    -0.132 C  
HETATM    4  C   UNL     1      -9.239  15.173  68.597  1.00  0.00    -0.196 C  
HETATM    5  C   UNL     1      -8.609  16.293  68.117  1.00  0.00    -0.183 C  
HETATM    6  C   UNL     1      -8.510  10.800  67.928  1.00  0.00    -0.122 C  
HETATM    7  C   UNL     1      -6.284  13.070  70.053  1.00  0.00    -0.062 C  
HETATM    8  C   UNL     1      -7.189  11.478  67.553  1.00  0.00    -0.111 C  
HETATM    9  C   UNL     1      -6.583  11.193  66.102  1.00  0.00    -0.022 C  
HETATM   10  C   UNL     1      -8.696  15.401  66.435  1.00  0.00    -0.307 C  
HETATM   11  C   UNL     1      -5.385  10.665  65.796  1.00  0.00    -0.115 C  
HETATM   12  C   UNL     1      -8.888  17.744  68.418  1.00  0.00    -0.285 C  
HETATM   13  O   UNL     1      -5.950   8.487  66.646  1.00  0.00    -0.050 OA 
HETATM   14  C   UNL     1      -8.544  13.707  66.618  1.00  0.00     0.078 C  
HETATM   15  C   UNL     1      -5.496   9.596  66.879  1.00  0.00    -0.046 C  
HETATM   16  C   UNL     1      -5.212  10.123  68.223  1.00  0.00    -0.035 C  
HETATM   17  O   UNL     1      -9.859  13.251  66.960  1.00  0.00    -0.231 OA 
HETATM   18  C   UNL     1      -6.128  11.023  68.596  1.00  0.00    -0.043 C  
HETATM   19  C   UNL     1      -7.379  13.029  67.626  1.00  0.00    -0.147 C  
HETATM   20  C   UNL     1      -6.192  11.557  70.001  1.00  0.00    -0.142 C  
HETATM   21  H   UNL     1      -9.774  12.310  67.062  1.00  0.00     0.000 HD 
HETATM   22  C   UNL     1      -7.434  13.606  69.199  1.00  0.00     0.098 C  
ENDROOT
BRANCH   4  23
HETATM   23  O   UNL     1      -9.744  15.625  70.065  1.00  0.00    -0.242 OA 
BRANCH  23  24
HETATM   24  C   UNL     1     -10.946  15.270  70.666  1.00  0.00    -0.284 C  
HETATM   25  O   UNL     1     -11.280  14.130  70.934  1.00  0.00     0.107 OA 
BRANCH  24  26
HETATM   26  O   UNL     1     -11.583  16.387  71.143  1.00  0.00    -0.400 OA 
BRANCH  26  27
HETATM   27  C   UNL     1     -12.121  16.207  72.474  1.00  0.00    -0.550 C  
HETATM   28  C   UNL     1     -13.290  15.230  72.555  1.00  0.00    -0.553 C  
ENDBRANCH  26  27
ENDBRANCH  24  26
ENDBRANCH  23  24
ENDBRANCH   4  23
BRANCH   4  29
HETATM   29  C   UNL     1     -10.830  15.649  67.881  1.00  0.00    -0.306 C  
HETATM   30  O   UNL     1     -11.029  16.660  67.201  1.00  0.00    -0.183 OA 
BRANCH  29  31
HETATM   31  O   UNL     1     -11.939  14.865  68.149  1.00  0.00    -0.304 OA 
HETATM   32  C   UNL     1     -12.116  13.806  67.129  1.00  0.00    -0.378 C  
HETATM   33 CL   UNL     1     -12.908  14.435  65.654  1.00  0.00    -0.352 Cl 
ENDBRANCH  29  31
ENDBRANCH   4  29
TORSDOF 6
ENDMDL
MODEL       97
REMARK 921   NORMALIZED FREE ENERGY PREDICTED BY IDOCK:   -2.54 KCAL/MOL
REMARK 922        TOTAL FREE ENERGY PREDICTED BY IDOCK:   -3.12 KCAL/MOL
REMARK 923 INTER-LIGAND FREE ENERGY PREDICTED BY IDOCK:   -3.73 KCAL/MOL
REMARK 924 INTRA-LIGAND FREE ENERGY PREDICTED BY IDOCK:    0.60 KCAL/MOL
REMARK 927      BINDING AFFINITY PREDICTED BY RF-SCORE:    0.00 PKD
ROOT
HETATM    1  C   UNL     1     -10.127   7.468  67.920  1.00  0.00    -0.226 C  
HETATM    2  C   UNL     1     -10.802   6.759  68.946  1.00  0.00    -0.288 C  
HETATM    3  C   UNL     1      -9.318   6.861  69.011  1.00  0.00    -0.135 C  
HETATM    4  C   UNL     1      -8.402   8.325  67.849  1.00  0.00    -0.128 C  
HETATM    5  C   UNL     1      -8.877   8.299  69.136  1.00  0.00    -0.143 C  
HETATM    6  C   UNL     1      -6.666   5.131  65.225  1.00  0.00    -0.048 C  
HETATM    7  C   UNL     1     -10.369   5.413  66.137  1.00  0.00    -0.191 C  
HETATM    8  C   UNL     1      -7.455   4.372  66.295  1.00  0.00    -0.085 C  
HETATM    9  C   UNL     1      -6.687   3.258  67.145  1.00  0.00    -0.045 C  
HETATM   10  C   UNL     1      -7.297   7.299  69.507  1.00  0.00    -0.086 C  
HETATM   11  C   UNL     1      -6.982   1.950  67.250  1.00  0.00    -0.039 C  
HETATM   12  C   UNL     1      -9.487   9.414  69.948  1.00  0.00    -0.235 C  
HETATM   13  O   UNL     1      -6.393   1.470  64.969  1.00  0.00    -0.017 OA 
HETATM   14  C   UNL     1      -6.858   6.312  68.181  1.00  0.00    -0.070 C  
HETATM   15  C   UNL     1      -7.259   1.816  65.756  1.00  0.00    -0.056 C  
HETATM   16  C   UNL     1      -8.577   2.349  65.377  1.00  0.00    -0.113 C  
HETATM   17  O   UNL     1      -6.136   7.178  67.297  1.00  0.00    -0.034 OA 
HETATM   18  C   UNL     1      -8.642   3.670  65.576  1.00  0.00    -0.112 C  
HETATM   19  C   UNL     1      -7.996   5.396  67.346  1.00  0.00    -0.101 C  
HETATM   20  C   UNL     1      -9.798   4.492  65.076  1.00  0.00    -0.125 C  
HETATM   21  H   UNL     1      -5.892   6.630  66.560  1.00  0.00     0.000 HD 
HETATM   22  C   UNL     1      -9.292   6.293  66.774  1.00  0.00    -0.158 C  
ENDROOT
BRANCH   4  23
HETATM   23  O   UNL     1      -9.308   9.460  67.137  1.00  0.00    -0.135 OA 
BRANCH  23  24
HETATM   24  C   UNL     1      -9.163   9.930  65.837  1.00  0.00    -0.176 C  
HETATM   25  O   UNL     1      -9.093  11.106  65.526  1.00  0.00    -0.206 OA 
BRANCH  24  26
HETATM   26  O   UNL     1      -8.853   8.895  64.993  1.00  0.00    -0.190 OA 
BRANCH  26  27
HETATM   27  C   UNL     1      -7.445   8.831  64.668  1.00  0.00    -0.104 C  
HETATM   28  C   UNL     1      -7.128   8.069  63.385  1.00  0.00    -0.087 C  
ENDBRANCH  26  27
ENDBRANCH  24  26
ENDBRANCH  23  24
ENDBRANCH   4  23
BRANCH   4  29
HETATM   29  C   UNL     1      -7.136   9.554  68.245  1.00  0.00    -0.075 C  
HETATM   30  O   UNL     1      -5.949   9.484  67.914  1.00  0.00    -0.050 OA 
BRANCH  29  31
HETATM   31  O   UNL     1      -7.489  10.641  69.028  1.00  0.00    -0.096 OA 
HETATM   32  C   UNL     1      -6.310  11.234  69.699  1.00  0.00    -0.124 C  
HETATM   33 CL   UNL     1      -5.852  10.316  71.164  1.00  0.00    -0.048 Cl 
ENDBRANCH  29  31
ENDBRANCH   4  29
TORSDOF 6
ENDMDL
MODEL       98
REMARK 921   NORMALIZED FREE ENERGY PREDICTED BY IDOCK:   -2.46 KCAL/MOL
REMARK 922        TOTAL FREE ENERGY PREDICTED BY IDOCK:   -3.01 KCAL/MOL
REMARK 923 INTER-LIGAND FREE ENERGY PREDICTED BY IDOCK:   -4.23 KCAL/MOL
REMARK 924 INTRA-LIGAND FREE ENERGY PREDICTED BY IDOCK:    1.22 KCAL/MOL
REMARK 927      BINDING AFFINITY PREDICTED BY RF-SCORE:    0.00 PKD
ROOT
HETATM    1  C   UNL     1     -10.064   6.349  68.897  1.00  0.00    -0.187 C  
HETATM    2  C   UNL     1     -11.169   6.137  68.034  1.00  0.00    -0.149 C  
HETATM    3  C   UNL     1      -9.902   6.655  67.450  1.00  0.00    -0.165 C  
HETATM    4  C   UNL     1      -8.165   6.446  68.578  1.00  0.00    -0.113 C  
HETATM    5  C   UNL     1      -8.776   5.666  67.629  1.00  0.00    -0.107 C  
HETATM    6  C   UNL     1      -8.053  10.885  69.198  1.00  0.00    -0.104 C  
HETATM    7  C   UNL     1     -11.095   8.674  69.891  1.00  0.00    -0.119 C  
HETATM    8  C   UNL     1      -9.287  10.643  68.324  1.00  0.00    -0.156 C  
HETATM    9  C   UNL     1      -9.397  11.438  66.942  1.00  0.00    -0.191 C  
HETATM   10  C   UNL     1      -8.078   6.938  66.394  1.00  0.00    -0.113 C  
HETATM   11  C   UNL     1     -10.367  12.281  66.548  1.00  0.00    -0.250 C  
HETATM   12  C   UNL     1      -8.802   4.163  67.505  1.00  0.00    -0.126 C  
HETATM   13  O   UNL     1      -9.779  13.965  68.160  1.00  0.00    -0.210 OA 
HETATM   14  C   UNL     1      -8.041   8.509  67.070  1.00  0.00    -0.103 C  
HETATM   15  C   UNL     1     -10.431  12.963  67.911  1.00  0.00    -0.224 C  
HETATM   16  C   UNL     1     -11.165  12.168  68.907  1.00  0.00    -0.320 C  
HETATM   17  O   UNL     1      -6.834   8.553  67.841  1.00  0.00    -0.065 OA 
HETATM   18  C   UNL     1     -10.533  11.021  69.176  1.00  0.00    -0.238 C  
HETATM   19  C   UNL     1      -9.344   9.129  67.937  1.00  0.00    -0.151 C  
HETATM   20  C   UNL     1     -10.957  10.125  70.308  1.00  0.00    -0.380 C  
HETATM   21  H   UNL     1      -6.813   9.425  68.217  1.00  0.00     0.000 HD 
HETATM   22  C   UNL     1      -9.832   8.149  69.208  1.00  0.00    -0.182 C  
ENDROOT
BRANCH   4  23
HETATM   23  O   UNL     1      -8.180   5.511  69.898  1.00  0.00    -0.101 OA 
BRANCH  23  24
HETATM   24  C   UNL     1      -7.738   5.874  71.166  1.00  0.00    -0.109 C  
HETATM   25  O   UNL     1      -8.245   6.738  71.859  1.00  0.00    -0.102 OA 
BRANCH  24  26
HETATM   26  O   UNL     1      -6.825   4.961  71.625  1.00  0.00    -0.044 OA 
BRANCH  26  27
HETATM   27  C   UNL     1      -7.247   4.300  72.842  1.00  0.00    -0.069 C  
HETATM   28  C   UNL     1      -7.389   2.787  72.721  1.00  0.00    -0.041 C  
ENDBRANCH  26  27
ENDBRANCH  24  26
ENDBRANCH  23  24
ENDBRANCH   4  23
BRANCH   4  29
HETATM   29  C   UNL     1      -6.517   5.841  68.144  1.00  0.00    -0.043 C  
HETATM   30  O   UNL     1      -5.832   6.256  67.205  1.00  0.00    -0.018 OA 
BRANCH  29  31
HETATM   31  O   UNL     1      -5.982   4.793  68.874  1.00  0.00    -0.023 OA 
HETATM   32  C   UNL     1      -5.131   3.921  68.032  1.00  0.00    -0.007 C  
HETATM   33 CL   UNL     1      -6.108   2.768  67.075  1.00  0.00    -0.024 Cl 
ENDBRANCH  29  31
ENDBRANCH   4  29
TORSDOF 6
ENDMDL
MODEL       99
REMARK 921   NORMALIZED FREE ENERGY PREDICTED BY IDOCK:   -2.43 KCAL/MOL
REMARK 922        TOTAL FREE ENERGY PREDICTED BY IDOCK:   -2.97 KCAL/MOL
REMARK 923 INTER-LIGAND FREE ENERGY PREDICTED BY IDOCK:   -4.27 KCAL/MOL
REMARK 924 INTRA-LIGAND FREE ENERGY PREDICTED BY IDOCK:    1.30 KCAL/MOL
REMARK 927      BINDING AFFINITY PREDICTED BY RF-SCORE:    0.00 PKD
ROOT
HETATM    1  C   UNL     1     -10.581  11.207  68.092  1.00  0.00    -0.227 C  
HETATM    2  C   UNL     1     -11.717  10.952  67.282  1.00  0.00     0.283 C  
HETATM    3  C   UNL     1     -11.169  12.335  67.320  1.00  0.00    -0.358 C  
HETATM    4  C   UNL     1      -9.233  12.584  68.044  1.00  0.00    -0.204 C  
HETATM    5  C   UNL     1      -9.755  12.374  66.793  1.00  0.00    -0.226 C  
HETATM    6  C   UNL     1     -10.873  14.638  71.676  1.00  0.00     1.049 C  
HETATM    7  C   UNL     1     -12.044  11.229  70.398  1.00  0.00    -0.474 C  
HETATM    8  C   UNL     1     -12.104  14.296  70.831  1.00  0.00    -0.417 C  
HETATM    9  C   UNL     1     -13.100  15.483  70.442  1.00  0.00    -0.160 C  
HETATM   10  C   UNL     1     -10.260  14.210  66.893  1.00  0.00    -0.267 C  
HETATM   11  C   UNL     1     -14.411  15.588  70.724  1.00  0.00     0.433 C  
HETATM   12  C   UNL     1      -9.156  11.635  65.623  1.00  0.00    -0.088 C  
HETATM   13  O   UNL     1     -14.044  15.866  73.084  1.00  0.00    -0.422 OA 
HETATM   14  C   UNL     1     -10.659  14.660  68.495  1.00  0.00    -0.245 C  
HETATM   15  C   UNL     1     -14.218  15.094  72.155  1.00  0.00    -0.559 C  
HETATM   16  C   UNL     1     -14.052  13.635  72.231  1.00  0.00    -0.602 C  
HETATM   17  O   UNL     1      -9.403  14.942  69.125  1.00  0.00    -0.253 OA 
HETATM   18  C   UNL     1     -12.926  13.242  71.624  1.00  0.00    -0.441 C  
HETATM   19  C   UNL     1     -11.630  13.690  69.469  1.00  0.00    -0.361 C  
HETATM   20  C   UNL     1     -12.412  11.833  71.739  1.00  0.00    -0.011 C  
HETATM   21  H   UNL     1      -9.625  15.192  70.014  1.00  0.00     0.000 HD 
HETATM   22  C   UNL     1     -11.073  12.115  69.616  1.00  0.00    -0.046 C  
ENDROOT
BRANCH   4  23
HETATM   23  O   UNL     1      -8.299  11.286  68.283  1.00  0.00    -0.135 OA 
BRANCH  23  24
HETATM   24  C   UNL     1      -7.362  11.124  69.297  1.00  0.00    -0.097 C  
HETATM   25  O   UNL     1      -7.015  12.000  70.070  1.00  0.00     0.199 OA 
BRANCH  24  26
HETATM   26  O   UNL     1      -7.077   9.794  69.469  1.00  0.00    -0.060 OA 
BRANCH  26  27
HETATM   27  C   UNL     1      -5.825   9.567  70.157  1.00  0.00    -0.042 C  
HETATM   28  C   UNL     1      -5.974   9.020  71.573  1.00  0.00    -0.064 C  
ENDBRANCH  26  27
ENDBRANCH  24  26
ENDBRANCH  23  24
ENDBRANCH   4  23
BRANCH   4  29
HETATM   29  C   UNL     1      -7.819  13.509  67.398  1.00  0.00    -0.147 C  
HETATM   30  O   UNL     1      -6.843  13.010  66.830  1.00  0.00     0.035 OA 
BRANCH  29  31
HETATM   31  O   UNL     1      -7.778  14.879  67.593  1.00  0.00    -0.146 OA 
HETATM   32  C   UNL     1      -6.389  15.392  67.562  1.00  0.00    -0.118 C  
HETATM   33 CL   UNL     1      -5.555  15.136  69.124  1.00  0.00    -0.097 Cl 
ENDBRANCH  29  31
ENDBRANCH   4  29
TORSDOF 6
ENDMDL
MODEL      100
REMARK 921   NORMALIZED FREE ENERGY PREDICTED BY IDOCK:   -2.13 KCAL/MOL
REMARK 922        TOTAL FREE ENERGY PREDICTED BY IDOCK:   -2.57 KCAL/MOL
REMARK 923 INTER-LIGAND FREE ENERGY PREDICTED BY IDOCK:   -6.54 KCAL/MOL
REMARK 924 INTRA-LIGAND FREE ENERGY PREDICTED BY IDOCK:    3.98 KCAL/MOL
REMARK 927      BINDING AFFINITY PREDICTED BY RF-SCORE:    0.00 PKD
ROOT
HETATM    1  C   UNL     1      -9.148  13.463  66.700  1.00  0.00    -0.180 C  
HETATM    2  C   UNL     1      -9.523  13.172  65.363  1.00  0.00     0.218 C  
HETATM    3  C   UNL     1     -10.491  12.872  66.453  1.00  0.00    -0.278 C  
HETATM    4  C   UNL     1     -10.176  13.784  68.298  1.00  0.00    -0.245 C  
HETATM    5  C   UNL     1     -10.895  14.131  67.182  1.00  0.00    -0.291 C  
HETATM    6  C   UNL     1      -9.105   9.804  70.063  1.00  0.00    -0.258 C  
HETATM    7  C   UNL     1      -7.546  11.259  66.889  1.00  0.00    -0.148 C  
HETATM    8  C   UNL     1      -9.442   9.505  68.600  1.00  0.00    -0.143 C  
HETATM    9  C   UNL     1     -10.558   8.402  68.297  1.00  0.00    -0.163 C  
HETATM   10  C   UNL     1     -12.137  12.822  67.798  1.00  0.00    -0.191 C  
HETATM   11  C   UNL     1     -10.428   7.269  67.584  1.00  0.00    -0.310 C  
HETATM   12  C   UNL     1     -11.185  15.501  66.625  1.00  0.00    -0.118 C  
HETATM   13  O   UNL     1      -8.984   6.229  69.201  1.00  0.00    -0.127 OA 
HETATM   14  C   UNL     1     -11.341  11.522  68.575  1.00  0.00    -0.277 C  
HETATM   15  C   UNL     1      -9.078   6.940  68.213  1.00  0.00    -0.125 C  
HETATM   16  C   UNL     1      -7.980   7.734  67.641  1.00  0.00    -0.124 C  
HETATM   17  O   UNL     1     -11.111  11.976  69.915  1.00  0.00    -0.477 OA 
HETATM   18  C   UNL     1      -8.128   9.035  67.913  1.00  0.00    -0.106 C  
HETATM   19  C   UNL     1      -9.960  10.816  67.922  1.00  0.00    -0.196 C  
HETATM   20  C   UNL     1      -7.041  10.036  67.628  1.00  0.00    -0.087 C  
HETATM   21  H   UNL     1     -10.669  11.254  70.346  1.00  0.00     0.000 HD 
HETATM   22  C   UNL     1      -8.733  11.912  67.600  1.00  0.00    -0.162 C  
ENDROOT
BRANCH   4  23
HETATM   23  O   UNL     1      -9.085  14.971  68.425  1.00  0.00    -0.173 OA 
BRANCH  23  24
HETATM   24  C   UNL     1      -9.136  16.205  67.786  1.00  0.00    -0.197 C  
HETATM   25  O   UNL     1      -9.642  17.209  68.254  1.00  0.00    -0.261 OA 
BRANCH  24  26
HETATM   26  O   UNL     1      -8.322  16.199  66.683  1.00  0.00    -0.227 OA 
BRANCH  26  27
HETATM   27  C   UNL     1      -7.537  17.407  66.552  1.00  0.00    -0.282 C  
HETATM   28  C   UNL     1      -6.070  17.251  66.942  1.00  0.00    -0.221 C  
ENDBRANCH  26  27
ENDBRANCH  24  26
ENDBRANCH  23  24
ENDBRANCH   4  23
BRANCH   4  29
HETATM   29  C   UNL     1     -11.297  14.669  69.407  1.00  0.00    -0.284 C  
HETATM   30  O   UNL     1     -12.492  14.885  69.186  1.00  0.00    -0.114 OA 
BRANCH  29  31
HETATM   31  O   UNL     1     -10.786  15.206  70.577  1.00  0.00    -0.244 OA 
HETATM   32  C   UNL     1     -11.618  14.849  71.749  1.00  0.00    -0.275 C  
HETATM   33 CL   UNL     1     -13.056  15.903  71.884  1.00  0.00    -0.476 Cl 
ENDBRANCH  29  31
ENDBRANCH   4  29
TORSDOF 6
ENDMDL
MODEL      101
REMARK 921   NORMALIZED FREE ENERGY PREDICTED BY IDOCK:   -2.03 KCAL/MOL
REMARK 922        TOTAL FREE ENERGY PREDICTED BY IDOCK:   -2.43 KCAL/MOL
REMARK 923 INTER-LIGAND FREE ENERGY PREDICTED BY IDOCK:   -3.24 KCAL/MOL
REMARK 924 INTRA-LIGAND FREE ENERGY PREDICTED BY IDOCK:    0.82 KCAL/MOL
REMARK 927      BINDING AFFINITY PREDICTED BY RF-SCORE:    0.00 PKD
ROOT
HETATM    1  C   UNL     1      -9.515  14.854  66.650  1.00  0.00    -0.286 C  
HETATM    2  C   UNL     1     -10.551  14.703  65.694  1.00  0.00    -0.344 C  
HETATM    3  C   UNL     1     -10.588  15.883  66.601  1.00  0.00    -0.305 C  
HETATM    4  C   UNL     1      -8.830  16.389  67.595  1.00  0.00    -0.188 C  
HETATM    5  C   UNL     1      -9.380  16.764  66.395  1.00  0.00    -0.305 C  
HETATM    6  C   UNL     1     -10.678  15.112  71.476  1.00  0.00     0.294 C  
HETATM    7  C   UNL     1     -10.570  12.964  68.314  1.00  0.00    -0.259 C  
HETATM    8  C   UNL     1     -11.771  14.884  70.428  1.00  0.00    -0.347 C  
HETATM    9  C   UNL     1     -13.193  15.575  70.664  1.00  0.00    -0.293 C  
HETATM   10  C   UNL     1     -10.545  17.824  67.468  1.00  0.00    -0.365 C  
HETATM   11  C   UNL     1     -14.394  14.980  70.769  1.00  0.00     0.186 C  
HETATM   12  C   UNL     1      -8.689  17.147  65.111  1.00  0.00     2.510 C  
HETATM   13  O   UNL     1     -13.874  13.948  72.879  1.00  0.00    -0.662 OA 
HETATM   14  C   UNL     1     -10.887  17.062  68.960  1.00  0.00    -0.206 C  
HETATM   15  C   UNL     1     -13.847  13.868  71.661  1.00  0.00    -0.296 C  
HETATM   16  C   UNL     1     -13.115  12.844  70.901  1.00  0.00     0.015 C  
HETATM   17  O   UNL     1      -9.773  17.382  69.804  1.00  0.00     0.307 OA 
HETATM   18  C   UNL     1     -12.010  13.350  70.342  1.00  0.00    -0.358 C  
HETATM   19  C   UNL     1     -11.271  15.425  69.049  1.00  0.00    -0.295 C  
HETATM   20  C   UNL     1     -10.976  12.473  69.691  1.00  0.00     0.136 C  
HETATM   21  H   UNL     1      -9.962  16.958  70.633  1.00  0.00     0.000 HD 
HETATM   22  C   UNL     1     -10.129  14.428  68.333  1.00  0.00    -0.244 C  
ENDROOT
BRANCH   4  23
HETATM   23  O   UNL     1      -7.440  15.681  67.166  1.00  0.00    -0.200 OA 
BRANCH  23  24
HETATM   24  C   UNL     1      -6.738  14.736  67.905  1.00  0.00    -0.163 C  
HETATM   25  O   UNL     1      -6.972  14.446  69.064  1.00  0.00    -0.103 OA 
BRANCH  24  26
HETATM   26  O   UNL     1      -5.925  14.002  67.080  1.00  0.00    -0.201 OA 
BRANCH  26  27
HETATM   27  C   UNL     1      -5.467  12.770  67.686  1.00  0.00    -0.121 C  
HETATM   28  C   UNL     1      -6.404  11.583  67.485  1.00  0.00    -0.076 C  
ENDBRANCH  26  27
ENDBRANCH  24  26
ENDBRANCH  23  24
ENDBRANCH   4  23
BRANCH   4  29
HETATM   29  C   UNL     1      -7.982  17.972  67.806  1.00  0.00    -0.235 C  
HETATM   30  O   UNL     1      -8.403  19.062  67.407  1.00  0.00    -0.272 OA 
BRANCH  29  31
HETATM   31  O   UNL     1      -6.736  17.981  68.410  1.00  0.00    -0.204 OA 
HETATM   32  C   UNL     1      -5.966  19.194  68.051  1.00  0.00    -0.211 C  
HETATM   33 CL   UNL     1      -5.196  19.037  66.445  1.00  0.00    -0.153 Cl 
ENDBRANCH  29  31
ENDBRANCH   4  29
TORSDOF 6
ENDMDL
MODEL      102
REMARK 921   NORMALIZED FREE ENERGY PREDICTED BY IDOCK:   -2.02 KCAL/MOL
REMARK 922        TOTAL FREE ENERGY PREDICTED BY IDOCK:   -2.41 KCAL/MOL
REMARK 923 INTER-LIGAND FREE ENERGY PREDICTED BY IDOCK:   -4.49 KCAL/MOL
REMARK 924 INTRA-LIGAND FREE ENERGY PREDICTED BY IDOCK:    2.08 KCAL/MOL
REMARK 927      BINDING AFFINITY PREDICTED BY RF-SCORE:    0.00 PKD
ROOT
HETATM    1  C   UNL     1     -11.932  15.057  68.547  1.00  0.00    -0.257 C  
HETATM    2  C   UNL     1     -12.518  14.023  69.321  1.00  0.00    -0.046 C  
HETATM    3  C   UNL     1     -11.056  13.963  69.046  1.00  0.00    -0.302 C  
HETATM    4  C   UNL     1     -10.124  15.711  68.407  1.00  0.00    -0.214 C  
HETATM    5  C   UNL     1     -10.342  15.152  69.641  1.00  0.00    -0.238 C  
HETATM    6  C   UNL     1      -9.538  13.895  64.350  1.00  0.00     1.463 C  
HETATM    7  C   UNL     1     -12.883  14.044  66.197  1.00  0.00    -0.162 C  
HETATM    8  C   UNL     1     -10.236  12.805  65.168  1.00  0.00    -0.297 C  
HETATM    9  C   UNL     1      -9.540  11.369  65.256  1.00  0.00    -0.256 C  
HETATM   10  C   UNL     1      -8.933  13.965  69.152  1.00  0.00     0.362 C  
HETATM   11  C   UNL     1     -10.045  10.181  64.880  1.00  0.00    -0.277 C  
HETATM   12  C   UNL     1     -10.570  15.832  70.967  1.00  0.00     0.224 C  
HETATM   13  O   UNL     1     -10.000  10.725  62.538  1.00  0.00    -0.143 OA 
HETATM   14  C   UNL     1      -8.943  13.642  67.472  1.00  0.00    -0.209 C  
HETATM   15  C   UNL     1     -10.622  10.752  63.588  1.00  0.00    -0.002 C  
HETATM   16  C   UNL     1     -11.866  11.505  63.809  1.00  0.00    -0.237 C  
HETATM   17  O   UNL     1      -8.255  14.749  66.877  1.00  0.00    -0.306 OA 
HETATM   18  C   UNL     1     -11.647  12.598  64.548  1.00  0.00    -0.399 C  
HETATM   19  C   UNL     1     -10.369  13.292  66.649  1.00  0.00    -0.274 C  
HETATM   20  C   UNL     1     -12.705  13.650  64.744  1.00  0.00    -0.268 C  
HETATM   21  H   UNL     1      -8.261  14.570  65.944  1.00  0.00     0.000 HD 
HETATM   22  C   UNL     1     -11.561  14.454  66.848  1.00  0.00    -0.404 C  
ENDROOT
BRANCH   4  23
HETATM   23  O   UNL     1     -10.923  17.114  68.484  1.00  0.00    -0.317 OA 
BRANCH  23  24
HETATM   24  C   UNL     1     -10.930  18.110  67.513  1.00  0.00    -0.098 C  
HETATM   25  O   UNL     1     -11.193  19.281  67.719  1.00  0.00    -0.212 OA 
BRANCH  24  26
HETATM   26  O   UNL     1     -10.356  17.645  66.358  1.00  0.00    -0.354 OA 
BRANCH  26  27
HETATM   27  C   UNL     1      -9.185  18.398  65.965  1.00  0.00     0.019 C  
HETATM   28  C   UNL     1      -9.342  19.911  66.075  1.00  0.00    -0.370 C  
ENDBRANCH  26  27
ENDBRANCH  24  26
ENDBRANCH  23  24
ENDBRANCH   4  23
BRANCH   4  29
HETATM   29  C   UNL     1      -8.601  16.525  68.944  1.00  0.00    -0.241 C  
HETATM   30  O   UNL     1      -7.540  15.949  69.203  1.00  0.00    -0.188 OA 
BRANCH  29  31
HETATM   31  O   UNL     1      -8.617  17.895  69.142  1.00  0.00    -0.066 OA 
HETATM   32  C   UNL     1      -7.308  18.507  68.814  1.00  0.00    -0.290 C  
HETATM   33 CL   UNL     1      -6.137  18.319  70.153  1.00  0.00    -0.126 Cl 
ENDBRANCH  29  31
ENDBRANCH   4  29
TORSDOF 6
ENDMDL
MODEL      103
REMARK 921   NORMALIZED FREE ENERGY PREDICTED BY IDOCK:   -1.96 KCAL/MOL
REMARK 922        TOTAL FREE ENERGY PREDICTED BY IDOCK:   -2.34 KCAL/MOL
REMARK 923 INTER-LIGAND FREE ENERGY PREDICTED BY IDOCK:   -6.17 KCAL/MOL
REMARK 924 INTRA-LIGAND FREE ENERGY PREDICTED BY IDOCK:    3.83 KCAL/MOL
REMARK 927      BINDING AFFINITY PREDICTED BY RF-SCORE:    0.00 PKD
ROOT
HETATM    1  C   UNL     1      -9.964  11.230  68.542  1.00  0.00    -0.206 C  
HETATM    2  C   UNL     1      -8.862  11.550  69.375  1.00  0.00     0.630 C  
HETATM    3  C   UNL     1      -8.616  10.733  68.156  1.00  0.00    -0.129 C  
HETATM    4  C   UNL     1     -10.088  10.733  66.684  1.00  0.00    -0.218 C  
HETATM    5  C   UNL     1      -8.973  11.500  66.906  1.00  0.00    -0.179 C  
HETATM    6  C   UNL     1     -11.034   6.459  67.653  1.00  0.00    -0.441 C  
HETATM    7  C   UNL     1     -10.864   9.280  70.229  1.00  0.00    -0.286 C  
HETATM    8  C   UNL     1      -9.890   6.830  68.601  1.00  0.00    -0.142 C  
HETATM    9  C   UNL     1      -8.580   5.916  68.591  1.00  0.00    -0.110 C  
HETATM   10  C   UNL     1      -8.021   9.981  66.258  1.00  0.00    -0.111 C  
HETATM   11  C   UNL     1      -8.039   5.236  69.617  1.00  0.00    -0.091 C  
HETATM   12  C   UNL     1      -8.739  12.954  66.584  1.00  0.00    -0.046 C  
HETATM   13  O   UNL     1      -9.859   3.670  69.747  1.00  0.00    -0.151 OA 
HETATM   14  C   UNL     1      -8.799   8.523  66.697  1.00  0.00    -0.135 C  
HETATM   15  C   UNL     1      -9.398   4.742  70.104  1.00  0.00    -0.155 C  
HETATM   16  C   UNL     1     -10.143   5.775  70.840  1.00  0.00    -0.256 C  
HETATM   17  O   UNL     1      -9.823   8.337  65.711  1.00  0.00    -0.445 OA 
HETATM   18  C   UNL     1     -10.464   6.802  70.046  1.00  0.00    -0.241 C  
HETATM   19  C   UNL     1      -9.393   8.272  68.252  1.00  0.00    -0.138 C  
HETATM   20  C   UNL     1     -11.404   7.888  70.492  1.00  0.00    -0.242 C  
HETATM   21  H   UNL     1     -10.256   7.527  65.956  1.00  0.00     0.000 HD 
HETATM   22  C   UNL     1     -10.447   9.468  68.769  1.00  0.00    -0.243 C  
ENDROOT
BRANCH   4  23
HETATM   23  O   UNL     1     -11.301  11.800  66.770  1.00  0.00    -0.319 OA 
BRANCH  23  24
HETATM   24  C   UNL     1     -11.221  13.158  66.482  1.00  0.00    -0.310 C  
HETATM   25  O   UNL     1     -10.898  13.622  65.403  1.00  0.00    -0.286 OA 
BRANCH  24  26
HETATM   26  O   UNL     1     -11.798  13.888  67.489  1.00  0.00    -0.356 OA 
BRANCH  26  27
HETATM   27  C   UNL     1     -11.138  15.154  67.720  1.00  0.00    -0.313 C  
HETATM   28  C   UNL     1     -10.789  15.426  69.180  1.00  0.00    -0.249 C  
ENDBRANCH  26  27
ENDBRANCH  24  26
ENDBRANCH  23  24
ENDBRANCH   4  23
BRANCH   4  29
HETATM   29  C   UNL     1      -9.994  10.953  64.892  1.00  0.00    -0.303 C  
HETATM   30  O   UNL     1     -10.956  10.911  64.119  1.00  0.00    -0.225 OA 
BRANCH  29  31
HETATM   31  O   UNL     1      -8.750  11.128  64.310  1.00  0.00     0.006 OA 
HETATM   32  C   UNL     1      -8.787  10.858  62.854  1.00  0.00    -0.251 C  
HETATM   33 CL   UNL     1      -8.713   9.106  62.505  1.00  0.00    -0.224 Cl 
ENDBRANCH  29  31
ENDBRANCH   4  29
TORSDOF 6
ENDMDL
MODEL      104
REMARK 921   NORMALIZED FREE ENERGY PREDICTED BY IDOCK:   -1.96 KCAL/MOL
REMARK 922        TOTAL FREE ENERGY PREDICTED BY IDOCK:   -2.33 KCAL/MOL
REMARK 923 INTER-LIGAND FREE ENERGY PREDICTED BY IDOCK:   -2.91 KCAL/MOL
REMARK 924 INTRA-LIGAND FREE ENERGY PREDICTED BY IDOCK:    0.58 KCAL/MOL
REMARK 927      BINDING AFFINITY PREDICTED BY RF-SCORE:    0.00 PKD
ROOT
HETATM    1  C   UNL     1      -9.419   8.453  68.358  1.00  0.00    -0.145 C  
HETATM    2  C   UNL     1     -10.605   8.250  69.109  1.00  0.00    -0.179 C  
HETATM    3  C   UNL     1      -9.326   8.450  69.843  1.00  0.00    -0.155 C  
HETATM    4  C   UNL     1      -7.731   9.277  68.791  1.00  0.00    -0.083 C  
HETATM    5  C   UNL     1      -8.740   9.810  69.553  1.00  0.00    -0.193 C  
HETATM    6  C   UNL     1      -5.593   5.340  68.971  1.00  0.00    -0.008 C  
HETATM    7  C   UNL     1      -9.182   5.805  67.736  1.00  0.00    -0.105 C  
HETATM    8  C   UNL     1      -6.908   5.105  69.720  1.00  0.00    -0.052 C  
HETATM    9  C   UNL     1      -6.831   4.540  71.213  1.00  0.00    -0.031 C  
HETATM   10  C   UNL     1      -7.716   9.173  71.029  1.00  0.00    -0.132 C  
HETATM   11  C   UNL     1      -7.372   3.408  71.696  1.00  0.00    -0.043 C  
HETATM   12  C   UNL     1      -9.441  11.137  69.409  1.00  0.00     0.221 C  
HETATM   13  O   UNL     1      -5.900   1.980  70.440  1.00  0.00    -0.016 OA 
HETATM   14  C   UNL     1      -6.903   7.718  70.644  1.00  0.00    -0.042 C  
HETATM   15  C   UNL     1      -6.952   2.597  70.474  1.00  0.00    -0.033 C  
HETATM   16  C   UNL     1      -7.828   2.829  69.315  1.00  0.00    -0.052 C  
HETATM   17  O   UNL     1      -5.713   8.128  69.959  1.00  0.00    -0.023 OA 
HETATM   18  C   UNL     1      -7.738   4.092  68.883  1.00  0.00    -0.054 C  
HETATM   19  C   UNL     1      -7.676   6.463  69.831  1.00  0.00    -0.109 C  
HETATM   20  C   UNL     1      -8.365   4.536  67.590  1.00  0.00    -0.099 C  
HETATM   21  H   UNL     1      -5.262   7.320  69.744  1.00  0.00     0.000 HD 
HETATM   22  C   UNL     1      -8.379   6.934  68.383  1.00  0.00    -0.120 C  
ENDROOT
BRANCH   4  23
HETATM   23  O   UNL     1      -7.988   9.917  67.328  1.00  0.00    -0.108 OA 
BRANCH  23  24
HETATM   24  C   UNL     1      -7.498   9.429  66.121  1.00  0.00    -0.096 C  
HETATM   25  O   UNL     1      -6.618   8.594  66.014  1.00  0.00    -0.056 OA 
BRANCH  24  26
HETATM   26  O   UNL     1      -8.311   9.822  65.090  1.00  0.00    -0.128 OA 
BRANCH  26  27
HETATM   27  C   UNL     1      -9.494  10.524  65.536  1.00  0.00    -0.216 C  
HETATM   28  C   UNL     1     -10.399  11.015  64.411  1.00  0.00    -0.424 C  
ENDBRANCH  26  27
ENDBRANCH  24  26
ENDBRANCH  23  24
ENDBRANCH   4  23
BRANCH   4  29
HETATM   29  C   UNL     1      -6.589  10.618  69.200  1.00  0.00    -0.061 C  
HETATM   30  O   UNL     1      -6.228  10.922  70.340  1.00  0.00    -0.143 OA 
BRANCH  29  31
HETATM   31  O   UNL     1      -6.112  11.418  68.174  1.00  0.00    -0.046 OA 
HETATM   32  C   UNL     1      -5.721  12.759  68.667  1.00  0.00    -0.067 C  
HETATM   33 CL   UNL     1      -7.138  13.833  68.857  1.00  0.00    -0.110 Cl 
ENDBRANCH  29  31
ENDBRANCH   4  29
TORSDOF 6
ENDMDL
MODEL      105
REMARK 921   NORMALIZED FREE ENERGY PREDICTED BY IDOCK:   -1.86 KCAL/MOL
REMARK 922        TOTAL FREE ENERGY PREDICTED BY IDOCK:   -2.21 KCAL/MOL
REMARK 923 INTER-LIGAND FREE ENERGY PREDICTED BY IDOCK:   -4.43 KCAL/MOL
REMARK 924 INTRA-LIGAND FREE ENERGY PREDICTED BY IDOCK:    2.23 KCAL/MOL
REMARK 927      BINDING AFFINITY PREDICTED BY RF-SCORE:    0.00 PKD
ROOT
HETATM    1  C   UNL     1      -7.923  11.295  68.270  1.00  0.00    -0.134 C  
HETATM    2  C   UNL     1      -8.684  11.590  69.429  1.00  0.00     0.614 C  
HETATM    3  C   UNL     1      -9.240  10.625  68.441  1.00  0.00    -0.159 C  
HETATM    4  C   UNL     1      -7.922   9.792  67.062  1.00  0.00    -0.105 C  
HETATM    5  C   UNL     1      -8.352   9.412  68.308  1.00  0.00    -0.119 C  
HETATM    6  C   UNL     1      -9.899  12.129  63.786  1.00  0.00    -0.259 C  
HETATM    7  C   UNL     1      -8.596  13.642  67.047  1.00  0.00    -0.173 C  
HETATM    8  C   UNL     1     -10.674  12.500  65.054  1.00  0.00    -0.326 C  
HETATM    9  C   UNL     1     -12.259  12.295  65.052  1.00  0.00    -0.374 C  
HETATM   10  C   UNL     1      -9.954   8.912  67.403  1.00  0.00    -0.267 C  
HETATM   11  C   UNL     1     -13.213  13.221  65.254  1.00  0.00     0.240 C  
HETATM   12  C   UNL     1      -7.612   8.653  69.380  1.00  0.00    -0.092 C  
HETATM   13  O   UNL     1     -12.757  14.370  63.191  1.00  0.00    -0.397 OA 
HETATM   14  C   UNL     1     -10.284   9.961  66.093  1.00  0.00    -0.207 C  
HETATM   15  C   UNL     1     -12.503  14.250  64.379  1.00  0.00    -0.300 C  
HETATM   16  C   UNL     1     -11.370  14.889  65.065  1.00  0.00    -0.398 C  
HETATM   17  O   UNL     1      -9.485   9.466  65.011  1.00  0.00    -0.398 OA 
HETATM   18  C   UNL     1     -10.403  14.006  65.333  1.00  0.00    -0.377 C  
HETATM   19  C   UNL     1     -10.145  11.632  66.242  1.00  0.00    -0.254 C  
HETATM   20  C   UNL     1      -9.052  14.435  65.838  1.00  0.00     0.195 C  
HETATM   21  H   UNL     1      -9.668  10.049  64.284  1.00  0.00     0.000 HD 
HETATM   22  C   UNL     1      -8.645  12.134  66.799  1.00  0.00    -0.163 C  
ENDROOT
BRANCH   4  23
HETATM   23  O   UNL     1      -6.329   9.993  67.261  1.00  0.00    -0.065 OA 
BRANCH  23  24
HETATM   24  C   UNL     1      -5.637  11.196  67.176  1.00  0.00    -0.065 C  
HETATM   25  O   UNL     1      -5.136  11.778  68.121  1.00  0.00    -0.043 OA 
BRANCH  24  26
HETATM   26  O   UNL     1      -5.376  11.498  65.865  1.00  0.00    -0.285 OA 
BRANCH  26  27
HETATM   27  C   UNL     1      -5.136  10.327  65.050  1.00  0.00    -0.086 C  
HETATM   28  C   UNL     1      -6.035  10.217  63.823  1.00  0.00    -0.138 C  
ENDBRANCH  26  27
ENDBRANCH  24  26
ENDBRANCH  23  24
ENDBRANCH   4  23
BRANCH   4  29
HETATM   29  C   UNL     1      -7.661   8.084  66.531  1.00  0.00    -0.093 C  
HETATM   30  O   UNL     1      -8.472   7.164  66.672  1.00  0.00    -0.113 OA 
BRANCH  29  31
HETATM   31  O   UNL     1      -6.442   7.744  65.968  1.00  0.00    -0.042 OA 
HETATM   32  C   UNL     1      -6.229   6.278  65.977  1.00  0.00    -0.037 C  
HETATM   33 CL   UNL     1      -5.664   5.701  67.573  1.00  0.00    -0.012 Cl 
ENDBRANCH  29  31
ENDBRANCH   4  29
TORSDOF 6
ENDMDL
MODEL      106
REMARK 921   NORMALIZED FREE ENERGY PREDICTED BY IDOCK:   -1.86 KCAL/MOL
REMARK 922        TOTAL FREE ENERGY PREDICTED BY IDOCK:   -2.20 KCAL/MOL
REMARK 923 INTER-LIGAND FREE ENERGY PREDICTED BY IDOCK:   -4.20 KCAL/MOL
REMARK 924 INTRA-LIGAND FREE ENERGY PREDICTED BY IDOCK:    2.00 KCAL/MOL
REMARK 927      BINDING AFFINITY PREDICTED BY RF-SCORE:    0.00 PKD
ROOT
HETATM    1  C   UNL     1      -6.530  13.717  68.822  1.00  0.00    -0.097 C  
HETATM    2  C   UNL     1      -5.287  13.699  68.141  1.00  0.00    -0.109 C  
HETATM    3  C   UNL     1      -6.463  13.062  67.488  1.00  0.00    -0.159 C  
HETATM    4  C   UNL     1      -8.351  13.560  68.209  1.00  0.00    -0.165 C  
HETATM    5  C   UNL     1      -7.550  14.074  67.221  1.00  0.00    -0.094 C  
HETATM    6  C   UNL     1      -8.794   9.417  69.863  1.00  0.00    -0.212 C  
HETATM    7  C   UNL     1      -5.801  11.704  70.518  1.00  0.00    -0.128 C  
HETATM    8  C   UNL     1      -7.420   9.423  69.187  1.00  0.00    -0.073 C  
HETATM    9  C   UNL     1      -7.122   8.308  68.081  1.00  0.00    -0.082 C  
HETATM   10  C   UNL     1      -8.096  12.540  66.231  1.00  0.00     0.607 C  
HETATM   11  C   UNL     1      -6.144   7.386  68.081  1.00  0.00    -0.035 C  
HETATM   12  C   UNL     1      -7.426  15.498  66.741  1.00  0.00     0.019 C  
HETATM   13  O   UNL     1      -7.080   6.161  69.926  1.00  0.00    -0.067 OA 
HETATM   14  C   UNL     1      -8.327  11.187  67.252  1.00  0.00    -0.135 C  
HETATM   15  C   UNL     1      -6.345   7.063  69.558  1.00  0.00    -0.035 C  
HETATM   16  C   UNL     1      -5.748   8.075  70.443  1.00  0.00    -0.025 C  
HETATM   17  O   UNL     1      -9.647  11.347  67.787  1.00  0.00    -0.166 OA 
HETATM   18  C   UNL     1      -6.356   9.258  70.309  1.00  0.00    -0.051 C  
HETATM   19  C   UNL     1      -7.221  10.793  68.458  1.00  0.00    -0.088 C  
HETATM   20  C   UNL     1      -6.082  10.404  71.245  1.00  0.00     0.218 C  
HETATM   21  H   UNL     1      -9.775  10.596  68.354  1.00  0.00     0.000 HD 
HETATM   22  C   UNL     1      -6.903  12.053  69.517  1.00  0.00     0.021 C  
ENDROOT
BRANCH   4  23
HETATM   23  O   UNL     1      -8.509  14.794  69.244  1.00  0.00    -0.136 OA 
BRANCH  23  24
HETATM   24  C   UNL     1      -9.647  15.570  69.427  1.00  0.00    -0.279 C  
HETATM   25  O   UNL     1     -10.649  15.208  70.018  1.00  0.00    -0.256 OA 
BRANCH  24  26
HETATM   26  O   UNL     1      -9.391  16.872  69.080  1.00  0.00    -0.255 OA 
BRANCH  26  27
HETATM   27  C   UNL     1     -10.535  17.538  68.494  1.00  0.00    -0.361 C  
HETATM   28  C   UNL     1     -10.190  18.520  67.380  1.00  0.00    -0.401 C  
ENDBRANCH  26  27
ENDBRANCH  24  26
ENDBRANCH  23  24
ENDBRANCH   4  23
BRANCH   4  29
HETATM   29  C   UNL     1      -9.870  14.052  67.359  1.00  0.00    -0.240 C  
HETATM   30  O   UNL     1      -9.925  14.789  66.371  1.00  0.00    -0.255 OA 
BRANCH  29  31
HETATM   31  O   UNL     1     -11.084  13.625  67.872  1.00  0.00    -0.248 OA 
HETATM   32  C   UNL     1     -11.887  12.915  66.850  1.00  0.00    -0.379 C  
HETATM   33 CL   UNL     1     -12.736  14.056  65.767  1.00  0.00    -0.534 Cl 
ENDBRANCH  29  31
ENDBRANCH   4  29
TORSDOF 6
ENDMDL
MODEL      107
REMARK 921   NORMALIZED FREE ENERGY PREDICTED BY IDOCK:   -1.40 KCAL/MOL
REMARK 922        TOTAL FREE ENERGY PREDICTED BY IDOCK:   -1.57 KCAL/MOL
REMARK 923 INTER-LIGAND FREE ENERGY PREDICTED BY IDOCK:   -5.77 KCAL/MOL
REMARK 924 INTRA-LIGAND FREE ENERGY PREDICTED BY IDOCK:    4.19 KCAL/MOL
REMARK 927      BINDING AFFINITY PREDICTED BY RF-SCORE:    0.00 PKD
ROOT
HETATM    1  C   UNL     1      -8.175  15.528  67.501  1.00  0.00    -0.182 C  
HETATM    2  C   UNL     1      -7.987  15.724  66.109  1.00  0.00     0.441 C  
HETATM    3  C   UNL     1      -9.057  14.791  66.556  1.00  0.00    -0.291 C  
HETATM    4  C   UNL     1      -9.685  14.924  68.537  1.00  0.00    -0.215 C  
HETATM    5  C   UNL     1     -10.102  15.514  67.370  1.00  0.00    -0.246 C  
HETATM    6  C   UNL     1      -7.805  10.942  69.382  1.00  0.00    -0.048 C  
HETATM    7  C   UNL     1      -6.010  13.878  67.714  1.00  0.00    -0.117 C  
HETATM    8  C   UNL     1      -7.542  11.191  67.894  1.00  0.00    -0.099 C  
HETATM    9  C   UNL     1      -8.017  10.077  66.852  1.00  0.00    -0.113 C  
HETATM   10  C   UNL     1     -10.893  13.818  67.008  1.00  0.00    -0.288 C  
HETATM   11  C   UNL     1      -7.264   9.395  65.971  1.00  0.00    -0.092 C  
HETATM   12  C   UNL     1     -10.696  16.883  67.156  1.00  0.00    -0.180 C  
HETATM   13  O   UNL     1      -6.106   8.159  67.678  1.00  0.00    -0.048 OA 
HETATM   14  C   UNL     1      -9.949  12.540  67.645  1.00  0.00    -0.201 C  
HETATM   15  C   UNL     1      -6.151   9.165  66.989  1.00  0.00    -0.057 C  
HETATM   16  C   UNL     1      -5.309  10.355  67.182  1.00  0.00    -0.041 C  
HETATM   17  O   UNL     1     -10.326  12.453  69.025  1.00  0.00    -0.412 OA 
HETATM   18  C   UNL     1      -6.006  11.361  67.723  1.00  0.00    -0.049 C  
HETATM   19  C   UNL     1      -8.276  12.503  67.463  1.00  0.00    -0.175 C  
HETATM   20  C   UNL     1      -5.338  12.615  68.217  1.00  0.00    -0.065 C  
HETATM   21  H   UNL     1      -9.802  11.744  69.379  1.00  0.00     0.000 HD 
HETATM   22  C   UNL     1      -7.510  13.889  68.012  1.00  0.00    -0.135 C  
ENDROOT
BRANCH   4  23
HETATM   23  O   UNL     1      -9.208  16.178  69.441  1.00  0.00    -0.248 OA 
BRANCH  23  24
HETATM   24  C   UNL     1      -9.245  17.517  69.071  1.00  0.00    -0.072 C  
HETATM   25  O   UNL     1     -10.120  18.303  69.387  1.00  0.00    -0.197 OA 
BRANCH  24  26
HETATM   26  O   UNL     1      -8.043  17.889  68.525  1.00  0.00    -0.290 OA 
BRANCH  26  27
HETATM   27  C   UNL     1      -7.577  19.173  69.001  1.00  0.00    -0.302 C  
HETATM   28  C   UNL     1      -6.093  19.216  69.349  1.00  0.00    -0.291 C  
ENDBRANCH  26  27
ENDBRANCH  24  26
ENDBRANCH  23  24
ENDBRANCH   4  23
BRANCH   4  29
HETATM   29  C   UNL     1     -11.336  14.996  69.271  1.00  0.00    -0.296 C  
HETATM   30  O   UNL     1     -12.268  15.691  68.857  1.00  0.00    -0.251 OA 
BRANCH  29  31
HETATM   31  O   UNL     1     -11.581  14.265  70.422  1.00  0.00    -0.264 OA 
HETATM   32  C   UNL     1     -12.614  14.910  71.266  1.00  0.00    -0.331 C  
HETATM   33 CL   UNL     1     -11.929  16.240  72.246  1.00  0.00    -0.614 Cl 
ENDBRANCH  29  31
ENDBRANCH   4  29
TORSDOF 6
ENDMDL
MODEL      108
REMARK 921   NORMALIZED FREE ENERGY PREDICTED BY IDOCK:   -1.30 KCAL/MOL
REMARK 922        TOTAL FREE ENERGY PREDICTED BY IDOCK:   -1.44 KCAL/MOL
REMARK 923 INTER-LIGAND FREE ENERGY PREDICTED BY IDOCK:   -4.44 KCAL/MOL
REMARK 924 INTRA-LIGAND FREE ENERGY PREDICTED BY IDOCK:    3.00 KCAL/MOL
REMARK 927      BINDING AFFINITY PREDICTED BY RF-SCORE:    0.00 PKD
ROOT
HETATM    1  C   UNL     1      -6.450  17.368  66.950  1.00  0.00    -0.219 C  
HETATM    2  C   UNL     1      -5.777  17.122  65.726  1.00  0.00     0.607 C  
HETATM    3  C   UNL     1      -7.126  17.750  65.681  1.00  0.00    -0.039 C  
HETATM    4  C   UNL     1      -7.852  18.596  67.439  1.00  0.00    -0.232 C  
HETATM    5  C   UNL     1      -7.126  19.086  66.383  1.00  0.00    -0.248 C  
HETATM    6  C   UNL     1     -10.922  15.340  67.717  1.00  0.00    -0.312 C  
HETATM    7  C   UNL     1      -7.172  14.752  67.252  1.00  0.00    -0.114 C  
HETATM    8  C   UNL     1     -10.146  15.037  66.432  1.00  0.00    -0.289 C  
HETATM    9  C   UNL     1     -10.974  14.885  65.074  1.00  0.00    -0.432 C  
HETATM   10  C   UNL     1      -8.791  19.053  65.456  1.00  0.00     0.932 C  
HETATM   11  C   UNL     1     -11.025  13.822  64.252  1.00  0.00    -0.268 C  
HETATM   12  C   UNL     1      -6.074  20.166  66.372  1.00  0.00    -0.196 C  
HETATM   13  O   UNL     1     -12.215  12.456  65.833  1.00  0.00    -0.629 OA 
HETATM   14  C   UNL     1      -9.764  17.742  65.968  1.00  0.00    -0.130 C  
HETATM   15  C   UNL     1     -11.135  12.837  65.412  1.00  0.00    -0.284 C  
HETATM   16  C   UNL     1      -9.842  12.594  66.071  1.00  0.00    -0.260 C  
HETATM   17  O   UNL     1     -10.407  18.203  67.164  1.00  0.00    -0.349 OA 
HETATM   18  C   UNL     1      -9.382  13.702  66.662  1.00  0.00    -0.265 C  
HETATM   19  C   UNL     1      -9.130  16.197  66.170  1.00  0.00    -0.382 C  
HETATM   20  C   UNL     1      -8.191  13.678  67.580  1.00  0.00    -0.189 C  
HETATM   21  H   UNL     1     -10.947  17.475  67.449  1.00  0.00     0.000 HD 
HETATM   22  C   UNL     1      -7.803  16.144  67.194  1.00  0.00    -0.234 C  
ENDROOT
BRANCH   4  23
HETATM   23  O   UNL     1      -6.858  18.790  68.700  1.00  0.00    -0.252 OA 
BRANCH  23  24
HETATM   24  C   UNL     1      -6.636  17.870  69.719  1.00  0.00     0.021 C  
HETATM   25  O   UNL     1      -7.151  16.768  69.786  1.00  0.00    -0.021 OA 
BRANCH  24  26
HETATM   26  O   UNL     1      -5.573  18.267  70.488  1.00  0.00    -0.241 OA 
BRANCH  26  27
HETATM   27  C   UNL     1      -5.386  19.702  70.500  1.00  0.00    -0.231 C  
HETATM   28  C   UNL     1      -5.143  20.295  71.883  1.00  0.00    -0.372 C  
ENDBRANCH  26  27
ENDBRANCH  24  26
ENDBRANCH  23  24
ENDBRANCH   4  23
BRANCH   4  29
HETATM   29  C   UNL     1      -8.621  20.199  67.772  1.00  0.00    -0.254 C  
HETATM   30  O   UNL     1      -8.054  21.292  67.679  1.00  0.00    -0.115 OA 
BRANCH  29  31
HETATM   31  O   UNL     1      -9.930  20.225  68.222  1.00  0.00    -0.354 OA 
HETATM   32  C   UNL     1     -10.012  19.956  69.676  1.00  0.00     0.102 C  
HETATM   33 CL   UNL     1      -9.916  18.205  70.030  1.00  0.00     0.807 Cl 
ENDBRANCH  29  31
ENDBRANCH   4  29
TORSDOF 6
ENDMDL
MODEL      109
REMARK 921   NORMALIZED FREE ENERGY PREDICTED BY IDOCK:   -1.27 KCAL/MOL
REMARK 922        TOTAL FREE ENERGY PREDICTED BY IDOCK:   -1.41 KCAL/MOL
REMARK 923 INTER-LIGAND FREE ENERGY PREDICTED BY IDOCK:   -3.90 KCAL/MOL
REMARK 924 INTRA-LIGAND FREE ENERGY PREDICTED BY IDOCK:    2.49 KCAL/MOL
REMARK 927      BINDING AFFINITY PREDICTED BY RF-SCORE:    0.00 PKD
ROOT
HETATM    1  C   UNL     1      -9.650   5.510  70.079  1.00  0.00    -0.218 C  
HETATM    2  C   UNL     1     -10.979   5.052  69.895  1.00  0.00     0.693 C  
HETATM    3  C   UNL     1     -10.284   5.690  68.745  1.00  0.00    -0.269 C  
HETATM    4  C   UNL     1      -8.211   5.853  68.843  1.00  0.00    -0.103 C  
HETATM    5  C   UNL     1      -9.062   4.901  68.342  1.00  0.00    -0.141 C  
HETATM    6  C   UNL     1      -8.596  10.299  69.271  1.00  0.00    -0.175 C  
HETATM    7  C   UNL     1     -10.447   7.744  71.431  1.00  0.00    -0.237 C  
HETATM    8  C   UNL     1     -10.036   9.792  69.144  1.00  0.00    -0.195 C  
HETATM    9  C   UNL     1     -10.954  10.421  67.998  1.00  0.00    -0.347 C  
HETATM   10  C   UNL     1      -9.307   6.134  66.909  1.00  0.00    -0.143 C  
HETATM   11  C   UNL     1     -12.125  11.068  68.139  1.00  0.00     0.135 C  
HETATM   12  C   UNL     1      -8.879   3.406  68.265  1.00  0.00    -0.159 C  
HETATM   13  O   UNL     1     -11.124  12.973  69.213  1.00  0.00    -0.220 OA 
HETATM   14  C   UNL     1      -9.219   7.752  67.456  1.00  0.00    -0.132 C  
HETATM   15  C   UNL     1     -11.624  11.866  69.339  1.00  0.00    -0.325 C  
HETATM   16  C   UNL     1     -11.614  11.074  70.578  1.00  0.00    -0.344 C  
HETATM   17  O   UNL     1      -7.818   8.050  67.511  1.00  0.00    -0.113 OA 
HETATM   18  C   UNL     1     -10.739  10.065  70.503  1.00  0.00    -0.352 C  
HETATM   19  C   UNL     1     -10.007   8.255  68.855  1.00  0.00    -0.193 C  
HETATM   20  C   UNL     1     -10.380   9.234  71.705  1.00  0.00    -0.300 C  
HETATM   21  H   UNL     1      -7.769   8.948  67.815  1.00  0.00     0.000 HD 
HETATM   22  C   UNL     1      -9.618   7.346  70.209  1.00  0.00    -0.165 C  
ENDROOT
BRANCH   4  23
HETATM   23  O   UNL     1      -7.404   5.062  70.001  1.00  0.00    -0.057 OA 
BRANCH  23  24
HETATM   24  C   UNL     1      -7.130   5.534  71.280  1.00  0.00    -0.071 C  
HETATM   25  O   UNL     1      -7.034   4.836  72.273  1.00  0.00    -0.057 OA 
BRANCH  24  26
HETATM   26  O   UNL     1      -6.735   6.846  71.223  1.00  0.00    -0.055 OA 
BRANCH  26  27
HETATM   27  C   UNL     1      -5.958   7.253  72.374  1.00  0.00    -0.040 C  
HETATM   28  C   UNL     1      -6.674   8.224  73.306  1.00  0.00    -0.133 C  
ENDBRANCH  26  27
ENDBRANCH  24  26
ENDBRANCH  23  24
ENDBRANCH   4  23
BRANCH   4  29
HETATM   29  C   UNL     1      -6.917   5.458  67.643  1.00  0.00    -0.066 C  
HETATM   30  O   UNL     1      -6.688   4.333  67.189  1.00  0.00    -0.045 OA 
BRANCH  29  31
HETATM   31  O   UNL     1      -6.067   6.470  67.228  1.00  0.00    -0.026 OA 
HETATM   32  C   UNL     1      -6.214   6.743  65.779  1.00  0.00    -0.039 C  
HETATM   33 CL   UNL     1      -5.306   5.563  64.789  1.00  0.00    -0.010 Cl 
ENDBRANCH  29  31
ENDBRANCH   4  29
TORSDOF 6
ENDMDL
MODEL      110
REMARK 921   NORMALIZED FREE ENERGY PREDICTED BY IDOCK:   -1.23 KCAL/MOL
REMARK 922        TOTAL FREE ENERGY PREDICTED BY IDOCK:   -1.35 KCAL/MOL
REMARK 923 INTER-LIGAND FREE ENERGY PREDICTED BY IDOCK:   -2.78 KCAL/MOL
REMARK 924 INTRA-LIGAND FREE ENERGY PREDICTED BY IDOCK:    1.43 KCAL/MOL
REMARK 927      BINDING AFFINITY PREDICTED BY RF-SCORE:    0.00 PKD
ROOT
HETATM    1  C   UNL     1      -8.549  14.520  67.611  1.00  0.00    -0.184 C  
HETATM    2  C   UNL     1      -7.465  15.050  66.866  1.00  0.00     0.162 C  
HETATM    3  C   UNL     1      -8.236  13.915  66.288  1.00  0.00     1.093 C  
HETATM    4  C   UNL     1     -10.111  13.514  67.097  1.00  0.00    -0.245 C  
HETATM    5  C   UNL     1      -9.677  14.298  66.058  1.00  0.00    -0.312 C  
HETATM    6  C   UNL     1      -8.521   9.708  68.854  1.00  0.00    -0.125 C  
HETATM    7  C   UNL     1      -6.907  13.145  69.305  1.00  0.00    -0.024 C  
HETATM    8  C   UNL     1      -7.332  10.320  68.107  1.00  0.00    -0.085 C  
HETATM    9  C   UNL     1      -6.593   9.424  67.010  1.00  0.00    -0.068 C  
HETATM   10  C   UNL     1      -9.486  12.645  65.129  1.00  0.00     0.233 C  
HETATM   11  C   UNL     1      -5.299   9.059  66.976  1.00  0.00    -0.040 C  
HETATM   12  C   UNL     1     -10.246  15.596  65.544  1.00  0.00    -0.414 C  
HETATM   13  O   UNL     1      -5.491   7.618  68.892  1.00  0.00    -0.021 OA 
HETATM   14  C   UNL     1      -9.025  11.383  66.188  1.00  0.00    -0.201 C  
HETATM   15  C   UNL     1      -5.273   8.742  68.468  1.00  0.00    -0.037 C  
HETATM   16  C   UNL     1      -5.180   9.951  69.300  1.00  0.00    -0.035 C  
HETATM   17  O   UNL     1     -10.248  10.937  66.788  1.00  0.00    -0.214 OA 
HETATM   18  C   UNL     1      -6.273  10.713  69.175  1.00  0.00    -0.043 C  
HETATM   19  C   UNL     1      -7.819  11.594  67.342  1.00  0.00    -0.147 C  
HETATM   20  C   UNL     1      -6.526  11.893  70.072  1.00  0.00     0.001 C  
HETATM   21  H   UNL     1      -9.992  10.236  67.376  1.00  0.00     0.000 HD 
HETATM   22  C   UNL     1      -8.082  12.903  68.357  1.00  0.00    -0.130 C  
ENDROOT
BRANCH   4  23
HETATM   23  O   UNL     1     -10.784  14.577  68.114  1.00  0.00    -0.233 OA 
BRANCH  23  24
HETATM   24  C   UNL     1     -11.359  14.284  69.345  1.00  0.00    -0.282 C  
HETATM   25  O   UNL     1     -11.568  13.160  69.766  1.00  0.00    -0.275 OA 
BRANCH  24  26
HETATM   26  O   UNL     1     -11.421  15.415  70.118  1.00  0.00    -0.266 OA 
BRANCH  26  27
HETATM   27  C   UNL     1     -11.527  15.130  71.532  1.00  0.00    -0.365 C  
HETATM   28  C   UNL     1     -12.932  14.761  71.997  1.00  0.00    -0.407 C  
ENDBRANCH  26  27
ENDBRANCH  24  26
ENDBRANCH  23  24
ENDBRANCH   4  23
BRANCH   4  29
HETATM   29  C   UNL     1     -11.715  13.211  66.319  1.00  0.00    -0.375 C  
HETATM   30  O   UNL     1     -12.028  12.183  65.711  1.00  0.00    -0.536 OA 
BRANCH  29  31
HETATM   31  O   UNL     1     -12.665  14.219  66.345  1.00  0.00    -0.314 OA 
HETATM   32  C   UNL     1     -13.458  14.251  65.094  1.00  0.00     0.829 C  
HETATM   33 CL   UNL     1     -12.587  15.093  63.779  1.00  0.00     0.278 Cl 
ENDBRANCH  29  31
ENDBRANCH   4  29
TORSDOF 6
ENDMDL
MODEL      111
REMARK 921   NORMALIZED FREE ENERGY PREDICTED BY IDOCK:   -1.19 KCAL/MOL
REMARK 922        TOTAL FREE ENERGY PREDICTED BY IDOCK:   -1.29 KCAL/MOL
REMARK 923 INTER-LIGAND FREE ENERGY PREDICTED BY IDOCK:   -6.73 KCAL/MOL
REMARK 924 INTRA-LIGAND FREE ENERGY PREDICTED BY IDOCK:    5.44 KCAL/MOL
REMARK 927      BINDING AFFINITY PREDICTED BY RF-SCORE:    0.00 PKD
ROOT
HETATM    1  C   UNL     1      -6.869  15.305  68.260  1.00  0.00    -0.122 C  
HETATM    2  C   UNL     1      -5.937  14.752  67.346  1.00  0.00     0.220 C  
HETATM    3  C   UNL     1      -6.894  15.778  66.849  1.00  0.00     0.064 C  
HETATM    4  C   UNL     1      -7.860  16.959  68.265  1.00  0.00    -0.208 C  
HETATM    5  C   UNL     1      -6.693  17.096  67.556  1.00  0.00    -0.160 C  
HETATM    6  C   UNL     1     -11.731  14.910  67.309  1.00  0.00    -0.308 C  
HETATM    7  C   UNL     1      -8.479  13.100  68.184  1.00  0.00    -0.173 C  
HETATM    8  C   UNL     1     -10.706  14.265  66.372  1.00  0.00    -0.297 C  
HETATM    9  C   UNL     1     -11.011  14.275  64.804  1.00  0.00    -0.408 C  
HETATM   10  C   UNL     1      -7.842  17.526  66.098  1.00  0.00    -0.281 C  
HETATM   11  C   UNL     1     -11.123  13.220  63.977  1.00  0.00    -0.342 C  
HETATM   12  C   UNL     1      -5.408  17.772  67.961  1.00  0.00    -0.145 C  
HETATM   13  O   UNL     1     -13.171  12.453  64.978  1.00  0.00    -0.607 OA 
HETATM   14  C   UNL     1      -9.310  16.650  66.179  1.00  0.00    -0.284 C  
HETATM   15  C   UNL     1     -11.951  12.425  64.983  1.00  0.00    -0.402 C  
HETATM   16  C   UNL     1     -11.127  11.833  66.049  1.00  0.00    -0.363 C  
HETATM   17  O   UNL     1     -10.135  17.393  67.086  1.00  0.00    -0.288 OA 
HETATM   18  C   UNL     1     -10.560  12.778  66.806  1.00  0.00    -0.266 C  
HETATM   19  C   UNL     1      -9.338  15.005  66.534  1.00  0.00    -0.309 C  
HETATM   20  C   UNL     1      -9.843  12.446  68.086  1.00  0.00    -0.213 C  
HETATM   21  H   UNL     1     -10.950  16.906  67.131  1.00  0.00     0.000 HD 
HETATM   22  C   UNL     1      -8.548  14.612  67.959  1.00  0.00    -0.162 C  
ENDROOT
BRANCH   4  23
HETATM   23  O   UNL     1      -7.362  16.926  69.804  1.00  0.00     0.141 OA 
BRANCH  23  24
HETATM   24  C   UNL     1      -6.063  16.696  70.241  1.00  0.00     0.044 C  
HETATM   25  O   UNL     1      -5.200  17.550  70.337  1.00  0.00    -0.217 OA 
BRANCH  24  26
HETATM   26  O   UNL     1      -5.963  15.442  70.787  1.00  0.00    -0.044 OA 
BRANCH  26  27
HETATM   27  C   UNL     1      -5.140  15.405  71.976  1.00  0.00    -0.035 C  
HETATM   28  C   UNL     1      -5.658  14.482  73.073  1.00  0.00    -0.028 C  
ENDBRANCH  26  27
ENDBRANCH  24  26
ENDBRANCH  23  24
ENDBRANCH   4  23
BRANCH   4  29
HETATM   29  C   UNL     1      -8.116  18.746  68.365  1.00  0.00    -0.340 C  
HETATM   30  O   UNL     1      -8.627  19.339  69.320  1.00  0.00    -0.201 OA 
BRANCH  29  31
HETATM   31  O   UNL     1      -7.771  19.527  67.275  1.00  0.00    -0.246 OA 
HETATM   32  C   UNL     1      -8.747  20.619  67.057  1.00  0.00    -0.167 C  
HETATM   33 CL   UNL     1     -10.203  20.042  66.193  1.00  0.00    -0.588 Cl 
ENDBRANCH  29  31
ENDBRANCH   4  29
TORSDOF 6
ENDMDL
MODEL      112
REMARK 921   NORMALIZED FREE ENERGY PREDICTED BY IDOCK:   -0.74 KCAL/MOL
REMARK 922        TOTAL FREE ENERGY PREDICTED BY IDOCK:   -0.69 KCAL/MOL
REMARK 923 INTER-LIGAND FREE ENERGY PREDICTED BY IDOCK:   -3.66 KCAL/MOL
REMARK 924 INTRA-LIGAND FREE ENERGY PREDICTED BY IDOCK:    2.97 KCAL/MOL
REMARK 927      BINDING AFFINITY PREDICTED BY RF-SCORE:    0.00 PKD
ROOT
HETATM    1  C   UNL     1      -8.165  15.134  67.567  1.00  0.00    -0.196 C  
HETATM    2  C   UNL     1      -7.722  16.018  66.551  1.00  0.00    -0.167 C  
HETATM    3  C   UNL     1      -9.134  16.117  67.013  1.00  0.00    -0.228 C  
HETATM    4  C   UNL     1      -9.615  15.229  68.833  1.00  0.00    -0.220 C  
HETATM    5  C   UNL     1      -9.202  16.487  68.475  1.00  0.00    -0.230 C  
HETATM    6  C   UNL     1     -12.016  12.125  66.664  1.00  0.00    -0.186 C  
HETATM    7  C   UNL     1      -8.392  13.028  65.844  1.00  0.00     1.444 C  
HETATM    8  C   UNL     1     -11.477  13.043  65.563  1.00  0.00    -0.352 C  
HETATM    9  C   UNL     1     -12.527  13.703  64.555  1.00  0.00    -0.335 C  
HETATM   10  C   UNL     1     -10.994  16.703  67.861  1.00  0.00    -0.276 C  
HETATM   11  C   UNL     1     -12.574  13.583  63.216  1.00  0.00     0.133 C  
HETATM   12  C   UNL     1      -8.357  17.468  69.248  1.00  0.00     0.231 C  
HETATM   13  O   UNL     1     -13.193  11.261  63.286  1.00  0.00     0.173 OA 
HETATM   14  C   UNL     1     -11.626  15.235  67.251  1.00  0.00    -0.157 C  
HETATM   15  C   UNL     1     -12.293  12.085  63.265  1.00  0.00    -0.438 C  
HETATM   16  C   UNL     1     -10.872  11.785  63.503  1.00  0.00    -0.496 C  
HETATM   17  O   UNL     1     -12.079  14.518  68.406  1.00  0.00    -0.528 OA 
HETATM   18  C   UNL     1     -10.483  12.203  64.712  1.00  0.00    -0.332 C  
HETATM   19  C   UNL     1     -10.729  14.245  66.227  1.00  0.00    -0.297 C  
HETATM   20  C   UNL     1      -9.142  11.834  65.286  1.00  0.00     0.114 C  
HETATM   21  H   UNL     1     -12.429  13.703  68.067  1.00  0.00     0.000 HD 
HETATM   22  C   UNL     1      -9.232  13.817  66.849  1.00  0.00    -0.263 C  
ENDROOT
BRANCH   4  23
HETATM   23  O   UNL     1      -8.431  14.708  69.804  1.00  0.00     0.163 OA 
BRANCH  23  24
HETATM   24  C   UNL     1      -7.361  13.900  69.432  1.00  0.00     0.127 C  
HETATM   25  O   UNL     1      -6.191  14.235  69.472  1.00  0.00    -0.106 OA 
BRANCH  24  26
HETATM   26  O   UNL     1      -7.783  12.607  69.264  1.00  0.00     0.222 OA 
BRANCH  26  27
HETATM   27  C   UNL     1      -6.720  11.639  69.427  1.00  0.00    -0.110 C  
HETATM   28  C   UNL     1      -6.405  10.831  68.172  1.00  0.00    -0.057 C  
ENDBRANCH  26  27
ENDBRANCH  24  26
ENDBRANCH  23  24
ENDBRANCH   4  23
BRANCH   4  29
HETATM   29  C   UNL     1     -10.543  15.841  70.260  1.00  0.00    -0.284 C  
HETATM   30  O   UNL     1     -10.681  17.030  70.561  1.00  0.00     0.148 OA 
BRANCH  29  31
HETATM   31  O   UNL     1     -11.104  14.920  71.130  1.00  0.00    -0.209 OA 
HETATM   32  C   UNL     1     -12.358  15.432  71.728  1.00  0.00    -0.381 C  
HETATM   33 CL   UNL     1     -12.036  16.539  73.094  1.00  0.00    -0.565 Cl 
ENDBRANCH  29  31
ENDBRANCH   4  29
TORSDOF 6
ENDMDL
MODEL      113
REMARK 921   NORMALIZED FREE ENERGY PREDICTED BY IDOCK:   -0.68 KCAL/MOL
REMARK 922        TOTAL FREE ENERGY PREDICTED BY IDOCK:   -0.61 KCAL/MOL
REMARK 923 INTER-LIGAND FREE ENERGY PREDICTED BY IDOCK:   -3.22 KCAL/MOL
REMARK 924 INTRA-LIGAND FREE ENERGY PREDICTED BY IDOCK:    2.61 KCAL/MOL
REMARK 927      BINDING AFFINITY PREDICTED BY RF-SCORE:    0.00 PKD
ROOT
HETATM    1  C   UNL     1      -6.296   5.014  68.601  1.00  0.00    -0.035 C  
HETATM    2  C   UNL     1      -5.128   5.815  68.675  1.00  0.00     0.000 C  
HETATM    3  C   UNL     1      -6.324   6.230  69.457  1.00  0.00    -0.035 C  
HETATM    4  C   UNL     1      -7.806   4.804  69.781  1.00  0.00    -0.066 C  
HETATM    5  C   UNL     1      -6.691   5.187  70.484  1.00  0.00    -0.040 C  
HETATM    6  C   UNL     1     -10.551   7.059  67.046  1.00  0.00    -0.412 C  
HETATM    7  C   UNL     1      -6.991   5.990  66.147  1.00  0.00    -0.062 C  
HETATM    8  C   UNL     1      -9.261   7.884  67.072  1.00  0.00    -0.181 C  
HETATM    9  C   UNL     1      -9.366   9.426  67.476  1.00  0.00    -0.147 C  
HETATM   10  C   UNL     1      -7.741   6.701  70.971  1.00  0.00    -0.097 C  
HETATM   11  C   UNL     1      -8.998  10.497  66.750  1.00  0.00    -0.149 C  
HETATM   12  C   UNL     1      -5.788   4.357  71.361  1.00  0.00    -0.016 C  
HETATM   13  O   UNL     1     -10.737  10.189  65.119  1.00  0.00     0.077 OA 
HETATM   14  C   UNL     1      -8.797   7.162  69.707  1.00  0.00    -0.142 C  
HETATM   15  C   UNL     1      -9.597   9.927  65.468  1.00  0.00    -0.277 C  
HETATM   16  C   UNL     1      -8.746   8.895  64.858  1.00  0.00    -0.184 C  
HETATM   17  O   UNL     1      -9.933   6.297  69.839  1.00  0.00    -0.164 OA 
HETATM   18  C   UNL     1      -8.646   7.819  65.646  1.00  0.00    -0.147 C  
HETATM   19  C   UNL     1      -8.277   7.250  68.109  1.00  0.00    -0.124 C  
HETATM   20  C   UNL     1      -8.011   6.541  65.169  1.00  0.00    -0.123 C  
HETATM   21  H   UNL     1     -10.519   6.552  69.136  1.00  0.00     0.000 HD 
HETATM   22  C   UNL     1      -7.569   5.834  67.554  1.00  0.00    -0.093 C  
ENDROOT
BRANCH   4  23
HETATM   23  O   UNL     1      -7.511   3.254  69.425  1.00  0.00    -0.048 OA 
BRANCH  23  24
HETATM   24  C   UNL     1      -8.461   2.291  69.103  1.00  0.00    -0.055 C  
HETATM   25  O   UNL     1      -9.577   2.227  69.585  1.00  0.00    -0.082 OA 
BRANCH  24  26
HETATM   26  O   UNL     1      -8.062   1.588  67.996  1.00  0.00    -0.057 OA 
BRANCH  26  27
HETATM   27  C   UNL     1      -6.845   2.102  67.406  1.00  0.00    -0.039 C  
HETATM   28  C   UNL     1      -5.564   1.529  68.004  1.00  0.00    -0.018 C  
ENDBRANCH  26  27
ENDBRANCH  24  26
ENDBRANCH  23  24
ENDBRANCH   4  23
BRANCH   4  29
HETATM   29  C   UNL     1      -8.693   4.313  71.278  1.00  0.00    -0.102 C  
HETATM   30  O   UNL     1      -8.224   4.327  72.420  1.00  0.00    -0.096 OA 
BRANCH  29  31
HETATM   31  O   UNL     1      -9.984   3.826  71.154  1.00  0.00    -0.172 OA 
HETATM   32  C   UNL     1     -10.747   3.980  72.414  1.00  0.00     0.058 C  
HETATM   33 CL   UNL     1     -10.361   2.684  73.584  1.00  0.00    -0.190 Cl 
ENDBRANCH  29  31
ENDBRANCH   4  29
TORSDOF 6
ENDMDL
MODEL      114
REMARK 921   NORMALIZED FREE ENERGY PREDICTED BY IDOCK:   -0.64 KCAL/MOL
REMARK 922        TOTAL FREE ENERGY PREDICTED BY IDOCK:   -0.55 KCAL/MOL
REMARK 923 INTER-LIGAND FREE ENERGY PREDICTED BY IDOCK:   -5.37 KCAL/MOL
REMARK 924 INTRA-LIGAND FREE ENERGY PREDICTED BY IDOCK:    4.81 KCAL/MOL
REMARK 927      BINDING AFFINITY PREDICTED BY RF-SCORE:    0.00 PKD
ROOT
HETATM    1  C   UNL     1      -6.881  13.364  68.444  1.00  0.00    -0.102 C  
HETATM    2  C   UNL     1      -6.110  12.941  67.331  1.00  0.00    -0.097 C  
HETATM    3  C   UNL     1      -7.567  13.175  67.138  1.00  0.00    -0.008 C  
HETATM    4  C   UNL     1      -8.562  14.297  68.583  1.00  0.00    -0.149 C  
HETATM    5  C   UNL     1      -7.926  14.616  67.409  1.00  0.00    -0.223 C  
HETATM    6  C   UNL     1     -10.756  10.617  69.904  1.00  0.00    -0.260 C  
HETATM    7  C   UNL     1      -6.959  10.861  69.532  1.00  0.00    -0.131 C  
HETATM    8  C   UNL     1      -9.870  10.149  68.747  1.00  0.00    -0.180 C  
HETATM    9  C   UNL     1     -10.569   9.403  67.519  1.00  0.00    -0.333 C  
HETATM   10  C   UNL     1      -9.487  13.901  66.581  1.00  0.00    -0.296 C  
HETATM   11  C   UNL     1     -10.320   8.166  67.053  1.00  0.00    -0.403 C  
HETATM   12  C   UNL     1      -7.170  15.869  67.047  1.00  0.00    -0.232 C  
HETATM   13  O   UNL     1     -11.217   7.079  69.002  1.00  0.00    -0.121 OA 
HETATM   14  C   UNL     1     -10.136  12.603  67.487  1.00  0.00    -0.212 C  
HETATM   15  C   UNL     1     -10.243   7.573  68.457  1.00  0.00    -0.197 C  
HETATM   16  C   UNL     1      -8.963   7.862  69.122  1.00  0.00    -0.145 C  
HETATM   17  O   UNL     1     -10.927  13.223  68.508  1.00  0.00    -0.246 OA 
HETATM   18  C   UNL     1      -8.816   9.173  69.343  1.00  0.00    -0.146 C  
HETATM   19  C   UNL     1      -9.154  11.392  68.123  1.00  0.00    -0.174 C  
HETATM   20  C   UNL     1      -7.700   9.715  70.193  1.00  0.00    -0.179 C  
HETATM   21  H   UNL     1     -11.287  12.502  69.012  1.00  0.00     0.000 HD 
HETATM   22  C   UNL     1      -7.905  11.973  69.079  1.00  0.00     0.136 C  
ENDROOT
BRANCH   4  23
HETATM   23  O   UNL     1      -7.707  15.093  69.701  1.00  0.00    -0.215 OA 
BRANCH  23  24
HETATM   24  C   UNL     1      -6.649  14.581  70.444  1.00  0.00    -0.044 C  
HETATM   25  O   UNL     1      -6.713  13.597  71.158  1.00  0.00     0.490 OA 
BRANCH  24  26
HETATM   26  O   UNL     1      -5.475  15.178  70.066  1.00  0.00    -0.108 OA 
BRANCH  26  27
HETATM   27  C   UNL     1      -5.129  16.319  70.887  1.00  0.00    -0.182 C  
HETATM   28  C   UNL     1      -5.484  17.669  70.272  1.00  0.00    -0.252 C  
ENDBRANCH  26  27
ENDBRANCH  24  26
ENDBRANCH  23  24
ENDBRANCH   4  23
BRANCH   4  29
HETATM   29  C   UNL     1      -9.712  15.685  68.444  1.00  0.00    -0.202 C  
HETATM   30  O   UNL     1     -10.107  16.378  69.386  1.00  0.00    -0.258 OA 
BRANCH  29  31
HETATM   31  O   UNL     1     -10.250  15.978  67.202  1.00  0.00    -0.266 OA 
HETATM   32  C   UNL     1      -9.919  17.358  66.777  1.00  0.00    -0.307 C  
HETATM   33 CL   UNL     1     -11.002  18.561  67.539  1.00  0.00    -0.326 Cl 
ENDBRANCH  29  31
ENDBRANCH   4  29
TORSDOF 6
ENDMDL
MODEL      115
REMARK 921   NORMALIZED FREE ENERGY PREDICTED BY IDOCK:   -0.35 KCAL/MOL
REMARK 922        TOTAL FREE ENERGY PREDICTED BY IDOCK:   -0.16 KCAL/MOL
REMARK 923 INTER-LIGAND FREE ENERGY PREDICTED BY IDOCK:   -5.67 KCAL/MOL
REMARK 924 INTRA-LIGAND FREE ENERGY PREDICTED BY IDOCK:    5.51 KCAL/MOL
REMARK 927      BINDING AFFINITY PREDICTED BY RF-SCORE:    0.00 PKD
ROOT
HETATM    1  C   UNL     1      -7.053  15.679  68.242  1.00  0.00    -0.116 C  
HETATM    2  C   UNL     1      -5.974  15.426  67.357  1.00  0.00     0.032 C  
HETATM    3  C   UNL     1      -7.341  15.567  66.786  1.00  0.00     0.101 C  
HETATM    4  C   UNL     1      -8.793  16.464  67.978  1.00  0.00    -0.184 C  
HETATM    5  C   UNL     1      -7.901  16.943  67.053  1.00  0.00    -0.232 C  
HETATM    6  C   UNL     1     -10.886  12.518  68.367  1.00  0.00    -0.266 C  
HETATM    7  C   UNL     1      -7.172  13.083  69.079  1.00  0.00     0.014 C  
HETATM    8  C   UNL     1      -9.679  12.233  67.469  1.00  0.00    -0.190 C  
HETATM    9  C   UNL     1      -9.945  11.560  66.045  1.00  0.00    -0.258 C  
HETATM   10  C   UNL     1      -9.102  16.197  65.775  1.00  0.00    -0.143 C  
HETATM   11  C   UNL     1      -9.458  10.397  65.577  1.00  0.00    -0.267 C  
HETATM   12  C   UNL     1      -7.203  18.279  67.007  1.00  0.00    -0.220 C  
HETATM   13  O   UNL     1     -10.734   9.061  67.116  1.00  0.00    -0.259 OA 
HETATM   14  C   UNL     1      -9.838  14.771  66.369  1.00  0.00    -0.280 C  
HETATM   15  C   UNL     1      -9.703   9.677  66.899  1.00  0.00    -0.186 C  
HETATM   16  C   UNL     1      -8.685   9.996  67.912  1.00  0.00    -0.125 C  
HETATM   17  O   UNL     1     -10.933  15.227  67.174  1.00  0.00    -0.324 OA 
HETATM   18  C   UNL     1      -8.733  11.286  68.260  1.00  0.00    -0.158 C  
HETATM   19  C   UNL     1      -8.949  13.582  67.160  1.00  0.00    -0.230 C  
HETATM   20  C   UNL     1      -7.946  11.825  69.424  1.00  0.00     0.491 C  
HETATM   21  H   UNL     1     -11.342  14.435  67.504  1.00  0.00     0.000 HD 
HETATM   22  C   UNL     1      -8.067  14.159  68.465  1.00  0.00    -0.143 C  
ENDROOT
BRANCH   4  23
HETATM   23  O   UNL     1      -8.354  17.210  69.344  1.00  0.00     0.044 OA 
BRANCH  23  24
HETATM   24  C   UNL     1      -7.153  17.874  69.567  1.00  0.00     0.093 C  
HETATM   25  O   UNL     1      -6.070  17.331  69.689  1.00  0.00    -0.231 OA 
BRANCH  24  26
HETATM   26  O   UNL     1      -7.317  19.221  69.376  1.00  0.00    -0.292 OA 
BRANCH  26  27
HETATM   27  C   UNL     1      -6.304  20.015  70.038  1.00  0.00    -0.346 C  
HETATM   28  C   UNL     1      -5.343  20.727  69.091  1.00  0.00    -0.383 C  
ENDBRANCH  26  27
ENDBRANCH  24  26
ENDBRANCH  23  24
ENDBRANCH   4  23
BRANCH   4  29
HETATM   29  C   UNL     1      -9.996  17.769  67.628  1.00  0.00    -0.322 C  
HETATM   30  O   UNL     1     -10.651  17.871  66.587  1.00  0.00    -0.324 OA 
BRANCH  29  31
HETATM   31  O   UNL     1     -10.172  18.775  68.564  1.00  0.00    -0.377 OA 
HETATM   32  C   UNL     1     -10.731  20.000  67.946  1.00  0.00    -0.127 C  
HETATM   33 CL   UNL     1      -9.465  20.966  67.132  1.00  0.00    -0.461 Cl 
ENDBRANCH  29  31
ENDBRANCH   4  29
TORSDOF 6
ENDMDL
MODEL      116
REMARK 921   NORMALIZED FREE ENERGY PREDICTED BY IDOCK:    0.26 KCAL/MOL
REMARK 922        TOTAL FREE ENERGY PREDICTED BY IDOCK:    0.67 KCAL/MOL
REMARK 923 INTER-LIGAND FREE ENERGY PREDICTED BY IDOCK:   -1.53 KCAL/MOL
REMARK 924 INTRA-LIGAND FREE ENERGY PREDICTED BY IDOCK:    2.20 KCAL/MOL
REMARK 927      BINDING AFFINITY PREDICTED BY RF-SCORE:    0.00 PKD
ROOT
HETATM    1  C   UNL     1      -8.417   8.563  67.566  1.00  0.00    -0.128 C  
HETATM    2  C   UNL     1      -9.037   7.568  66.770  1.00  0.00    -0.176 C  
HETATM    3  C   UNL     1      -9.787   8.116  67.933  1.00  0.00    -0.206 C  
HETATM    4  C   UNL     1      -9.125   9.915  68.745  1.00  0.00    -0.147 C  
HETATM    5  C   UNL     1     -10.037   9.595  67.771  1.00  0.00    -0.232 C  
HETATM    6  C   UNL     1      -7.777   7.738  72.426  1.00  0.00    -0.120 C  
HETATM    7  C   UNL     1      -6.828   6.754  68.855  1.00  0.00    -0.065 C  
HETATM    8  C   UNL     1      -8.385   6.654  71.531  1.00  0.00    -0.120 C  
HETATM    9  C   UNL     1      -9.548   5.743  72.140  1.00  0.00    -0.167 C  
HETATM   10  C   UNL     1     -11.153   9.098  69.233  1.00  0.00     0.001 C  
HETATM   11  C   UNL     1      -9.564   4.405  72.276  1.00  0.00    -0.200 C  
HETATM   12  C   UNL     1     -10.413  10.366  66.530  1.00  0.00    -0.262 C  
HETATM   13  O   UNL     1      -7.852   4.396  73.964  1.00  0.00    -0.090 OA 
HETATM   14  C   UNL     1     -10.237   8.454  70.527  1.00  0.00    -0.196 C  
HETATM   15  C   UNL     1      -8.122   4.364  72.775  1.00  0.00    -0.094 C  
HETATM   16  C   UNL     1      -7.144   4.503  71.685  1.00  0.00    -0.051 C  
HETATM   17  O   UNL     1      -9.757   9.597  71.246  1.00  0.00    -0.263 OA 
HETATM   18  C   UNL     1      -7.227   5.707  71.108  1.00  0.00    -0.076 C  
HETATM   19  C   UNL     1      -9.009   7.333  70.268  1.00  0.00    -0.151 C  
HETATM   20  C   UNL     1      -6.204   6.183  70.113  1.00  0.00    -0.031 C  
HETATM   21  H   UNL     1      -9.248   9.240  71.964  1.00  0.00     0.000 HD 
HETATM   22  C   UNL     1      -7.854   7.844  69.165  1.00  0.00    -0.109 C  
ENDROOT
BRANCH   4  23
HETATM   23  O   UNL     1      -8.018  10.787  67.951  1.00  0.00    -0.107 OA 
BRANCH  23  24
HETATM   24  C   UNL     1      -7.008  11.551  68.525  1.00  0.00    -0.083 C  
HETATM   25  O   UNL     1      -7.069  12.069  69.626  1.00  0.00     0.066 OA 
BRANCH  24  26
HETATM   26  O   UNL     1      -5.852  11.426  67.799  1.00  0.00    -0.043 OA 
BRANCH  26  27
HETATM   27  C   UNL     1      -5.875  12.178  66.563  1.00  0.00     0.513 C  
HETATM   28  C   UNL     1      -6.641  11.503  65.430  1.00  0.00     1.243 C  
ENDBRANCH  26  27
ENDBRANCH  24  26
ENDBRANCH  23  24
ENDBRANCH   4  23
BRANCH   4  29
HETATM   29  C   UNL     1     -10.011  11.421  69.208  1.00  0.00     0.115 C  
HETATM   30  O   UNL     1     -11.186  11.469  69.581  1.00  0.00    -0.251 OA 
BRANCH  29  31
HETATM   31  O   UNL     1      -9.357  12.637  69.090  1.00  0.00     0.365 OA 
HETATM   32  C   UNL     1     -10.270  13.701  68.612  1.00  0.00    -0.197 C  
HETATM   33 CL   UNL     1     -10.489  13.637  66.838  1.00  0.00    -0.270 Cl 
ENDBRANCH  29  31
ENDBRANCH   4  29
TORSDOF 6
ENDMDL
MODEL      117
REMARK 921   NORMALIZED FREE ENERGY PREDICTED BY IDOCK:    0.52 KCAL/MOL
REMARK 922        TOTAL FREE ENERGY PREDICTED BY IDOCK:    1.02 KCAL/MOL
REMARK 923 INTER-LIGAND FREE ENERGY PREDICTED BY IDOCK:   -2.77 KCAL/MOL
REMARK 924 INTRA-LIGAND FREE ENERGY PREDICTED BY IDOCK:    3.79 KCAL/MOL
REMARK 927      BINDING AFFINITY PREDICTED BY RF-SCORE:    0.00 PKD
ROOT
HETATM    1  C   UNL     1      -8.648   6.517  68.329  1.00  0.00    -0.115 C  
HETATM    2  C   UNL     1      -8.109   5.358  67.717  1.00  0.00    -0.100 C  
HETATM    3  C   UNL     1      -7.169   6.382  68.247  1.00  0.00    -0.085 C  
HETATM    4  C   UNL     1      -7.924   7.773  69.599  1.00  0.00    -0.116 C  
HETATM    5  C   UNL     1      -7.328   6.545  69.739  1.00  0.00    -0.079 C  
HETATM    6  C   UNL     1      -7.479  10.993  66.511  1.00  0.00    -0.145 C  
HETATM    7  C   UNL     1      -9.281   7.669  65.935  1.00  0.00    -0.053 C  
HETATM    8  C   UNL     1      -6.963   9.723  65.829  1.00  0.00    -0.103 C  
HETATM    9  C   UNL     1      -5.491   9.749  65.207  1.00  0.00    -0.053 C  
HETATM   10  C   UNL     1      -5.717   7.484  69.343  1.00  0.00    -0.023 C  
HETATM   11  C   UNL     1      -5.129   9.528  63.932  1.00  0.00    -0.060 C  
HETATM   12  C   UNL     1      -7.558   5.490  70.792  1.00  0.00    -0.090 C  
HETATM   13  O   UNL     1      -6.154  11.546  63.123  1.00  0.00     0.812 OA 
HETATM   14  C   UNL     1      -5.995   8.763  68.241  1.00  0.00    -0.042 C  
HETATM   15  C   UNL     1      -6.282  10.360  63.381  1.00  0.00    -0.096 C  
HETATM   16  C   UNL     1      -7.565   9.641  63.415  1.00  0.00    -0.124 C  
HETATM   17  O   UNL     1      -6.464   9.851  69.047  1.00  0.00    -0.047 OA 
HETATM   18  C   UNL     1      -7.948   9.391  64.672  1.00  0.00    -0.124 C  
HETATM   19  C   UNL     1      -6.952   8.557  66.872  1.00  0.00    -0.074 C  
HETATM   20  C   UNL     1      -9.318   8.857  64.994  1.00  0.00     0.071 C  
HETATM   21  H   UNL     1      -6.619  10.561  68.435  1.00  0.00     0.000 HD 
HETATM   22  C   UNL     1      -8.485   7.968  67.207  1.00  0.00    -0.125 C  
ENDROOT
BRANCH   4  23
HETATM   23  O   UNL     1      -9.396   7.550  70.233  1.00  0.00    -0.161 OA 
BRANCH  23  24
HETATM   24  C   UNL     1     -10.366   8.528  70.420  1.00  0.00    -0.202 C  
HETATM   25  O   UNL     1     -10.270   9.683  70.045  1.00  0.00    -0.220 OA 
BRANCH  24  26
HETATM   26  O   UNL     1     -11.536   7.957  70.849  1.00  0.00    -0.280 OA 
BRANCH  26  27
HETATM   27  C   UNL     1     -11.326   6.765  71.642  1.00  0.00    -0.266 C  
HETATM   28  C   UNL     1     -10.485   6.981  72.896  1.00  0.00    -0.283 C  
ENDBRANCH  26  27
ENDBRANCH  24  26
ENDBRANCH  23  24
ENDBRANCH   4  23
BRANCH   4  29
HETATM   29  C   UNL     1      -7.303   8.357  71.194  1.00  0.00    -0.074 C  
HETATM   30  O   UNL     1      -7.734   9.337  71.809  1.00  0.00    -0.320 OA 
BRANCH  29  31
HETATM   31  O   UNL     1      -6.223   7.704  71.764  1.00  0.00    -0.039 OA 
HETATM   32  C   UNL     1      -6.651   6.509  72.526  1.00  0.00    -0.063 C  
HETATM   33 CL   UNL     1      -7.256   6.943  74.152  1.00  0.00    -0.092 Cl 
ENDBRANCH  29  31
ENDBRANCH   4  29
TORSDOF 6
ENDMDL
MODEL      118
REMARK 921   NORMALIZED FREE ENERGY PREDICTED BY IDOCK:    1.11 KCAL/MOL
REMARK 922        TOTAL FREE ENERGY PREDICTED BY IDOCK:    1.81 KCAL/MOL
REMARK 923 INTER-LIGAND FREE ENERGY PREDICTED BY IDOCK:   -1.30 KCAL/MOL
REMARK 924 INTRA-LIGAND FREE ENERGY PREDICTED BY IDOCK:    3.11 KCAL/MOL
REMARK 927      BINDING AFFINITY PREDICTED BY RF-SCORE:    0.00 PKD
ROOT
HETATM    1  C   UNL     1     -10.137  11.992  67.557  1.00  0.00    -0.205 C  
HETATM    2  C   UNL     1     -11.146  11.920  68.551  1.00  0.00    -0.290 C  
HETATM    3  C   UNL     1      -9.732  12.076  68.986  1.00  0.00     0.197 C  
HETATM    4  C   UNL     1      -8.353  12.722  67.566  1.00  0.00    -0.179 C  
HETATM    5  C   UNL     1      -9.147  13.371  68.478  1.00  0.00    -0.077 C  
HETATM    6  C   UNL     1      -6.445   8.665  67.596  1.00  0.00    -0.061 C  
HETATM    7  C   UNL     1     -10.184   9.300  67.102  1.00  0.00    -0.324 C  
HETATM    8  C   UNL     1      -7.582   8.570  68.618  1.00  0.00    -0.098 C  
HETATM    9  C   UNL     1      -7.222   8.095  70.100  1.00  0.00    -0.056 C  
HETATM   10  C   UNL     1      -7.870  12.758  69.754  1.00  0.00     1.561 C  
HETATM   11  C   UNL     1      -7.709   7.036  70.770  1.00  0.00    -0.095 C  
HETATM   12  C   UNL     1      -9.789  14.732  68.383  1.00  0.00    -0.220 C  
HETATM   13  O   UNL     1      -6.618   5.433  69.348  1.00  0.00    -0.043 OA 
HETATM   14  C   UNL     1      -7.238  11.228  69.319  1.00  0.00    -0.094 C  
HETATM   15  C   UNL     1      -7.604   6.123  69.552  1.00  0.00    -0.094 C  
HETATM   16  C   UNL     1      -8.691   6.342  68.586  1.00  0.00    -0.122 C  
HETATM   17  O   UNL     1      -6.200  11.511  68.373  1.00  0.00    -0.049 OA 
HETATM   18  C   UNL     1      -8.626   7.566  68.050  1.00  0.00    -0.122 C  
HETATM   19  C   UNL     1      -8.234   9.982  68.782  1.00  0.00    -0.115 C  
HETATM   20  C   UNL     1      -9.487   7.971  66.886  1.00  0.00    -0.244 C  
HETATM   21  H   UNL     1      -5.849  10.662  68.132  1.00  0.00     0.000 HD 
HETATM   22  C   UNL     1      -9.201  10.409  67.480  1.00  0.00    -0.156 C  
ENDROOT
BRANCH   4  23
HETATM   23  O   UNL     1      -8.879  13.286  66.144  1.00  0.00     0.114 OA 
BRANCH  23  24
HETATM   24  C   UNL     1      -9.462  12.535  65.129  1.00  0.00     0.213 C  
HETATM   25  O   UNL     1      -8.930  11.598  64.563  1.00  0.00     0.152 OA 
BRANCH  24  26
HETATM   26  O   UNL     1     -10.798  12.830  65.034  1.00  0.00    -0.277 OA 
BRANCH  26  27
HETATM   27  C   UNL     1     -11.079  13.884  64.083  1.00  0.00    -0.106 C  
HETATM   28  C   UNL     1     -12.506  13.883  63.545  1.00  0.00     0.051 C  
ENDBRANCH  26  27
ENDBRANCH  24  26
ENDBRANCH  23  24
ENDBRANCH   4  23
BRANCH   4  29
HETATM   29  C   UNL     1      -7.079  14.004  67.626  1.00  0.00    -0.179 C  
HETATM   30  O   UNL     1      -5.995  13.957  67.038  1.00  0.00    -0.006 OA 
BRANCH  29  31
HETATM   31  O   UNL     1      -7.289  15.109  68.434  1.00  0.00    -0.108 OA 
HETATM   32  C   UNL     1      -6.991  16.371  67.717  1.00  0.00    -0.138 C  
HETATM   33 CL   UNL     1      -5.236  16.715  67.687  1.00  0.00    -0.134 Cl 
ENDBRANCH  29  31
ENDBRANCH   4  29
TORSDOF 6
ENDMDL
MODEL      119
REMARK 921   NORMALIZED FREE ENERGY PREDICTED BY IDOCK:    1.42 KCAL/MOL
REMARK 922        TOTAL FREE ENERGY PREDICTED BY IDOCK:    2.23 KCAL/MOL
REMARK 923 INTER-LIGAND FREE ENERGY PREDICTED BY IDOCK:   -2.17 KCAL/MOL
REMARK 924 INTRA-LIGAND FREE ENERGY PREDICTED BY IDOCK:    4.40 KCAL/MOL
REMARK 927      BINDING AFFINITY PREDICTED BY RF-SCORE:    0.00 PKD
ROOT
HETATM    1  C   UNL     1      -7.264   5.312  68.225  1.00  0.00    -0.067 C  
HETATM    2  C   UNL     1      -6.099   4.625  67.799  1.00  0.00    -0.031 C  
HETATM    3  C   UNL     1      -5.949   5.994  68.364  1.00  0.00    -0.020 C  
HETATM    4  C   UNL     1      -7.538   6.758  69.470  1.00  0.00    -0.099 C  
HETATM    5  C   UNL     1      -6.414   6.043  69.799  1.00  0.00    -0.042 C  
HETATM    6  C   UNL     1      -8.365   9.717  66.204  1.00  0.00    -0.122 C  
HETATM    7  C   UNL     1      -8.005   5.947  65.675  1.00  0.00    -0.118 C  
HETATM    8  C   UNL     1      -7.149   8.925  65.715  1.00  0.00    -0.084 C  
HETATM    9  C   UNL     1      -5.837   9.740  65.307  1.00  0.00    -0.071 C  
HETATM   10  C   UNL     1      -5.508   7.701  69.552  1.00  0.00    -0.023 C  
HETATM   11  C   UNL     1      -5.207   9.750  64.119  1.00  0.00    -0.067 C  
HETATM   12  C   UNL     1      -6.220   5.029  70.897  1.00  0.00    -0.019 C  
HETATM   13  O   UNL     1      -6.997  10.902  63.000  1.00  0.00     0.093 OA 
HETATM   14  C   UNL     1      -6.234   8.632  68.314  1.00  0.00    -0.054 C  
HETATM   15  C   UNL     1      -6.517   9.833  63.341  1.00  0.00    -0.115 C  
HETATM   16  C   UNL     1      -7.207   8.537  63.258  1.00  0.00    -0.092 C  
HETATM   17  O   UNL     1      -7.335   9.296  68.948  1.00  0.00    -0.072 OA 
HETATM   18  C   UNL     1      -7.601   8.118  64.465  1.00  0.00    -0.113 C  
HETATM   19  C   UNL     1      -6.694   7.947  66.848  1.00  0.00    -0.068 C  
HETATM   20  C   UNL     1      -8.510   6.931  64.637  1.00  0.00     0.146 C  
HETATM   21  H   UNL     1      -7.739   9.813  68.261  1.00  0.00     0.000 HD 
HETATM   22  C   UNL     1      -7.712   6.624  67.014  1.00  0.00    -0.103 C  
ENDROOT
BRANCH   4  23
HETATM   23  O   UNL     1      -8.748   5.778  69.908  1.00  0.00    -0.124 OA 
BRANCH  23  24
HETATM   24  C   UNL     1      -9.816   5.385  69.109  1.00  0.00    -0.177 C  
HETATM   25  O   UNL     1     -10.223   6.000  68.140  1.00  0.00    -0.147 OA 
BRANCH  24  26
HETATM   26  O   UNL     1     -10.177   4.096  69.406  1.00  0.00     0.054 OA 
BRANCH  26  27
HETATM   27  C   UNL     1      -9.272   3.112  68.853  1.00  0.00    -0.161 C  
HETATM   28  C   UNL     1      -9.548   1.680  69.299  1.00  0.00    -0.085 C  
ENDBRANCH  26  27
ENDBRANCH  24  26
ENDBRANCH  23  24
ENDBRANCH   4  23
BRANCH   4  29
HETATM   29  C   UNL     1      -7.596   7.582  71.078  1.00  0.00    -0.084 C  
HETATM   30  O   UNL     1      -8.423   7.353  71.965  1.00  0.00    -0.105 OA 
BRANCH  29  31
HETATM   31  O   UNL     1      -6.685   8.593  71.338  1.00  0.00    -0.062 OA 
HETATM   32  C   UNL     1      -5.595   8.128  72.226  1.00  0.00    -0.039 C  
HETATM   33 CL   UNL     1      -6.097   8.128  73.943  1.00  0.00    -0.095 Cl 
ENDBRANCH  29  31
ENDBRANCH   4  29
TORSDOF 6
ENDMDL
MODEL      120
REMARK 921   NORMALIZED FREE ENERGY PREDICTED BY IDOCK:    1.46 KCAL/MOL
REMARK 922        TOTAL FREE ENERGY PREDICTED BY IDOCK:    2.28 KCAL/MOL
REMARK 923 INTER-LIGAND FREE ENERGY PREDICTED BY IDOCK:   -0.82 KCAL/MOL
REMARK 924 INTRA-LIGAND FREE ENERGY PREDICTED BY IDOCK:    3.10 KCAL/MOL
REMARK 927      BINDING AFFINITY PREDICTED BY RF-SCORE:    0.00 PKD
ROOT
HETATM    1  C   UNL     1     -10.335  10.241  68.536  1.00  0.00    -0.200 C  
HETATM    2  C   UNL     1     -11.538  10.556  67.855  1.00  0.00    -0.039 C  
HETATM    3  C   UNL     1     -11.065   9.145  67.845  1.00  0.00     0.117 C  
HETATM    4  C   UNL     1      -9.645   8.595  69.265  1.00  0.00    -0.166 C  
HETATM    5  C   UNL     1     -11.017   8.578  69.243  1.00  0.00     0.023 C  
HETATM    6  C   UNL     1      -6.586   8.169  66.015  1.00  0.00    -0.046 C  
HETATM    7  C   UNL     1      -8.766  11.265  66.548  1.00  0.00    -0.178 C  
HETATM    8  C   UNL     1      -7.871   8.579  65.291  1.00  0.00    -0.106 C  
HETATM    9  C   UNL     1      -8.393   7.646  64.103  1.00  0.00     0.100 C  
HETATM   10  C   UNL     1     -10.800   7.053  68.120  1.00  0.00    -0.214 C  
HETATM   11  C   UNL     1      -8.603   7.983  62.818  1.00  0.00     0.131 C  
HETATM   12  C   UNL     1     -11.989   8.768  70.380  1.00  0.00     0.129 C  
HETATM   13  O   UNL     1      -6.264   8.291  62.351  1.00  0.00    -0.086 OA 
HETATM   14  C   UNL     1      -9.408   7.196  67.135  1.00  0.00    -0.140 C  
HETATM   15  C   UNL     1      -7.309   8.788  62.741  1.00  0.00    -0.098 C  
HETATM   16  C   UNL     1      -7.426  10.108  63.379  1.00  0.00    -0.139 C  
HETATM   17  O   UNL     1      -8.320   6.774  67.967  1.00  0.00    -0.119 OA 
HETATM   18  C   UNL     1      -7.630   9.995  64.696  1.00  0.00    -0.143 C  
HETATM   19  C   UNL     1      -9.042   8.626  66.326  1.00  0.00    -0.233 C  
HETATM   20  C   UNL     1      -7.575  11.186  65.613  1.00  0.00     0.219 C  
HETATM   21  H   UNL     1      -7.547   6.854  67.420  1.00  0.00     0.000 HD 
HETATM   22  C   UNL     1      -8.970   9.967  67.330  1.00  0.00    -0.144 C  
ENDROOT
BRANCH   4  23
HETATM   23  O   UNL     1      -9.302   9.606  70.480  1.00  0.00    -0.253 OA 
BRANCH  23  24
HETATM   24  C   UNL     1      -8.382   9.382  71.498  1.00  0.00     0.522 C  
HETATM   25  O   UNL     1      -8.298   8.354  72.147  1.00  0.00    -0.152 OA 
BRANCH  24  26
HETATM   26  O   UNL     1      -7.428  10.367  71.497  1.00  0.00     1.364 OA 
BRANCH  26  27
HETATM   27  C   UNL     1      -6.685  10.434  70.257  1.00  0.00    -0.138 C  
HETATM   28  C   UNL     1      -6.458  11.849  69.734  1.00  0.00    -0.077 C  
ENDBRANCH  26  27
ENDBRANCH  24  26
ENDBRANCH  23  24
ENDBRANCH   4  23
BRANCH   4  29
HETATM   29  C   UNL     1      -9.554   7.181  70.387  1.00  0.00    -0.169 C  
HETATM   30  O   UNL     1     -10.524   6.627  70.913  1.00  0.00    -0.210 OA 
BRANCH  29  31
HETATM   31  O   UNL     1      -8.307   6.697  70.744  1.00  0.00    -0.126 OA 
HETATM   32  C   UNL     1      -8.293   5.217  70.801  1.00  0.00    -0.113 C  
HETATM   33 CL   UNL     1      -8.978   4.608  72.337  1.00  0.00    -0.134 Cl 
ENDBRANCH  29  31
ENDBRANCH   4  29
TORSDOF 6
ENDMDL
MODEL      121
REMARK 921   NORMALIZED FREE ENERGY PREDICTED BY IDOCK:    1.84 KCAL/MOL
REMARK 922        TOTAL FREE ENERGY PREDICTED BY IDOCK:    2.80 KCAL/MOL
REMARK 923 INTER-LIGAND FREE ENERGY PREDICTED BY IDOCK:   -0.85 KCAL/MOL
REMARK 924 INTRA-LIGAND FREE ENERGY PREDICTED BY IDOCK:    3.64 KCAL/MOL
REMARK 927      BINDING AFFINITY PREDICTED BY RF-SCORE:    0.00 PKD
ROOT
HETATM    1  C   UNL     1      -7.114  11.968  67.897  1.00  0.00    -0.097 C  
HETATM    2  C   UNL     1      -6.279  11.694  66.785  1.00  0.00    -0.123 C  
HETATM    3  C   UNL     1      -6.966  13.012  66.848  1.00  0.00     0.547 C  
HETATM    4  C   UNL     1      -7.723  13.615  68.691  1.00  0.00    -0.107 C  
HETATM    5  C   UNL     1      -6.521  13.799  68.057  1.00  0.00    -0.140 C  
HETATM    6  C   UNL     1     -11.893  13.094  67.130  1.00  0.00    -0.424 C  
HETATM    7  C   UNL     1      -9.156  10.432  66.933  1.00  0.00    -0.159 C  
HETATM    8  C   UNL     1     -10.986  12.730  65.951  1.00  0.00    -0.303 C  
HETATM    9  C   UNL     1     -11.203  13.503  64.570  1.00  0.00    -0.392 C  
HETATM   10  C   UNL     1      -7.476  15.070  67.006  1.00  0.00    -0.021 C  
HETATM   11  C   UNL     1     -11.500  12.980  63.367  1.00  0.00    -0.304 C  
HETATM   12  C   UNL     1      -5.141  13.930  68.651  1.00  0.00    -0.089 C  
HETATM   13  O   UNL     1     -13.712  12.307  64.029  1.00  0.00    -0.054 OA 
HETATM   14  C   UNL     1      -9.100  14.589  66.767  1.00  0.00    -0.261 C  
HETATM   15  C   UNL     1     -12.528  12.019  63.957  1.00  0.00    -0.388 C  
HETATM   16  C   UNL     1     -11.906  10.852  64.601  1.00  0.00     1.395 C  
HETATM   17  O   UNL     1      -9.789  15.008  67.951  1.00  0.00    -0.215 OA 
HETATM   18  C   UNL     1     -11.187  11.214  65.669  1.00  0.00     0.008 C  
HETATM   19  C   UNL     1      -9.500  13.007  66.352  1.00  0.00    -0.228 C  
HETATM   20  C   UNL     1     -10.622  10.200  66.627  1.00  0.00    -0.214 C  
HETATM   21  H   UNL     1     -10.691  14.740  67.819  1.00  0.00     0.000 HD 
HETATM   22  C   UNL     1      -8.886  11.860  67.409  1.00  0.00    -0.171 C  
ENDROOT
BRANCH   4  23
HETATM   23  O   UNL     1      -7.321  12.793  70.025  1.00  0.00     0.836 OA 
BRANCH  23  24
HETATM   24  C   UNL     1      -6.145  12.935  70.754  1.00  0.00     0.225 C  
HETATM   25  O   UNL     1      -5.810  13.946  71.344  1.00  0.00    -0.229 OA 
BRANCH  24  26
HETATM   26  O   UNL     1      -5.548  11.713  70.927  1.00  0.00    -0.250 OA 
BRANCH  26  27
HETATM   27  C   UNL     1      -6.455  10.605  70.720  1.00  0.00     0.173 C  
HETATM   28  C   UNL     1      -6.140   9.369  71.557  1.00  0.00    -0.037 C  
ENDBRANCH  26  27
ENDBRANCH  24  26
ENDBRANCH  23  24
ENDBRANCH   4  23
BRANCH   4  29
HETATM   29  C   UNL     1      -7.592  15.179  69.590  1.00  0.00    -0.163 C  
HETATM   30  O   UNL     1      -8.438  15.623  70.371  1.00  0.00     0.709 OA 
BRANCH  29  31
HETATM   31  O   UNL     1      -6.490  15.986  69.358  1.00  0.00    -0.154 OA 
HETATM   32  C   UNL     1      -6.790  17.409  69.637  1.00  0.00     0.045 C  
HETATM   33 CL   UNL     1      -7.654  18.181  68.275  1.00  0.00    -0.267 Cl 
ENDBRANCH  29  31
ENDBRANCH   4  29
TORSDOF 6
ENDMDL
MODEL      122
REMARK 921   NORMALIZED FREE ENERGY PREDICTED BY IDOCK:    2.11 KCAL/MOL
REMARK 922        TOTAL FREE ENERGY PREDICTED BY IDOCK:    3.16 KCAL/MOL
REMARK 923 INTER-LIGAND FREE ENERGY PREDICTED BY IDOCK:    0.22 KCAL/MOL
REMARK 924 INTRA-LIGAND FREE ENERGY PREDICTED BY IDOCK:    2.94 KCAL/MOL
REMARK 927      BINDING AFFINITY PREDICTED BY RF-SCORE:    0.00 PKD
ROOT
HETATM    1  C   UNL     1      -9.325   9.801  69.011  1.00  0.00    -0.161 C  
HETATM    2  C   UNL     1      -9.931   9.941  70.286  1.00  0.00    -0.261 C  
HETATM    3  C   UNL     1     -10.256  10.940  69.232  1.00  0.00    -0.190 C  
HETATM    4  C   UNL     1      -9.820  10.436  67.260  1.00  0.00    -0.178 C  
HETATM    5  C   UNL     1     -10.930  10.284  68.052  1.00  0.00    -0.345 C  
HETATM    6  C   UNL     1      -6.569  13.522  67.208  1.00  0.00     0.175 C  
HETATM    7  C   UNL     1      -6.935  10.803  69.871  1.00  0.00    -0.127 C  
HETATM    8  C   UNL     1      -7.179  13.622  68.608  1.00  0.00    -0.110 C  
HETATM    9  C   UNL     1      -7.708  15.048  69.098  1.00  0.00    -0.179 C  
HETATM   10  C   UNL     1     -11.179  12.149  67.746  1.00  0.00    -0.333 C  
HETATM   11  C   UNL     1      -7.314  15.750  70.175  1.00  0.00     0.473 C  
HETATM   12  C   UNL     1     -11.968   9.191  68.036  1.00  0.00     3.070 C  
HETATM   13  O   UNL     1      -5.127  16.198  69.283  1.00  0.00    -0.109 OA 
HETATM   14  C   UNL     1      -9.682  12.966  67.616  1.00  0.00    -0.212 C  
HETATM   15  C   UNL     1      -5.840  15.446  69.928  1.00  0.00    -0.141 C  
HETATM   16  C   UNL     1      -5.465  14.088  70.351  1.00  0.00    -0.121 C  
HETATM   17  O   UNL     1      -9.270  12.770  66.257  1.00  0.00    -0.376 OA 
HETATM   18  C   UNL     1      -6.090  13.160  69.617  1.00  0.00    -0.120 C  
HETATM   19  C   UNL     1      -8.419  12.671  68.688  1.00  0.00     0.043 C  
HETATM   20  C   UNL     1      -5.726  11.703  69.702  1.00  0.00    -0.084 C  
HETATM   21  H   UNL     1      -8.438  13.223  66.185  1.00  0.00     0.000 HD 
HETATM   22  C   UNL     1      -7.993  11.053  68.795  1.00  0.00    -0.144 C  
ENDROOT
BRANCH   4  23
HETATM   23  O   UNL     1      -9.406   8.914  66.900  1.00  0.00    -0.152 OA 
BRANCH  23  24
HETATM   24  C   UNL     1      -8.612   8.511  65.832  1.00  0.00    -0.163 C  
HETATM   25  O   UNL     1      -8.458   9.142  64.802  1.00  0.00    -0.159 OA 
BRANCH  24  26
HETATM   26  O   UNL     1      -7.835   7.443  66.199  1.00  0.00    -0.100 OA 
BRANCH  26  27
HETATM   27  C   UNL     1      -7.053   6.908  65.106  1.00  0.00    -0.067 C  
HETATM   28  C   UNL     1      -7.713   5.747  64.368  1.00  0.00    -0.100 C  
ENDBRANCH  26  27
ENDBRANCH  24  26
ENDBRANCH  23  24
ENDBRANCH   4  23
BRANCH   4  29
HETATM   29  C   UNL     1     -10.803  10.549  65.746  1.00  0.00     0.119 C  
HETATM   30  O   UNL     1     -10.736   9.764  64.795  1.00  0.00     0.961 OA 
BRANCH  29  31
HETATM   31  O   UNL     1     -11.664  11.623  65.594  1.00  0.00    -0.269 OA 
HETATM   32  C   UNL     1     -11.783  12.027  64.174  1.00  0.00    -0.372 C  
HETATM   33 CL   UNL     1     -10.406  13.046  63.659  1.00  0.00    -0.049 Cl 
ENDBRANCH  29  31
ENDBRANCH   4  29
TORSDOF 6
ENDMDL
MODEL      123
REMARK 921   NORMALIZED FREE ENERGY PREDICTED BY IDOCK:    2.24 KCAL/MOL
REMARK 922        TOTAL FREE ENERGY PREDICTED BY IDOCK:    3.34 KCAL/MOL
REMARK 923 INTER-LIGAND FREE ENERGY PREDICTED BY IDOCK:   -3.65 KCAL/MOL
REMARK 924 INTRA-LIGAND FREE ENERGY PREDICTED BY IDOCK:    7.00 KCAL/MOL
REMARK 927      BINDING AFFINITY PREDICTED BY RF-SCORE:    0.00 PKD
ROOT
HETATM    1  C   UNL     1      -6.945   8.330  68.270  1.00  0.00    -0.076 C  
HETATM    2  C   UNL     1      -5.666   8.811  67.891  1.00  0.00    -0.035 C  
HETATM    3  C   UNL     1      -6.777   8.894  66.904  1.00  0.00    -0.069 C  
HETATM    4  C   UNL     1      -8.721   8.710  67.624  1.00  0.00    -0.136 C  
HETATM    5  C   UNL     1      -7.889   9.780  67.411  1.00  0.00    -0.099 C  
HETATM    6  C   UNL     1      -9.081   4.732  65.587  1.00  0.00    -0.145 C  
HETATM    7  C   UNL     1      -6.227   5.717  67.934  1.00  0.00    -0.037 C  
HETATM    8  C   UNL     1      -7.674   5.224  65.239  1.00  0.00    -0.084 C  
HETATM    9  C   UNL     1      -7.269   5.309  63.695  1.00  0.00    -0.050 C  
HETATM   10  C   UNL     1      -8.315   9.512  65.572  1.00  0.00    -0.137 C  
HETATM   11  C   UNL     1      -6.254   4.685  63.071  1.00  0.00    -0.021 C  
HETATM   12  C   UNL     1      -7.799  11.081  68.167  1.00  0.00    -0.116 C  
HETATM   13  O   UNL     1      -7.239   2.504  63.311  1.00  0.00    -0.042 OA 
HETATM   14  C   UNL     1      -8.545   7.854  65.219  1.00  0.00    -0.060 C  
HETATM   15  C   UNL     1      -6.523   3.368  63.793  1.00  0.00    -0.030 C  
HETATM   16  C   UNL     1      -6.018   3.367  65.174  1.00  0.00    -0.023 C  
HETATM   17  O   UNL     1      -9.898   7.578  65.602  1.00  0.00    -0.099 OA 
HETATM   18  C   UNL     1      -6.667   4.260  65.929  1.00  0.00    -0.052 C  
HETATM   19  C   UNL     1      -7.492   6.674  65.796  1.00  0.00    -0.081 C  
HETATM   20  C   UNL     1      -6.493   4.314  67.422  1.00  0.00    -0.042 C  
HETATM   21  H   UNL     1     -10.026   6.657  65.407  1.00  0.00     0.000 HD 
HETATM   22  C   UNL     1      -7.286   6.713  67.459  1.00  0.00    -0.095 C  
ENDROOT
BRANCH   4  23
HETATM   23  O   UNL     1      -8.987   8.755  69.219  1.00  0.00    -0.141 OA 
BRANCH  23  24
HETATM   24  C   UNL     1      -8.333   9.568  70.138  1.00  0.00    -0.192 C  
HETATM   25  O   UNL     1      -7.319  10.201  69.908  1.00  0.00    -0.135 OA 
BRANCH  24  26
HETATM   26  O   UNL     1      -9.121   9.758  71.244  1.00  0.00     0.026 OA 
BRANCH  26  27
HETATM   27  C   UNL     1      -9.291   8.558  72.033  1.00  0.00    -0.283 C  
HETATM   28  C   UNL     1     -10.727   8.048  72.104  1.00  0.00    -0.339 C  
ENDBRANCH  26  27
ENDBRANCH  24  26
ENDBRANCH  23  24
ENDBRANCH   4  23
BRANCH   4  29
HETATM   29  C   UNL     1     -10.210   9.693  67.328  1.00  0.00    -0.233 C  
HETATM   30  O   UNL     1     -10.542  10.169  66.238  1.00  0.00    -0.156 OA 
BRANCH  29  31
HETATM   31  O   UNL     1     -11.029   9.995  68.402  1.00  0.00    -0.239 OA 
HETATM   32  C   UNL     1     -11.880  11.175  68.123  1.00  0.00    -0.164 C  
HETATM   33 CL   UNL     1     -10.987  12.706  68.361  1.00  0.00    -0.268 Cl 
ENDBRANCH  29  31
ENDBRANCH   4  29
TORSDOF 6
ENDMDL
MODEL      124
REMARK 921   NORMALIZED FREE ENERGY PREDICTED BY IDOCK:    2.72 KCAL/MOL
REMARK 922        TOTAL FREE ENERGY PREDICTED BY IDOCK:    3.98 KCAL/MOL
REMARK 923 INTER-LIGAND FREE ENERGY PREDICTED BY IDOCK:   -1.25 KCAL/MOL
REMARK 924 INTRA-LIGAND FREE ENERGY PREDICTED BY IDOCK:    5.23 KCAL/MOL
REMARK 927      BINDING AFFINITY PREDICTED BY RF-SCORE:    0.00 PKD
ROOT
HETATM    1  C   UNL     1      -9.240  14.189  67.182  1.00  0.00    -0.237 C  
HETATM    2  C   UNL     1      -9.386  14.112  65.774  1.00  0.00     0.057 C  
HETATM    3  C   UNL     1      -8.015  14.243  66.340  1.00  0.00     1.107 C  
HETATM    4  C   UNL     1      -7.762  13.807  68.359  1.00  0.00    -0.134 C  
HETATM    5  C   UNL     1      -7.672  13.060  67.212  1.00  0.00    -0.112 C  
HETATM    6  C   UNL     1      -7.000  18.148  69.184  1.00  0.00    -0.218 C  
HETATM    7  C   UNL     1     -10.026  16.802  67.272  1.00  0.00    -0.272 C  
HETATM    8  C   UNL     1      -7.228  18.071  67.671  1.00  0.00    -0.210 C  
HETATM    9  C   UNL     1      -6.099  18.668  66.711  1.00  0.00    -0.174 C  
HETATM   10  C   UNL     1      -6.007  13.956  66.975  1.00  0.00     1.157 C  
HETATM   11  C   UNL     1      -6.225  19.645  65.795  1.00  0.00    -0.219 C  
HETATM   12  C   UNL     1      -7.984  11.601  67.000  1.00  0.00    -0.164 C  
HETATM   13  O   UNL     1      -6.576  21.362  67.442  1.00  0.00    -0.529 OA 
HETATM   14  C   UNL     1      -6.068  15.557  67.575  1.00  0.00    -0.089 C  
HETATM   15  C   UNL     1      -7.073  20.509  66.724  1.00  0.00    -0.275 C  
HETATM   16  C   UNL     1      -8.468  20.048  66.806  1.00  0.00    -0.380 C  
HETATM   17  O   UNL     1      -5.834  15.434  68.984  1.00  0.00    -0.097 OA 
HETATM   18  C   UNL     1      -8.547  18.837  67.368  1.00  0.00    -0.289 C  
HETATM   19  C   UNL     1      -7.373  16.570  67.257  1.00  0.00    -0.199 C  
HETATM   20  C   UNL     1      -9.865  18.228  67.762  1.00  0.00    -0.328 C  
HETATM   21  H   UNL     1      -5.868  16.323  69.317  1.00  0.00     0.000 HD 
HETATM   22  C   UNL     1      -8.854  15.914  67.693  1.00  0.00    -0.180 C  
ENDROOT
BRANCH   4  23
HETATM   23  O   UNL     1      -8.963  13.095  69.177  1.00  0.00     0.387 OA 
BRANCH  23  24
HETATM   24  C   UNL     1     -10.018  13.740  69.812  1.00  0.00     1.080 C  
HETATM   25  O   UNL     1      -9.960  14.853  70.303  1.00  0.00     0.107 OA 
BRANCH  24  26
HETATM   26  O   UNL     1     -11.189  13.064  69.582  1.00  0.00    -0.148 OA 
BRANCH  26  27
HETATM   27  C   UNL     1     -11.112  11.662  69.931  1.00  0.00     0.048 C  
HETATM   28  C   UNL     1     -12.217  11.184  70.867  1.00  0.00    -0.468 C  
ENDBRANCH  26  27
ENDBRANCH  24  26
ENDBRANCH  23  24
ENDBRANCH   4  23
BRANCH   4  29
HETATM   29  C   UNL     1      -6.542  12.791  69.225  1.00  0.00    -0.086 C  
HETATM   30  O   UNL     1      -5.883  13.152  70.204  1.00  0.00    -0.127 OA 
BRANCH  29  31
HETATM   31  O   UNL     1      -6.268  11.525  68.735  1.00  0.00    -0.048 OA 
HETATM   32  C   UNL     1      -7.457  10.645  68.806  1.00  0.00    -0.104 C  
HETATM   33 CL   UNL     1      -7.684   9.970  70.447  1.00  0.00    -0.110 Cl 
ENDBRANCH  29  31
ENDBRANCH   4  29
TORSDOF 6
ENDMDL
MODEL      125
REMARK 921   NORMALIZED FREE ENERGY PREDICTED BY IDOCK:    3.02 KCAL/MOL
REMARK 922        TOTAL FREE ENERGY PREDICTED BY IDOCK:    4.39 KCAL/MOL
REMARK 923 INTER-LIGAND FREE ENERGY PREDICTED BY IDOCK:   -2.85 KCAL/MOL
REMARK 924 INTRA-LIGAND FREE ENERGY PREDICTED BY IDOCK:    7.24 KCAL/MOL
REMARK 927      BINDING AFFINITY PREDICTED BY RF-SCORE:    0.00 PKD
ROOT
HETATM    1  C   UNL     1     -10.383  11.783  65.831  1.00  0.00    -0.280 C  
HETATM    2  C   UNL     1     -11.573  11.031  65.663  1.00  0.00     0.653 C  
HETATM    3  C   UNL     1     -10.967  11.106  67.020  1.00  0.00    -0.348 C  
HETATM    4  C   UNL     1      -9.577  12.616  67.371  1.00  0.00    -0.194 C  
HETATM    5  C   UNL     1     -10.938  12.529  67.524  1.00  0.00    -0.288 C  
HETATM    6  C   UNL     1      -6.324   9.541  67.620  1.00  0.00    -0.058 C  
HETATM    7  C   UNL     1      -8.818   9.830  64.736  1.00  0.00    -0.239 C  
HETATM    8  C   UNL     1      -7.603   8.737  67.368  1.00  0.00    -0.090 C  
HETATM    9  C   UNL     1      -7.969   7.568  68.394  1.00  0.00    -0.123 C  
HETATM   10  C   UNL     1     -10.516  11.486  69.063  1.00  0.00    -0.175 C  
HETATM   11  C   UNL     1      -8.143   6.261  68.130  1.00  0.00    -0.115 C  
HETATM   12  C   UNL     1     -11.982  13.607  67.387  1.00  0.00    -0.413 C  
HETATM   13  O   UNL     1      -5.823   5.895  67.611  1.00  0.00    -0.015 OA 
HETATM   14  C   UNL     1      -9.095  10.565  68.822  1.00  0.00    -0.166 C  
HETATM   15  C   UNL     1      -6.930   6.211  67.205  1.00  0.00    -0.068 C  
HETATM   16  C   UNL     1      -7.208   6.784  65.879  1.00  0.00    -0.070 C  
HETATM   17  O   UNL     1      -8.016  11.466  69.102  1.00  0.00    -0.324 OA 
HETATM   18  C   UNL     1      -7.469   8.093  65.960  1.00  0.00    -0.080 C  
HETATM   19  C   UNL     1      -8.826   9.712  67.396  1.00  0.00    -0.134 C  
HETATM   20  C   UNL     1      -7.577   8.959  64.734  1.00  0.00    -0.106 C  
HETATM   21  H   UNL     1      -7.227  10.955  68.968  1.00  0.00     0.000 HD 
HETATM   22  C   UNL     1      -8.937  10.658  66.017  1.00  0.00    -0.189 C  
ENDROOT
BRANCH   4  23
HETATM   23  O   UNL     1      -9.397  13.801  66.285  1.00  0.00    -0.239 OA 
BRANCH  23  24
HETATM   24  C   UNL     1      -9.948  13.836  65.009  1.00  0.00    -0.180 C  
HETATM   25  O   UNL     1     -10.171  12.856  64.321  1.00  0.00    -0.378 OA 
BRANCH  24  26
HETATM   26  O   UNL     1     -10.437  15.088  64.740  1.00  0.00    -0.381 OA 
BRANCH  26  27
HETATM   27  C   UNL     1     -10.437  15.957  65.897  1.00  0.00    -0.359 C  
HETATM   28  C   UNL     1     -11.185  17.271  65.699  1.00  0.00     0.559 C  
ENDBRANCH  26  27
ENDBRANCH  24  26
ENDBRANCH  23  24
ENDBRANCH   4  23
BRANCH   4  29
HETATM   29  C   UNL     1      -9.410  13.803  68.725  1.00  0.00     0.003 C  
HETATM   30  O   UNL     1      -9.322  13.510  69.920  1.00  0.00     1.621 OA 
BRANCH  29  31
HETATM   31  O   UNL     1      -9.435  15.155  68.427  1.00  0.00    -0.197 OA 
HETATM   32  C   UNL     1      -9.615  15.978  69.646  1.00  0.00    -0.120 C  
HETATM   33 CL   UNL     1     -11.330  16.047  70.150  1.00  0.00    -0.352 Cl 
ENDBRANCH  29  31
ENDBRANCH   4  29
TORSDOF 6
ENDMDL
MODEL      126
REMARK 921   NORMALIZED FREE ENERGY PREDICTED BY IDOCK:    3.23 KCAL/MOL
REMARK 922        TOTAL FREE ENERGY PREDICTED BY IDOCK:    4.68 KCAL/MOL
REMARK 923 INTER-LIGAND FREE ENERGY PREDICTED BY IDOCK:    2.19 KCAL/MOL
REMARK 924 INTRA-LIGAND FREE ENERGY PREDICTED BY IDOCK:    2.49 KCAL/MOL
REMARK 927      BINDING AFFINITY PREDICTED BY RF-SCORE:    0.00 PKD
ROOT
HETATM    1  C   UNL     1     -10.841   5.624  69.987  1.00  0.00    -0.366 C  
HETATM    2  C   UNL     1     -11.804   6.659  70.100  1.00  0.00    -0.347 C  
HETATM    3  C   UNL     1     -10.509   6.964  69.432  1.00  0.00    -0.237 C  
HETATM    4  C   UNL     1      -9.355   5.355  68.789  1.00  0.00    -0.128 C  
HETATM    5  C   UNL     1     -10.325   6.122  68.194  1.00  0.00    -0.242 C  
HETATM    6  C   UNL     1      -6.329   6.276  71.966  1.00  0.00    -0.046 C  
HETATM    7  C   UNL     1     -10.075   5.847  72.599  1.00  0.00    -0.201 C  
HETATM    8  C   UNL     1      -7.407   7.351  72.130  1.00  0.00    -0.072 C  
HETATM    9  C   UNL     1      -6.954   8.882  72.091  1.00  0.00     0.055 C  
HETATM   10  C   UNL     1      -8.951   7.437  68.065  1.00  0.00    -0.132 C  
HETATM   11  C   UNL     1      -7.118   9.818  73.043  1.00  0.00     2.128 C  
HETATM   12  C   UNL     1     -11.340   5.730  67.150  1.00  0.00     0.495 C  
HETATM   13  O   UNL     1      -5.570   8.775  74.559  1.00  0.00    -0.104 OA 
HETATM   14  C   UNL     1      -7.884   7.357  69.401  1.00  0.00    -0.122 C  
HETATM   15  C   UNL     1      -6.720   8.858  74.160  1.00  0.00     0.078 C  
HETATM   16  C   UNL     1      -7.803   7.929  74.518  1.00  0.00    -0.270 C  
HETATM   17  O   UNL     1      -6.957   6.315  69.073  1.00  0.00    -0.063 OA 
HETATM   18  C   UNL     1      -8.093   7.106  73.504  1.00  0.00    -0.130 C  
HETATM   19  C   UNL     1      -8.453   7.198  70.977  1.00  0.00    -0.129 C  
HETATM   20  C   UNL     1      -9.011   5.927  73.676  1.00  0.00    -0.127 C  
HETATM   21  H   UNL     1      -6.365   6.271  69.815  1.00  0.00     0.000 HD 
HETATM   22  C   UNL     1      -9.475   5.887  71.193  1.00  0.00    -0.183 C  
ENDROOT
BRANCH   4  23
HETATM   23  O   UNL     1      -9.994   3.869  68.780  1.00  0.00    -0.020 OA 
BRANCH  23  24
HETATM   24  C   UNL     1     -10.029   2.984  69.852  1.00  0.00     0.517 C  
HETATM   25  O   UNL     1     -10.836   2.082  69.983  1.00  0.00     2.405 OA 
BRANCH  24  26
HETATM   26  O   UNL     1      -8.887   3.105  70.600  1.00  0.00    -0.071 OA 
BRANCH  26  27
HETATM   27  C   UNL     1      -8.718   2.031  71.555  1.00  0.00    -0.063 C  
HETATM   28  C   UNL     1      -8.848   2.458  73.013  1.00  0.00    -0.075 C  
ENDBRANCH  26  27
ENDBRANCH  24  26
ENDBRANCH  23  24
ENDBRANCH   4  23
BRANCH   4  29
HETATM   29  C   UNL     1      -8.521   5.028  67.218  1.00  0.00    -0.105 C  
HETATM   30  O   UNL     1      -9.081   4.678  66.175  1.00  0.00    -0.120 OA 
BRANCH  29  31
HETATM   31  O   UNL     1      -7.140   5.115  67.171  1.00  0.00    -0.067 OA 
HETATM   32  C   UNL     1      -6.503   3.801  67.420  1.00  0.00    -0.038 C  
HETATM   33 CL   UNL     1      -6.428   3.422  69.166  1.00  0.00    -0.033 Cl 
ENDBRANCH  29  31
ENDBRANCH   4  29
TORSDOF 6
ENDMDL
MODEL      127
REMARK 921   NORMALIZED FREE ENERGY PREDICTED BY IDOCK:    4.02 KCAL/MOL
REMARK 922        TOTAL FREE ENERGY PREDICTED BY IDOCK:    5.74 KCAL/MOL
REMARK 923 INTER-LIGAND FREE ENERGY PREDICTED BY IDOCK:    5.00 KCAL/MOL
REMARK 924 INTRA-LIGAND FREE ENERGY PREDICTED BY IDOCK:    0.74 KCAL/MOL
REMARK 927      BINDING AFFINITY PREDICTED BY RF-SCORE:    0.00 PKD
ROOT
HETATM    1  C   UNL     1      -7.772  14.761  68.867  1.00  0.00    -0.146 C  
HETATM    2  C   UNL     1      -7.214  15.212  70.089  1.00  0.00     0.108 C  
HETATM    3  C   UNL     1      -8.453  15.869  69.590  1.00  0.00     0.052 C  
HETATM    4  C   UNL     1      -9.551  14.870  68.131  1.00  0.00    -0.210 C  
HETATM    5  C   UNL     1      -9.592  14.883  69.502  1.00  0.00    -0.027 C  
HETATM    6  C   UNL     1      -8.369  17.986  65.132  1.00  0.00     2.462 C  
HETATM    7  C   UNL     1      -5.915  16.078  67.359  1.00  0.00    -0.160 C  
HETATM    8  C   UNL     1      -7.708  18.431  66.439  1.00  0.00    -0.291 C  
HETATM    9  C   UNL     1      -8.011  19.908  66.968  1.00  0.00    -0.336 C  
HETATM   10  C   UNL     1     -10.432  16.580  69.279  1.00  0.00    -0.326 C  
HETATM   11  C   UNL     1      -7.131  20.896  67.211  1.00  0.00    -0.430 C  
HETATM   12  C   UNL     1      -9.967  13.776  70.454  1.00  0.00     2.675 C  
HETATM   13  O   UNL     1      -6.582  21.194  64.889  1.00  0.00    -0.119 OA 
HETATM   14  C   UNL     1      -9.819  17.405  67.911  1.00  0.00    -0.287 C  
HETATM   15  C   UNL     1      -6.345  20.611  65.934  1.00  0.00    -0.240 C  
HETATM   16  C   UNL     1      -5.464  19.440  66.064  1.00  0.00    -0.170 C  
HETATM   17  O   UNL     1     -10.545  16.867  66.798  1.00  0.00    -0.290 OA 
HETATM   18  C   UNL     1      -6.170  18.317  66.238  1.00  0.00    -0.234 C  
HETATM   19  C   UNL     1      -8.169  17.477  67.590  1.00  0.00    -0.218 C  
HETATM   20  C   UNL     1      -5.528  16.958  66.187  1.00  0.00     0.416 C  
HETATM   21  H   UNL     1     -10.204  17.325  66.039  1.00  0.00     0.000 HD 
HETATM   22  C   UNL     1      -7.432  15.972  67.523  1.00  0.00    -0.186 C  
ENDROOT
BRANCH   4  23
HETATM   23  O   UNL     1      -9.197  13.330  67.782  1.00  0.00    -0.191 OA 
BRANCH  23  24
HETATM   24  C   UNL     1      -9.421  12.692  66.567  1.00  0.00    -0.247 C  
HETATM   25  O   UNL     1      -9.478  11.484  66.417  1.00  0.00    -0.200 OA 
BRANCH  24  26
HETATM   26  O   UNL     1      -9.821  13.601  65.623  1.00  0.00    -0.256 OA 
BRANCH  26  27
HETATM   27  C   UNL     1     -10.613  13.010  64.566  1.00  0.00    -0.393 C  
HETATM   28  C   UNL     1     -10.849  13.925  63.368  1.00  0.00     1.831 C  
ENDBRANCH  26  27
ENDBRANCH  24  26
ENDBRANCH  23  24
ENDBRANCH   4  23
BRANCH   4  29
HETATM   29  C   UNL     1     -11.319  14.517  67.990  1.00  0.00    -0.306 C  
HETATM   30  O   UNL     1     -12.094  15.070  67.205  1.00  0.00    -0.159 OA 
BRANCH  29  31
HETATM   31  O   UNL     1     -11.882  13.597  68.859  1.00  0.00    -0.324 OA 
HETATM   32  C   UNL     1     -13.322  13.866  69.077  1.00  0.00     3.071 C  
HETATM   33 CL   UNL     1     -13.576  15.168  70.277  1.00  0.00     0.127 Cl 
ENDBRANCH  29  31
ENDBRANCH   4  29
TORSDOF 6
ENDMDL
MODEL      128
REMARK 921   NORMALIZED FREE ENERGY PREDICTED BY IDOCK:    4.04 KCAL/MOL
REMARK 922        TOTAL FREE ENERGY PREDICTED BY IDOCK:    5.77 KCAL/MOL
REMARK 923 INTER-LIGAND FREE ENERGY PREDICTED BY IDOCK:   -0.40 KCAL/MOL
REMARK 924 INTRA-LIGAND FREE ENERGY PREDICTED BY IDOCK:    6.18 KCAL/MOL
REMARK 927      BINDING AFFINITY PREDICTED BY RF-SCORE:    0.00 PKD
ROOT
HETATM    1  C   UNL     1      -8.924  14.074  68.807  1.00  0.00    -0.030 C  
HETATM    2  C   UNL     1      -8.224  14.656  67.719  1.00  0.00    -0.169 C  
HETATM    3  C   UNL     1      -9.163  13.535  67.441  1.00  0.00    -0.223 C  
HETATM    4  C   UNL     1     -10.563  13.065  68.909  1.00  0.00    -0.127 C  
HETATM    5  C   UNL     1     -10.576  13.902  67.822  1.00  0.00    -0.248 C  
HETATM    6  C   UNL     1      -8.411   9.213  69.705  1.00  0.00    -0.133 C  
HETATM    7  C   UNL     1      -6.746  12.654  69.642  1.00  0.00     0.085 C  
HETATM    8  C   UNL     1      -7.617   9.878  68.577  1.00  0.00    -0.080 C  
HETATM    9  C   UNL     1      -7.377   9.045  67.235  1.00  0.00    -0.084 C  
HETATM   10  C   UNL     1     -10.774  12.296  66.815  1.00  0.00    -0.272 C  
HETATM   11  C   UNL     1      -6.204   8.704  66.673  1.00  0.00    -0.058 C  
HETATM   12  C   UNL     1     -11.300  15.212  67.638  1.00  0.00    -0.327 C  
HETATM   13  O   UNL     1      -5.620   7.177  68.437  1.00  0.00    -0.020 OA 
HETATM   14  C   UNL     1      -9.932  10.996  67.542  1.00  0.00    -0.174 C  
HETATM   15  C   UNL     1      -5.587   8.322  68.015  1.00  0.00    -0.035 C  
HETATM   16  C   UNL     1      -5.168   9.495  68.799  1.00  0.00    -0.037 C  
HETATM   17  O   UNL     1     -10.816  10.503  68.556  1.00  0.00    -0.203 OA 
HETATM   18  C   UNL     1      -6.220  10.242  69.154  1.00  0.00    -0.040 C  
HETATM   19  C   UNL     1      -8.365  11.177  68.130  1.00  0.00    -0.136 C  
HETATM   20  C   UNL     1      -6.093  11.377  70.133  1.00  0.00    -0.154 C  
HETATM   21  H   UNL     1     -10.348   9.781  68.960  1.00  0.00     0.000 HD 
HETATM   22  C   UNL     1      -8.201  12.434  69.228  1.00  0.00     0.709 C  
ENDROOT
BRANCH   4  23
HETATM   23  O   UNL     1     -10.774  14.070  70.159  1.00  0.00     0.249 OA 
BRANCH  23  24
HETATM   24  C   UNL     1     -11.455  15.282  70.131  1.00  0.00    -0.292 C  
HETATM   25  O   UNL     1     -11.299  16.149  69.290  1.00  0.00    -0.330 OA 
BRANCH  24  26
HETATM   26  O   UNL     1     -12.498  15.257  71.021  1.00  0.00    -0.321 OA 
BRANCH  26  27
HETATM   27  C   UNL     1     -12.270  14.362  72.136  1.00  0.00    -0.149 C  
HETATM   28  C   UNL     1     -12.696  14.921  73.490  1.00  0.00    -0.629 C  
ENDBRANCH  26  27
ENDBRANCH  24  26
ENDBRANCH  23  24
ENDBRANCH   4  23
BRANCH   4  29
HETATM   29  C   UNL     1     -12.344  12.770  68.818  1.00  0.00     0.247 C  
HETATM   30  O   UNL     1     -13.203  13.643  68.663  1.00  0.00     1.870 OA 
BRANCH  29  31
HETATM   31  O   UNL     1     -12.811  11.477  68.989  1.00  0.00     0.174 OA 
HETATM   32  C   UNL     1     -13.396  11.284  70.337  1.00  0.00     0.719 C  
HETATM   33 CL   UNL     1     -12.132  11.001  71.571  1.00  0.00    -0.185 Cl 
ENDBRANCH  29  31
ENDBRANCH   4  29
TORSDOF 6
ENDMDL
MODEL      129
REMARK 921   NORMALIZED FREE ENERGY PREDICTED BY IDOCK:    4.76 KCAL/MOL
REMARK 922        TOTAL FREE ENERGY PREDICTED BY IDOCK:    6.74 KCAL/MOL
REMARK 923 INTER-LIGAND FREE ENERGY PREDICTED BY IDOCK:    5.88 KCAL/MOL
REMARK 924 INTRA-LIGAND FREE ENERGY PREDICTED BY IDOCK:    0.85 KCAL/MOL
REMARK 927      BINDING AFFINITY PREDICTED BY RF-SCORE:    0.00 PKD
ROOT
HETATM    1  C   UNL     1      -8.075  15.254  68.262  1.00  0.00    -0.137 C  
HETATM    2  C   UNL     1      -7.744  15.783  69.535  1.00  0.00    -0.166 C  
HETATM    3  C   UNL     1      -8.849  16.419  68.768  1.00  0.00    -0.246 C  
HETATM    4  C   UNL     1      -9.680  15.333  67.198  1.00  0.00    -0.217 C  
HETATM    5  C   UNL     1      -9.978  15.445  68.533  1.00  0.00    -0.213 C  
HETATM    6  C   UNL     1      -7.875  18.211  64.273  1.00  0.00     7.386 C  
HETATM    7  C   UNL     1      -5.933  16.435  67.048  1.00  0.00    -0.108 C  
HETATM    8  C   UNL     1      -7.459  18.740  65.649  1.00  0.00    -0.035 C  
HETATM    9  C   UNL     1      -7.817  20.255  66.009  1.00  0.00    -0.179 C  
HETATM   10  C   UNL     1     -10.716  17.133  68.041  1.00  0.00    -0.372 C  
HETATM   11  C   UNL     1      -6.972  21.246  66.347  1.00  0.00     0.090 C  
HETATM   12  C   UNL     1     -10.554  14.414  69.470  1.00  0.00    -0.083 C  
HETATM   13  O   UNL     1      -5.990  21.370  64.155  1.00  0.00    -0.227 OA 
HETATM   14  C   UNL     1      -9.836  17.850  66.761  1.00  0.00    -0.333 C  
HETATM   15  C   UNL     1      -5.969  20.859  65.264  1.00  0.00    -0.245 C  
HETATM   16  C   UNL     1      -5.159  19.689  65.636  1.00  0.00    -0.167 C  
HETATM   17  O   UNL     1     -10.354  17.244  65.570  1.00  0.00    -0.614 OA 
HETATM   18  C   UNL     1      -5.915  18.592  65.750  1.00  0.00    -0.245 C  
HETATM   19  C   UNL     1      -8.153  17.876  66.753  1.00  0.00    -0.262 C  
HETATM   20  C   UNL     1      -5.310  17.224  65.912  1.00  0.00     0.148 C  
HETATM   21  H   UNL     1      -9.865  17.642  64.859  1.00  0.00     0.000 HD 
HETATM   22  C   UNL     1      -7.456  16.361  66.928  1.00  0.00    -0.269 C  
ENDROOT
BRANCH   4  23
HETATM   23  O   UNL     1      -9.308  13.768  67.027  1.00  0.00    -0.229 OA 
BRANCH  23  24
HETATM   24  C   UNL     1      -8.923  13.141  65.848  1.00  0.00     0.478 C  
HETATM   25  O   UNL     1      -8.827  13.691  64.766  1.00  0.00     2.006 OA 
BRANCH  24  26
HETATM   26  O   UNL     1      -8.423  11.893  66.120  1.00  0.00    -0.050 OA 
BRANCH  26  27
HETATM   27  C   UNL     1      -8.342  11.611  67.537  1.00  0.00    -0.151 C  
HETATM   28  C   UNL     1      -7.630  10.307  67.881  1.00  0.00    -0.089 C  
ENDBRANCH  26  27
ENDBRANCH  24  26
ENDBRANCH  23  24
ENDBRANCH   4  23
BRANCH   4  29
HETATM   29  C   UNL     1     -11.399  14.995  66.750  1.00  0.00    -0.293 C  
HETATM   30  O   UNL     1     -12.072  14.052  67.176  1.00  0.00    -0.423 OA 
BRANCH  29  31
HETATM   31  O   UNL     1     -12.013  15.811  65.815  1.00  0.00     0.511 OA 
HETATM   32  C   UNL     1     -12.815  15.024  64.850  1.00  0.00     0.427 C  
HETATM   33 CL   UNL     1     -11.792  14.309  63.568  1.00  0.00     0.186 Cl 
ENDBRANCH  29  31
ENDBRANCH   4  29
TORSDOF 6
ENDMDL
MODEL      130
REMARK 921   NORMALIZED FREE ENERGY PREDICTED BY IDOCK:    4.80 KCAL/MOL
REMARK 922        TOTAL FREE ENERGY PREDICTED BY IDOCK:    6.80 KCAL/MOL
REMARK 923 INTER-LIGAND FREE ENERGY PREDICTED BY IDOCK:   -0.69 KCAL/MOL
REMARK 924 INTRA-LIGAND FREE ENERGY PREDICTED BY IDOCK:    7.49 KCAL/MOL
REMARK 927      BINDING AFFINITY PREDICTED BY RF-SCORE:    0.00 PKD
ROOT
HETATM    1  C   UNL     1      -9.047   8.806  68.140  1.00  0.00    -0.142 C  
HETATM    2  C   UNL     1      -9.426   7.864  67.150  1.00  0.00    -0.203 C  
HETATM    3  C   UNL     1     -10.475   8.393  68.064  1.00  0.00    -0.242 C  
HETATM    4  C   UNL     1     -10.042  10.136  69.118  1.00  0.00    -0.213 C  
HETATM    5  C   UNL     1     -10.631   9.886  67.904  1.00  0.00    -0.303 C  
HETATM    6  C   UNL     1      -9.897   7.775  72.927  1.00  0.00    -0.326 C  
HETATM    7  C   UNL     1      -7.953   6.894  69.754  1.00  0.00    -0.124 C  
HETATM    8  C   UNL     1     -10.236   6.748  71.843  1.00  0.00    -0.206 C  
HETATM    9  C   UNL     1     -11.548   5.856  72.039  1.00  0.00    -0.289 C  
HETATM   10  C   UNL     1     -12.142   9.373  68.947  1.00  0.00     1.640 C  
HETATM   11  C   UNL     1     -11.634   4.515  72.101  1.00  0.00     0.856 C  
HETATM   12  C   UNL     1     -10.606  10.715  66.645  1.00  0.00    -0.276 C  
HETATM   13  O   UNL     1     -10.500   4.382  74.218  1.00  0.00    -0.220 OA 
HETATM   14  C   UNL     1     -11.666   8.649  70.422  1.00  0.00    -0.007 C  
HETATM   15  C   UNL     1     -10.406   4.404  73.001  1.00  0.00    -0.179 C  
HETATM   16  C   UNL     1      -9.146   4.550  72.257  1.00  0.00    -0.149 C  
HETATM   17  O   UNL     1     -11.395   9.746  71.303  1.00  0.00    -0.361 OA 
HETATM   18  C   UNL     1      -9.027   5.777  71.738  1.00  0.00    -0.143 C  
HETATM   19  C   UNL     1     -10.442   7.495  70.485  1.00  0.00    -0.224 C  
HETATM   20  C   UNL     1      -7.744   6.254  71.113  1.00  0.00    -0.102 C  
HETATM   21  H   UNL     1     -11.130   9.344  72.122  1.00  0.00     0.000 HD 
HETATM   22  C   UNL     1      -9.001   8.007  69.798  1.00  0.00    -0.145 C  
ENDROOT
BRANCH   4  23
HETATM   23  O   UNL     1      -8.731  10.998  68.728  1.00  0.00    -0.157 OA 
BRANCH  23  24
HETATM   24  C   UNL     1      -7.950  10.835  67.589  1.00  0.00    -0.110 C  
HETATM   25  O   UNL     1      -7.789   9.780  67.001  1.00  0.00    -0.101 OA 
BRANCH  24  26
HETATM   26  O   UNL     1      -7.599  12.058  67.079  1.00  0.00    -0.149 OA 
BRANCH  26  27
HETATM   27  C   UNL     1      -6.833  12.861  68.007  1.00  0.00    -0.108 C  
HETATM   28  C   UNL     1      -5.492  13.345  67.465  1.00  0.00     0.046 C  
ENDBRANCH  26  27
ENDBRANCH  24  26
ENDBRANCH  23  24
ENDBRANCH   4  23
BRANCH   4  29
HETATM   29  C   UNL     1     -10.992  11.654  69.368  1.00  0.00    -0.152 C  
HETATM   30  O   UNL     1     -10.602  12.791  69.086  1.00  0.00    -0.103 OA 
BRANCH  29  31
HETATM   31  O   UNL     1     -12.233  11.566  69.976  1.00  0.00    -0.299 OA 
HETATM   32  C   UNL     1     -12.609  12.840  70.632  1.00  0.00    -0.168 C  
HETATM   33 CL   UNL     1     -11.829  13.014  72.232  1.00  0.00     1.969 Cl 
ENDBRANCH  29  31
ENDBRANCH   4  29
TORSDOF 6
ENDMDL
MODEL      131
REMARK 921   NORMALIZED FREE ENERGY PREDICTED BY IDOCK:    4.89 KCAL/MOL
REMARK 922        TOTAL FREE ENERGY PREDICTED BY IDOCK:    6.92 KCAL/MOL
REMARK 923 INTER-LIGAND FREE ENERGY PREDICTED BY IDOCK:    1.83 KCAL/MOL
REMARK 924 INTRA-LIGAND FREE ENERGY PREDICTED BY IDOCK:    5.09 KCAL/MOL
REMARK 927      BINDING AFFINITY PREDICTED BY RF-SCORE:    0.00 PKD
ROOT
HETATM    1  C   UNL     1     -11.118  13.662  69.499  1.00  0.00    -0.127 C  
HETATM    2  C   UNL     1      -9.885  14.191  69.957  1.00  0.00     1.178 C  
HETATM    3  C   UNL     1     -10.017  13.841  68.516  1.00  0.00    -0.217 C  
HETATM    4  C   UNL     1     -11.940  13.598  67.757  1.00  0.00    -0.352 C  
HETATM    5  C   UNL     1     -11.089  14.670  67.852  1.00  0.00    -0.301 C  
HETATM    6  C   UNL     1     -11.188   9.200  67.310  1.00  0.00     0.581 C  
HETATM    7  C   UNL     1     -10.608  11.184  70.528  1.00  0.00     1.217 C  
HETATM    8  C   UNL     1      -9.880   9.765  67.871  1.00  0.00    -0.176 C  
HETATM    9  C   UNL     1      -8.530   9.473  67.068  1.00  0.00    -0.128 C  
HETATM   10  C   UNL     1     -10.177  13.845  66.396  1.00  0.00    -0.292 C  
HETATM   11  C   UNL     1      -7.425   8.847  67.509  1.00  0.00    -0.085 C  
HETATM   12  C   UNL     1     -11.416  16.130  68.041  1.00  0.00    -0.163 C  
HETATM   13  O   UNL     1      -8.506   6.704  67.659  1.00  0.00    -0.121 OA 
HETATM   14  C   UNL     1     -10.259  12.139  66.494  1.00  0.00    -0.206 C  
HETATM   15  C   UNL     1      -8.232   7.758  68.210  1.00  0.00    -0.124 C  
HETATM   16  C   UNL     1      -8.801   8.212  69.488  1.00  0.00    -0.143 C  
HETATM   17  O   UNL     1     -11.531  11.796  65.929  1.00  0.00    -0.314 OA 
HETATM   18  C   UNL     1      -9.704   9.181  69.301  1.00  0.00    -0.164 C  
HETATM   19  C   UNL     1      -9.991  11.324  67.941  1.00  0.00    -0.189 C  
HETATM   20  C   UNL     1     -10.585   9.672  70.418  1.00  0.00    -0.354 C  
HETATM   21  H   UNL     1     -11.576  10.849  65.983  1.00  0.00     0.000 HD 
HETATM   22  C   UNL     1     -10.966  11.852  69.199  1.00  0.00    -0.251 C  
ENDROOT
BRANCH   4  23
HETATM   23  O   UNL     1     -13.212  14.047  68.650  1.00  0.00     1.784 OA 
BRANCH  23  24
HETATM   24  C   UNL     1     -13.384  13.813  70.009  1.00  0.00     1.075 C  
HETATM   25  O   UNL     1     -13.049  12.795  70.588  1.00  0.00     0.084 OA 
BRANCH  24  26
HETATM   26  O   UNL     1     -13.742  14.973  70.646  1.00  0.00    -0.213 OA 
BRANCH  26  27
HETATM   27  C   UNL     1     -13.668  14.874  72.087  1.00  0.00    -0.444 C  
HETATM   28  C   UNL     1     -12.252  14.923  72.651  1.00  0.00    -0.395 C  
ENDBRANCH  26  27
ENDBRANCH  24  26
ENDBRANCH  23  24
ENDBRANCH   4  23
BRANCH   4  29
HETATM   29  C   UNL     1     -12.733  14.243  66.265  1.00  0.00    -0.044 C  
HETATM   30  O   UNL     1     -13.940  14.178  66.017  1.00  0.00     1.199 OA 
BRANCH  29  31
HETATM   31  O   UNL     1     -11.936  14.808  65.283  1.00  0.00    -0.325 OA 
HETATM   32  C   UNL     1     -12.578  14.729  63.951  1.00  0.00     0.353 C  
HETATM   33 CL   UNL     1     -12.363  13.117  63.208  1.00  0.00    -0.512 Cl 
ENDBRANCH  29  31
ENDBRANCH   4  29
TORSDOF 6
ENDMDL
MODEL      132
REMARK 921   NORMALIZED FREE ENERGY PREDICTED BY IDOCK:    5.09 KCAL/MOL
REMARK 922        TOTAL FREE ENERGY PREDICTED BY IDOCK:    7.19 KCAL/MOL
REMARK 923 INTER-LIGAND FREE ENERGY PREDICTED BY IDOCK:    2.06 KCAL/MOL
REMARK 924 INTRA-LIGAND FREE ENERGY PREDICTED BY IDOCK:    5.14 KCAL/MOL
REMARK 927      BINDING AFFINITY PREDICTED BY RF-SCORE:    0.00 PKD
ROOT
HETATM    1  C   UNL     1     -11.689  14.450  70.950  1.00  0.00    -0.281 C  
HETATM    2  C   UNL     1     -10.618  14.758  71.826  1.00  0.00     1.472 C  
HETATM    3  C   UNL     1     -10.299  14.343  70.433  1.00  0.00     0.837 C  
HETATM    4  C   UNL     1     -11.833  14.428  69.028  1.00  0.00    -0.323 C  
HETATM    5  C   UNL     1     -10.869  15.318  69.432  1.00  0.00    -0.263 C  
HETATM    6  C   UNL     1     -11.899   9.949  68.853  1.00  0.00     0.410 C  
HETATM    7  C   UNL     1     -12.102  11.996  72.076  1.00  0.00     1.532 C  
HETATM    8  C   UNL     1     -10.789  10.284  69.853  1.00  0.00    -0.355 C  
HETATM    9  C   UNL     1      -9.333   9.680  69.590  1.00  0.00    -0.226 C  
HETATM   10  C   UNL     1      -9.692  14.233  68.398  1.00  0.00    -0.225 C  
HETATM   11  C   UNL     1      -8.612   8.881  70.397  1.00  0.00    -0.198 C  
HETATM   12  C   UNL     1     -10.932  16.823  69.500  1.00  0.00    -0.158 C  
HETATM   13  O   UNL     1     -10.094   7.007  70.130  1.00  0.00    -0.185 OA 
HETATM   14  C   UNL     1     -10.154  12.587  68.448  1.00  0.00    -0.216 C  
HETATM   15  C   UNL     1      -9.822   8.022  70.751  1.00  0.00    -0.183 C  
HETATM   16  C   UNL     1     -10.701   8.664  71.740  1.00  0.00    -0.392 C  
HETATM   17  O   UNL     1     -11.184  12.461  67.459  1.00  0.00    -0.260 OA 
HETATM   18  C   UNL     1     -11.257   9.776  71.246  1.00  0.00    -0.417 C  
HETATM   19  C   UNL     1     -10.593  11.836  69.889  1.00  0.00     0.657 C  
HETATM   20  C   UNL     1     -12.355  10.505  71.971  1.00  0.00     0.079 C  
HETATM   21  H   UNL     1     -11.440  11.546  67.487  1.00  0.00     0.000 HD 
HETATM   22  C   UNL     1     -11.819  12.629  70.713  1.00  0.00     0.128 C  
ENDROOT
BRANCH   4  23
HETATM   23  O   UNL     1     -13.216  15.177  69.404  1.00  0.00     0.619 OA 
BRANCH  23  24
HETATM   24  C   UNL     1     -14.015  14.919  70.512  1.00  0.00     0.489 C  
HETATM   25  O   UNL     1     -14.313  13.807  70.910  1.00  0.00     0.596 OA 
BRANCH  24  26
HETATM   26  O   UNL     1     -14.205  16.068  71.235  1.00  0.00    -0.086 OA 
BRANCH  26  27
HETATM   27  C   UNL     1     -14.409  15.823  72.646  1.00  0.00    -0.110 C  
HETATM   28  C   UNL     1     -13.253  15.108  73.336  1.00  0.00    -0.488 C  
ENDBRANCH  26  27
ENDBRANCH  24  26
ENDBRANCH  23  24
ENDBRANCH   4  23
BRANCH   4  29
HETATM   29  C   UNL     1     -11.893  15.112  67.355  1.00  0.00    -0.069 C  
HETATM   30  O   UNL     1     -12.868  15.061  66.601  1.00  0.00     0.760 OA 
BRANCH  29  31
HETATM   31  O   UNL     1     -10.748  15.695  66.836  1.00  0.00    -0.311 OA 
HETATM   32  C   UNL     1     -10.791  15.753  65.357  1.00  0.00    -0.364 C  
HETATM   33 CL   UNL     1     -10.338  14.188  64.620  1.00  0.00    -0.411 Cl 
ENDBRANCH  29  31
ENDBRANCH   4  29
TORSDOF 6
ENDMDL
MODEL      133
REMARK 921   NORMALIZED FREE ENERGY PREDICTED BY IDOCK:    7.08 KCAL/MOL
REMARK 922        TOTAL FREE ENERGY PREDICTED BY IDOCK:    9.88 KCAL/MOL
REMARK 923 INTER-LIGAND FREE ENERGY PREDICTED BY IDOCK:   -1.52 KCAL/MOL
REMARK 924 INTRA-LIGAND FREE ENERGY PREDICTED BY IDOCK:   11.40 KCAL/MOL
REMARK 927      BINDING AFFINITY PREDICTED BY RF-SCORE:    0.00 PKD
ROOT
HETATM    1  C   UNL     1      -7.907   8.543  67.530  1.00  0.00    -0.099 C  
HETATM    2  C   UNL     1      -7.468   8.078  68.795  1.00  0.00    -0.091 C  
HETATM    3  C   UNL     1      -6.707   7.665  67.585  1.00  0.00    -0.067 C  
HETATM    4  C   UNL     1      -7.004   8.761  65.840  1.00  0.00    -0.076 C  
HETATM    5  C   UNL     1      -6.115   8.862  66.881  1.00  0.00    -0.058 C  
HETATM    6  C   UNL     1      -9.096   5.245  64.007  1.00  0.00     0.244 C  
HETATM    7  C   UNL     1      -9.961   6.748  67.415  1.00  0.00    -0.192 C  
HETATM    8  C   UNL     1      -8.683   4.770  65.402  1.00  0.00    -0.138 C  
HETATM    9  C   UNL     1      -7.809   3.436  65.513  1.00  0.00    -0.085 C  
HETATM   10  C   UNL     1      -5.260   7.372  66.055  1.00  0.00    -0.024 C  
HETATM   11  C   UNL     1      -8.109   2.305  66.176  1.00  0.00    -0.085 C  
HETATM   12  C   UNL     1      -5.477  10.093  67.472  1.00  0.00    -0.041 C  
HETATM   13  O   UNL     1      -9.905   1.720  64.688  1.00  0.00    -0.026 OA 
HETATM   14  C   UNL     1      -6.397   6.333  65.310  1.00  0.00    -0.038 C  
HETATM   15  C   UNL     1      -9.556   2.318  65.694  1.00  0.00     0.264 C  
HETATM   16  C   UNL     1     -10.389   3.279  66.432  1.00  0.00     1.439 C  
HETATM   17  O   UNL     1      -6.659   6.927  64.032  1.00  0.00    -0.038 OA 
HETATM   18  C   UNL     1      -9.989   4.537  66.213  1.00  0.00    -0.268 C  
HETATM   19  C   UNL     1      -7.823   5.886  66.083  1.00  0.00    -0.104 C  
HETATM   20  C   UNL     1     -10.795   5.719  66.677  1.00  0.00    -0.290 C  
HETATM   21  H   UNL     1      -7.291   6.350  63.618  1.00  0.00     0.000 HD 
HETATM   22  C   UNL     1      -8.741   7.188  66.604  1.00  0.00    -0.131 C  
ENDROOT
BRANCH   4  23
HETATM   23  O   UNL     1      -7.817  10.158  65.906  1.00  0.00    -0.120 OA 
BRANCH  23  24
HETATM   24  C   UNL     1      -9.082  10.397  65.380  1.00  0.00    -0.189 C  
HETATM   25  O   UNL     1      -9.402  10.198  64.222  1.00  0.00    -0.254 OA 
BRANCH  24  26
HETATM   26  O   UNL     1      -9.975  10.641  66.391  1.00  0.00    -0.206 OA 
BRANCH  26  27
HETATM   27  C   UNL     1      -9.979  12.021  66.823  1.00  0.00    -0.201 C  
HETATM   28  C   UNL     1     -11.094  12.868  66.218  1.00  0.00    -0.317 C  
ENDBRANCH  26  27
ENDBRANCH  24  26
ENDBRANCH  23  24
ENDBRANCH   4  23
BRANCH   4  29
HETATM   29  C   UNL     1      -5.838   9.472  64.655  1.00  0.00    -0.073 C  
HETATM   30  O   UNL     1      -5.146   8.826  63.864  1.00  0.00    -0.054 OA 
BRANCH  29  31
HETATM   31  O   UNL     1      -5.646  10.844  64.656  1.00  0.00    -0.075 OA 
HETATM   32  C   UNL     1      -5.349  11.352  66.015  1.00  0.00     0.011 C  
HETATM   33 CL   UNL     1      -6.838  11.550  66.986  1.00  0.00    -0.137 Cl 
ENDBRANCH  29  31
ENDBRANCH   4  29
TORSDOF 6
ENDMDL
MODEL      134
REMARK 921   NORMALIZED FREE ENERGY PREDICTED BY IDOCK:    7.39 KCAL/MOL
REMARK 922        TOTAL FREE ENERGY PREDICTED BY IDOCK:   10.29 KCAL/MOL
REMARK 923 INTER-LIGAND FREE ENERGY PREDICTED BY IDOCK:    8.82 KCAL/MOL
REMARK 924 INTRA-LIGAND FREE ENERGY PREDICTED BY IDOCK:    1.47 KCAL/MOL
REMARK 927      BINDING AFFINITY PREDICTED BY RF-SCORE:    0.00 PKD
ROOT
HETATM    1  C   UNL     1      -8.229  12.515  69.323  1.00  0.00     0.737 C  
HETATM    2  C   UNL     1      -9.163  12.915  70.311  1.00  0.00     4.768 C  
HETATM    3  C   UNL     1      -9.506  13.135  68.880  1.00  0.00     0.231 C  
HETATM    4  C   UNL     1      -8.419  12.076  67.455  1.00  0.00    -0.165 C  
HETATM    5  C   UNL     1      -9.586  11.826  68.133  1.00  0.00    -0.193 C  
HETATM    6  C   UNL     1      -6.479  15.892  66.123  1.00  0.00     2.363 C  
HETATM    7  C   UNL     1      -6.623  14.683  69.748  1.00  0.00    -0.164 C  
HETATM    8  C   UNL     1      -7.438  16.310  67.241  1.00  0.00    -0.212 C  
HETATM    9  C   UNL     1      -8.517  17.444  66.919  1.00  0.00    -0.264 C  
HETATM   10  C   UNL     1     -10.345  13.091  66.926  1.00  0.00    -0.246 C  
HETATM   11  C   UNL     1      -8.680  18.629  67.533  1.00  0.00    -0.284 C  
HETATM   12  C   UNL     1     -10.160  10.507  68.584  1.00  0.00    -0.190 C  
HETATM   13  O   UNL     1      -6.609  19.524  66.702  1.00  0.00    -0.187 OA 
HETATM   14  C   UNL     1      -9.223  14.318  66.520  1.00  0.00    -0.235 C  
HETATM   15  C   UNL     1      -7.178  18.895  67.579  1.00  0.00    -0.214 C  
HETATM   16  C   UNL     1      -6.504  18.140  68.646  1.00  0.00    -0.220 C  
HETATM   17  O   UNL     1      -8.423  13.756  65.472  1.00  0.00     1.168 OA 
HETATM   18  C   UNL     1      -6.568  16.822  68.424  1.00  0.00    -0.149 C  
HETATM   19  C   UNL     1      -8.268  15.062  67.689  1.00  0.00    -0.181 C  
HETATM   20  C   UNL     1      -5.780  15.839  69.246  1.00  0.00    -0.111 C  
HETATM   21  H   UNL     1      -7.800  14.437  65.247  1.00  0.00     0.000 HD 
HETATM   22  C   UNL     1      -7.377  13.985  68.615  1.00  0.00    -0.120 C  
ENDROOT
BRANCH   4  23
HETATM   23  O   UNL     1      -7.446  10.873  67.928  1.00  0.00    -0.087 OA 
BRANCH  23  24
HETATM   24  C   UNL     1      -6.215  10.546  67.370  1.00  0.00    -0.057 C  
HETATM   25  O   UNL     1      -5.388  11.353  66.986  1.00  0.00    -0.065 OA 
BRANCH  24  26
HETATM   26  O   UNL     1      -5.957   9.211  67.548  1.00  0.00    -0.049 OA 
BRANCH  26  27
HETATM   27  C   UNL     1      -7.134   8.450  67.909  1.00  0.00    -0.083 C  
HETATM   28  C   UNL     1      -7.633   7.506  66.819  1.00  0.00    -0.101 C  
ENDBRANCH  26  27
ENDBRANCH  24  26
ENDBRANCH  23  24
ENDBRANCH   4  23
BRANCH   4  29
HETATM   29  C   UNL     1      -8.942  11.114  66.016  1.00  0.00    -0.200 C  
HETATM   30  O   UNL     1     -10.108  10.805  65.753  1.00  0.00    -0.240 OA 
BRANCH  29  31
HETATM   31  O   UNL     1      -7.972  10.626  65.157  1.00  0.00    -0.130 OA 
HETATM   32  C   UNL     1      -7.404  11.702  64.311  1.00  0.00     2.623 C  
HETATM   33 CL   UNL     1      -8.461  12.076  62.918  1.00  0.00     1.080 Cl 
ENDBRANCH  29  31
ENDBRANCH   4  29
TORSDOF 6
ENDMDL
MODEL      135
REMARK 921   NORMALIZED FREE ENERGY PREDICTED BY IDOCK:    9.61 KCAL/MOL
REMARK 922        TOTAL FREE ENERGY PREDICTED BY IDOCK:   13.30 KCAL/MOL
REMARK 923 INTER-LIGAND FREE ENERGY PREDICTED BY IDOCK:    7.26 KCAL/MOL
REMARK 924 INTRA-LIGAND FREE ENERGY PREDICTED BY IDOCK:    6.03 KCAL/MOL
REMARK 927      BINDING AFFINITY PREDICTED BY RF-SCORE:    0.00 PKD
ROOT
HETATM    1  C   UNL     1     -11.141  10.156  67.077  1.00  0.00    -0.061 C  
HETATM    2  C   UNL     1     -12.269  10.411  66.257  1.00  0.00     4.592 C  
HETATM    3  C   UNL     1     -11.300  11.515  66.494  1.00  0.00    -0.263 C  
HETATM    4  C   UNL     1      -9.416  11.003  67.216  1.00  0.00    -0.164 C  
HETATM    5  C   UNL     1      -9.934  11.164  65.956  1.00  0.00    -0.280 C  
HETATM    6  C   UNL     1     -10.417  12.921  71.143  1.00  0.00     6.126 C  
HETATM    7  C   UNL     1     -12.595  10.316  69.384  1.00  0.00     0.563 C  
HETATM    8  C   UNL     1     -11.661  13.133  70.276  1.00  0.00    -0.203 C  
HETATM    9  C   UNL     1     -12.200  14.625  70.087  1.00  0.00    -0.391 C  
HETATM   10  C   UNL     1      -9.813  13.027  66.341  1.00  0.00    -0.270 C  
HETATM   11  C   UNL     1     -13.413  15.112  70.403  1.00  0.00     0.020 C  
HETATM   12  C   UNL     1      -9.570  10.451  64.679  1.00  0.00    -0.360 C  
HETATM   13  O   UNL     1     -13.056  14.902  72.772  1.00  0.00    -0.390 OA 
HETATM   14  C   UNL     1     -10.097  13.342  67.998  1.00  0.00    -0.241 C  
HETATM   15  C   UNL     1     -13.442  14.377  71.739  1.00  0.00    -0.373 C  
HETATM   16  C   UNL     1     -13.766  12.950  71.592  1.00  0.00     0.037 C  
HETATM   17  O   UNL     1      -8.841  13.098  68.643  1.00  0.00    -0.351 OA 
HETATM   18  C   UNL     1     -12.811  12.303  70.914  1.00  0.00    -0.179 C  
HETATM   19  C   UNL     1     -11.365  12.613  68.831  1.00  0.00    -0.345 C  
HETATM   20  C   UNL     1     -12.791  10.802  70.807  1.00  0.00    -0.408 C  
HETATM   21  H   UNL     1      -8.999  13.273  69.563  1.00  0.00     0.000 HD 
HETATM   22  C   UNL     1     -11.361  10.939  68.729  1.00  0.00    -0.357 C  
ENDROOT
BRANCH   4  23
HETATM   23  O   UNL     1      -8.967   9.449  67.241  1.00  0.00    -0.129 OA 
BRANCH  23  24
HETATM   24  C   UNL     1      -9.225   8.505  66.254  1.00  0.00    -0.207 C  
HETATM   25  O   UNL     1      -8.431   8.160  65.397  1.00  0.00    -0.149 OA 
BRANCH  24  26
HETATM   26  O   UNL     1     -10.389   7.837  66.532  1.00  0.00    -0.234 OA 
BRANCH  26  27
HETATM   27  C   UNL     1     -10.288   6.409  66.322  1.00  0.00     0.150 C  
HETATM   28  C   UNL     1     -11.396   5.595  66.981  1.00  0.00     0.626 C  
ENDBRANCH  26  27
ENDBRANCH  24  26
ENDBRANCH  23  24
ENDBRANCH   4  23
BRANCH   4  29
HETATM   29  C   UNL     1      -7.756  11.495  66.694  1.00  0.00    -0.101 C  
HETATM   30  O   UNL     1      -7.442  11.836  65.550  1.00  0.00     0.847 OA 
BRANCH  29  31
HETATM   31  O   UNL     1      -6.727  11.440  67.620  1.00  0.00    -0.067 OA 
HETATM   32  C   UNL     1      -6.691  12.654  68.467  1.00  0.00    -0.089 C  
HETATM   33 CL   UNL     1      -5.882  14.016  67.637  1.00  0.00    -0.082 Cl 
ENDBRANCH  29  31
ENDBRANCH   4  29
TORSDOF 6
ENDMDL
MODEL      136
REMARK 921   NORMALIZED FREE ENERGY PREDICTED BY IDOCK:    9.84 KCAL/MOL
REMARK 922        TOTAL FREE ENERGY PREDICTED BY IDOCK:   13.60 KCAL/MOL
REMARK 923 INTER-LIGAND FREE ENERGY PREDICTED BY IDOCK:   11.38 KCAL/MOL
REMARK 924 INTRA-LIGAND FREE ENERGY PREDICTED BY IDOCK:    2.22 KCAL/MOL
REMARK 927      BINDING AFFINITY PREDICTED BY RF-SCORE:    0.00 PKD
ROOT
HETATM    1  C   UNL     1      -9.535  19.113  68.229  1.00  0.00    -0.408 C  
HETATM    2  C   UNL     1     -10.457  19.948  68.909  1.00  0.00    -0.132 C  
HETATM    3  C   UNL     1      -9.590  19.046  69.714  1.00  0.00     0.458 C  
HETATM    4  C   UNL     1      -7.903  18.253  68.787  1.00  0.00    -0.260 C  
HETATM    5  C   UNL     1      -8.131  19.386  69.527  1.00  0.00     0.170 C  
HETATM    6  C   UNL     1      -9.796  14.189  68.857  1.00  0.00    -0.110 C  
HETATM    7  C   UNL     1     -11.469  17.338  67.476  1.00  0.00     0.640 C  
HETATM    8  C   UNL     1     -10.820  15.109  69.528  1.00  0.00    -0.270 C  
HETATM    9  C   UNL     1     -11.335  14.720  70.990  1.00  0.00    -0.188 C  
HETATM   10  C   UNL     1      -8.139  18.194  71.015  1.00  0.00     6.385 C  
HETATM   11  C   UNL     1     -12.598  14.482  71.384  1.00  0.00    -0.411 C  
HETATM   12  C   UNL     1      -7.476  20.739  69.421  1.00  0.00     1.325 C  
HETATM   13  O   UNL     1     -12.775  12.440  70.126  1.00  0.00     0.053 OA 
HETATM   14  C   UNL     1      -8.793  16.671  70.591  1.00  0.00     3.715 C  
HETATM   15  C   UNL     1     -12.909  13.653  70.141  1.00  0.00     0.086 C  
HETATM   16  C   UNL     1     -13.160  14.486  68.956  1.00  0.00     1.609 C  
HETATM   17  O   UNL     1      -7.706  15.956  69.988  1.00  0.00     0.171 OA 
HETATM   18  C   UNL     1     -12.065  15.165  68.598  1.00  0.00    -0.184 C  
HETATM   19  C   UNL     1     -10.198  16.537  69.674  1.00  0.00    -0.156 C  
HETATM   20  C   UNL     1     -11.989  15.924  67.301  1.00  0.00     0.749 C  
HETATM   21  H   UNL     1      -8.070  15.110  69.752  1.00  0.00     0.000 HD 
HETATM   22  C   UNL     1     -10.134  17.372  68.222  1.00  0.00    -0.339 C  
ENDROOT
BRANCH   4  23
HETATM   23  O   UNL     1      -7.437  18.831  67.350  1.00  0.00    -0.221 OA 
BRANCH  23  24
HETATM   24  C   UNL     1      -6.971  18.081  66.276  1.00  0.00    -0.264 C  
HETATM   25  O   UNL     1      -7.453  17.027  65.902  1.00  0.00    -0.296 OA 
BRANCH  24  26
HETATM   26  O   UNL     1      -6.069  18.812  65.548  1.00  0.00    -0.197 OA 
BRANCH  26  27
HETATM   27  C   UNL     1      -6.609  19.294  64.295  1.00  0.00     0.692 C  
HETATM   28  C   UNL     1      -6.143  20.693  63.904  1.00  0.00    -0.330 C  
ENDBRANCH  26  27
ENDBRANCH  24  26
ENDBRANCH  23  24
ENDBRANCH   4  23
BRANCH   4  29
HETATM   29  C   UNL     1      -6.179  18.140  69.323  1.00  0.00    -0.253 C  
HETATM   30  O   UNL     1      -5.366  19.069  69.303  1.00  0.00    -0.194 OA 
BRANCH  29  31
HETATM   31  O   UNL     1      -5.694  16.912  69.740  1.00  0.00    -0.185 OA 
HETATM   32  C   UNL     1      -5.129  16.138  68.610  1.00  0.00    -0.097 C  
HETATM   33 CL   UNL     1      -6.407  15.322  67.663  1.00  0.00    -0.179 Cl 
ENDBRANCH  29  31
ENDBRANCH   4  29
TORSDOF 6
ENDMDL
MODEL      137
REMARK 921   NORMALIZED FREE ENERGY PREDICTED BY IDOCK:   10.33 KCAL/MOL
REMARK 922        TOTAL FREE ENERGY PREDICTED BY IDOCK:   14.26 KCAL/MOL
REMARK 923 INTER-LIGAND FREE ENERGY PREDICTED BY IDOCK:    5.28 KCAL/MOL
REMARK 924 INTRA-LIGAND FREE ENERGY PREDICTED BY IDOCK:    8.98 KCAL/MOL
REMARK 927      BINDING AFFINITY PREDICTED BY RF-SCORE:    0.00 PKD
ROOT
HETATM    1  C   UNL     1     -10.684  13.044  68.302  1.00  0.00    -0.261 C  
HETATM    2  C   UNL     1     -11.020  13.299  66.948  1.00  0.00    -0.298 C  
HETATM    3  C   UNL     1     -11.937  12.453  67.759  1.00  0.00    -0.252 C  
HETATM    4  C   UNL     1     -11.743  12.535  69.830  1.00  0.00    -0.255 C  
HETATM    5  C   UNL     1     -12.504  13.228  68.923  1.00  0.00     0.279 C  
HETATM    6  C   UNL     1     -10.146   8.346  69.830  1.00  0.00    -0.197 C  
HETATM    7  C   UNL     1      -8.803  11.178  67.641  1.00  0.00    -0.136 C  
HETATM    8  C   UNL     1     -10.443   8.650  68.359  1.00  0.00    -0.220 C  
HETATM    9  C   UNL     1     -11.403   7.650  67.564  1.00  0.00     0.632 C  
HETATM   10  C   UNL     1     -13.559  11.642  68.869  1.00  0.00     5.516 C  
HETATM   11  C   UNL     1     -11.125   6.947  66.452  1.00  0.00     0.774 C  
HETATM   12  C   UNL     1     -12.975  14.659  68.973  1.00  0.00     1.114 C  
HETATM   13  O   UNL     1      -9.551   5.508  67.563  1.00  0.00    -0.115 OA 
HETATM   14  C   UNL     1     -12.595  10.243  69.075  1.00  0.00     1.277 C  
HETATM   15  C   UNL     1      -9.741   6.551  66.959  1.00  0.00    -0.151 C  
HETATM   16  C   UNL     1      -8.760   7.640  66.830  1.00  0.00    -0.132 C  
HETATM   17  O   UNL     1     -12.425  10.116  70.492  1.00  0.00    -0.392 OA 
HETATM   18  C   UNL     1      -9.080   8.677  67.612  1.00  0.00    -0.145 C  
HETATM   19  C   UNL     1     -11.133  10.051  68.263  1.00  0.00    -0.247 C  
HETATM   20  C   UNL     1      -8.137   9.829  67.829  1.00  0.00    -0.113 C  
HETATM   21  H   UNL     1     -11.889   9.340  70.607  1.00  0.00     0.000 HD 
HETATM   22  C   UNL     1     -10.064  11.321  68.494  1.00  0.00    -0.210 C  
ENDROOT
BRANCH   4  23
HETATM   23  O   UNL     1     -10.819  13.682  70.499  1.00  0.00     0.771 OA 
BRANCH  23  24
HETATM   24  C   UNL     1     -10.067  14.632  69.816  1.00  0.00     0.172 C  
HETATM   25  O   UNL     1      -9.078  14.388  69.149  1.00  0.00    -0.061 OA 
BRANCH  24  26
HETATM   26  O   UNL     1     -10.734  15.830  69.789  1.00  0.00    -0.263 OA 
BRANCH  26  27
HETATM   27  C   UNL     1      -9.848  16.968  69.675  1.00  0.00     0.214 C  
HETATM   28  C   UNL     1      -9.046  17.017  68.379  1.00  0.00    -0.256 C  
ENDBRANCH  26  27
ENDBRANCH  24  26
ENDBRANCH  23  24
ENDBRANCH   4  23
BRANCH   4  29
HETATM   29  C   UNL     1     -12.970  12.728  71.144  1.00  0.00    -0.157 C  
HETATM   30  O   UNL     1     -13.377  11.820  71.875  1.00  0.00    -0.448 OA 
BRANCH  29  31
HETATM   31  O   UNL     1     -13.554  13.970  71.328  1.00  0.00    -0.299 OA 
HETATM   32  C   UNL     1     -12.574  14.965  71.821  1.00  0.00    -0.331 C  
HETATM   33 CL   UNL     1     -12.312  14.817  73.584  1.00  0.00    -0.522 Cl 
ENDBRANCH  29  31
ENDBRANCH   4  29
TORSDOF 6
ENDMDL
MODEL      138
REMARK 921   NORMALIZED FREE ENERGY PREDICTED BY IDOCK:   11.95 KCAL/MOL
REMARK 922        TOTAL FREE ENERGY PREDICTED BY IDOCK:   16.45 KCAL/MOL
REMARK 923 INTER-LIGAND FREE ENERGY PREDICTED BY IDOCK:   15.04 KCAL/MOL
REMARK 924 INTRA-LIGAND FREE ENERGY PREDICTED BY IDOCK:    1.41 KCAL/MOL
REMARK 927      BINDING AFFINITY PREDICTED BY RF-SCORE:    0.00 PKD
ROOT
HETATM    1  C   UNL     1      -7.413  11.750  66.370  1.00  0.00     0.181 C  
HETATM    2  C   UNL     1      -6.665  11.807  65.166  1.00  0.00     2.534 C  
HETATM    3  C   UNL     1      -7.127  13.084  65.776  1.00  0.00     4.759 C  
HETATM    4  C   UNL     1      -7.724  13.037  67.770  1.00  0.00    -0.151 C  
HETATM    5  C   UNL     1      -6.526  13.279  67.147  1.00  0.00     0.354 C  
HETATM    6  C   UNL     1     -11.965  13.741  66.498  1.00  0.00    -0.470 C  
HETATM    7  C   UNL     1      -9.704  11.000  65.086  1.00  0.00    -0.302 C  
HETATM    8  C   UNL     1     -11.163  13.731  65.194  1.00  0.00    -0.320 C  
HETATM    9  C   UNL     1     -11.289  14.995  64.225  1.00  0.00    -0.087 C  
HETATM   10  C   UNL     1      -7.290  14.976  66.733  1.00  0.00     0.518 C  
HETATM   11  C   UNL     1     -11.701  15.018  62.945  1.00  0.00     3.498 C  
HETATM   12  C   UNL     1      -5.127  12.979  67.624  1.00  0.00    -0.059 C  
HETATM   13  O   UNL     1     -13.973  14.460  63.500  1.00  0.00     4.040 OA 
HETATM   14  C   UNL     1      -8.977  14.854  66.475  1.00  0.00    -0.253 C  
HETATM   15  C   UNL     1     -12.855  14.059  63.222  1.00  0.00     1.327 C  
HETATM   16  C   UNL     1     -12.413  12.660  63.329  1.00  0.00    -0.377 C  
HETATM   17  O   UNL     1      -9.556  14.881  67.786  1.00  0.00    -0.205 OA 
HETATM   18  C   UNL     1     -11.615  12.481  64.387  1.00  0.00    -0.419 C  
HETATM   19  C   UNL     1      -9.641  13.623  65.538  1.00  0.00     0.024 C  
HETATM   20  C   UNL     1     -11.197  11.111  64.845  1.00  0.00    -0.027 C  
HETATM   21  H   UNL     1     -10.492  14.813  67.643  1.00  0.00     0.000 HD 
HETATM   22  C   UNL     1      -9.192  12.086  66.034  1.00  0.00    -0.152 C  
ENDROOT
BRANCH   4  23
HETATM   23  O   UNL     1      -7.424  11.721  68.661  1.00  0.00    -0.111 OA 
BRANCH  23  24
HETATM   24  C   UNL     1      -8.188  10.560  68.692  1.00  0.00    -0.130 C  
HETATM   25  O   UNL     1      -7.813   9.470  68.299  1.00  0.00    -0.086 OA 
BRANCH  24  26
HETATM   26  O   UNL     1      -9.311  10.754  69.455  1.00  0.00    -0.131 OA 
BRANCH  26  27
HETATM   27  C   UNL     1      -9.535   9.695  70.414  1.00  0.00    -0.222 C  
HETATM   28  C   UNL     1     -11.000   9.317  70.606  1.00  0.00    -0.336 C  
ENDBRANCH  26  27
ENDBRANCH  24  26
ENDBRANCH  23  24
ENDBRANCH   4  23
BRANCH   4  29
HETATM   29  C   UNL     1      -7.315  14.104  69.172  1.00  0.00    -0.067 C  
HETATM   30  O   UNL     1      -6.748  15.198  69.091  1.00  0.00    -0.113 OA 
BRANCH  29  31
HETATM   31  O   UNL     1      -7.599  13.656  70.451  1.00  0.00     1.426 OA 
HETATM   32  C   UNL     1      -6.407  13.720  71.327  1.00  0.00     0.546 C  
HETATM   33 CL   UNL     1      -5.322  12.321  71.069  1.00  0.00    -0.153 Cl 
ENDBRANCH  29  31
ENDBRANCH   4  29
TORSDOF 6
ENDMDL
MODEL      139
REMARK 921   NORMALIZED FREE ENERGY PREDICTED BY IDOCK:   12.86 KCAL/MOL
REMARK 922        TOTAL FREE ENERGY PREDICTED BY IDOCK:   17.69 KCAL/MOL
REMARK 923 INTER-LIGAND FREE ENERGY PREDICTED BY IDOCK:   15.98 KCAL/MOL
REMARK 924 INTRA-LIGAND FREE ENERGY PREDICTED BY IDOCK:    1.70 KCAL/MOL
REMARK 927      BINDING AFFINITY PREDICTED BY RF-SCORE:    0.00 PKD
ROOT
HETATM    1  C   UNL     1      -9.718   8.648  68.174  1.00  0.00    -0.178 C  
HETATM    2  C   UNL     1      -9.170   7.406  67.763  1.00  0.00    -0.133 C  
HETATM    3  C   UNL     1      -9.915   7.462  69.050  1.00  0.00    -0.176 C  
HETATM    4  C   UNL     1     -11.158   9.101  69.373  1.00  0.00    -0.008 C  
HETATM    5  C   UNL     1     -11.355   7.857  68.828  1.00  0.00     0.639 C  
HETATM    6  C   UNL     1      -8.357  10.578  72.547  1.00  0.00     9.245 C  
HETATM    7  C   UNL     1      -7.300   9.612  69.001  1.00  0.00    -0.073 C  
HETATM    8  C   UNL     1      -7.731   9.272  72.050  1.00  0.00     0.606 C  
HETATM    9  C   UNL     1      -7.405   8.138  73.128  1.00  0.00    -0.164 C  
HETATM   10  C   UNL     1     -11.316   7.258  70.636  1.00  0.00    -0.311 C  
HETATM   11  C   UNL     1      -6.214   7.579  73.405  1.00  0.00    -0.060 C  
HETATM   12  C   UNL     1     -12.296   7.439  67.727  1.00  0.00     5.187 C  
HETATM   13  O   UNL     1      -5.313   9.592  74.364  1.00  0.00    -0.132 OA 
HETATM   14  C   UNL     1     -10.239   8.192  71.581  1.00  0.00    -0.206 C  
HETATM   15  C   UNL     1      -5.489   8.921  73.360  1.00  0.00    -0.100 C  
HETATM   16  C   UNL     1      -5.246   9.385  71.985  1.00  0.00    -0.075 C  
HETATM   17  O   UNL     1     -10.988   9.357  71.954  1.00  0.00    -0.325 OA 
HETATM   18  C   UNL     1      -6.393   9.642  71.348  1.00  0.00     0.072 C  
HETATM   19  C   UNL     1      -8.704   8.602  71.026  1.00  0.00    -0.227 C  
HETATM   20  C   UNL     1      -6.423  10.327  70.009  1.00  0.00    -0.116 C  
HETATM   21  H   UNL     1     -10.389   9.876  72.478  1.00  0.00     0.000 HD 
HETATM   22  C   UNL     1      -8.713   9.372  69.536  1.00  0.00    -0.162 C  
ENDROOT
BRANCH   4  23
HETATM   23  O   UNL     1     -11.487  10.104  68.147  1.00  0.00    -0.212 OA 
BRANCH  23  24
HETATM   24  C   UNL     1     -10.982  11.388  67.979  1.00  0.00    -0.237 C  
HETATM   25  O   UNL     1     -11.246  12.339  68.693  1.00  0.00    -0.222 OA 
BRANCH  24  26
HETATM   26  O   UNL     1      -9.959  11.376  67.067  1.00  0.00    -0.196 OA 
BRANCH  26  27
HETATM   27  C   UNL     1     -10.380  11.764  65.738  1.00  0.00    -0.253 C  
HETATM   28  C   UNL     1      -9.257  11.801  64.706  1.00  0.00     0.174 C  
ENDBRANCH  26  27
ENDBRANCH  24  26
ENDBRANCH  23  24
ENDBRANCH   4  23
BRANCH   4  29
HETATM   29  C   UNL     1     -12.866   9.217  69.955  1.00  0.00     1.656 C  
HETATM   30  O   UNL     1     -13.718   9.989  69.507  1.00  0.00     1.157 OA 
BRANCH  29  31
HETATM   31  O   UNL     1     -13.257   8.426  71.022  1.00  0.00    -0.071 OA 
HETATM   32  C   UNL     1     -14.299   9.091  71.839  1.00  0.00    -0.217 C  
HETATM   33 CL   UNL     1     -13.592  10.283  72.969  1.00  0.00     1.103 Cl 
ENDBRANCH  29  31
ENDBRANCH   4  29
TORSDOF 6
ENDMDL
MODEL      140
REMARK 921   NORMALIZED FREE ENERGY PREDICTED BY IDOCK:   16.48 KCAL/MOL
REMARK 922        TOTAL FREE ENERGY PREDICTED BY IDOCK:   22.57 KCAL/MOL
REMARK 923 INTER-LIGAND FREE ENERGY PREDICTED BY IDOCK:   15.03 KCAL/MOL
REMARK 924 INTRA-LIGAND FREE ENERGY PREDICTED BY IDOCK:    7.55 KCAL/MOL
REMARK 927      BINDING AFFINITY PREDICTED BY RF-SCORE:    0.00 PKD
ROOT
HETATM    1  C   UNL     1     -10.241  14.733  69.961  1.00  0.00     0.147 C  
HETATM    2  C   UNL     1     -10.353  14.632  71.371  1.00  0.00     1.867 C  
HETATM    3  C   UNL     1      -9.026  14.969  70.788  1.00  0.00     2.001 C  
HETATM    4  C   UNL     1      -8.984  15.645  68.819  1.00  0.00    -0.205 C  
HETATM    5  C   UNL     1      -9.081  16.276  70.034  1.00  0.00     0.904 C  
HETATM    6  C   UNL     1      -6.996  11.827  67.568  1.00  0.00    -0.113 C  
HETATM    7  C   UNL     1     -10.217  12.023  69.619  1.00  0.00     0.836 C  
HETATM    8  C   UNL     1      -7.184  11.692  69.081  1.00  0.00    -0.064 C  
HETATM    9  C   UNL     1      -5.896  11.374  69.972  1.00  0.00    -0.126 C  
HETATM   10  C   UNL     1      -7.217  15.901  70.172  1.00  0.00     0.501 C  
HETATM   11  C   UNL     1      -5.694  10.324  70.788  1.00  0.00    -0.094 C  
HETATM   12  C   UNL     1      -9.805  17.549  70.390  1.00  0.00     2.070 C  
HETATM   13  O   UNL     1      -5.576   8.741  68.983  1.00  0.00    -0.036 OA 
HETATM   14  C   UNL     1      -6.820  14.418  69.418  1.00  0.00    -0.132 C  
HETATM   15  C   UNL     1      -6.279   9.336  69.783  1.00  0.00    -0.039 C  
HETATM   16  C   UNL     1      -7.749   9.364  69.754  1.00  0.00    -0.110 C  
HETATM   17  O   UNL     1      -6.682  14.735  68.027  1.00  0.00    -0.114 OA 
HETATM   18  C   UNL     1      -8.204  10.542  69.315  1.00  0.00    -0.151 C  
HETATM   19  C   UNL     1      -7.754  13.036  69.642  1.00  0.00     1.043 C  
HETATM   20  C   UNL     1      -9.657  10.762  68.990  1.00  0.00    -0.193 C  
HETATM   21  H   UNL     1      -6.462  13.911  67.608  1.00  0.00     0.000 HD 
HETATM   22  C   UNL     1      -9.377  13.256  69.281  1.00  0.00     0.790 C  
ENDROOT
BRANCH   4  23
HETATM   23  O   UNL     1     -10.369  16.038  68.082  1.00  0.00    -0.247 OA 
BRANCH  23  24
HETATM   24  C   UNL     1     -10.495  16.602  66.817  1.00  0.00    -0.261 C  
HETATM   25  O   UNL     1      -9.562  16.923  66.103  1.00  0.00    -0.317 OA 
BRANCH  24  26
HETATM   26  O   UNL     1     -11.793  16.509  66.386  1.00  0.00     1.119 OA 
BRANCH  26  27
HETATM   27  C   UNL     1     -12.617  15.686  67.244  1.00  0.00     1.923 C  
HETATM   28  C   UNL     1     -12.804  16.235  68.655  1.00  0.00     2.279 C  
ENDBRANCH  26  27
ENDBRANCH  24  26
ENDBRANCH  23  24
ENDBRANCH   4  23
BRANCH   4  29
HETATM   29  C   UNL     1      -8.152  17.055  68.051  1.00  0.00    -0.204 C  
HETATM   30  O   UNL     1      -8.303  18.235  68.380  1.00  0.00    -0.293 OA 
BRANCH  29  31
HETATM   31  O   UNL     1      -7.318  16.824  66.970  1.00  0.00    -0.163 OA 
HETATM   32  C   UNL     1      -7.267  17.993  66.062  1.00  0.00    -0.281 C  
HETATM   33 CL   UNL     1      -8.682  18.045  64.970  1.00  0.00     2.690 Cl 
ENDBRANCH  29  31
ENDBRANCH   4  29
TORSDOF 6
ENDMDL
MODEL      141
REMARK 921   NORMALIZED FREE ENERGY PREDICTED BY IDOCK:   18.39 KCAL/MOL
REMARK 922        TOTAL FREE ENERGY PREDICTED BY IDOCK:   25.16 KCAL/MOL
REMARK 923 INTER-LIGAND FREE ENERGY PREDICTED BY IDOCK:   17.41 KCAL/MOL
REMARK 924 INTRA-LIGAND FREE ENERGY PREDICTED BY IDOCK:    7.75 KCAL/MOL
REMARK 927      BINDING AFFINITY PREDICTED BY RF-SCORE:    0.00 PKD
ROOT
HETATM    1  C   UNL     1      -6.620  14.402  69.124  1.00  0.00    -0.112 C  
HETATM    2  C   UNL     1      -5.219  14.615  69.165  1.00  0.00    -0.085 C  
HETATM    3  C   UNL     1      -5.976  15.099  67.978  1.00  0.00    -0.159 C  
HETATM    4  C   UNL     1      -8.042  15.279  68.163  1.00  0.00    -0.136 C  
HETATM    5  C   UNL     1      -6.995  16.141  68.371  1.00  0.00    -0.129 C  
HETATM    6  C   UNL     1      -8.578  11.831  65.348  1.00  0.00     0.459 C  
HETATM    7  C   UNL     1      -6.350  11.768  68.455  1.00  0.00    -0.051 C  
HETATM    8  C   UNL     1      -7.062  12.020  65.450  1.00  0.00     2.674 C  
HETATM    9  C   UNL     1      -6.238  12.226  64.097  1.00  0.00     6.992 C  
HETATM   10  C   UNL     1      -6.939  16.246  66.469  1.00  0.00     0.105 C  
HETATM   11  C   UNL     1      -5.229  11.475  63.621  1.00  0.00     1.317 C  
HETATM   12  C   UNL     1      -6.870  17.263  69.371  1.00  0.00    -0.159 C  
HETATM   13  O   UNL     1      -6.639   9.578  63.179  1.00  0.00    -0.099 OA 
HETATM   14  C   UNL     1      -7.375  14.757  65.748  1.00  0.00     5.546 C  
HETATM   15  C   UNL     1      -5.933  10.170  63.980  1.00  0.00    -0.140 C  
HETATM   16  C   UNL     1      -5.840   9.853  65.413  1.00  0.00    -0.076 C  
HETATM   17  O   UNL     1      -8.808  14.758  65.735  1.00  0.00    -0.333 OA 
HETATM   18  C   UNL     1      -6.489  10.757  66.154  1.00  0.00    -0.129 C  
HETATM   19  C   UNL     1      -6.768  13.292  66.312  1.00  0.00     3.351 C  
HETATM   20  C   UNL     1      -6.727  10.556  67.625  1.00  0.00    -0.073 C  
HETATM   21  H   UNL     1      -9.050  13.930  65.335  1.00  0.00     0.000 HD 
HETATM   22  C   UNL     1      -7.026  13.043  67.950  1.00  0.00    -0.127 C  
ENDROOT
BRANCH   4  23
HETATM   23  O   UNL     1      -8.725  15.158  69.624  1.00  0.00    -0.189 OA 
BRANCH  23  24
HETATM   24  C   UNL     1      -9.940  15.712  70.010  1.00  0.00    -0.155 C  
HETATM   25  O   UNL     1     -10.261  16.875  69.840  1.00  0.00    -0.031 OA 
BRANCH  24  26
HETATM   26  O   UNL     1     -10.816  14.721  70.372  1.00  0.00    -0.133 OA 
BRANCH  26  27
HETATM   27  C   UNL     1     -12.117  14.862  69.754  1.00  0.00    -0.314 C  
HETATM   28  C   UNL     1     -12.111  15.635  68.440  1.00  0.00     0.063 C  
ENDBRANCH  26  27
ENDBRANCH  24  26
ENDBRANCH  23  24
ENDBRANCH   4  23
BRANCH   4  29
HETATM   29  C   UNL     1      -9.175  16.618  67.722  1.00  0.00    -0.214 C  
HETATM   30  O   UNL     1      -8.972  17.818  67.929  1.00  0.00    -0.246 OA 
BRANCH  29  31
HETATM   31  O   UNL     1     -10.396  16.293  67.156  1.00  0.00    -0.277 OA 
HETATM   32  C   UNL     1     -10.317  16.251  65.677  1.00  0.00    -0.363 C  
HETATM   33 CL   UNL     1     -10.413  17.888  64.964  1.00  0.00     0.632 Cl 
ENDBRANCH  29  31
ENDBRANCH   4  29
TORSDOF 6
ENDMDL
MODEL      142
REMARK 921   NORMALIZED FREE ENERGY PREDICTED BY IDOCK:   18.68 KCAL/MOL
REMARK 922        TOTAL FREE ENERGY PREDICTED BY IDOCK:   25.54 KCAL/MOL
REMARK 923 INTER-LIGAND FREE ENERGY PREDICTED BY IDOCK:   23.50 KCAL/MOL
REMARK 924 INTRA-LIGAND FREE ENERGY PREDICTED BY IDOCK:    2.04 KCAL/MOL
REMARK 927      BINDING AFFINITY PREDICTED BY RF-SCORE:    0.00 PKD
ROOT
HETATM    1  C   UNL     1      -7.716   9.491  66.632  1.00  0.00    -0.098 C  
HETATM    2  C   UNL     1      -6.881   8.350  66.743  1.00  0.00    -0.069 C  
HETATM    3  C   UNL     1      -8.055   8.462  67.651  1.00  0.00    -0.118 C  
HETATM    4  C   UNL     1      -9.549   9.815  67.130  1.00  0.00    -0.169 C  
HETATM    5  C   UNL     1      -9.346   8.483  66.870  1.00  0.00    -0.219 C  
HETATM    6  C   UNL     1      -8.389  12.407  70.599  1.00  0.00     6.839 C  
HETATM    7  C   UNL     1      -5.951  11.096  67.961  1.00  0.00    -0.049 C  
HETATM    8  C   UNL     1      -7.442  11.206  70.675  1.00  0.00     2.275 C  
HETATM    9  C   UNL     1      -7.386  10.379  72.041  1.00  0.00     3.842 C  
HETATM   10  C   UNL     1      -9.905   8.232  68.675  1.00  0.00    -0.186 C  
HETATM   11  C   UNL     1      -6.319  10.155  72.828  1.00  0.00     1.605 C  
HETATM   12  C   UNL     1      -9.735   7.682  65.654  1.00  0.00     0.643 C  
HETATM   13  O   UNL     1      -6.143  12.453  73.514  1.00  0.00     1.611 OA 
HETATM   14  C   UNL     1      -9.408   9.532  69.669  1.00  0.00    -0.200 C  
HETATM   15  C   UNL     1      -5.831  11.596  72.704  1.00  0.00     2.108 C  
HETATM   16  C   UNL     1      -5.159  11.855  71.422  1.00  0.00    -0.077 C  
HETATM   17  O   UNL     1     -10.400  10.548  69.474  1.00  0.00    -0.229 OA 
HETATM   18  C   UNL     1      -6.007  11.736  70.395  1.00  0.00    -0.123 C  
HETATM   19  C   UNL     1      -7.852  10.169  69.578  1.00  0.00    -0.165 C  
HETATM   20  C   UNL     1      -5.629  12.153  68.999  1.00  0.00    -0.059 C  
HETATM   21  H   UNL     1     -10.123  11.271  70.026  1.00  0.00     0.000 HD 
HETATM   22  C   UNL     1      -7.411  10.646  68.033  1.00  0.00    -0.088 C  
ENDROOT
BRANCH   4  23
HETATM   23  O   UNL     1      -9.535  10.491  65.660  1.00  0.00    -0.187 OA 
BRANCH  23  24
HETATM   24  C   UNL     1     -10.002  11.759  65.336  1.00  0.00    -0.253 C  
HETATM   25  O   UNL     1     -10.965  11.985  64.624  1.00  0.00    -0.295 OA 
BRANCH  24  26
HETATM   26  O   UNL     1      -9.395  12.702  66.125  1.00  0.00    -0.207 OA 
BRANCH  26  27
HETATM   27  C   UNL     1      -9.367  14.015  65.519  1.00  0.00     0.349 C  
HETATM   28  C   UNL     1      -9.515  15.168  66.506  1.00  0.00    -0.308 C  
ENDBRANCH  26  27
ENDBRANCH  24  26
ENDBRANCH  23  24
ENDBRANCH   4  23
BRANCH   4  29
HETATM   29  C   UNL     1     -11.348   9.649  67.058  1.00  0.00     0.877 C  
HETATM   30  O   UNL     1     -11.985   9.218  66.092  1.00  0.00     4.377 OA 
BRANCH  29  31
HETATM   31  O   UNL     1     -12.098  10.084  68.139  1.00  0.00     0.474 OA 
HETATM   32  C   UNL     1     -12.573  11.474  67.947  1.00  0.00     1.896 C  
HETATM   33 CL   UNL     1     -11.300  12.668  68.337  1.00  0.00    -0.302 Cl 
ENDBRANCH  29  31
ENDBRANCH   4  29
TORSDOF 6
ENDMDL
MODEL      143
REMARK 921   NORMALIZED FREE ENERGY PREDICTED BY IDOCK:   20.40 KCAL/MOL
REMARK 922        TOTAL FREE ENERGY PREDICTED BY IDOCK:   27.87 KCAL/MOL
REMARK 923 INTER-LIGAND FREE ENERGY PREDICTED BY IDOCK:   11.48 KCAL/MOL
REMARK 924 INTRA-LIGAND FREE ENERGY PREDICTED BY IDOCK:   16.39 KCAL/MOL
REMARK 927      BINDING AFFINITY PREDICTED BY RF-SCORE:    0.00 PKD
ROOT
HETATM    1  C   UNL     1      -9.866  12.350  65.969  1.00  0.00    -0.268 C  
HETATM    2  C   UNL     1      -8.901  12.443  64.934  1.00  0.00     1.216 C  
HETATM    3  C   UNL     1      -8.428  12.212  66.326  1.00  0.00     0.140 C  
HETATM    4  C   UNL     1      -9.823  11.541  67.718  1.00  0.00    -0.177 C  
HETATM    5  C   UNL     1      -8.953  10.905  66.869  1.00  0.00    -0.158 C  
HETATM    6  C   UNL     1      -9.626  15.505  69.802  1.00  0.00    -0.205 C  
HETATM    7  C   UNL     1     -10.250  15.053  66.057  1.00  0.00    -0.318 C  
HETATM    8  C   UNL     1      -8.637  15.625  68.640  1.00  0.00    -0.188 C  
HETATM    9  C   UNL     1      -7.132  16.046  68.974  1.00  0.00    -0.171 C  
HETATM   10  C   UNL     1      -7.624  11.427  68.131  1.00  0.00    -0.114 C  
HETATM   11  C   UNL     1      -6.449  17.108  68.514  1.00  0.00    -0.164 C  
HETATM   12  C   UNL     1      -9.104   9.578  66.170  1.00  0.00    -0.207 C  
HETATM   13  O   UNL     1      -7.794  18.696  69.720  1.00  0.00     0.435 OA 
HETATM   14  C   UNL     1      -7.998  12.937  68.843  1.00  0.00     0.182 C  
HETATM   15  C   UNL     1      -7.638  18.046  68.698  1.00  0.00    -0.290 C  
HETATM   16  C   UNL     1      -8.642  17.901  67.632  1.00  0.00    -0.242 C  
HETATM   17  O   UNL     1      -8.919  12.632  69.897  1.00  0.00     1.663 OA 
HETATM   18  C   UNL     1      -9.208  16.690  67.660  1.00  0.00    -0.208 C  
HETATM   19  C   UNL     1      -8.531  14.240  67.921  1.00  0.00    -0.168 C  
HETATM   20  C   UNL     1     -10.409  16.354  66.818  1.00  0.00    -0.293 C  
HETATM   21  H   UNL     1      -9.127  13.470  70.292  1.00  0.00     0.000 HD 
HETATM   22  C   UNL     1      -9.872  13.891  66.977  1.00  0.00    -0.257 C  
ENDROOT
BRANCH   4  23
HETATM   23  O   UNL     1     -11.275  11.038  67.212  1.00  0.00    -0.308 OA 
BRANCH  23  24
HETATM   24  C   UNL     1     -11.553   9.827  66.590  1.00  0.00     2.199 C  
HETATM   25  O   UNL     1     -12.171   9.706  65.547  1.00  0.00     6.241 OA 
BRANCH  24  26
HETATM   26  O   UNL     1     -10.825   8.821  67.170  1.00  0.00    -0.209 OA 
BRANCH  26  27
HETATM   27  C   UNL     1     -11.522   7.553  67.185  1.00  0.00     1.108 C  
HETATM   28  C   UNL     1     -10.669   6.370  67.633  1.00  0.00    -0.387 C  
ENDBRANCH  26  27
ENDBRANCH  24  26
ENDBRANCH  23  24
ENDBRANCH   4  23
BRANCH   4  29
HETATM   29  C   UNL     1      -9.760  10.201  68.932  1.00  0.00    -0.187 C  
HETATM   30  O   UNL     1      -9.956   9.008  68.685  1.00  0.00    -0.162 OA 
BRANCH  29  31
HETATM   31  O   UNL     1      -9.530  10.521  70.260  1.00  0.00     0.337 OA 
HETATM   32  C   UNL     1      -8.176  11.089  70.457  1.00  0.00     2.773 C  
HETATM   33 CL   UNL     1      -6.929   9.809  70.540  1.00  0.00    -0.133 Cl 
ENDBRANCH  29  31
ENDBRANCH   4  29
TORSDOF 6
ENDMDL
MODEL      144
REMARK 921   NORMALIZED FREE ENERGY PREDICTED BY IDOCK:   21.72 KCAL/MOL
REMARK 922        TOTAL FREE ENERGY PREDICTED BY IDOCK:   29.65 KCAL/MOL
REMARK 923 INTER-LIGAND FREE ENERGY PREDICTED BY IDOCK:   26.27 KCAL/MOL
REMARK 924 INTRA-LIGAND FREE ENERGY PREDICTED BY IDOCK:    3.38 KCAL/MOL
REMARK 927      BINDING AFFINITY PREDICTED BY RF-SCORE:    0.00 PKD
ROOT
HETATM    1  C   UNL     1      -9.003  13.359  67.890  1.00  0.00    -0.201 C  
HETATM    2  C   UNL     1      -9.017  14.268  66.802  1.00  0.00    -0.249 C  
HETATM    3  C   UNL     1      -8.074  14.520  67.926  1.00  0.00    -0.151 C  
HETATM    4  C   UNL     1      -7.668  12.937  69.215  1.00  0.00     0.465 C  
HETATM    5  C   UNL     1      -7.080  13.393  68.063  1.00  0.00    -0.125 C  
HETATM    6  C   UNL     1      -9.912  15.041  72.477  1.00  0.00     4.384 C  
HETATM    7  C   UNL     1     -11.291  14.384  68.972  1.00  0.00    -0.297 C  
HETATM    8  C   UNL     1      -9.985  15.990  71.278  1.00  0.00     2.238 C  
HETATM    9  C   UNL     1      -9.475  17.491  71.475  1.00  0.00     7.985 C  
HETATM   10  C   UNL     1      -6.376  14.767  69.181  1.00  0.00    -0.108 C  
HETATM   11  C   UNL     1     -10.170  18.629  71.302  1.00  0.00     3.239 C  
HETATM   12  C   UNL     1      -6.370  12.615  66.984  1.00  0.00     0.176 C  
HETATM   13  O   UNL     1     -11.600  18.231  73.194  1.00  0.00     1.359 OA 
HETATM   14  C   UNL     1      -7.475  15.183  70.425  1.00  0.00     0.587 C  
HETATM   15  C   UNL     1     -11.406  18.069  72.000  1.00  0.00     3.076 C  
HETATM   16  C   UNL     1     -12.177  17.160  71.138  1.00  0.00     3.407 C  
HETATM   17  O   UNL     1      -7.265  14.203  71.449  1.00  0.00     0.843 OA 
HETATM   18  C   UNL     1     -11.476  16.061  70.840  1.00  0.00    -0.451 C  
HETATM   19  C   UNL     1      -9.115  15.406  70.117  1.00  0.00     0.471 C  
HETATM   20  C   UNL     1     -12.104  14.880  70.152  1.00  0.00    -0.379 C  
HETATM   21  H   UNL     1      -7.875  14.434  72.139  1.00  0.00     0.000 HD 
HETATM   22  C   UNL     1      -9.838  14.099  69.354  1.00  0.00     0.288 C  
ENDROOT
BRANCH   4  23
HETATM   23  O   UNL     1      -8.154  11.445  68.822  1.00  0.00    -0.145 OA 
BRANCH  23  24
HETATM   24  C   UNL     1      -9.318  10.820  69.255  1.00  0.00    -0.067 C  
HETATM   25  O   UNL     1      -9.942  11.127  70.256  1.00  0.00     0.966 OA 
BRANCH  24  26
HETATM   26  O   UNL     1      -9.802   9.993  68.275  1.00  0.00    -0.143 OA 
BRANCH  26  27
HETATM   27  C   UNL     1      -9.471  10.443  66.940  1.00  0.00    -0.168 C  
HETATM   28  C   UNL     1      -9.614   9.374  65.861  1.00  0.00    -0.338 C  
ENDBRANCH  26  27
ENDBRANCH  24  26
ENDBRANCH  23  24
ENDBRANCH   4  23
BRANCH   4  29
HETATM   29  C   UNL     1      -6.111  12.283  69.860  1.00  0.00    -0.140 C  
HETATM   30  O   UNL     1      -5.126  12.962  70.163  1.00  0.00    -0.084 OA 
BRANCH  29  31
HETATM   31  O   UNL     1      -5.968  10.910  69.979  1.00  0.00    -0.072 OA 
HETATM   32  C   UNL     1      -5.188  10.345  68.853  1.00  0.00    -0.042 C  
HETATM   33 CL   UNL     1      -6.200  10.121  67.396  1.00  0.00    -0.058 Cl 
ENDBRANCH  29  31
ENDBRANCH   4  29
TORSDOF 6
ENDMDL
MODEL      145
REMARK 921   NORMALIZED FREE ENERGY PREDICTED BY IDOCK:   23.40 KCAL/MOL
REMARK 922        TOTAL FREE ENERGY PREDICTED BY IDOCK:   31.92 KCAL/MOL
REMARK 923 INTER-LIGAND FREE ENERGY PREDICTED BY IDOCK:   25.93 KCAL/MOL
REMARK 924 INTRA-LIGAND FREE ENERGY PREDICTED BY IDOCK:    5.98 KCAL/MOL
REMARK 927      BINDING AFFINITY PREDICTED BY RF-SCORE:    0.00 PKD
ROOT
HETATM    1  C   UNL     1      -7.967  11.857  70.038  1.00  0.00     2.188 C  
HETATM    2  C   UNL     1      -8.421  13.062  70.629  1.00  0.00     6.697 C  
HETATM    3  C   UNL     1      -9.419  12.001  70.324  1.00  0.00     4.084 C  
HETATM    4  C   UNL     1      -8.704  10.076  69.983  1.00  0.00    -0.083 C  
HETATM    5  C   UNL     1      -9.129  10.743  71.105  1.00  0.00     4.867 C  
HETATM    6  C   UNL     1      -9.850  10.434  65.664  1.00  0.00    -0.321 C  
HETATM    7  C   UNL     1      -7.727  12.985  67.562  1.00  0.00    -0.168 C  
HETATM    8  C   UNL     1     -10.275  11.764  66.292  1.00  0.00    -0.255 C  
HETATM    9  C   UNL     1     -11.795  12.224  66.118  1.00  0.00    -0.398 C  
HETATM   10  C   UNL     1     -10.874  10.452  70.395  1.00  0.00    -0.257 C  
HETATM   11  C   UNL     1     -12.257  13.352  65.549  1.00  0.00    -0.499 C  
HETATM   12  C   UNL     1      -8.667  10.594  72.532  1.00  0.00    11.124 C  
HETATM   13  O   UNL     1     -11.572  12.706  63.337  1.00  0.00    -0.490 OA 
HETATM   14  C   UNL     1     -10.868  10.498  68.685  1.00  0.00    -0.237 C  
HETATM   15  C   UNL     1     -11.275  13.256  64.386  1.00  0.00    -0.381 C  
HETATM   16  C   UNL     1      -9.919  13.687  64.754  1.00  0.00    -0.147 C  
HETATM   17  O   UNL     1     -10.454   9.187  68.280  1.00  0.00    -0.211 OA 
HETATM   18  C   UNL     1      -9.381  12.872  65.668  1.00  0.00     0.174 C  
HETATM   19  C   UNL     1     -10.038  11.692  67.837  1.00  0.00    -0.198 C  
HETATM   20  C   UNL     1      -7.931  12.964  66.060  1.00  0.00     1.675 C  
HETATM   21  H   UNL     1     -10.450   9.213  67.330  1.00  0.00     0.000 HD 
HETATM   22  C   UNL     1      -8.418  11.809  68.254  1.00  0.00    -0.161 C  
ENDROOT
BRANCH   4  23
HETATM   23  O   UNL     1      -7.159   9.730  70.316  1.00  0.00    -0.111 OA 
BRANCH  23  24
HETATM   24  C   UNL     1      -6.110   9.702  69.405  1.00  0.00    -0.036 C  
HETATM   25  O   UNL     1      -5.651  10.679  68.841  1.00  0.00    -0.041 OA 
BRANCH  24  26
HETATM   26  O   UNL     1      -5.502   8.473  69.423  1.00  0.00    -0.030 OA 
BRANCH  26  27
HETATM   27  C   UNL     1      -6.335   7.438  69.997  1.00  0.00    -0.027 C  
HETATM   28  C   UNL     1      -6.712   6.323  69.027  1.00  0.00    -0.057 C  
ENDBRANCH  26  27
ENDBRANCH  24  26
ENDBRANCH  23  24
ENDBRANCH   4  23
BRANCH   4  29
HETATM   29  C   UNL     1      -9.225   8.470  70.629  1.00  0.00    -0.163 C  
HETATM   30  O   UNL     1     -10.163   8.288  71.410  1.00  0.00    -0.191 OA 
BRANCH  29  31
HETATM   31  O   UNL     1      -8.495   7.346  70.279  1.00  0.00    -0.133 OA 
HETATM   32  C   UNL     1      -9.157   6.102  70.736  1.00  0.00    -0.150 C  
HETATM   33 CL   UNL     1      -8.837   5.781  72.466  1.00  0.00    -0.130 Cl 
ENDBRANCH  29  31
ENDBRANCH   4  29
TORSDOF 6
ENDMDL
MODEL      146
REMARK 921   NORMALIZED FREE ENERGY PREDICTED BY IDOCK:   24.55 KCAL/MOL
REMARK 922        TOTAL FREE ENERGY PREDICTED BY IDOCK:   33.48 KCAL/MOL
REMARK 923 INTER-LIGAND FREE ENERGY PREDICTED BY IDOCK:   16.04 KCAL/MOL
REMARK 924 INTRA-LIGAND FREE ENERGY PREDICTED BY IDOCK:   17.44 KCAL/MOL
REMARK 927      BINDING AFFINITY PREDICTED BY RF-SCORE:    0.00 PKD
ROOT
HETATM    1  C   UNL     1      -8.409  17.892  68.534  1.00  0.00    -0.305 C  
HETATM    2  C   UNL     1      -7.310  18.035  67.650  1.00  0.00    -0.211 C  
HETATM    3  C   UNL     1      -8.280  16.933  67.404  1.00  0.00    -0.199 C  
HETATM    4  C   UNL     1     -10.136  17.058  68.339  1.00  0.00    -0.302 C  
HETATM    5  C   UNL     1      -9.659  17.476  67.122  1.00  0.00    -0.262 C  
HETATM    6  C   UNL     1      -9.023  13.606  70.974  1.00  0.00     7.460 C  
HETATM    7  C   UNL     1      -6.883  16.736  70.482  1.00  0.00     1.591 C  
HETATM    8  C   UNL     1      -7.809  13.809  70.063  1.00  0.00     1.436 C  
HETATM    9  C   UNL     1      -7.289  12.559  69.215  1.00  0.00     0.220 C  
HETATM   10  C   UNL     1      -9.783  15.634  66.645  1.00  0.00    -0.266 C  
HETATM   11  C   UNL     1      -6.070  11.991  69.243  1.00  0.00    -0.088 C  
HETATM   12  C   UNL     1     -10.059  18.679  66.306  1.00  0.00    -0.431 C  
HETATM   13  O   UNL     1      -6.348  11.127  71.469  1.00  0.00     0.401 OA 
HETATM   14  C   UNL     1      -9.447  14.620  67.981  1.00  0.00    -0.207 C  
HETATM   15  C   UNL     1      -5.991  12.058  70.765  1.00  0.00     0.141 C  
HETATM   16  C   UNL     1      -5.661  13.405  71.254  1.00  0.00    -0.104 C  
HETATM   17  O   UNL     1     -10.680  14.543  68.708  1.00  0.00    -0.238 OA 
HETATM   18  C   UNL     1      -6.633  14.279  70.966  1.00  0.00     0.407 C  
HETATM   19  C   UNL     1      -8.148  14.914  69.009  1.00  0.00    -0.165 C  
HETATM   20  C   UNL     1      -6.644  15.671  71.535  1.00  0.00     1.980 C  
HETATM   21  H   UNL     1     -10.494  13.980  69.450  1.00  0.00     0.000 HD 
HETATM   22  C   UNL     1      -8.142  16.459  69.659  1.00  0.00     0.371 C  
ENDROOT
BRANCH   4  23
HETATM   23  O   UNL     1     -10.571  18.436  69.065  1.00  0.00    -0.040 OA 
BRANCH  23  24
HETATM   24  C   UNL     1     -10.395  19.720  68.561  1.00  0.00    -0.354 C  
HETATM   25  O   UNL     1      -9.467  20.457  68.844  1.00  0.00     0.174 OA 
BRANCH  24  26
HETATM   26  O   UNL     1     -11.258  19.940  67.519  1.00  0.00    -0.137 OA 
BRANCH  26  27
HETATM   27  C   UNL     1     -10.616  20.538  66.368  1.00  0.00     0.323 C  
HETATM   28  C   UNL     1      -9.647  19.614  65.637  1.00  0.00     0.098 C  
ENDBRANCH  26  27
ENDBRANCH  24  26
ENDBRANCH  23  24
ENDBRANCH   4  23
BRANCH   4  29
HETATM   29  C   UNL     1     -11.816  16.836  67.708  1.00  0.00     0.890 C  
HETATM   30  O   UNL     1     -12.120  16.741  66.515  1.00  0.00     1.985 OA 
BRANCH  29  31
HETATM   31  O   UNL     1     -12.866  16.824  68.610  1.00  0.00     1.729 OA 
HETATM   32  C   UNL     1     -12.469  16.213  69.899  1.00  0.00     0.466 C  
HETATM   33 CL   UNL     1     -12.504  14.427  69.823  1.00  0.00    -0.323 Cl 
ENDBRANCH  29  31
ENDBRANCH   4  29
TORSDOF 6
ENDMDL
MODEL      147
REMARK 921   NORMALIZED FREE ENERGY PREDICTED BY IDOCK:   25.35 KCAL/MOL
REMARK 922        TOTAL FREE ENERGY PREDICTED BY IDOCK:   34.56 KCAL/MOL
REMARK 923 INTER-LIGAND FREE ENERGY PREDICTED BY IDOCK:   14.49 KCAL/MOL
REMARK 924 INTRA-LIGAND FREE ENERGY PREDICTED BY IDOCK:   20.07 KCAL/MOL
REMARK 927      BINDING AFFINITY PREDICTED BY RF-SCORE:    0.00 PKD
ROOT
HETATM    1  C   UNL     1     -10.144  16.960  69.551  1.00  0.00    -0.083 C  
HETATM    2  C   UNL     1     -10.445  18.305  69.884  1.00  0.00     1.071 C  
HETATM    3  C   UNL     1     -10.849  17.799  68.545  1.00  0.00    -0.016 C  
HETATM    4  C   UNL     1     -10.906  15.735  68.273  1.00  0.00    -0.305 C  
HETATM    5  C   UNL     1     -11.836  16.664  68.668  1.00  0.00     0.423 C  
HETATM    6  C   UNL     1      -7.358  16.013  65.546  1.00  0.00     3.772 C  
HETATM    7  C   UNL     1      -7.515  17.513  69.060  1.00  0.00    -0.179 C  
HETATM    8  C   UNL     1      -7.643  17.459  65.965  1.00  0.00    -0.246 C  
HETATM    9  C   UNL     1      -7.863  18.544  64.814  1.00  0.00     3.284 C  
HETATM   10  C   UNL     1     -11.894  17.125  66.820  1.00  0.00     2.134 C  
HETATM   11  C   UNL     1      -7.164  19.672  64.596  1.00  0.00     0.877 C  
HETATM   12  C   UNL     1     -12.989  16.506  69.626  1.00  0.00     2.962 C  
HETATM   13  O   UNL     1      -5.172  18.498  63.936  1.00  0.00    -0.108 OA 
HETATM   14  C   UNL     1     -10.362  16.939  66.081  1.00  0.00    -0.320 C  
HETATM   15  C   UNL     1      -5.827  18.979  64.846  1.00  0.00    -0.271 C  
HETATM   16  C   UNL     1      -5.555  18.777  66.277  1.00  0.00    -0.181 C  
HETATM   17  O   UNL     1     -10.273  15.545  65.759  1.00  0.00    -0.312 OA 
HETATM   18  C   UNL     1      -6.437  17.933  66.825  1.00  0.00    -0.218 C  
HETATM   19  C   UNL     1      -8.953  17.488  66.819  1.00  0.00    -0.272 C  
HETATM   20  C   UNL     1      -6.260  17.392  68.217  1.00  0.00    -0.162 C  
HETATM   21  H   UNL     1      -9.422  15.441  65.349  1.00  0.00     0.000 HD 
HETATM   22  C   UNL     1      -8.732  16.894  68.372  1.00  0.00    -0.244 C  
ENDROOT
BRANCH   4  23
HETATM   23  O   UNL     1     -10.781  14.759  69.556  1.00  0.00    -0.241 OA 
BRANCH  23  24
HETATM   24  C   UNL     1     -11.500  14.866  70.742  1.00  0.00    -0.267 C  
HETATM   25  O   UNL     1     -12.585  15.409  70.851  1.00  0.00    -0.373 OA 
BRANCH  24  26
HETATM   26  O   UNL     1     -10.946  14.062  71.703  1.00  0.00     1.699 OA 
BRANCH  26  27
HETATM   27  C   UNL     1     -11.806  13.875  72.852  1.00  0.00     1.386 C  
HETATM   28  C   UNL     1     -12.355  15.169  73.444  1.00  0.00    -0.597 C  
ENDBRANCH  26  27
ENDBRANCH  24  26
ENDBRANCH  23  24
ENDBRANCH   4  23
BRANCH   4  29
HETATM   29  C   UNL     1     -12.160  14.654  67.546  1.00  0.00    -0.178 C  
HETATM   30  O   UNL     1     -12.137  14.215  66.393  1.00  0.00    -0.422 OA 
BRANCH  29  31
HETATM   31  O   UNL     1     -13.270  14.324  68.304  1.00  0.00     1.877 OA 
HETATM   32  C   UNL     1     -12.906  14.056  69.715  1.00  0.00     0.270 C  
HETATM   33 CL   UNL     1     -12.258  12.403  69.928  1.00  0.00    -0.277 Cl 
ENDBRANCH  29  31
ENDBRANCH   4  29
TORSDOF 6
ENDMDL
MODEL      148
REMARK 921   NORMALIZED FREE ENERGY PREDICTED BY IDOCK:   27.76 KCAL/MOL
REMARK 922        TOTAL FREE ENERGY PREDICTED BY IDOCK:   37.81 KCAL/MOL
REMARK 923 INTER-LIGAND FREE ENERGY PREDICTED BY IDOCK:   31.55 KCAL/MOL
REMARK 924 INTRA-LIGAND FREE ENERGY PREDICTED BY IDOCK:    6.27 KCAL/MOL
REMARK 927      BINDING AFFINITY PREDICTED BY RF-SCORE:    0.00 PKD
ROOT
HETATM    1  C   UNL     1     -10.564   9.760  64.888  1.00  0.00     1.292 C  
HETATM    2  C   UNL     1     -11.816  10.390  64.671  1.00  0.00     3.628 C  
HETATM    3  C   UNL     1     -10.757  11.145  65.396  1.00  0.00    -0.259 C  
HETATM    4  C   UNL     1      -8.800  10.455  65.231  1.00  0.00    -0.186 C  
HETATM    5  C   UNL     1      -9.547  11.360  64.520  1.00  0.00    -0.221 C  
HETATM    6  C   UNL     1      -8.894   9.207  69.536  1.00  0.00    -0.149 C  
HETATM    7  C   UNL     1     -11.522   8.228  66.936  1.00  0.00     2.129 C  
HETATM    8  C   UNL     1     -10.271   9.825  69.278  1.00  0.00    -0.216 C  
HETATM    9  C   UNL     1     -10.749  11.015  70.231  1.00  0.00     0.335 C  
HETATM   10  C   UNL     1      -9.246  12.507  66.012  1.00  0.00    -0.020 C  
HETATM   11  C   UNL     1     -11.846  11.062  71.007  1.00  0.00    -0.212 C  
HETATM   12  C   UNL     1      -9.484  11.703  63.053  1.00  0.00    -0.265 C  
HETATM   13  O   UNL     1     -11.041   9.375  72.520  1.00  0.00     0.434 OA 
HETATM   14  C   UNL     1      -9.178  11.624  67.476  1.00  0.00    -0.172 C  
HETATM   15  C   UNL     1     -11.653   9.629  71.495  1.00  0.00    -0.381 C  
HETATM   16  C   UNL     1     -12.081   8.633  70.501  1.00  0.00     0.120 C  
HETATM   17  O   UNL     1      -7.835  11.129  67.549  1.00  0.00    -0.111 OA 
HETATM   18  C   UNL     1     -11.317   8.682  69.404  1.00  0.00     0.325 C  
HETATM   19  C   UNL     1     -10.296  10.417  67.831  1.00  0.00    -0.227 C  
HETATM   20  C   UNL     1     -11.405   7.635  68.327  1.00  0.00     0.643 C  
HETATM   21  H   UNL     1      -7.798  10.638  68.361  1.00  0.00     0.000 HD 
HETATM   22  C   UNL     1     -10.408   9.236  66.646  1.00  0.00    -0.292 C  
ENDROOT
BRANCH   4  23
HETATM   23  O   UNL     1      -8.445   9.319  64.136  1.00  0.00    -0.173 OA 
BRANCH  23  24
HETATM   24  C   UNL     1      -7.234   8.648  64.012  1.00  0.00    -0.092 C  
HETATM   25  O   UNL     1      -6.783   8.212  62.968  1.00  0.00    -0.084 OA 
BRANCH  24  26
HETATM   26  O   UNL     1      -6.507   8.770  65.168  1.00  0.00    -0.063 OA 
BRANCH  26  27
HETATM   27  C   UNL     1      -6.571   7.591  66.005  1.00  0.00    -0.046 C  
HETATM   28  C   UNL     1      -5.990   7.778  67.402  1.00  0.00    -0.048 C  
ENDBRANCH  26  27
ENDBRANCH  24  26
ENDBRANCH  23  24
ENDBRANCH   4  23
BRANCH   4  29
HETATM   29  C   UNL     1      -7.250  11.315  64.871  1.00  0.00     1.080 C  
HETATM   30  O   UNL     1      -6.241  11.289  65.581  1.00  0.00     0.064 OA 
BRANCH  29  31
HETATM   31  O   UNL     1      -7.184  12.119  63.745  1.00  0.00     3.760 OA 
HETATM   32  C   UNL     1      -7.310  13.553  64.092  1.00  0.00    17.326 C  
HETATM   33 CL   UNL     1      -9.018  14.026  64.340  1.00  0.00     3.631 Cl 
ENDBRANCH  29  31
ENDBRANCH   4  29
TORSDOF 6
ENDMDL
MODEL      149
REMARK 921   NORMALIZED FREE ENERGY PREDICTED BY IDOCK:   31.61 KCAL/MOL
REMARK 922        TOTAL FREE ENERGY PREDICTED BY IDOCK:   43.01 KCAL/MOL
REMARK 923 INTER-LIGAND FREE ENERGY PREDICTED BY IDOCK:   39.36 KCAL/MOL
REMARK 924 INTRA-LIGAND FREE ENERGY PREDICTED BY IDOCK:    3.65 KCAL/MOL
REMARK 927      BINDING AFFINITY PREDICTED BY RF-SCORE:    0.00 PKD
ROOT
HETATM    1  C   UNL     1      -7.770  14.241  71.331  1.00  0.00     3.909 C  
HETATM    2  C   UNL     1      -7.401  14.768  72.594  1.00  0.00     4.567 C  
HETATM    3  C   UNL     1      -8.566  15.367  71.888  1.00  0.00     6.081 C  
HETATM    4  C   UNL     1      -9.426  14.267  70.344  1.00  0.00     2.148 C  
HETATM    5  C   UNL     1      -9.665  14.351  71.692  1.00  0.00     4.911 C  
HETATM    6  C   UNL     1      -7.877  17.252  67.378  1.00  0.00    -0.198 C  
HETATM    7  C   UNL     1      -5.738  15.523  70.034  1.00  0.00    -0.140 C  
HETATM    8  C   UNL     1      -7.419  17.781  68.741  1.00  0.00    -0.263 C  
HETATM    9  C   UNL     1      -7.819  19.276  69.139  1.00  0.00    -0.250 C  
HETATM   10  C   UNL     1     -10.492  16.013  71.259  1.00  0.00     0.981 C  
HETATM   11  C   UNL     1      -7.000  20.295  69.451  1.00  0.00    -0.044 C  
HETATM   12  C   UNL     1     -10.154  13.285  72.640  1.00  0.00    13.504 C  
HETATM   13  O   UNL     1      -6.128  20.486  67.218  1.00  0.00    -0.188 OA 
HETATM   14  C   UNL     1      -9.703  16.781  69.950  1.00  0.00     0.571 C  
HETATM   15  C   UNL     1      -6.035  19.964  68.317  1.00  0.00    -0.240 C  
HETATM   16  C   UNL     1      -5.162  18.823  68.635  1.00  0.00    -0.189 C  
HETATM   17  O   UNL     1     -10.252  16.169  68.776  1.00  0.00    -0.218 OA 
HETATM   18  C   UNL     1      -5.867  17.694  68.768  1.00  0.00    -0.174 C  
HETATM   19  C   UNL     1      -8.025  16.876  69.864  1.00  0.00     1.251 C  
HETATM   20  C   UNL     1      -5.201  16.350  68.883  1.00  0.00    -0.109 C  
HETATM   21  H   UNL     1      -9.813  16.595  68.049  1.00  0.00     0.000 HD 
HETATM   22  C   UNL     1      -7.260  15.389  69.985  1.00  0.00     0.033 C  
ENDROOT
BRANCH   4  23
HETATM   23  O   UNL     1      -9.000  12.721  70.133  1.00  0.00     3.274 OA 
BRANCH  23  24
HETATM   24  C   UNL     1      -9.330  11.920  69.047  1.00  0.00     0.264 C  
HETATM   25  O   UNL     1     -10.146  12.210  68.190  1.00  0.00    -0.194 OA 
BRANCH  24  26
HETATM   26  O   UNL     1      -8.435  10.887  68.934  1.00  0.00    -0.153 OA 
BRANCH  26  27
HETATM   27  C   UNL     1      -8.878   9.851  68.026  1.00  0.00    -0.125 C  
HETATM   28  C   UNL     1      -7.989   8.611  68.003  1.00  0.00    -0.107 C  
ENDBRANCH  26  27
ENDBRANCH  24  26
ENDBRANCH  23  24
ENDBRANCH   4  23
BRANCH   4  29
HETATM   29  C   UNL     1     -11.149  13.865  69.971  1.00  0.00     0.139 C  
HETATM   30  O   UNL     1     -11.634  12.730  69.990  1.00  0.00    -0.236 OA 
BRANCH  29  31
HETATM   31  O   UNL     1     -11.998  14.886  69.577  1.00  0.00    -0.298 OA 
HETATM   32  C   UNL     1     -12.891  14.457  68.476  1.00  0.00     1.236 C  
HETATM   33 CL   UNL     1     -12.064  14.521  66.892  1.00  0.00    -0.383 Cl 
ENDBRANCH  29  31
ENDBRANCH   4  29
TORSDOF 6
ENDMDL
MODEL      150
REMARK 921   NORMALIZED FREE ENERGY PREDICTED BY IDOCK:   31.63 KCAL/MOL
REMARK 922        TOTAL FREE ENERGY PREDICTED BY IDOCK:   43.04 KCAL/MOL
REMARK 923 INTER-LIGAND FREE ENERGY PREDICTED BY IDOCK:   38.09 KCAL/MOL
REMARK 924 INTRA-LIGAND FREE ENERGY PREDICTED BY IDOCK:    4.95 KCAL/MOL
REMARK 927      BINDING AFFINITY PREDICTED BY RF-SCORE:    0.00 PKD
ROOT
HETATM    1  C   UNL     1      -9.779  11.552  68.459  1.00  0.00    -0.191 C  
HETATM    2  C   UNL     1      -9.183  12.040  67.269  1.00  0.00    -0.182 C  
HETATM    3  C   UNL     1      -8.333  11.287  68.231  1.00  0.00    -0.150 C  
HETATM    4  C   UNL     1      -9.299  10.127  69.665  1.00  0.00    -0.190 C  
HETATM    5  C   UNL     1      -8.828   9.872  68.402  1.00  0.00    -0.120 C  
HETATM    6  C   UNL     1      -7.944  12.972  72.854  1.00  0.00    14.588 C  
HETATM    7  C   UNL     1      -9.760  14.008  69.652  1.00  0.00     0.763 C  
HETATM    8  C   UNL     1      -7.361  13.535  71.555  1.00  0.00     5.080 C  
HETATM    9  C   UNL     1      -5.785  13.793  71.490  1.00  0.00    -0.174 C  
HETATM   10  C   UNL     1      -7.115   9.864  69.237  1.00  0.00    -0.069 C  
HETATM   11  C   UNL     1      -5.147  14.952  71.247  1.00  0.00    -0.143 C  
HETATM   12  C   UNL     1      -9.363   8.919  67.362  1.00  0.00    -0.165 C  
HETATM   13  O   UNL     1      -5.829  15.946  73.328  1.00  0.00     1.343 OA 
HETATM   14  C   UNL     1      -7.047  10.979  70.533  1.00  0.00     1.017 C  
HETATM   15  C   UNL     1      -6.086  15.744  72.152  1.00  0.00     1.792 C  
HETATM   16  C   UNL     1      -7.382  16.023  71.515  1.00  0.00     4.757 C  
HETATM   17  O   UNL     1      -7.625  10.288  71.647  1.00  0.00     1.019 OA 
HETATM   18  C   UNL     1      -8.065  14.896  71.288  1.00  0.00     3.264 C  
HETATM   19  C   UNL     1      -7.666  12.537  70.390  1.00  0.00     3.652 C  
HETATM   20  C   UNL     1      -9.501  14.913  70.842  1.00  0.00     1.963 C  
HETATM   21  H   UNL     1      -7.588  10.907  72.367  1.00  0.00     0.000 HD 
HETATM   22  C   UNL     1      -9.269  12.581  69.898  1.00  0.00     2.929 C  
ENDROOT
BRANCH   4  23
HETATM   23  O   UNL     1     -10.888   9.859  69.535  1.00  0.00    -0.225 OA 
BRANCH  23  24
HETATM   24  C   UNL     1     -11.844  10.780  69.119  1.00  0.00    -0.275 C  
HETATM   25  O   UNL     1     -11.846  11.341  68.038  1.00  0.00    -0.578 OA 
BRANCH  24  26
HETATM   26  O   UNL     1     -12.911  10.773  69.981  1.00  0.00    -0.230 OA 
BRANCH  26  27
HETATM   27  C   UNL     1     -12.610  10.146  71.250  1.00  0.00    -0.404 C  
HETATM   28  C   UNL     1     -13.116   8.713  71.380  1.00  0.00    -0.277 C  
ENDBRANCH  26  27
ENDBRANCH  24  26
ENDBRANCH  23  24
ENDBRANCH   4  23
BRANCH   4  29
HETATM   29  C   UNL     1      -9.035   8.422  70.207  1.00  0.00    -0.147 C  
HETATM   30  O   UNL     1      -8.759   7.475  69.465  1.00  0.00    -0.136 OA 
BRANCH  29  31
HETATM   31  O   UNL     1      -9.206   8.119  71.547  1.00  0.00    -0.141 OA 
HETATM   32  C   UNL     1      -8.474   6.887  71.924  1.00  0.00    -0.114 C  
HETATM   33 CL   UNL     1      -9.379   5.414  71.466  1.00  0.00    -0.168 Cl 
ENDBRANCH  29  31
ENDBRANCH   4  29
TORSDOF 6
ENDMDL
MODEL      151
REMARK 921   NORMALIZED FREE ENERGY PREDICTED BY IDOCK:   37.82 KCAL/MOL
REMARK 922        TOTAL FREE ENERGY PREDICTED BY IDOCK:   51.40 KCAL/MOL
REMARK 923 INTER-LIGAND FREE ENERGY PREDICTED BY IDOCK:   39.99 KCAL/MOL
REMARK 924 INTRA-LIGAND FREE ENERGY PREDICTED BY IDOCK:   11.41 KCAL/MOL
REMARK 927      BINDING AFFINITY PREDICTED BY RF-SCORE:    0.00 PKD
ROOT
HETATM    1  C   UNL     1     -11.085  14.415  71.358  1.00  0.00     0.852 C  
HETATM    2  C   UNL     1     -11.087  13.987  72.710  1.00  0.00     3.384 C  
HETATM    3  C   UNL     1      -9.778  14.217  72.040  1.00  0.00     7.231 C  
HETATM    4  C   UNL     1      -9.777  15.344  70.290  1.00  0.00     0.273 C  
HETATM    5  C   UNL     1      -9.630  15.658  71.618  1.00  0.00     3.654 C  
HETATM    6  C   UNL     1      -8.744  11.666  67.943  1.00  0.00    -0.154 C  
HETATM    7  C   UNL     1     -11.654  11.918  70.411  1.00  0.00    -0.060 C  
HETATM    8  C   UNL     1      -8.817  11.194  69.398  1.00  0.00     0.306 C  
HETATM    9  C   UNL     1      -7.547  10.439  70.006  1.00  0.00    -0.048 C  
HETATM   10  C   UNL     1      -7.879  14.934  71.408  1.00  0.00     3.222 C  
HETATM   11  C   UNL     1      -7.493   9.200  70.527  1.00  0.00    -0.119 C  
HETATM   12  C   UNL     1     -10.039  16.911  72.350  1.00  0.00     6.801 C  
HETATM   13  O   UNL     1      -7.871   8.122  68.411  1.00  0.00    -0.114 OA 
HETATM   14  C   UNL     1      -7.868  13.640  70.290  1.00  0.00     2.265 C  
HETATM   15  C   UNL     1      -8.359   8.615  69.415  1.00  0.00    -0.114 C  
HETATM   16  C   UNL     1      -9.788   8.911  69.597  1.00  0.00    -0.182 C  
HETATM   17  O   UNL     1      -7.795  14.263  69.001  1.00  0.00    -0.223 OA 
HETATM   18  C   UNL     1     -10.028  10.224  69.504  1.00  0.00    -0.252 C  
HETATM   19  C   UNL     1      -9.044  12.435  70.322  1.00  0.00     4.888 C  
HETATM   20  C   UNL     1     -11.427  10.774  69.442  1.00  0.00    -0.366 C  
HETATM   21  H   UNL     1      -7.790  13.545  68.380  1.00  0.00     0.000 HD 
HETATM   22  C   UNL     1     -10.612  13.025  70.248  1.00  0.00     1.928 C  
ENDROOT
BRANCH   4  23
HETATM   23  O   UNL     1     -11.112  16.149  69.860  1.00  0.00    -0.318 OA 
BRANCH  23  24
HETATM   24  C   UNL     1     -12.367  15.595  69.633  1.00  0.00    -0.151 C  
HETATM   25  O   UNL     1     -12.569  14.541  69.057  1.00  0.00    -0.047 OA 
BRANCH  24  26
HETATM   26  O   UNL     1     -13.316  16.262  70.364  1.00  0.00     0.642 OA 
BRANCH  26  27
HETATM   27  C   UNL     1     -14.124  15.383  71.180  1.00  0.00    -0.263 C  
HETATM   28  C   UNL     1     -13.332  14.324  71.941  1.00  0.00    -0.470 C  
ENDBRANCH  26  27
ENDBRANCH  24  26
ENDBRANCH  23  24
ENDBRANCH   4  23
BRANCH   4  29
HETATM   29  C   UNL     1      -8.745  16.729  69.754  1.00  0.00     0.933 C  
HETATM   30  O   UNL     1      -8.517  17.033  68.580  1.00  0.00    -0.239 OA 
BRANCH  29  31
HETATM   31  O   UNL     1      -8.103  17.488  70.718  1.00  0.00     4.234 OA 
HETATM   32  C   UNL     1      -6.636  17.290  70.679  1.00  0.00     1.587 C  
HETATM   33 CL   UNL     1      -6.149  15.791  71.524  1.00  0.00     0.909 Cl 
ENDBRANCH  29  31
ENDBRANCH   4  29
TORSDOF 6
ENDMDL
MODEL      152
REMARK 921   NORMALIZED FREE ENERGY PREDICTED BY IDOCK:   37.92 KCAL/MOL
REMARK 922        TOTAL FREE ENERGY PREDICTED BY IDOCK:   51.53 KCAL/MOL
REMARK 923 INTER-LIGAND FREE ENERGY PREDICTED BY IDOCK:   44.41 KCAL/MOL
REMARK 924 INTRA-LIGAND FREE ENERGY PREDICTED BY IDOCK:    7.12 KCAL/MOL
REMARK 927      BINDING AFFINITY PREDICTED BY RF-SCORE:    0.00 PKD
ROOT
HETATM    1  C   UNL     1     -11.831  10.296  69.317  1.00  0.00    -0.081 C  
HETATM    2  C   UNL     1     -13.159   9.804  69.261  1.00  0.00     2.864 C  
HETATM    3  C   UNL     1     -12.228   9.219  70.264  1.00  0.00     0.236 C  
HETATM    4  C   UNL     1     -10.500  10.290  70.712  1.00  0.00     0.287 C  
HETATM    5  C   UNL     1     -11.763  10.266  71.248  1.00  0.00    -0.378 C  
HETATM    6  C   UNL     1      -8.042   7.145  68.672  1.00  0.00    -0.124 C  
HETATM    7  C   UNL     1     -11.058   8.895  67.104  1.00  0.00     0.388 C  
HETATM    8  C   UNL     1      -9.487   6.651  68.550  1.00  0.00    -0.123 C  
HETATM    9  C   UNL     1      -9.828   5.188  69.092  1.00  0.00    -0.257 C  
HETATM   10  C   UNL     1     -11.204   8.619  72.028  1.00  0.00    -0.434 C  
HETATM   11  C   UNL     1     -10.344   4.152  68.407  1.00  0.00     0.565 C  
HETATM   12  C   UNL     1     -12.547  11.382  71.889  1.00  0.00    -0.120 C  
HETATM   13  O   UNL     1      -8.369   3.848  67.070  1.00  0.00    -0.099 OA 
HETATM   14  C   UNL     1     -10.126   7.776  71.001  1.00  0.00    -0.185 C  
HETATM   15  C   UNL     1      -9.445   4.407  67.201  1.00  0.00    -0.172 C  
HETATM   16  C   UNL     1      -9.917   5.528  66.372  1.00  0.00    -0.203 C  
HETATM   17  O   UNL     1      -8.842   8.362  71.249  1.00  0.00    -0.138 OA 
HETATM   18  C   UNL     1      -9.857   6.685  67.041  1.00  0.00    -0.207 C  
HETATM   19  C   UNL     1     -10.420   7.618  69.351  1.00  0.00    -0.220 C  
HETATM   20  C   UNL     1     -10.080   8.008  66.360  1.00  0.00    -0.174 C  
HETATM   21  H   UNL     1      -8.244   7.894  70.678  1.00  0.00     0.000 HD 
HETATM   22  C   UNL     1     -10.666   9.081  68.570  1.00  0.00    -0.140 C  
ENDROOT
BRANCH   4  23
HETATM   23  O   UNL     1     -10.346  11.812  70.184  1.00  0.00     1.048 OA 
BRANCH  23  24
HETATM   24  C   UNL     1      -9.232  12.628  70.345  1.00  0.00     5.778 C  
HETATM   25  O   UNL     1      -9.272  13.810  70.634  1.00  0.00     3.658 OA 
BRANCH  24  26
HETATM   26  O   UNL     1      -8.093  11.866  70.387  1.00  0.00     2.537 OA 
BRANCH  26  27
HETATM   27  C   UNL     1      -7.861  11.126  69.166  1.00  0.00    -0.063 C  
HETATM   28  C   UNL     1      -6.472  10.506  69.058  1.00  0.00    -0.054 C  
ENDBRANCH  26  27
ENDBRANCH  24  26
ENDBRANCH  23  24
ENDBRANCH   4  23
BRANCH   4  29
HETATM   29  C   UNL     1      -9.741  10.739  72.291  1.00  0.00    10.367 C  
HETATM   30  O   UNL     1     -10.306  11.350  73.203  1.00  0.00    13.972 OA 
BRANCH  29  31
HETATM   31  O   UNL     1      -8.405  10.435  72.494  1.00  0.00     5.602 OA 
HETATM   32  C   UNL     1      -8.169   8.973  72.457  1.00  0.00     0.591 C  
HETATM   33 CL   UNL     1      -8.591   8.195  74.011  1.00  0.00    -0.307 Cl 
ENDBRANCH  29  31
ENDBRANCH   4  29
TORSDOF 6
ENDMDL
MODEL      153
REMARK 921   NORMALIZED FREE ENERGY PREDICTED BY IDOCK:   42.54 KCAL/MOL
REMARK 922        TOTAL FREE ENERGY PREDICTED BY IDOCK:   57.77 KCAL/MOL
REMARK 923 INTER-LIGAND FREE ENERGY PREDICTED BY IDOCK:   51.60 KCAL/MOL
REMARK 924 INTRA-LIGAND FREE ENERGY PREDICTED BY IDOCK:    6.17 KCAL/MOL
REMARK 927      BINDING AFFINITY PREDICTED BY RF-SCORE:    0.00 PKD
ROOT
HETATM    1  C   UNL     1      -8.779  18.003  68.569  1.00  0.00    -0.304 C  
HETATM    2  C   UNL     1      -8.039  18.753  67.620  1.00  0.00    -0.270 C  
HETATM    3  C   UNL     1      -9.040  17.769  67.123  1.00  0.00    -0.247 C  
HETATM    4  C   UNL     1     -10.476  17.093  68.471  1.00  0.00    -0.377 C  
HETATM    5  C   UNL     1     -10.432  18.134  67.578  1.00  0.00    -0.425 C  
HETATM    6  C   UNL     1      -8.560  13.040  68.452  1.00  0.00    -0.116 C  
HETATM    7  C   UNL     1      -6.695  16.317  69.085  1.00  0.00    -0.196 C  
HETATM    8  C   UNL     1      -7.720  13.873  67.480  1.00  0.00    -0.192 C  
HETATM    9  C   UNL     1      -7.519  13.319  65.995  1.00  0.00     3.235 C  
HETATM   10  C   UNL     1     -10.716  16.782  66.265  1.00  0.00    -0.106 C  
HETATM   11  C   UNL     1      -6.364  13.032  65.369  1.00  0.00     8.081 C  
HETATM   12  C   UNL     1     -11.077  19.494  67.670  1.00  0.00    -0.174 C  
HETATM   13  O   UNL     1      -5.885  11.145  66.781  1.00  0.00    -0.081 OA 
HETATM   14  C   UNL     1      -9.958  15.314  66.707  1.00  0.00    -0.242 C  
HETATM   15  C   UNL     1      -5.780  12.348  66.602  1.00  0.00     0.631 C  
HETATM   16  C   UNL     1      -5.300  13.309  67.606  1.00  0.00    -0.039 C  
HETATM   17  O   UNL     1     -10.877  14.676  67.603  1.00  0.00    -0.272 OA 
HETATM   18  C   UNL     1      -6.308  14.028  68.112  1.00  0.00    -0.128 C  
HETATM   19  C   UNL     1      -8.387  15.278  67.312  1.00  0.00    -0.225 C  
HETATM   20  C   UNL     1      -6.122  14.930  69.302  1.00  0.00    -0.107 C  
HETATM   21  H   UNL     1     -10.455  13.861  67.849  1.00  0.00     0.000 HD 
HETATM   22  C   UNL     1      -8.158  16.272  68.642  1.00  0.00    -0.213 C  
ENDROOT
BRANCH   4  23
HETATM   23  O   UNL     1     -10.637  17.832  69.901  1.00  0.00     0.279 OA 
BRANCH  23  24
HETATM   24  C   UNL     1     -11.704  17.693  70.780  1.00  0.00     3.898 C  
HETATM   25  O   UNL     1     -12.705  18.388  70.775  1.00  0.00    13.463 OA 
BRANCH  24  26
HETATM   26  O   UNL     1     -11.591  16.519  71.478  1.00  0.00    -0.384 OA 
BRANCH  26  27
HETATM   27  C   UNL     1     -10.388  16.450  72.281  1.00  0.00     4.160 C  
HETATM   28  C   UNL     1     -10.380  17.388  73.484  1.00  0.00     6.672 C  
ENDBRANCH  26  27
ENDBRANCH  24  26
ENDBRANCH  23  24
ENDBRANCH   4  23
BRANCH   4  29
HETATM   29  C   UNL     1     -12.271  16.928  68.330  1.00  0.00     1.701 C  
HETATM   30  O   UNL     1     -12.993  16.318  69.124  1.00  0.00     0.802 OA 
BRANCH  29  31
HETATM   31  O   UNL     1     -12.902  17.473  67.224  1.00  0.00     4.701 OA 
HETATM   32  C   UNL     1     -13.523  16.425  66.381  1.00  0.00     7.376 C  
HETATM   33 CL   UNL     1     -12.321  15.635  65.318  1.00  0.00     0.703 Cl 
ENDBRANCH  29  31
ENDBRANCH   4  29
TORSDOF 6
ENDMDL
MODEL      154
REMARK 921   NORMALIZED FREE ENERGY PREDICTED BY IDOCK:   42.83 KCAL/MOL
REMARK 922        TOTAL FREE ENERGY PREDICTED BY IDOCK:   58.17 KCAL/MOL
REMARK 923 INTER-LIGAND FREE ENERGY PREDICTED BY IDOCK:   52.04 KCAL/MOL
REMARK 924 INTRA-LIGAND FREE ENERGY PREDICTED BY IDOCK:    6.13 KCAL/MOL
REMARK 927      BINDING AFFINITY PREDICTED BY RF-SCORE:    0.00 PKD
ROOT
HETATM    1  C   UNL     1      -7.562  12.093  67.416  1.00  0.00    -0.155 C  
HETATM    2  C   UNL     1      -6.306  11.756  66.850  1.00  0.00    -0.131 C  
HETATM    3  C   UNL     1      -7.292  12.487  66.007  1.00  0.00     2.006 C  
HETATM    4  C   UNL     1      -8.866  13.443  66.977  1.00  0.00    -0.211 C  
HETATM    5  C   UNL     1      -7.610  13.841  66.595  1.00  0.00     1.042 C  
HETATM    6  C   UNL     1     -11.723  10.449  65.251  1.00  0.00     2.703 C  
HETATM    7  C   UNL     1      -8.529   9.552  67.154  1.00  0.00    -0.131 C  
HETATM    8  C   UNL     1     -10.353  10.046  64.698  1.00  0.00     0.337 C  
HETATM    9  C   UNL     1     -10.192   9.917  63.114  1.00  0.00     1.336 C  
HETATM   10  C   UNL     1      -8.363  13.910  64.845  1.00  0.00     5.901 C  
HETATM   11  C   UNL     1      -9.818   8.836  62.407  1.00  0.00     2.408 C  
HETATM   12  C   UNL     1      -6.686  14.834  67.252  1.00  0.00     0.101 C  
HETATM   13  O   UNL     1     -11.831   7.618  62.902  1.00  0.00    17.020 OA 
HETATM   14  C   UNL     1      -9.549  12.697  64.627  1.00  0.00     0.228 C  
HETATM   15  C   UNL     1     -10.691   7.899  63.236  1.00  0.00    12.233 C  
HETATM   16  C   UNL     1     -10.092   7.576  64.540  1.00  0.00     4.953 C  
HETATM   17  O   UNL     1     -10.747  13.243  65.194  1.00  0.00    -0.298 OA 
HETATM   18  C   UNL     1      -9.999   8.663  65.314  1.00  0.00     1.027 C  
HETATM   19  C   UNL     1      -9.297  11.113  65.137  1.00  0.00    -0.237 C  
HETATM   20  C   UNL     1      -9.620   8.573  66.767  1.00  0.00    -0.273 C  
HETATM   21  H   UNL     1     -11.405  12.569  65.073  1.00  0.00     0.000 HD 
HETATM   22  C   UNL     1      -8.878  10.987  66.756  1.00  0.00    -0.158 C  
ENDROOT
BRANCH   4  23
HETATM   23  O   UNL     1      -8.835  13.596  68.587  1.00  0.00    -0.133 OA 
BRANCH  23  24
HETATM   24  C   UNL     1      -9.581  14.495  69.341  1.00  0.00     0.143 C  
HETATM   25  O   UNL     1     -10.119  15.495  68.899  1.00  0.00    -0.197 OA 
BRANCH  24  26
HETATM   26  O   UNL     1      -9.838  13.971  70.581  1.00  0.00     2.213 OA 
BRANCH  26  27
HETATM   27  C   UNL     1     -11.212  14.151  70.998  1.00  0.00     0.673 C  
HETATM   28  C   UNL     1     -12.178  14.478  69.863  1.00  0.00    -0.379 C  
ENDBRANCH  26  27
ENDBRANCH  24  26
ENDBRANCH  23  24
ENDBRANCH   4  23
BRANCH   4  29
HETATM   29  C   UNL     1      -9.545  15.110  66.811  1.00  0.00    -0.245 C  
HETATM   30  O   UNL     1      -8.881  16.132  66.614  1.00  0.00    -0.212 OA 
BRANCH  29  31
HETATM   31  O   UNL     1     -10.909  15.290  66.969  1.00  0.00    -0.312 OA 
HETATM   32  C   UNL     1     -11.555  15.695  65.699  1.00  0.00     0.240 C  
HETATM   33 CL   UNL     1     -11.354  17.444  65.383  1.00  0.00     0.553 Cl 
ENDBRANCH  29  31
ENDBRANCH   4  29
TORSDOF 6
ENDMDL
MODEL      155
REMARK 921   NORMALIZED FREE ENERGY PREDICTED BY IDOCK:   43.30 KCAL/MOL
REMARK 922        TOTAL FREE ENERGY PREDICTED BY IDOCK:   58.80 KCAL/MOL
REMARK 923 INTER-LIGAND FREE ENERGY PREDICTED BY IDOCK:   48.87 KCAL/MOL
REMARK 924 INTRA-LIGAND FREE ENERGY PREDICTED BY IDOCK:    9.93 KCAL/MOL
REMARK 927      BINDING AFFINITY PREDICTED BY RF-SCORE:    0.00 PKD
ROOT
HETATM    1  C   UNL     1      -9.981  13.124  68.040  1.00  0.00    -0.233 C  
HETATM    2  C   UNL     1      -9.179  12.276  67.235  1.00  0.00    -0.185 C  
HETATM    3  C   UNL     1      -8.504  13.295  68.085  1.00  0.00    -0.173 C  
HETATM    4  C   UNL     1      -9.607  14.136  69.637  1.00  0.00     0.732 C  
HETATM    5  C   UNL     1      -8.777  13.047  69.548  1.00  0.00     1.545 C  
HETATM    6  C   UNL     1      -9.671  18.048  67.447  1.00  0.00    -0.296 C  
HETATM    7  C   UNL     1     -10.705  14.695  65.927  1.00  0.00    -0.312 C  
HETATM    8  C   UNL     1      -8.864  17.109  66.546  1.00  0.00    -0.293 C  
HETATM    9  C   UNL     1      -7.397  17.566  66.106  1.00  0.00    -0.347 C  
HETATM   10  C   UNL     1      -7.377  14.341  69.553  1.00  0.00     0.040 C  
HETATM   11  C   UNL     1      -6.926  17.742  64.859  1.00  0.00     2.128 C  
HETATM   12  C   UNL     1      -8.840  11.740  70.296  1.00  0.00     3.961 C  
HETATM   13  O   UNL     1      -8.303  19.668  64.439  1.00  0.00     2.426 OA 
HETATM   14  C   UNL     1      -7.853  15.779  68.756  1.00  0.00    -0.180 C  
HETATM   15  C   UNL     1      -8.195  18.453  64.399  1.00  0.00     6.835 C  
HETATM   16  C   UNL     1      -9.299  17.519  64.130  1.00  0.00     9.092 C  
HETATM   17  O   UNL     1      -8.583  16.523  69.740  1.00  0.00     0.322 OA 
HETATM   18  C   UNL     1      -9.692  16.897  65.247  1.00  0.00     0.693 C  
HETATM   19  C   UNL     1      -8.668  15.744  67.284  1.00  0.00    -0.210 C  
HETATM   20  C   UNL     1     -10.936  16.052  65.290  1.00  0.00    -0.309 C  
HETATM   21  H   UNL     1      -8.848  17.321  69.297  1.00  0.00     0.000 HD 
HETATM   22  C   UNL     1     -10.062  14.812  67.310  1.00  0.00    -0.236 C  
ENDROOT
BRANCH   4  23
HETATM   23  O   UNL     1     -11.033  13.489  70.043  1.00  0.00     0.163 OA 
BRANCH  23  24
HETATM   24  C   UNL     1     -12.275  13.862  69.544  1.00  0.00    -0.306 C  
HETATM   25  O   UNL     1     -12.496  14.883  68.917  1.00  0.00    -0.051 OA 
BRANCH  24  26
HETATM   26  O   UNL     1     -13.152  12.812  69.630  1.00  0.00     0.914 OA 
BRANCH  26  27
HETATM   27  C   UNL     1     -13.107  12.139  70.910  1.00  0.00     0.172 C  
HETATM   28  C   UNL     1     -11.699  11.865  71.429  1.00  0.00     1.357 C  
ENDBRANCH  26  27
ENDBRANCH  24  26
ENDBRANCH  23  24
ENDBRANCH   4  23
BRANCH   4  29
HETATM   29  C   UNL     1      -9.211  14.411  71.380  1.00  0.00     5.163 C  
HETATM   30  O   UNL     1      -9.528  13.661  72.307  1.00  0.00     9.453 OA 
BRANCH  29  31
HETATM   31  O   UNL     1      -8.550  15.575  71.733  1.00  0.00     4.354 OA 
HETATM   32  C   UNL     1      -7.152  15.577  71.244  1.00  0.00     2.279 C  
HETATM   33 CL   UNL     1      -6.076  14.631  72.314  1.00  0.00     0.370 Cl 
ENDBRANCH  29  31
ENDBRANCH   4  29
TORSDOF 6
ENDMDL
MODEL      156
REMARK 921   NORMALIZED FREE ENERGY PREDICTED BY IDOCK:   51.63 KCAL/MOL
REMARK 922        TOTAL FREE ENERGY PREDICTED BY IDOCK:   70.06 KCAL/MOL
REMARK 923 INTER-LIGAND FREE ENERGY PREDICTED BY IDOCK:   51.83 KCAL/MOL
REMARK 924 INTRA-LIGAND FREE ENERGY PREDICTED BY IDOCK:   18.23 KCAL/MOL
REMARK 927      BINDING AFFINITY PREDICTED BY RF-SCORE:    0.00 PKD
ROOT
HETATM    1  C   UNL     1     -10.479  12.004  66.379  1.00  0.00    -0.267 C  
HETATM    2  C   UNL     1      -9.157  12.489  66.208  1.00  0.00    -0.074 C  
HETATM    3  C   UNL     1     -10.028  13.145  67.221  1.00  0.00    -0.230 C  
HETATM    4  C   UNL     1     -11.723  12.112  67.848  1.00  0.00    -0.336 C  
HETATM    5  C   UNL     1     -10.430  12.173  68.303  1.00  0.00    -0.225 C  
HETATM    6  C   UNL     1     -14.308  15.107  65.738  1.00  0.00     5.452 C  
HETATM    7  C   UNL     1     -11.386  13.243  64.121  1.00  0.00    -0.424 C  
HETATM    8  C   UNL     1     -12.874  15.588  65.495  1.00  0.00     1.448 C  
HETATM    9  C   UNL     1     -12.505  17.086  65.909  1.00  0.00     5.112 C  
HETATM   10  C   UNL     1     -10.946  13.873  68.995  1.00  0.00    -0.281 C  
HETATM   11  C   UNL     1     -12.034  18.069  65.121  1.00  0.00     4.570 C  
HETATM   12  C   UNL     1      -9.607  11.104  68.975  1.00  0.00    -0.099 C  
HETATM   13  O   UNL     1     -14.087  18.280  63.887  1.00  0.00    16.412 OA 
HETATM   14  C   UNL     1     -12.086  14.642  67.977  1.00  0.00    -0.171 C  
HETATM   15  C   UNL     1     -13.002  17.730  63.992  1.00  0.00    12.271 C  
HETATM   16  C   UNL     1     -12.579  16.552  63.220  1.00  0.00     5.766 C  
HETATM   17  O   UNL     1     -13.351  14.077  68.343  1.00  0.00     1.812 OA 
HETATM   18  C   UNL     1     -12.595  15.446  63.972  1.00  0.00     0.388 C  
HETATM   19  C   UNL     1     -11.892  14.680  66.306  1.00  0.00    -0.299 C  
HETATM   20  C   UNL     1     -12.410  14.077  63.376  1.00  0.00     0.183 C  
HETATM   21  H   UNL     1     -13.984  14.504  67.777  1.00  0.00     0.000 HD 
HETATM   22  C   UNL     1     -11.689  13.164  65.618  1.00  0.00    -0.402 C  
ENDROOT
BRANCH   4  23
HETATM   23  O   UNL     1     -11.905  10.557  67.441  1.00  0.00    -0.136 OA 
BRANCH  23  24
HETATM   24  C   UNL     1     -11.279   9.472  68.045  1.00  0.00     0.148 C  
HETATM   25  O   UNL     1     -10.708   8.578  67.448  1.00  0.00    -0.264 OA 
BRANCH  24  26
HETATM   26  O   UNL     1     -11.173   9.682  69.396  1.00  0.00    -0.187 OA 
BRANCH  26  27
HETATM   27  C   UNL     1     -11.310   8.467  70.170  1.00  0.00    -0.069 C  
HETATM   28  C   UNL     1     -11.003   8.629  71.655  1.00  0.00    -0.378 C  
ENDBRANCH  26  27
ENDBRANCH  24  26
ENDBRANCH  23  24
ENDBRANCH   4  23
BRANCH   4  29
HETATM   29  C   UNL     1     -12.385  11.779  69.497  1.00  0.00    -0.058 C  
HETATM   30  O   UNL     1     -11.942  10.938  70.285  1.00  0.00    -0.298 OA 
BRANCH  29  31
HETATM   31  O   UNL     1     -13.512  12.470  69.911  1.00  0.00     1.627 OA 
HETATM   32  C   UNL     1     -13.312  13.935  69.830  1.00  0.00     1.231 C  
HETATM   33 CL   UNL     1     -12.404  14.557  71.240  1.00  0.00    -0.396 Cl 
ENDBRANCH  29  31
ENDBRANCH   4  29
TORSDOF 6
ENDMDL
MODEL      157
REMARK 921   NORMALIZED FREE ENERGY PREDICTED BY IDOCK:   57.39 KCAL/MOL
REMARK 922        TOTAL FREE ENERGY PREDICTED BY IDOCK:   77.83 KCAL/MOL
REMARK 923 INTER-LIGAND FREE ENERGY PREDICTED BY IDOCK:   38.13 KCAL/MOL
REMARK 924 INTRA-LIGAND FREE ENERGY PREDICTED BY IDOCK:   39.70 KCAL/MOL
REMARK 927      BINDING AFFINITY PREDICTED BY RF-SCORE:    0.00 PKD
ROOT
HETATM    1  C   UNL     1     -11.088   9.630  64.609  1.00  0.00     4.329 C  
HETATM    2  C   UNL     1     -12.410  10.101  64.407  1.00  0.00     7.427 C  
HETATM    3  C   UNL     1     -11.537  10.827  65.370  1.00  0.00     1.099 C  
HETATM    4  C   UNL     1      -9.487  10.487  65.256  1.00  0.00    -0.229 C  
HETATM    5  C   UNL     1     -10.327  11.404  64.678  1.00  0.00    -0.362 C  
HETATM    6  C   UNL     1      -9.642   8.329  69.183  1.00  0.00    -0.160 C  
HETATM    7  C   UNL     1     -11.906   7.564  66.197  1.00  0.00     5.754 C  
HETATM    8  C   UNL     1     -11.083   8.778  68.926  1.00  0.00     0.190 C  
HETATM    9  C   UNL     1     -11.810   9.648  70.053  1.00  0.00    -0.009 C  
HETATM   10  C   UNL     1     -10.312  12.230  66.396  1.00  0.00    -0.250 C  
HETATM   11  C   UNL     1     -12.946   9.362  70.713  1.00  0.00    -0.008 C  
HETATM   12  C   UNL     1     -10.230  12.064  63.326  1.00  0.00    -0.398 C  
HETATM   13  O   UNL     1     -11.970   7.522  71.916  1.00  0.00    -0.283 OA 
HETATM   14  C   UNL     1     -10.192  11.068  67.646  1.00  0.00    -0.182 C  
HETATM   15  C   UNL     1     -12.550   7.902  70.912  1.00  0.00     0.013 C  
HETATM   16  C   UNL     1     -12.745   7.094  69.698  1.00  0.00     2.024 C  
HETATM   17  O   UNL     1      -8.793  10.773  67.744  1.00  0.00    -0.129 OA 
HETATM   18  C   UNL     1     -11.933   7.494  68.713  1.00  0.00     1.877 C  
HETATM   19  C   UNL     1     -11.116   9.661  67.636  1.00  0.00    -0.061 C  
HETATM   20  C   UNL     1     -11.780   6.706  67.440  1.00  0.00     0.949 C  
HETATM   21  H   UNL     1      -8.726  10.127  68.438  1.00  0.00     0.000 HD 
HETATM   22  C   UNL     1     -10.957   8.764  66.228  1.00  0.00     1.307 C  
ENDROOT
BRANCH   4  23
HETATM   23  O   UNL     1      -8.882   9.682  63.989  1.00  0.00    -0.208 OA 
BRANCH  23  24
HETATM   24  C   UNL     1      -7.689   9.962  63.333  1.00  0.00    -0.145 C  
HETATM   25  O   UNL     1      -7.107   9.193  62.589  1.00  0.00    -0.096 OA 
BRANCH  24  26
HETATM   26  O   UNL     1      -7.397  11.297  63.435  1.00  0.00     0.700 OA 
BRANCH  26  27
HETATM   27  C   UNL     1      -7.086  11.708  64.787  1.00  0.00     2.454 C  
HETATM   28  C   UNL     1      -7.395  13.171  65.088  1.00  0.00     8.083 C  
ENDBRANCH  26  27
ENDBRANCH  24  26
ENDBRANCH  23  24
ENDBRANCH   4  23
BRANCH   4  29
HETATM   29  C   UNL     1      -8.081  11.623  65.231  1.00  0.00     0.892 C  
HETATM   30  O   UNL     1      -7.929  12.550  64.430  1.00  0.00     3.750 OA 
BRANCH  29  31
HETATM   31  O   UNL     1      -7.052  11.425  66.137  1.00  0.00    -0.007 OA 
HETATM   32  C   UNL     1      -6.136  10.349  65.693  1.00  0.00    -0.123 C  
HETATM   33 CL   UNL     1      -6.790   8.727  66.066  1.00  0.00    -0.072 Cl 
ENDBRANCH  29  31
ENDBRANCH   4  29
TORSDOF 6
ENDMDL
MODEL      158
REMARK 921   NORMALIZED FREE ENERGY PREDICTED BY IDOCK:   68.90 KCAL/MOL
REMARK 922        TOTAL FREE ENERGY PREDICTED BY IDOCK:   93.38 KCAL/MOL
REMARK 923 INTER-LIGAND FREE ENERGY PREDICTED BY IDOCK:   89.88 KCAL/MOL
REMARK 924 INTRA-LIGAND FREE ENERGY PREDICTED BY IDOCK:    3.50 KCAL/MOL
REMARK 927      BINDING AFFINITY PREDICTED BY RF-SCORE:    0.00 PKD
ROOT
HETATM    1  C   UNL     1     -11.327  17.973  71.379  1.00  0.00     3.492 C  
HETATM    2  C   UNL     1     -12.294  18.992  71.575  1.00  0.00    15.452 C  
HETATM    3  C   UNL     1     -12.645  17.838  70.704  1.00  0.00    10.846 C  
HETATM    4  C   UNL     1     -11.474  16.123  70.858  1.00  0.00    -0.386 C  
HETATM    5  C   UNL     1     -12.622  16.544  71.481  1.00  0.00     1.027 C  
HETATM    6  C   UNL     1      -9.820  16.905  66.765  1.00  0.00    -0.284 C  
HETATM    7  C   UNL     1      -9.891  19.469  69.601  1.00  0.00     0.010 C  
HETATM    8  C   UNL     1     -10.814  18.045  67.009  1.00  0.00    -0.134 C  
HETATM    9  C   UNL     1     -11.974  18.272  65.934  1.00  0.00     4.291 C  
HETATM   10  C   UNL     1     -13.468  16.079  69.838  1.00  0.00     2.022 C  
HETATM   11  C   UNL     1     -12.228  19.380  65.215  1.00  0.00     5.944 C  
HETATM   12  C   UNL     1     -13.098  16.269  72.885  1.00  0.00    -0.265 C  
HETATM   13  O   UNL     1     -10.226  19.178  63.899  1.00  0.00     6.157 OA 
HETATM   14  C   UNL     1     -12.440  16.370  68.501  1.00  0.00     1.478 C  
HETATM   15  C   UNL     1     -10.751  19.612  64.911  1.00  0.00     1.248 C  
HETATM   16  C   UNL     1     -10.027  20.201  66.048  1.00  0.00    -0.487 C  
HETATM   17  O   UNL     1     -11.595  15.215  68.426  1.00  0.00    -0.318 OA 
HETATM   18  C   UNL     1      -9.991  19.362  67.089  1.00  0.00    -0.463 C  
HETATM   19  C   UNL     1     -11.550  17.791  68.366  1.00  0.00     1.422 C  
HETATM   20  C   UNL     1      -9.136  19.630  68.297  1.00  0.00    -0.395 C  
HETATM   21  H   UNL     1     -11.023  15.377  67.684  1.00  0.00     0.000 HD 
HETATM   22  C   UNL     1     -10.585  18.109  69.700  1.00  0.00     0.841 C  
ENDROOT
BRANCH   4  23
HETATM   23  O   UNL     1     -10.416  15.988  72.074  1.00  0.00     1.392 OA 
BRANCH  23  24
HETATM   24  C   UNL     1      -9.439  16.916  72.419  1.00  0.00    11.047 C  
HETATM   25  O   UNL     1      -9.588  17.816  73.226  1.00  0.00     8.979 OA 
BRANCH  24  26
HETATM   26  O   UNL     1      -8.222  16.526  71.923  1.00  0.00     8.857 OA 
BRANCH  26  27
HETATM   27  C   UNL     1      -8.316  15.417  70.997  1.00  0.00     2.936 C  
HETATM   28  C   UNL     1      -8.405  15.826  69.531  1.00  0.00    -0.135 C  
ENDBRANCH  26  27
ENDBRANCH  24  26
ENDBRANCH  23  24
ENDBRANCH   4  23
BRANCH   4  29
HETATM   29  C   UNL     1     -11.916  14.378  71.022  1.00  0.00    -0.323 C  
HETATM   30  O   UNL     1     -11.333  13.441  70.468  1.00  0.00     0.146 OA 
BRANCH  29  31
HETATM   31  O   UNL     1     -13.028  14.044  71.778  1.00  0.00    -0.321 OA 
HETATM   32  C   UNL     1     -13.387  12.616  71.616  1.00  0.00    -0.223 C  
HETATM   33 CL   UNL     1     -14.314  12.334  70.113  1.00  0.00     6.031 Cl 
ENDBRANCH  29  31
ENDBRANCH   4  29
TORSDOF 6
ENDMDL
MODEL      159
REMARK 921   NORMALIZED FREE ENERGY PREDICTED BY IDOCK:   76.02 KCAL/MOL
REMARK 922        TOTAL FREE ENERGY PREDICTED BY IDOCK:  103.00 KCAL/MOL
REMARK 923 INTER-LIGAND FREE ENERGY PREDICTED BY IDOCK:   71.04 KCAL/MOL
REMARK 924 INTRA-LIGAND FREE ENERGY PREDICTED BY IDOCK:   31.96 KCAL/MOL
REMARK 927      BINDING AFFINITY PREDICTED BY RF-SCORE:    0.00 PKD
ROOT
HETATM    1  C   UNL     1     -10.995  13.368  65.997  1.00  0.00    -0.281 C  
HETATM    2  C   UNL     1     -12.193  14.096  66.208  1.00  0.00    -0.474 C  
HETATM    3  C   UNL     1     -11.074  14.764  65.490  1.00  0.00    -0.346 C  
HETATM    4  C   UNL     1      -9.569  13.553  64.714  1.00  0.00     0.463 C  
HETATM    5  C   UNL     1     -10.745  14.044  64.205  1.00  0.00    -0.067 C  
HETATM    6  C   UNL     1      -6.715  15.165  67.772  1.00  0.00    -0.185 C  
HETATM    7  C   UNL     1     -10.158  13.709  68.574  1.00  0.00    -0.219 C  
HETATM    8  C   UNL     1      -8.032  15.898  68.042  1.00  0.00    -0.141 C  
HETATM    9  C   UNL     1      -8.013  17.496  68.052  1.00  0.00    -0.234 C  
HETATM   10  C   UNL     1      -9.789  15.687  64.070  1.00  0.00     4.591 C  
HETATM   11  C   UNL     1      -8.366  18.320  69.054  1.00  0.00    -0.062 C  
HETATM   12  C   UNL     1     -11.679  13.423  63.198  1.00  0.00     0.147 C  
HETATM   13  O   UNL     1      -6.502  17.693  70.438  1.00  0.00     0.337 OA 
HETATM   14  C   UNL     1      -8.661  15.861  65.343  1.00  0.00     1.685 C  
HETATM   15  C   UNL     1      -7.654  17.471  70.102  1.00  0.00     1.959 C  
HETATM   16  C   UNL     1      -8.421  16.271  70.471  1.00  0.00     2.676 C  
HETATM   17  O   UNL     1      -7.508  15.122  64.920  1.00  0.00     7.189 OA 
HETATM   18  C   UNL     1      -8.539  15.432  69.436  1.00  0.00    -0.249 C  
HETATM   19  C   UNL     1      -9.066  15.503  66.937  1.00  0.00    -0.264 C  
HETATM   20  C   UNL     1      -9.091  14.042  69.598  1.00  0.00     1.002 C  
HETATM   21  H   UNL     1      -6.881  15.218  65.628  1.00  0.00     0.000 HD 
HETATM   22  C   UNL     1      -9.680  13.956  67.143  1.00  0.00    -0.244 C  
ENDROOT
BRANCH   4  23
HETATM   23  O   UNL     1      -9.781  11.950  64.667  1.00  0.00    -0.212 OA 
BRANCH  23  24
HETATM   24  C   UNL     1     -10.793  11.275  63.994  1.00  0.00    -0.344 C  
HETATM   25  O   UNL     1     -11.666  11.809  63.334  1.00  0.00    -0.427 OA 
BRANCH  24  26
HETATM   26  O   UNL     1     -10.525   9.931  63.965  1.00  0.00     0.769 OA 
BRANCH  26  27
HETATM   27  C   UNL     1     -10.076   9.415  65.241  1.00  0.00     0.347 C  
HETATM   28  C   UNL     1      -8.621   9.730  65.571  1.00  0.00    -0.158 C  
ENDBRANCH  26  27
ENDBRANCH  24  26
ENDBRANCH  23  24
ENDBRANCH   4  23
BRANCH   4  29
HETATM   29  C   UNL     1      -8.777  13.516  63.089  1.00  0.00     9.473 C  
HETATM   30  O   UNL     1      -8.680  12.519  62.367  1.00  0.00     1.990 OA 
BRANCH  29  31
HETATM   31  O   UNL     1      -8.173  14.670  62.619  1.00  0.00    17.728 OA 
HETATM   32  C   UNL     1      -7.836  15.596  63.725  1.00  0.00    19.112 C  
HETATM   33 CL   UNL     1      -9.260  16.543  64.251  1.00  0.00     5.476 Cl 
ENDBRANCH  29  31
ENDBRANCH   4  29
TORSDOF 6
ENDMDL
