MODEL        1
REMARK 921   NORMALIZED FREE ENERGY PREDICTED BY IDOCK:   -7.51 KCAL/MOL
REMARK 922        TOTAL FREE ENERGY PREDICTED BY IDOCK:   -7.81 KCAL/MOL
REMARK 923 INTER-LIGAND FREE ENERGY PREDICTED BY IDOCK:   -8.39 KCAL/MOL
REMARK 924 INTRA-LIGAND FREE ENERGY PREDICTED BY IDOCK:    0.57 KCAL/MOL
REMARK 927      BINDING AFFINITY PREDICTED BY RF-SCORE:    0.00 PKD
ROOT
HETATM    1  C   UNL     1     -10.047   9.480  66.216  1.00  0.00    -0.327 C  
HETATM    2  C   UNL     1      -8.951   9.538  65.322  1.00  0.00    -0.244 C  
HETATM    3  C   UNL     1      -8.694  10.265  66.602  1.00  0.00    -0.134 C  
HETATM    4  C   UNL     1     -10.049   9.982  68.131  1.00  0.00    -0.159 C  
HETATM    5  C   UNL     1     -12.011  14.040  67.513  1.00  0.00    -0.430 C  
HETATM    6  C   UNL     1      -8.939   9.282  67.791  1.00  0.00    -0.131 C  
HETATM    7  O   UNL     1     -11.233   9.073  67.982  1.00  0.00    -0.481 OA 
HETATM    8  C   UNL     1      -8.440   7.877  68.037  1.00  0.00    -0.123 C  
HETATM    9  C   UNL     1      -8.201  10.901  68.535  1.00  0.00    -0.140 C  
HETATM   10  C   UNL     1     -10.876  13.804  66.507  1.00  0.00    -0.287 C  
HETATM   11  C   UNL     1      -9.845  14.942  66.626  1.00  0.00    -0.272 C  
HETATM   12  H   UNL     1     -11.857   8.942  68.687  1.00  0.00     0.000 HD 
HETATM   13  C   UNL     1      -9.827  16.034  65.849  1.00  0.00    -0.380 C  
HETATM   14  C   UNL     1      -9.286  12.273  68.201  1.00  0.00    -0.205 C  
HETATM   15  C   UNL     1     -10.090  12.439  66.718  1.00  0.00    -0.226 C  
HETATM   16  O   UNL     1     -11.279  17.335  64.529  1.00  0.00    -1.083 OA 
HETATM   17  O   UNL     1     -10.246  12.308  69.267  1.00  0.00    -0.409 OA 
HETATM   18  H   UNL     1     -10.825  13.039  69.089  1.00  0.00     0.000 HD 
HETATM   19  C   UNL     1     -10.908  11.097  66.153  1.00  0.00    -0.247 C  
HETATM   20  C   UNL     1     -11.367  11.361  64.709  1.00  0.00    -0.131 C  
HETATM   21  C   UNL     1     -12.215  12.622  64.583  1.00  0.00    -0.519 C  
HETATM   22  C   UNL     1     -11.521  13.857  65.103  1.00  0.00    -0.324 C  
HETATM   23  C   UNL     1     -11.542  14.988  64.367  1.00  0.00    -0.281 C  
HETATM   24  C   UNL     1     -10.916  16.222  64.882  1.00  0.00    -0.307 C  
ENDROOT
BRANCH   4  25
HETATM   25  C   UNL     1      -9.951   9.618  69.794  1.00  0.00    -0.227 C  
HETATM   26  O   UNL     1      -8.996   9.708  70.552  1.00  0.00    -0.236 OA 
BRANCH  25  27
HETATM   27  O   UNL     1     -11.129   9.027  70.199  1.00  0.00    -0.239 OA 
HETATM   28  C   UNL     1     -11.534   9.423  71.514  1.00  0.00    -0.397 C  
HETATM   29 CL   UNL     1     -11.190   8.082  72.630  1.00  0.00    -0.447 Cl 
ENDBRANCH  25  27
ENDBRANCH   4  25
TORSDOF 2
ENDMDL
MODEL        2
REMARK 921   NORMALIZED FREE ENERGY PREDICTED BY IDOCK:   -7.46 KCAL/MOL
REMARK 922        TOTAL FREE ENERGY PREDICTED BY IDOCK:   -7.76 KCAL/MOL
REMARK 923 INTER-LIGAND FREE ENERGY PREDICTED BY IDOCK:   -8.47 KCAL/MOL
REMARK 924 INTRA-LIGAND FREE ENERGY PREDICTED BY IDOCK:    0.71 KCAL/MOL
REMARK 927      BINDING AFFINITY PREDICTED BY RF-SCORE:    0.00 PKD
ROOT
HETATM    1  C   UNL     1     -11.211  14.676  65.886  1.00  0.00    -0.336 C  
HETATM    2  C   UNL     1     -10.209  14.326  64.950  1.00  0.00    -0.361 C  
HETATM    3  C   UNL     1      -9.754  14.183  66.367  1.00  0.00    -0.313 C  
HETATM    4  C   UNL     1     -11.198  14.322  67.833  1.00  0.00    -0.285 C  
HETATM    5  C   UNL     1      -9.970  18.536  69.029  1.00  0.00    -0.323 C  
HETATM    6  C   UNL     1     -10.759  13.255  67.122  1.00  0.00    -0.264 C  
HETATM    7  O   UNL     1     -12.645  14.536  67.504  1.00  0.00    -0.517 OA 
HETATM    8  C   UNL     1     -11.324  11.902  66.759  1.00  0.00    -0.393 C  
HETATM    9  C   UNL     1      -9.286  13.593  68.320  1.00  0.00    -0.204 C  
HETATM   10  C   UNL     1      -9.108  18.005  67.876  1.00  0.00    -0.269 C  
HETATM   11  C   UNL     1      -7.624  18.055  68.283  1.00  0.00    -0.278 C  
HETATM   12  H   UNL     1     -13.310  14.599  68.179  1.00  0.00     0.000 HD 
HETATM   13  C   UNL     1      -6.786  19.055  67.976  1.00  0.00    -0.255 C  
HETATM   14  C   UNL     1      -9.168  15.337  68.662  1.00  0.00    -0.201 C  
HETATM   15  C   UNL     1      -9.427  16.504  67.461  1.00  0.00    -0.224 C  
HETATM   16  O   UNL     1      -6.830  21.345  67.431  1.00  0.00    -0.573 OA 
HETATM   17  O   UNL     1     -10.037  15.598  69.774  1.00  0.00    -0.271 OA 
HETATM   18  H   UNL     1      -9.974  16.528  69.956  1.00  0.00     0.000 HD 
HETATM   19  C   UNL     1     -10.811  16.340  66.540  1.00  0.00    -0.105 C  
HETATM   20  C   UNL     1     -10.755  17.336  65.369  1.00  0.00    -0.074 C  
HETATM   21  C   UNL     1     -10.563  18.776  65.831  1.00  0.00    -0.405 C  
HETATM   22  C   UNL     1      -9.333  18.965  66.685  1.00  0.00    -0.348 C  
HETATM   23  C   UNL     1      -8.507  20.002  66.436  1.00  0.00    -0.341 C  
HETATM   24  C   UNL     1      -7.328  20.236  67.293  1.00  0.00    -0.298 C  
ENDROOT
BRANCH   4  25
HETATM   25  C   UNL     1     -11.624  13.415  69.213  1.00  0.00    -0.310 C  
HETATM   26  O   UNL     1     -11.240  12.307  69.561  1.00  0.00    -0.208 OA 
BRANCH  25  27
HETATM   27  O   UNL     1     -12.641  14.060  69.883  1.00  0.00    -0.304 OA 
HETATM   28  C   UNL     1     -12.423  14.136  71.297  1.00  0.00    -0.370 C  
HETATM   29 CL   UNL     1     -13.482  12.946  72.087  1.00  0.00    -0.642 Cl 
ENDBRANCH  25  27
ENDBRANCH   4  25
TORSDOF 2
ENDMDL
MODEL        3
REMARK 921   NORMALIZED FREE ENERGY PREDICTED BY IDOCK:   -7.44 KCAL/MOL
REMARK 922        TOTAL FREE ENERGY PREDICTED BY IDOCK:   -7.74 KCAL/MOL
REMARK 923 INTER-LIGAND FREE ENERGY PREDICTED BY IDOCK:   -8.39 KCAL/MOL
REMARK 924 INTRA-LIGAND FREE ENERGY PREDICTED BY IDOCK:    0.65 KCAL/MOL
REMARK 927      BINDING AFFINITY PREDICTED BY RF-SCORE:    0.00 PKD
ROOT
HETATM    1  C   UNL     1     -11.099  12.796  63.913  1.00  0.00    -0.477 C  
HETATM    2  C   UNL     1     -12.326  12.158  63.611  1.00  0.00    -0.673 C  
HETATM    3  C   UNL     1     -12.240  12.605  65.035  1.00  0.00    -0.535 C  
HETATM    4  C   UNL     1     -10.671  13.846  65.535  1.00  0.00    -0.302 C  
HETATM    5  C   UNL     1      -8.342  10.526  67.597  1.00  0.00    -0.114 C  
HETATM    6  C   UNL     1     -11.908  14.131  65.059  1.00  0.00    -0.390 C  
HETATM    7  O   UNL     1      -9.667  14.304  64.520  1.00  0.00    -0.539 OA 
HETATM    8  C   UNL     1     -12.533  15.295  64.326  1.00  0.00    -0.015 C  
HETATM    9  C   UNL     1     -12.272  13.599  66.877  1.00  0.00    -0.398 C  
HETATM   10  C   UNL     1      -9.667  10.010  67.019  1.00  0.00    -0.227 C  
HETATM   11  C   UNL     1     -10.497   9.366  68.145  1.00  0.00    -0.267 C  
HETATM   12  H   UNL     1      -8.944  14.876  64.750  1.00  0.00     0.000 HD 
HETATM   13  C   UNL     1     -10.516   8.055  68.419  1.00  0.00    -0.205 C  
HETATM   14  C   UNL     1     -11.097  12.365  67.396  1.00  0.00    -0.272 C  
HETATM   15  C   UNL     1     -10.572  11.135  66.356  1.00  0.00    -0.315 C  
HETATM   16  O   UNL     1      -9.180   6.134  68.155  1.00  0.00    -0.119 OA 
HETATM   17  O   UNL     1      -9.958  13.072  67.909  1.00  0.00    -0.217 OA 
HETATM   18  H   UNL     1      -9.331  12.414  68.186  1.00  0.00     0.000 HD 
HETATM   19  C   UNL     1     -10.060  11.603  64.837  1.00  0.00    -0.303 C  
HETATM   20  C   UNL     1      -9.849  10.350  63.970  1.00  0.00    -0.355 C  
HETATM   21  C   UNL     1      -8.881   9.355  64.601  1.00  0.00    -0.238 C  
HETATM   22  C   UNL     1      -9.296   8.921  65.986  1.00  0.00    -0.306 C  
HETATM   23  C   UNL     1      -9.264   7.611  66.307  1.00  0.00    -0.204 C  
HETATM   24  C   UNL     1      -9.614   7.171  67.671  1.00  0.00    -0.130 C  
ENDROOT
BRANCH   4  25
HETATM   25  C   UNL     1     -10.502  15.310  66.394  1.00  0.00    -0.303 C  
HETATM   26  O   UNL     1     -10.955  15.626  67.485  1.00  0.00    -0.316 OA 
BRANCH  25  27
HETATM   27  O   UNL     1      -9.858  16.232  65.595  1.00  0.00    -0.450 OA 
HETATM   28  C   UNL     1      -9.381  17.369  66.323  1.00  0.00    -0.217 C  
HETATM   29 CL   UNL     1     -10.461  18.740  65.984  1.00  0.00    -0.508 Cl 
ENDBRANCH  25  27
ENDBRANCH   4  25
TORSDOF 2
ENDMDL
MODEL        4
REMARK 921   NORMALIZED FREE ENERGY PREDICTED BY IDOCK:   -7.42 KCAL/MOL
REMARK 922        TOTAL FREE ENERGY PREDICTED BY IDOCK:   -7.72 KCAL/MOL
REMARK 923 INTER-LIGAND FREE ENERGY PREDICTED BY IDOCK:   -8.21 KCAL/MOL
REMARK 924 INTRA-LIGAND FREE ENERGY PREDICTED BY IDOCK:    0.49 KCAL/MOL
REMARK 927      BINDING AFFINITY PREDICTED BY RF-SCORE:    0.00 PKD
ROOT
HETATM    1  C   UNL     1      -9.981   9.638  65.993  1.00  0.00    -0.344 C  
HETATM    2  C   UNL     1      -8.838   9.746  65.164  1.00  0.00    -0.213 C  
HETATM    3  C   UNL     1      -8.651  10.397  66.497  1.00  0.00    -0.134 C  
HETATM    4  C   UNL     1     -10.086  10.027  67.931  1.00  0.00    -0.169 C  
HETATM    5  C   UNL     1     -12.020  14.117  67.444  1.00  0.00    -0.439 C  
HETATM    6  C   UNL     1      -8.959   9.347  67.612  1.00  0.00    -0.125 C  
HETATM    7  O   UNL     1     -11.260   9.130  67.666  1.00  0.00    -0.444 OA 
HETATM    8  C   UNL     1      -8.471   7.930  67.802  1.00  0.00    -0.125 C  
HETATM    9  C   UNL     1      -8.265  10.919  68.487  1.00  0.00    -0.140 C  
HETATM   10  C   UNL     1     -10.832  13.938  66.489  1.00  0.00    -0.295 C  
HETATM   11  C   UNL     1      -9.812  15.066  66.728  1.00  0.00    -0.252 C  
HETATM   12  H   UNL     1     -11.920   8.960  68.327  1.00  0.00     0.000 HD 
HETATM   13  C   UNL     1      -9.753  16.201  66.018  1.00  0.00    -0.376 C  
HETATM   14  C   UNL     1      -9.333  12.310  68.174  1.00  0.00    -0.205 C  
HETATM   15  C   UNL     1     -10.056  12.562  66.662  1.00  0.00    -0.241 C  
HETATM   16  O   UNL     1     -11.134  17.579  64.700  1.00  0.00    -0.978 OA 
HETATM   17  O   UNL     1     -10.349  12.284  69.188  1.00  0.00    -0.425 OA 
HETATM   18  H   UNL     1     -10.919  13.025  69.021  1.00  0.00     0.000 HD 
HETATM   19  C   UNL     1     -10.840  11.256  65.977  1.00  0.00    -0.273 C  
HETATM   20  C   UNL     1     -11.221  11.604  64.528  1.00  0.00    -0.335 C  
HETATM   21  C   UNL     1     -12.063  12.871  64.430  1.00  0.00    -0.474 C  
HETATM   22  C   UNL     1     -11.400  14.074  65.057  1.00  0.00    -0.342 C  
HETATM   23  C   UNL     1     -11.384  15.245  64.388  1.00  0.00    -0.224 C  
HETATM   24  C   UNL     1     -10.789  16.446  65.006  1.00  0.00    -0.273 C  
ENDROOT
BRANCH   4  25
HETATM   25  C   UNL     1     -10.078   9.567  69.573  1.00  0.00    -0.206 C  
HETATM   26  O   UNL     1      -9.173   9.639  70.393  1.00  0.00    -0.250 OA 
BRANCH  25  27
HETATM   27  O   UNL     1     -11.260   8.921  69.869  1.00  0.00    -0.189 OA 
HETATM   28  C   UNL     1     -11.073   7.752  70.676  1.00  0.00    -0.256 C  
HETATM   29 CL   UNL     1     -11.260   6.322  69.635  1.00  0.00    -0.478 Cl 
ENDBRANCH  25  27
ENDBRANCH   4  25
TORSDOF 2
ENDMDL
MODEL        5
REMARK 921   NORMALIZED FREE ENERGY PREDICTED BY IDOCK:   -7.17 KCAL/MOL
REMARK 922        TOTAL FREE ENERGY PREDICTED BY IDOCK:   -7.43 KCAL/MOL
REMARK 923 INTER-LIGAND FREE ENERGY PREDICTED BY IDOCK:   -7.98 KCAL/MOL
REMARK 924 INTRA-LIGAND FREE ENERGY PREDICTED BY IDOCK:    0.54 KCAL/MOL
REMARK 927      BINDING AFFINITY PREDICTED BY RF-SCORE:    0.00 PKD
ROOT
HETATM    1  C   UNL     1     -12.010  13.526  68.705  1.00  0.00    -0.378 C  
HETATM    2  C   UNL     1     -11.536  14.328  69.770  1.00  0.00    -0.317 C  
HETATM    3  C   UNL     1     -10.433  13.765  68.932  1.00  0.00    -0.183 C  
HETATM    4  C   UNL     1     -10.969  12.869  67.154  1.00  0.00    -0.262 C  
HETATM    5  C   UNL     1     -10.381   8.661  68.779  1.00  0.00    -0.228 C  
HETATM    6  C   UNL     1     -10.687  14.163  67.443  1.00  0.00    -0.284 C  
HETATM    7  O   UNL     1     -12.398  12.797  66.702  1.00  0.00    -0.456 OA 
HETATM    8  C   UNL     1     -11.008  15.498  66.813  1.00  0.00    -0.257 C  
HETATM    9  C   UNL     1      -8.950  13.327  67.521  1.00  0.00    -0.208 C  
HETATM   10  C   UNL     1     -10.086   9.723  69.847  1.00  0.00    -0.288 C  
HETATM   11  C   UNL     1      -8.654   9.529  70.377  1.00  0.00    -0.246 C  
HETATM   12  H   UNL     1     -12.645  12.385  65.882  1.00  0.00     0.000 HD 
HETATM   13  C   UNL     1      -8.341   8.842  71.485  1.00  0.00    -0.212 C  
HETATM   14  C   UNL     1      -9.108  11.648  68.093  1.00  0.00    -0.183 C  
HETATM   15  C   UNL     1     -10.191  11.220  69.325  1.00  0.00    -0.058 C  
HETATM   16  O   UNL     1      -9.198   7.122  72.846  1.00  0.00    -0.135 OA 
HETATM   17  O   UNL     1      -9.364  10.841  66.934  1.00  0.00    -0.158 OA 
HETATM   18  H   UNL     1      -9.448   9.945  67.240  1.00  0.00     0.000 HD 
HETATM   19  C   UNL     1     -11.761  11.771  69.169  1.00  0.00    -0.388 C  
HETATM   20  C   UNL     1     -12.523  11.488  70.475  1.00  0.00    -0.367 C  
HETATM   21  C   UNL     1     -12.487  10.015  70.869  1.00  0.00    -0.431 C  
HETATM   22  C   UNL     1     -11.085   9.471  71.000  1.00  0.00    -0.433 C  
HETATM   23  C   UNL     1     -10.763   8.723  72.076  1.00  0.00    -0.417 C  
HETATM   24  C   UNL     1      -9.414   8.136  72.196  1.00  0.00    -0.225 C  
ENDROOT
BRANCH   4  25
HETATM   25  C   UNL     1     -10.439  12.959  65.535  1.00  0.00    -0.289 C  
HETATM   26  O   UNL     1      -9.927  13.896  64.939  1.00  0.00    -0.311 OA 
BRANCH  25  27
HETATM   27  O   UNL     1     -10.808  11.807  64.873  1.00  0.00    -0.283 OA 
HETATM   28  C   UNL     1     -11.056  12.016  63.478  1.00  0.00    -0.443 C  
HETATM   29 CL   UNL     1     -12.814  12.002  63.217  1.00  0.00    -0.533 Cl 
ENDBRANCH  25  27
ENDBRANCH   4  25
TORSDOF 2
ENDMDL
MODEL        6
REMARK 921   NORMALIZED FREE ENERGY PREDICTED BY IDOCK:   -6.87 KCAL/MOL
REMARK 922        TOTAL FREE ENERGY PREDICTED BY IDOCK:   -7.09 KCAL/MOL
REMARK 923 INTER-LIGAND FREE ENERGY PREDICTED BY IDOCK:   -7.53 KCAL/MOL
REMARK 924 INTRA-LIGAND FREE ENERGY PREDICTED BY IDOCK:    0.43 KCAL/MOL
REMARK 927      BINDING AFFINITY PREDICTED BY RF-SCORE:    0.00 PKD
ROOT
HETATM    1  C   UNL     1     -10.384  13.207  68.810  1.00  0.00    -0.146 C  
HETATM    2  C   UNL     1     -11.516  13.574  69.576  1.00  0.00    -0.318 C  
HETATM    3  C   UNL     1     -11.733  13.737  68.106  1.00  0.00    -0.392 C  
HETATM    4  C   UNL     1     -10.311  12.923  66.853  1.00  0.00    -0.243 C  
HETATM    5  C   UNL     1      -8.444  16.961  65.900  1.00  0.00    -0.025 C  
HETATM    6  C   UNL     1     -11.422  12.376  67.403  1.00  0.00    -0.418 C  
HETATM    7  O   UNL     1      -9.119  12.182  67.381  1.00  0.00    -0.170 OA 
HETATM    8  C   UNL     1     -11.888  10.972  67.709  1.00  0.00    -0.006 C  
HETATM    9  C   UNL     1     -12.155  13.554  66.064  1.00  0.00    -0.489 C  
HETATM   10  C   UNL     1      -9.615  17.100  66.882  1.00  0.00    -0.268 C  
HETATM   11  C   UNL     1     -10.659  18.069  66.296  1.00  0.00    -0.262 C  
HETATM   12  H   UNL     1      -8.465  11.807  66.804  1.00  0.00     0.000 HD 
HETATM   13  C   UNL     1     -10.727  19.376  66.585  1.00  0.00    -0.529 C  
HETATM   14  C   UNL     1     -11.108  14.982  65.870  1.00  0.00    -0.334 C  
HETATM   15  C   UNL     1     -10.369  15.737  67.196  1.00  0.00    -0.291 C  
HETATM   16  O   UNL     1      -9.353  21.134  67.338  1.00  0.00    -0.253 OA 
HETATM   17  O   UNL     1     -10.106  14.629  64.906  1.00  0.00    -0.416 OA 
HETATM   18  H   UNL     1      -9.547  15.390  64.802  1.00  0.00     0.000 HD 
HETATM   19  C   UNL     1      -9.553  14.747  68.265  1.00  0.00    -0.215 C  
HETATM   20  C   UNL     1      -9.158  15.567  69.505  1.00  0.00    -0.260 C  
HETATM   21  C   UNL     1      -8.337  16.803  69.156  1.00  0.00    -0.086 C  
HETATM   22  C   UNL     1      -9.030  17.716  68.174  1.00  0.00    -0.269 C  
HETATM   23  C   UNL     1      -9.058  19.044  68.410  1.00  0.00    -0.391 C  
HETATM   24  C   UNL     1      -9.683  19.960  67.436  1.00  0.00    -0.389 C  
ENDROOT
BRANCH   4  25
HETATM   25  C   UNL     1     -10.334  11.938  65.461  1.00  0.00    -0.264 C  
HETATM   26  O   UNL     1     -11.191  11.842  64.594  1.00  0.00    -0.308 OA 
BRANCH  25  27
HETATM   27  O   UNL     1      -9.252  11.084  65.493  1.00  0.00    -0.204 OA 
HETATM   28  C   UNL     1      -9.510   9.827  64.856  1.00  0.00    -0.265 C  
HETATM   29 CL   UNL     1      -9.741   8.600  66.122  1.00  0.00    -0.318 Cl 
ENDBRANCH  25  27
ENDBRANCH   4  25
TORSDOF 2
ENDMDL
MODEL        7
REMARK 921   NORMALIZED FREE ENERGY PREDICTED BY IDOCK:   -6.84 KCAL/MOL
REMARK 922        TOTAL FREE ENERGY PREDICTED BY IDOCK:   -7.06 KCAL/MOL
REMARK 923 INTER-LIGAND FREE ENERGY PREDICTED BY IDOCK:   -7.63 KCAL/MOL
REMARK 924 INTRA-LIGAND FREE ENERGY PREDICTED BY IDOCK:    0.57 KCAL/MOL
REMARK 927      BINDING AFFINITY PREDICTED BY RF-SCORE:    0.00 PKD
ROOT
HETATM    1  C   UNL     1     -11.046  12.707  64.854  1.00  0.00    -0.331 C  
HETATM    2  C   UNL     1     -12.387  12.293  64.669  1.00  0.00    -0.449 C  
HETATM    3  C   UNL     1     -12.182  13.040  65.948  1.00  0.00    -0.493 C  
HETATM    4  C   UNL     1     -10.374  14.000  66.194  1.00  0.00    -0.297 C  
HETATM    5  C   UNL     1      -8.782  10.853  69.069  1.00  0.00    -0.108 C  
HETATM    6  C   UNL     1     -11.527  14.420  65.620  1.00  0.00    -0.336 C  
HETATM    7  O   UNL     1      -9.311  13.974  65.136  1.00  0.00    -0.284 OA 
HETATM    8  C   UNL     1     -11.898  15.479  64.609  1.00  0.00    -0.171 C  
HETATM    9  C   UNL     1     -11.967  14.430  67.497  1.00  0.00    -0.389 C  
HETATM   10  C   UNL     1     -10.197  10.508  68.584  1.00  0.00    -0.197 C  
HETATM   11  C   UNL     1     -11.128  10.347  69.799  1.00  0.00    -0.352 C  
HETATM   12  H   UNL     1      -8.478  14.417  65.249  1.00  0.00     0.000 HD 
HETATM   13  C   UNL     1     -11.426   9.175  70.377  1.00  0.00    -0.228 C  
HETATM   14  C   UNL     1     -11.078  13.135  68.338  1.00  0.00    -0.268 C  
HETATM   15  C   UNL     1     -10.849  11.608  67.640  1.00  0.00    -0.273 C  
HETATM   16  O   UNL     1     -10.541   7.008  70.626  1.00  0.00    -0.218 OA 
HETATM   17  O   UNL     1      -9.805  13.684  68.708  1.00  0.00    -0.368 OA 
HETATM   18  H   UNL     1      -9.331  12.993  69.156  1.00  0.00     0.000 HD 
HETATM   19  C   UNL     1     -10.273  11.577  66.072  1.00  0.00    -0.283 C  
HETATM   20  C   UNL     1     -10.354  10.137  65.537  1.00  0.00    -0.196 C  
HETATM   21  C   UNL     1      -9.613   9.140  66.421  1.00  0.00    -0.309 C  
HETATM   22  C   UNL     1     -10.089   9.150  67.853  1.00  0.00    -0.246 C  
HETATM   23  C   UNL     1     -10.335   7.979  68.478  1.00  0.00    -0.229 C  
HETATM   24  C   UNL     1     -10.749   7.965  69.894  1.00  0.00    -0.244 C  
ENDROOT
BRANCH   4  25
HETATM   25  C   UNL     1      -9.877  15.556  66.685  1.00  0.00    -0.254 C  
HETATM   26  O   UNL     1     -10.488  16.397  67.330  1.00  0.00    -0.299 OA 
BRANCH  25  27
HETATM   27  O   UNL     1      -8.658  15.845  66.109  1.00  0.00    -0.330 OA 
HETATM   28  C   UNL     1      -7.866  16.744  66.894  1.00  0.00    -0.218 C  
HETATM   29 CL   UNL     1      -7.920  18.347  66.128  1.00  0.00    -0.256 Cl 
ENDBRANCH  25  27
ENDBRANCH   4  25
TORSDOF 2
ENDMDL
MODEL        8
REMARK 921   NORMALIZED FREE ENERGY PREDICTED BY IDOCK:   -6.83 KCAL/MOL
REMARK 922        TOTAL FREE ENERGY PREDICTED BY IDOCK:   -7.06 KCAL/MOL
REMARK 923 INTER-LIGAND FREE ENERGY PREDICTED BY IDOCK:   -7.60 KCAL/MOL
REMARK 924 INTRA-LIGAND FREE ENERGY PREDICTED BY IDOCK:    0.54 KCAL/MOL
REMARK 927      BINDING AFFINITY PREDICTED BY RF-SCORE:    0.00 PKD
ROOT
HETATM    1  C   UNL     1      -9.281   9.098  66.227  1.00  0.00    -0.246 C  
HETATM    2  C   UNL     1      -8.042   9.343  65.586  1.00  0.00    -0.112 C  
HETATM    3  C   UNL     1      -8.162  10.041  66.903  1.00  0.00    -0.121 C  
HETATM    4  C   UNL     1      -9.751   9.509  68.105  1.00  0.00    -0.147 C  
HETATM    5  C   UNL     1     -12.096  13.288  67.145  1.00  0.00    -0.352 C  
HETATM    6  C   UNL     1      -8.507   8.982  67.998  1.00  0.00    -0.125 C  
HETATM    7  O   UNL     1     -10.738   8.457  67.696  1.00  0.00    -0.429 OA 
HETATM    8  C   UNL     1      -7.876   7.648  68.324  1.00  0.00    -0.121 C  
HETATM    9  C   UNL     1      -8.177  10.651  68.905  1.00  0.00    -0.145 C  
HETATM   10  C   UNL     1     -10.755  13.253  66.399  1.00  0.00    -0.291 C  
HETATM   11  C   UNL     1      -9.943  14.513  66.750  1.00  0.00    -0.267 C  
HETATM   12  H   UNL     1     -11.470   8.212  68.250  1.00  0.00     0.000 HD 
HETATM   13  C   UNL     1      -9.919  15.631  66.011  1.00  0.00    -0.359 C  
HETATM   14  C   UNL     1      -9.352  11.878  68.369  1.00  0.00    -0.184 C  
HETATM   15  C   UNL     1      -9.845  11.999  66.752  1.00  0.00    -0.218 C  
HETATM   16  O   UNL     1     -11.233  16.781  64.433  1.00  0.00    -1.112 OA 
HETATM   17  O   UNL     1     -10.507  11.735  69.208  1.00  0.00    -0.412 OA 
HETATM   18  H   UNL     1     -11.134  12.389  68.922  1.00  0.00     0.000 HD 
HETATM   19  C   UNL     1     -10.330  10.584  66.007  1.00  0.00    -0.279 C  
HETATM   20  C   UNL     1     -10.512  10.848  64.502  1.00  0.00    -0.393 C  
HETATM   21  C   UNL     1     -11.484  11.987  64.218  1.00  0.00    -0.435 C  
HETATM   22  C   UNL     1     -11.095  13.281  64.891  1.00  0.00    -0.345 C  
HETATM   23  C   UNL     1     -11.123  14.429  64.185  1.00  0.00     0.125 C  
HETATM   24  C   UNL     1     -10.798  15.712  64.838  1.00  0.00    -0.418 C  
ENDROOT
BRANCH   4  25
HETATM   25  C   UNL     1      -9.950   9.089  69.746  1.00  0.00    -0.196 C  
HETATM   26  O   UNL     1      -9.129   8.652  70.539  1.00  0.00    -0.146 OA 
BRANCH  25  27
HETATM   27  O   UNL     1     -11.287   9.170  70.075  1.00  0.00    -0.204 OA 
HETATM   28  C   UNL     1     -11.609   8.484  71.290  1.00  0.00    -0.283 C  
HETATM   29 CL   UNL     1     -12.432   6.965  70.870  1.00  0.00    -0.386 Cl 
ENDBRANCH  25  27
ENDBRANCH   4  25
TORSDOF 2
ENDMDL
MODEL        9
REMARK 921   NORMALIZED FREE ENERGY PREDICTED BY IDOCK:   -6.63 KCAL/MOL
REMARK 922        TOTAL FREE ENERGY PREDICTED BY IDOCK:   -6.84 KCAL/MOL
REMARK 923 INTER-LIGAND FREE ENERGY PREDICTED BY IDOCK:   -7.27 KCAL/MOL
REMARK 924 INTRA-LIGAND FREE ENERGY PREDICTED BY IDOCK:    0.43 KCAL/MOL
REMARK 927      BINDING AFFINITY PREDICTED BY RF-SCORE:    0.00 PKD
ROOT
HETATM    1  C   UNL     1     -10.726  10.478  65.635  1.00  0.00    -0.052 C  
HETATM    2  C   UNL     1      -9.900  10.461  64.485  1.00  0.00    -0.405 C  
HETATM    3  C   UNL     1      -9.136  10.718  65.744  1.00  0.00    -0.208 C  
HETATM    4  C   UNL     1     -10.137  10.432  67.524  1.00  0.00    -0.192 C  
HETATM    5  C   UNL     1     -10.677  14.891  68.253  1.00  0.00    -0.249 C  
HETATM    6  C   UNL     1      -9.436   9.565  66.754  1.00  0.00    -0.217 C  
HETATM    7  O   UNL     1     -11.563   9.968  67.567  1.00  0.00    -0.461 OA 
HETATM    8  C   UNL     1      -9.407   8.064  66.584  1.00  0.00    -0.249 C  
HETATM    9  C   UNL     1      -8.046  10.652  67.530  1.00  0.00    -0.111 C  
HETATM   10  C   UNL     1      -9.940  14.621  66.934  1.00  0.00    -0.254 C  
HETATM   11  C   UNL     1      -8.584  15.348  66.950  1.00  0.00    -0.291 C  
HETATM   12  H   UNL     1     -12.024   9.836  68.387  1.00  0.00     0.000 HD 
HETATM   13  C   UNL     1      -8.363  16.556  66.413  1.00  0.00    -0.358 C  
HETATM   14  C   UNL     1      -8.641  12.312  67.782  1.00  0.00    -0.170 C  
HETATM   15  C   UNL     1      -9.643  13.085  66.654  1.00  0.00    -0.259 C  
HETATM   16  O   UNL     1      -9.533  18.516  65.834  1.00  0.00    -0.488 OA 
HETATM   17  O   UNL     1      -9.273  12.331  69.070  1.00  0.00    -0.374 OA 
HETATM   18  H   UNL     1      -9.591  13.216  69.205  1.00  0.00     0.000 HD 
HETATM   19  C   UNL     1     -10.974  12.228  66.120  1.00  0.00    -0.328 C  
HETATM   20  C   UNL     1     -11.619  12.985  64.946  1.00  0.00    -0.362 C  
HETATM   21  C   UNL     1     -11.989  14.419  65.305  1.00  0.00    -0.382 C  
HETATM   22  C   UNL     1     -10.818  15.225  65.813  1.00  0.00    -0.363 C  
HETATM   23  C   UNL     1     -10.612  16.469  65.334  1.00  0.00    -0.293 C  
HETATM   24  C   UNL     1      -9.505  17.293  65.857  1.00  0.00    -0.015 C  
ENDROOT
BRANCH   4  25
HETATM   25  C   UNL     1      -9.808   9.628  68.992  1.00  0.00    -0.182 C  
HETATM   26  O   UNL     1      -8.734   9.423  69.539  1.00  0.00    -0.139 OA 
BRANCH  25  27
HETATM   27  O   UNL     1     -10.972   9.061  69.468  1.00  0.00    -0.207 OA 
HETATM   28  C   UNL     1     -10.739   7.931  70.316  1.00  0.00    -0.236 C  
HETATM   29 CL   UNL     1     -11.118   6.457  69.397  1.00  0.00    -0.420 Cl 
ENDBRANCH  25  27
ENDBRANCH   4  25
TORSDOF 2
ENDMDL
MODEL       10
REMARK 921   NORMALIZED FREE ENERGY PREDICTED BY IDOCK:   -6.63 KCAL/MOL
REMARK 922        TOTAL FREE ENERGY PREDICTED BY IDOCK:   -6.83 KCAL/MOL
REMARK 923 INTER-LIGAND FREE ENERGY PREDICTED BY IDOCK:   -7.28 KCAL/MOL
REMARK 924 INTRA-LIGAND FREE ENERGY PREDICTED BY IDOCK:    0.46 KCAL/MOL
REMARK 927      BINDING AFFINITY PREDICTED BY RF-SCORE:    0.00 PKD
ROOT
HETATM    1  C   UNL     1     -10.531  16.529  67.604  1.00  0.00    -0.305 C  
HETATM    2  C   UNL     1     -11.073  16.584  68.910  1.00  0.00    -0.300 C  
HETATM    3  C   UNL     1      -9.631  16.190  68.897  1.00  0.00    -0.245 C  
HETATM    4  C   UNL     1      -8.617  16.402  67.113  1.00  0.00    -0.181 C  
HETATM    5  C   UNL     1      -8.697  11.941  66.223  1.00  0.00    -0.070 C  
HETATM    6  C   UNL     1      -8.824  17.282  68.123  1.00  0.00    -0.239 C  
HETATM    7  O   UNL     1      -9.282  16.944  65.882  1.00  0.00    -0.500 OA 
HETATM    8  C   UNL     1      -8.812  18.787  68.253  1.00  0.00    -0.363 C  
HETATM    9  C   UNL     1      -7.541  16.061  68.887  1.00  0.00    -0.192 C  
HETATM   10  C   UNL     1      -9.406  12.264  67.545  1.00  0.00    -0.183 C  
HETATM   11  C   UNL     1      -8.752  11.460  68.684  1.00  0.00    -0.121 C  
HETATM   12  H   UNL     1      -8.815  17.042  65.061  1.00  0.00     0.000 HD 
HETATM   13  C   UNL     1      -9.204  10.284  69.140  1.00  0.00    -0.203 C  
HETATM   14  C   UNL     1      -7.793  14.424  68.230  1.00  0.00    -0.138 C  
HETATM   15  C   UNL     1      -9.344  13.796  67.961  1.00  0.00    -0.199 C  
HETATM   16  O   UNL     1     -10.489   8.444  68.428  1.00  0.00    -0.208 OA 
HETATM   17  O   UNL     1      -7.032  14.348  67.016  1.00  0.00    -0.368 OA 
HETATM   18  H   UNL     1      -7.167  13.475  66.665  1.00  0.00     0.000 HD 
HETATM   19  C   UNL     1     -10.412  14.766  67.119  1.00  0.00    -0.265 C  
HETATM   20  C   UNL     1     -11.814  14.137  67.178  1.00  0.00    -0.454 C  
HETATM   21  C   UNL     1     -11.837  12.704  66.659  1.00  0.00    -0.449 C  
HETATM   22  C   UNL     1     -10.870  11.796  67.380  1.00  0.00    -0.299 C  
HETATM   23  C   UNL     1     -11.285  10.581  67.794  1.00  0.00    -0.344 C  
HETATM   24  C   UNL     1     -10.340   9.657  68.452  1.00  0.00    -0.204 C  
ENDROOT
BRANCH   4  25
HETATM   25  C   UNL     1      -7.126  17.076  66.631  1.00  0.00    -0.254 C  
HETATM   26  O   UNL     1      -6.058  17.097  67.225  1.00  0.00    -0.126 OA 
BRANCH  25  27
HETATM   27  O   UNL     1      -7.305  17.778  65.457  1.00  0.00    -0.489 OA 
HETATM   28  C   UNL     1      -6.267  18.733  65.211  1.00  0.00    -0.285 C  
HETATM   29 CL   UNL     1      -6.907  20.354  65.564  1.00  0.00    -0.299 Cl 
ENDBRANCH  25  27
ENDBRANCH   4  25
TORSDOF 2
ENDMDL
MODEL       11
REMARK 921   NORMALIZED FREE ENERGY PREDICTED BY IDOCK:   -6.61 KCAL/MOL
REMARK 922        TOTAL FREE ENERGY PREDICTED BY IDOCK:   -6.81 KCAL/MOL
REMARK 923 INTER-LIGAND FREE ENERGY PREDICTED BY IDOCK:   -7.94 KCAL/MOL
REMARK 924 INTRA-LIGAND FREE ENERGY PREDICTED BY IDOCK:    1.13 KCAL/MOL
REMARK 927      BINDING AFFINITY PREDICTED BY RF-SCORE:    0.00 PKD
ROOT
HETATM    1  C   UNL     1     -11.707  14.888  69.330  1.00  0.00    -0.349 C  
HETATM    2  C   UNL     1     -10.888  15.360  70.383  1.00  0.00    -0.333 C  
HETATM    3  C   UNL     1     -10.104  14.734  69.275  1.00  0.00    -0.165 C  
HETATM    4  C   UNL     1     -11.119  14.314  67.530  1.00  0.00    -0.298 C  
HETATM    5  C   UNL     1     -11.335   9.854  68.406  1.00  0.00    -0.049 C  
HETATM    6  C   UNL     1     -10.484  15.441  67.935  1.00  0.00    -0.256 C  
HETATM    7  O   UNL     1     -12.574  14.636  67.361  1.00  0.00    -0.461 OA 
HETATM    8  C   UNL     1     -10.563  16.905  67.572  1.00  0.00    -0.307 C  
HETATM    9  C   UNL     1      -9.017  14.249  67.553  1.00  0.00    -0.197 C  
HETATM   10  C   UNL     1     -10.623  10.616  69.532  1.00  0.00    -0.265 C  
HETATM   11  C   UNL     1      -9.218  10.022  69.739  1.00  0.00    -0.227 C  
HETATM   12  H   UNL     1     -13.041  14.443  66.556  1.00  0.00     0.000 HD 
HETATM   13  C   UNL     1      -8.912   9.095  70.657  1.00  0.00    -0.292 C  
HETATM   14  C   UNL     1      -9.491  12.568  67.906  1.00  0.00    -0.196 C  
HETATM   15  C   UNL     1     -10.438  12.169  69.254  1.00  0.00     0.120 C  
HETATM   16  O   UNL     1      -9.940   7.384  71.906  1.00  0.00    -0.170 OA 
HETATM   17  O   UNL     1     -10.117  12.060  66.719  1.00  0.00    -0.201 OA 
HETATM   18  H   UNL     1     -10.370  11.163  66.907  1.00  0.00     0.000 HD 
HETATM   19  C   UNL     1     -11.828  13.066  69.488  1.00  0.00    -0.385 C  
HETATM   20  C   UNL     1     -12.419  12.723  70.866  1.00  0.00    -0.373 C  
HETATM   21  C   UNL     1     -12.685  11.231  71.036  1.00  0.00    -0.457 C  
HETATM   22  C   UNL     1     -11.458  10.381  70.812  1.00  0.00    -0.422 C  
HETATM   23  C   UNL     1     -11.164   9.398  71.689  1.00  0.00    -0.431 C  
HETATM   24  C   UNL     1     -10.000   8.521  71.459  1.00  0.00    -0.244 C  
ENDROOT
BRANCH   4  25
HETATM   25  C   UNL     1     -10.845  14.578  65.867  1.00  0.00    -0.308 C  
HETATM   26  O   UNL     1      -9.817  14.912  65.295  1.00  0.00    -0.327 OA 
BRANCH  25  27
HETATM   27  O   UNL     1     -12.046  14.505  65.193  1.00  0.00    -0.383 OA 
HETATM   28  C   UNL     1     -12.405  13.166  64.832  1.00  0.00    -0.441 C  
HETATM   29 CL   UNL     1     -12.114  12.963  63.090  1.00  0.00    -0.522 Cl 
ENDBRANCH  25  27
ENDBRANCH   4  25
TORSDOF 2
ENDMDL
MODEL       12
REMARK 921   NORMALIZED FREE ENERGY PREDICTED BY IDOCK:   -6.60 KCAL/MOL
REMARK 922        TOTAL FREE ENERGY PREDICTED BY IDOCK:   -6.80 KCAL/MOL
REMARK 923 INTER-LIGAND FREE ENERGY PREDICTED BY IDOCK:   -7.44 KCAL/MOL
REMARK 924 INTRA-LIGAND FREE ENERGY PREDICTED BY IDOCK:    0.64 KCAL/MOL
REMARK 927      BINDING AFFINITY PREDICTED BY RF-SCORE:    0.00 PKD
ROOT
HETATM    1  C   UNL     1     -10.859  12.660  64.063  1.00  0.00    -0.452 C  
HETATM    2  C   UNL     1     -12.041  12.018  63.621  1.00  0.00    -0.627 C  
HETATM    3  C   UNL     1     -12.069  12.343  65.080  1.00  0.00    -0.468 C  
HETATM    4  C   UNL     1     -10.580  13.578  65.795  1.00  0.00    -0.283 C  
HETATM    5  C   UNL     1      -8.294  10.156  67.734  1.00  0.00    -0.114 C  
HETATM    6  C   UNL     1     -11.789  13.870  65.256  1.00  0.00    -0.365 C  
HETATM    7  O   UNL     1      -9.522  14.147  64.897  1.00  0.00    -0.289 OA 
HETATM    8  C   UNL     1     -12.399  15.075  64.580  1.00  0.00    -0.276 C  
HETATM    9  C   UNL     1     -12.262  13.174  66.991  1.00  0.00    -0.271 C  
HETATM   10  C   UNL     1      -9.558   9.655  67.021  1.00  0.00    -0.221 C  
HETATM   11  C   UNL     1     -10.443   8.896  68.026  1.00  0.00    -0.263 C  
HETATM   12  H   UNL     1      -8.837  14.716  65.226  1.00  0.00     0.000 HD 
HETATM   13  C   UNL     1     -10.440   7.566  68.188  1.00  0.00    -0.233 C  
HETATM   14  C   UNL     1     -11.087  11.932  67.490  1.00  0.00    -0.273 C  
HETATM   15  C   UNL     1     -10.451  10.809  66.391  1.00  0.00    -0.293 C  
HETATM   16  O   UNL     1      -9.026   5.711  67.861  1.00  0.00    -0.110 OA 
HETATM   17  O   UNL     1     -10.010  12.622  68.141  1.00  0.00    -0.214 OA 
HETATM   18  H   UNL     1      -9.383  11.959  68.406  1.00  0.00     0.000 HD 
HETATM   19  C   UNL     1      -9.849  11.420  64.957  1.00  0.00    -0.304 C  
HETATM   20  C   UNL     1      -9.538  10.251  64.006  1.00  0.00    -0.365 C  
HETATM   21  C   UNL     1      -8.584   9.232  64.620  1.00  0.00    -0.209 C  
HETATM   22  C   UNL     1      -9.081   8.669  65.930  1.00  0.00    -0.259 C  
HETATM   23  C   UNL     1      -9.029   7.338  66.141  1.00  0.00    -0.179 C  
HETATM   24  C   UNL     1      -9.459   6.773  67.435  1.00  0.00    -0.134 C  
ENDROOT
BRANCH   4  25
HETATM   25  C   UNL     1     -10.519  14.967  66.783  1.00  0.00    -0.284 C  
HETATM   26  O   UNL     1     -11.410  15.495  67.432  1.00  0.00    -0.302 OA 
BRANCH  25  27
HETATM   27  O   UNL     1      -9.282  15.562  66.650  1.00  0.00    -0.229 OA 
HETATM   28  C   UNL     1      -8.618  15.762  67.903  1.00  0.00    -0.159 C  
HETATM   29 CL   UNL     1      -8.726  17.487  68.322  1.00  0.00    -0.263 Cl 
ENDBRANCH  25  27
ENDBRANCH   4  25
TORSDOF 2
ENDMDL
MODEL       13
REMARK 921   NORMALIZED FREE ENERGY PREDICTED BY IDOCK:   -6.59 KCAL/MOL
REMARK 922        TOTAL FREE ENERGY PREDICTED BY IDOCK:   -6.78 KCAL/MOL
REMARK 923 INTER-LIGAND FREE ENERGY PREDICTED BY IDOCK:   -7.33 KCAL/MOL
REMARK 924 INTRA-LIGAND FREE ENERGY PREDICTED BY IDOCK:    0.54 KCAL/MOL
REMARK 927      BINDING AFFINITY PREDICTED BY RF-SCORE:    0.00 PKD
ROOT
HETATM    1  C   UNL     1      -8.706  13.451  67.355  1.00  0.00    -0.209 C  
HETATM    2  C   UNL     1      -8.652  13.170  68.741  1.00  0.00     0.148 C  
HETATM    3  C   UNL     1      -9.758  14.110  68.383  1.00  0.00    -0.226 C  
HETATM    4  C   UNL     1     -10.179  14.342  66.378  1.00  0.00    -0.291 C  
HETATM    5  C   UNL     1      -8.144  18.404  66.139  1.00  0.00    -0.201 C  
HETATM    6  C   UNL     1     -10.641  13.443  67.280  1.00  0.00    -0.256 C  
HETATM    7  O   UNL     1      -9.429  13.591  65.317  1.00  0.00    -0.492 OA 
HETATM    8  C   UNL     1     -11.263  12.068  67.203  1.00  0.00    -0.374 C  
HETATM    9  C   UNL     1     -11.530  15.068  67.816  1.00  0.00    -0.347 C  
HETATM   10  C   UNL     1      -8.051  17.810  67.551  1.00  0.00    -0.228 C  
HETATM   11  C   UNL     1      -8.664  18.797  68.561  1.00  0.00    -0.380 C  
HETATM   12  H   UNL     1      -9.624  13.698  64.393  1.00  0.00     0.000 HD 
HETATM   13  C   UNL     1      -7.961  19.687  69.275  1.00  0.00    -0.069 C  
HETATM   14  C   UNL     1     -10.489  16.472  67.475  1.00  0.00    -0.310 C  
HETATM   15  C   UNL     1      -8.814  16.427  67.728  1.00  0.00    -0.189 C  
HETATM   16  O   UNL     1      -5.923  20.863  69.192  1.00  0.00    -0.338 OA 
HETATM   17  O   UNL     1     -10.754  16.861  66.119  1.00  0.00    -0.239 OA 
HETATM   18  H   UNL     1     -10.198  17.610  65.937  1.00  0.00     0.000 HD 
HETATM   19  C   UNL     1      -7.993  15.118  67.092  1.00  0.00    -0.248 C  
HETATM   20  C   UNL     1      -6.547  15.131  67.618  1.00  0.00    -0.195 C  
HETATM   21  C   UNL     1      -5.824  16.439  67.319  1.00  0.00    -0.179 C  
HETATM   22  C   UNL     1      -6.544  17.651  67.858  1.00  0.00    -0.190 C  
HETATM   23  C   UNL     1      -5.846  18.593  68.527  1.00  0.00    -0.206 C  
HETATM   24  C   UNL     1      -6.521  19.811  69.015  1.00  0.00    -0.322 C  
ENDROOT
BRANCH   4  25
HETATM   25  C   UNL     1     -11.590  14.329  65.419  1.00  0.00    -0.346 C  
HETATM   26  O   UNL     1     -12.759  14.448  65.759  1.00  0.00    -0.396 OA 
BRANCH  25  27
HETATM   27  O   UNL     1     -11.254  14.002  64.122  1.00  0.00    -0.276 OA 
HETATM   28  C   UNL     1     -12.124  13.021  63.547  1.00  0.00    -0.542 C  
HETATM   29 CL   UNL     1     -11.264  11.465  63.516  1.00  0.00    -0.425 Cl 
ENDBRANCH  25  27
ENDBRANCH   4  25
TORSDOF 2
ENDMDL
MODEL       14
REMARK 921   NORMALIZED FREE ENERGY PREDICTED BY IDOCK:   -6.52 KCAL/MOL
REMARK 922        TOTAL FREE ENERGY PREDICTED BY IDOCK:   -6.70 KCAL/MOL
REMARK 923 INTER-LIGAND FREE ENERGY PREDICTED BY IDOCK:   -7.26 KCAL/MOL
REMARK 924 INTRA-LIGAND FREE ENERGY PREDICTED BY IDOCK:    0.56 KCAL/MOL
REMARK 927      BINDING AFFINITY PREDICTED BY RF-SCORE:    0.00 PKD
ROOT
HETATM    1  C   UNL     1     -12.185   7.857  72.202  1.00  0.00    -0.353 C  
HETATM    2  C   UNL     1     -13.361   7.408  71.554  1.00  0.00    -0.435 C  
HETATM    3  C   UNL     1     -12.112   6.923  70.891  1.00  0.00    -0.424 C  
HETATM    4  C   UNL     1     -10.340   7.203  71.908  1.00  0.00    -0.192 C  
HETATM    5  C   UNL     1      -9.061  10.687  69.276  1.00  0.00    -0.117 C  
HETATM    6  C   UNL     1     -11.236   6.187  71.955  1.00  0.00    -0.336 C  
HETATM    7  O   UNL     1     -10.296   7.845  73.263  1.00  0.00    -0.335 OA 
HETATM    8  C   UNL     1     -11.586   5.110  72.955  1.00  0.00    -0.301 C  
HETATM    9  C   UNL     1     -10.393   5.922  70.241  1.00  0.00    -0.298 C  
HETATM   10  C   UNL     1     -10.431  10.138  68.857  1.00  0.00    -0.230 C  
HETATM   11  C   UNL     1     -10.383   9.724  67.375  1.00  0.00    -0.297 C  
HETATM   12  H   UNL     1      -9.479   7.973  73.731  1.00  0.00     0.000 HD 
HETATM   13  C   UNL     1     -10.780  10.500  66.357  1.00  0.00    -0.166 C  
HETATM   14  C   UNL     1      -9.919   7.492  69.546  1.00  0.00    -0.180 C  
HETATM   15  C   UNL     1     -10.905   8.864  69.681  1.00  0.00    -0.186 C  
HETATM   16  O   UNL     1     -11.072  12.776  65.828  1.00  0.00    -0.275 OA 
HETATM   17  O   UNL     1      -8.613   7.792  70.060  1.00  0.00    -0.136 OA 
HETATM   18  H   UNL     1      -8.361   8.630  69.690  1.00  0.00     0.000 HD 
HETATM   19  C   UNL     1     -11.484   9.226  71.206  1.00  0.00    -0.418 C  
HETATM   20  C   UNL     1     -12.531  10.347  71.091  1.00  0.00    -0.509 C  
HETATM   21  C   UNL     1     -11.988  11.589  70.394  1.00  0.00    -0.459 C  
HETATM   22  C   UNL     1     -11.435  11.303  69.019  1.00  0.00    -0.369 C  
HETATM   23  C   UNL     1     -11.770  12.108  67.989  1.00  0.00    -0.409 C  
HETATM   24  C   UNL     1     -11.197  11.878  66.649  1.00  0.00    -0.328 C  
ENDROOT
BRANCH   4  25
HETATM   25  C   UNL     1      -8.994   6.231  72.301  1.00  0.00    -0.136 C  
HETATM   26  O   UNL     1      -8.867   5.017  72.229  1.00  0.00    -0.127 OA 
BRANCH  25  27
HETATM   27  O   UNL     1      -8.026   7.016  72.891  1.00  0.00    -0.104 OA 
HETATM   28  C   UNL     1      -6.735   6.397  72.909  1.00  0.00    -0.069 C  
HETATM   29 CL   UNL     1      -6.414   5.826  74.562  1.00  0.00    -0.074 Cl 
ENDBRANCH  25  27
ENDBRANCH   4  25
TORSDOF 2
ENDMDL
MODEL       15
REMARK 921   NORMALIZED FREE ENERGY PREDICTED BY IDOCK:   -6.44 KCAL/MOL
REMARK 922        TOTAL FREE ENERGY PREDICTED BY IDOCK:   -6.62 KCAL/MOL
REMARK 923 INTER-LIGAND FREE ENERGY PREDICTED BY IDOCK:   -7.11 KCAL/MOL
REMARK 924 INTRA-LIGAND FREE ENERGY PREDICTED BY IDOCK:    0.49 KCAL/MOL
REMARK 927      BINDING AFFINITY PREDICTED BY RF-SCORE:    0.00 PKD
ROOT
HETATM    1  C   UNL     1     -11.014  12.571  63.700  1.00  0.00    -0.507 C  
HETATM    2  C   UNL     1     -12.198  11.866  63.375  1.00  0.00    -0.561 C  
HETATM    3  C   UNL     1     -11.991  12.003  64.849  1.00  0.00    -0.286 C  
HETATM    4  C   UNL     1     -10.507  13.293  65.472  1.00  0.00    -0.288 C  
HETATM    5  C   UNL     1      -7.630   9.922  66.503  1.00  0.00    -0.103 C  
HETATM    6  C   UNL     1     -11.812  13.518  65.188  1.00  0.00    -0.363 C  
HETATM    7  O   UNL     1      -9.678  14.078  64.499  1.00  0.00    -0.575 OA 
HETATM    8  C   UNL     1     -12.633  14.725  64.799  1.00  0.00    -0.108 C  
HETATM    9  C   UNL     1     -11.906  12.567  66.863  1.00  0.00    -0.404 C  
HETATM   10  C   UNL     1      -8.955   9.381  65.948  1.00  0.00    -0.217 C  
HETATM   11  C   UNL     1      -9.579   8.413  66.969  1.00  0.00    -0.248 C  
HETATM   12  H   UNL     1      -8.995  14.673  64.785  1.00  0.00     0.000 HD 
HETATM   13  C   UNL     1      -9.435   7.081  66.940  1.00  0.00    -0.199 C  
HETATM   14  C   UNL     1     -10.561  11.405  66.979  1.00  0.00    -0.248 C  
HETATM   15  C   UNL     1     -10.040  10.502  65.643  1.00  0.00    -0.333 C  
HETATM   16  O   UNL     1      -7.953   5.443  66.126  1.00  0.00    -0.102 OA 
HETATM   17  O   UNL     1      -9.446  12.121  67.532  1.00  0.00    -0.174 OA 
HETATM   18  H   UNL     1      -8.728  11.501  67.594  1.00  0.00     0.000 HD 
HETATM   19  C   UNL     1      -9.759  11.346  64.229  1.00  0.00    -0.263 C  
HETATM   20  C   UNL     1      -9.527  10.343  63.086  1.00  0.00    -0.362 C  
HETATM   21  C   UNL     1      -8.397   9.364  63.383  1.00  0.00    -0.188 C  
HETATM   22  C   UNL     1      -8.601   8.594  64.665  1.00  0.00    -0.116 C  
HETATM   23  C   UNL     1      -8.400   7.260  64.676  1.00  0.00     0.048 C  
HETATM   24  C   UNL     1      -8.542   6.497  65.931  1.00  0.00    -0.149 C  
ENDROOT
BRANCH   4  25
HETATM   25  C   UNL     1     -10.385  14.547  66.621  1.00  0.00    -0.274 C  
HETATM   26  O   UNL     1     -11.060  14.750  67.621  1.00  0.00    -0.285 OA 
BRANCH  25  27
HETATM   27  O   UNL     1      -9.453  15.468  66.190  1.00  0.00    -0.288 OA 
HETATM   28  C   UNL     1      -9.501  16.699  66.920  1.00  0.00    -0.235 C  
HETATM   29 CL   UNL     1     -10.284  17.923  65.896  1.00  0.00    -0.279 Cl 
ENDBRANCH  25  27
ENDBRANCH   4  25
TORSDOF 2
ENDMDL
MODEL       16
REMARK 921   NORMALIZED FREE ENERGY PREDICTED BY IDOCK:   -6.39 KCAL/MOL
REMARK 922        TOTAL FREE ENERGY PREDICTED BY IDOCK:   -6.56 KCAL/MOL
REMARK 923 INTER-LIGAND FREE ENERGY PREDICTED BY IDOCK:   -7.15 KCAL/MOL
REMARK 924 INTRA-LIGAND FREE ENERGY PREDICTED BY IDOCK:    0.59 KCAL/MOL
REMARK 927      BINDING AFFINITY PREDICTED BY RF-SCORE:    0.00 PKD
ROOT
HETATM    1  C   UNL     1     -11.632  15.354  65.758  1.00  0.00     0.073 C  
HETATM    2  C   UNL     1     -11.323  15.240  64.381  1.00  0.00    -0.224 C  
HETATM    3  C   UNL     1     -10.315  14.571  65.259  1.00  0.00    -0.435 C  
HETATM    4  C   UNL     1     -10.802  14.354  67.251  1.00  0.00    -0.290 C  
HETATM    5  C   UNL     1      -8.068  17.742  68.573  1.00  0.00    -0.297 C  
HETATM    6  C   UNL     1     -11.056  13.556  66.186  1.00  0.00    -0.299 C  
HETATM    7  O   UNL     1     -12.116  14.824  67.802  1.00  0.00    -0.548 OA 
HETATM    8  C   UNL     1     -12.068  12.479  65.870  1.00  0.00    -0.420 C  
HETATM    9  C   UNL     1      -9.165  13.299  66.460  1.00  0.00    -0.182 C  
HETATM   10  C   UNL     1      -8.029  17.548  67.051  1.00  0.00    -0.240 C  
HETATM   11  C   UNL     1      -6.577  17.294  66.606  1.00  0.00    -0.268 C  
HETATM   12  H   UNL     1     -12.341  14.724  68.720  1.00  0.00     0.000 HD 
HETATM   13  C   UNL     1      -5.746  18.241  66.149  1.00  0.00    -0.213 C  
HETATM   14  C   UNL     1      -8.432  14.796  67.088  1.00  0.00    -0.223 C  
HETATM   15  C   UNL     1      -8.898  16.325  66.526  1.00  0.00    -0.318 C  
HETATM   16  O   UNL     1      -5.419  20.569  66.272  1.00  0.00    -0.170 OA 
HETATM   17  O   UNL     1      -8.570  14.753  68.516  1.00  0.00    -0.156 OA 
HETATM   18  H   UNL     1      -8.180  15.551  68.852  1.00  0.00     0.000 HD 
HETATM   19  C   UNL     1     -10.538  16.639  66.473  1.00  0.00    -0.203 C  
HETATM   20  C   UNL     1     -10.771  17.964  65.727  1.00  0.00    -0.092 C  
HETATM   21  C   UNL     1     -10.003  19.128  66.343  1.00  0.00    -0.458 C  
HETATM   22  C   UNL     1      -8.517  18.877  66.429  1.00  0.00    -0.302 C  
HETATM   23  C   UNL     1      -7.658  19.840  66.034  1.00  0.00    -0.340 C  
HETATM   24  C   UNL     1      -6.202  19.636  66.161  1.00  0.00    -0.179 C  
ENDROOT
BRANCH   4  25
HETATM   25  C   UNL     1     -10.758  13.081  68.385  1.00  0.00    -0.256 C  
HETATM   26  O   UNL     1      -9.917  12.206  68.535  1.00  0.00    -0.210 OA 
BRANCH  25  27
HETATM   27  O   UNL     1     -11.945  13.058  69.087  1.00  0.00    -0.303 OA 
HETATM   28  C   UNL     1     -11.855  12.332  70.318  1.00  0.00    -0.240 C  
HETATM   29 CL   UNL     1     -12.661  10.763  70.099  1.00  0.00    -0.359 Cl 
ENDBRANCH  25  27
ENDBRANCH   4  25
TORSDOF 2
ENDMDL
MODEL       17
REMARK 921   NORMALIZED FREE ENERGY PREDICTED BY IDOCK:   -6.24 KCAL/MOL
REMARK 922        TOTAL FREE ENERGY PREDICTED BY IDOCK:   -6.39 KCAL/MOL
REMARK 923 INTER-LIGAND FREE ENERGY PREDICTED BY IDOCK:   -6.84 KCAL/MOL
REMARK 924 INTRA-LIGAND FREE ENERGY PREDICTED BY IDOCK:    0.45 KCAL/MOL
REMARK 927      BINDING AFFINITY PREDICTED BY RF-SCORE:    0.00 PKD
ROOT
HETATM    1  C   UNL     1     -11.465  11.977  67.601  1.00  0.00    -0.392 C  
HETATM    2  C   UNL     1     -11.762  12.025  66.218  1.00  0.00    -0.319 C  
HETATM    3  C   UNL     1     -10.301  11.871  66.492  1.00  0.00    -0.249 C  
HETATM    4  C   UNL     1      -9.751  11.442  68.432  1.00  0.00    -0.203 C  
HETATM    5  C   UNL     1      -8.330  15.685  69.259  1.00  0.00    -0.256 C  
HETATM    6  C   UNL     1     -10.094  10.623  67.408  1.00  0.00    -0.231 C  
HETATM    7  O   UNL     1     -10.764  11.269  69.525  1.00  0.00    -0.390 OA 
HETATM    8  C   UNL     1     -10.616   9.210  67.294  1.00  0.00    -0.303 C  
HETATM    9  C   UNL     1      -8.344  11.239  66.883  1.00  0.00    -0.155 C  
HETATM   10  C   UNL     1      -8.876  15.542  67.832  1.00  0.00    -0.171 C  
HETATM   11  C   UNL     1      -7.791  15.969  66.826  1.00  0.00    -0.288 C  
HETATM   12  H   UNL     1     -10.511  11.071  70.418  1.00  0.00     0.000 HD 
HETATM   13  C   UNL     1      -7.696  17.192  66.286  1.00  0.00    -0.350 C  
HETATM   14  C   UNL     1      -8.082  12.900  67.470  1.00  0.00    -0.181 C  
HETATM   15  C   UNL     1      -9.314  14.064  67.446  1.00  0.00    -0.220 C  
HETATM   16  O   UNL     1      -8.313  19.419  66.737  1.00  0.00    -0.271 OA 
HETATM   17  O   UNL     1      -7.561  12.788  68.803  1.00  0.00    -0.225 OA 
HETATM   18  H   UNL     1      -7.421  13.674  69.116  1.00  0.00     0.000 HD 
HETATM   19  C   UNL     1     -10.789  13.609  68.086  1.00  0.00    -0.262 C  
HETATM   20  C   UNL     1     -11.829  14.696  67.766  1.00  0.00    -0.359 C  
HETATM   21  C   UNL     1     -11.410  16.075  68.261  1.00  0.00    -0.326 C  
HETATM   22  C   UNL     1     -10.071  16.517  67.723  1.00  0.00    -0.264 C  
HETATM   23  C   UNL     1      -9.934  17.765  67.231  1.00  0.00    -0.324 C  
HETATM   24  C   UNL     1      -8.620  18.235  66.749  1.00  0.00    -0.261 C  
ENDROOT
BRANCH   4  25
HETATM   25  C   UNL     1      -8.716  10.314  69.184  1.00  0.00    -0.172 C  
HETATM   26  O   UNL     1      -7.651   9.858  68.792  1.00  0.00    -0.077 OA 
BRANCH  25  27
HETATM   27  O   UNL     1      -9.329   9.822  70.318  1.00  0.00    -0.247 OA 
HETATM   28  C   UNL     1      -8.790   8.567  70.748  1.00  0.00    -0.161 C  
HETATM   29 CL   UNL     1      -9.942   7.287  70.309  1.00  0.00    -0.187 Cl 
ENDBRANCH  25  27
ENDBRANCH   4  25
TORSDOF 2
ENDMDL
MODEL       18
REMARK 921   NORMALIZED FREE ENERGY PREDICTED BY IDOCK:   -6.22 KCAL/MOL
REMARK 922        TOTAL FREE ENERGY PREDICTED BY IDOCK:   -6.37 KCAL/MOL
REMARK 923 INTER-LIGAND FREE ENERGY PREDICTED BY IDOCK:   -6.82 KCAL/MOL
REMARK 924 INTRA-LIGAND FREE ENERGY PREDICTED BY IDOCK:    0.45 KCAL/MOL
REMARK 927      BINDING AFFINITY PREDICTED BY RF-SCORE:    0.00 PKD
ROOT
HETATM    1  C   UNL     1      -9.769  18.276  65.865  1.00  0.00     0.039 C  
HETATM    2  C   UNL     1     -11.112  18.675  66.065  1.00  0.00     0.357 C  
HETATM    3  C   UNL     1     -10.395  18.388  67.345  1.00  0.00    -0.415 C  
HETATM    4  C   UNL     1      -8.352  18.132  67.239  1.00  0.00    -0.241 C  
HETATM    5  C   UNL     1      -8.619  13.610  67.664  1.00  0.00    -0.185 C  
HETATM    6  C   UNL     1      -9.096  19.254  67.394  1.00  0.00    -0.345 C  
HETATM    7  O   UNL     1      -7.604  18.247  65.944  1.00  0.00    -0.460 OA 
HETATM    8  C   UNL     1      -8.877  20.729  67.152  1.00  0.00    -0.247 C  
HETATM    9  C   UNL     1      -9.272  18.395  69.112  1.00  0.00     0.010 C  
HETATM   10  C   UNL     1     -10.009  14.260  67.677  1.00  0.00    -0.225 C  
HETATM   11  C   UNL     1     -10.744  13.868  68.972  1.00  0.00    -0.219 C  
HETATM   12  H   UNL     1      -6.663  18.130  65.895  1.00  0.00     0.000 HD 
HETATM   13  C   UNL     1     -11.610  12.850  69.075  1.00  0.00    -0.372 C  
HETATM   14  C   UNL     1      -9.224  16.625  68.914  1.00  0.00    -0.244 C  
HETATM   15  C   UNL     1      -9.988  15.848  67.616  1.00  0.00    -0.237 C  
HETATM   16  O   UNL     1     -12.125  10.804  68.030  1.00  0.00    -0.474 OA 
HETATM   17  O   UNL     1      -7.841  16.245  68.948  1.00  0.00    -0.200 OA 
HETATM   18  H   UNL     1      -7.815  15.301  68.842  1.00  0.00     0.000 HD 
HETATM   19  C   UNL     1      -9.685  16.459  66.091  1.00  0.00    -0.355 C  
HETATM   20  C   UNL     1     -10.633  15.787  65.084  1.00  0.00    -0.436 C  
HETATM   21  C   UNL     1     -10.529  14.266  65.104  1.00  0.00    -0.432 C  
HETATM   22  C   UNL     1     -10.776  13.672  66.470  1.00  0.00    -0.284 C  
HETATM   23  C   UNL     1     -11.595  12.608  66.591  1.00  0.00    -0.443 C  
HETATM   24  C   UNL     1     -11.807  11.979  67.910  1.00  0.00    -0.250 C  
ENDROOT
BRANCH   4  25
HETATM   25  C   UNL     1      -7.003  18.729  68.096  1.00  0.00    -0.243 C  
HETATM   26  O   UNL     1      -6.933  19.129  69.250  1.00  0.00    -0.325 OA 
BRANCH  25  27
HETATM   27  O   UNL     1      -5.937  18.855  67.231  1.00  0.00    -0.161 OA 
HETATM   28  C   UNL     1      -5.138  20.016  67.489  1.00  0.00    -0.169 C  
HETATM   29 CL   UNL     1      -5.505  21.232  66.246  1.00  0.00    -0.269 Cl 
ENDBRANCH  25  27
ENDBRANCH   4  25
TORSDOF 2
ENDMDL
MODEL       19
REMARK 921   NORMALIZED FREE ENERGY PREDICTED BY IDOCK:   -6.20 KCAL/MOL
REMARK 922        TOTAL FREE ENERGY PREDICTED BY IDOCK:   -6.35 KCAL/MOL
REMARK 923 INTER-LIGAND FREE ENERGY PREDICTED BY IDOCK:   -7.43 KCAL/MOL
REMARK 924 INTRA-LIGAND FREE ENERGY PREDICTED BY IDOCK:    1.08 KCAL/MOL
REMARK 927      BINDING AFFINITY PREDICTED BY RF-SCORE:    0.00 PKD
ROOT
HETATM    1  C   UNL     1      -8.008  13.386  67.415  1.00  0.00    -0.170 C  
HETATM    2  C   UNL     1      -7.581  13.523  68.758  1.00  0.00    -0.066 C  
HETATM    3  C   UNL     1      -9.063  13.651  68.605  1.00  0.00    -0.035 C  
HETATM    4  C   UNL     1      -9.865  13.135  66.777  1.00  0.00    -0.251 C  
HETATM    5  C   UNL     1     -10.475  17.464  65.514  1.00  0.00    -0.112 C  
HETATM    6  C   UNL     1      -9.600  12.381  67.871  1.00  0.00    -0.205 C  
HETATM    7  O   UNL     1      -9.012  12.633  65.649  1.00  0.00    -0.338 OA 
HETATM    8  C   UNL     1      -9.364  10.911  68.129  1.00  0.00    -0.165 C  
HETATM    9  C   UNL     1     -11.134  13.406  68.431  1.00  0.00    -0.301 C  
HETATM   10  C   UNL     1      -9.840  17.368  66.908  1.00  0.00    -0.289 C  
HETATM   11  C   UNL     1     -10.719  18.122  67.922  1.00  0.00    -0.331 C  
HETATM   12  H   UNL     1      -9.382  12.395  64.807  1.00  0.00     0.000 HD 
HETATM   13  C   UNL     1     -10.516  19.390  68.308  1.00  0.00    -0.424 C  
HETATM   14  C   UNL     1     -11.111  15.009  67.656  1.00  0.00    -0.316 C  
HETATM   15  C   UNL     1      -9.673  15.883  67.449  1.00  0.00    -0.227 C  
HETATM   16  O   UNL     1      -9.509  21.373  67.536  1.00  0.00    -0.114 OA 
HETATM   17  O   UNL     1     -11.765  14.862  66.387  1.00  0.00    -0.307 OA 
HETATM   18  H   UNL     1     -11.752  15.717  65.974  1.00  0.00     0.000 HD 
HETATM   19  C   UNL     1      -8.386  15.060  66.774  1.00  0.00    -0.189 C  
HETATM   20  C   UNL     1      -7.123  15.932  66.881  1.00  0.00    -0.131 C  
HETATM   21  C   UNL     1      -7.301  17.305  66.244  1.00  0.00    -0.342 C  
HETATM   22  C   UNL     1      -8.468  18.075  66.811  1.00  0.00    -0.274 C  
HETATM   23  C   UNL     1      -8.306  19.372  67.148  1.00  0.00    -0.315 C  
HETATM   24  C   UNL     1      -9.449  20.157  67.654  1.00  0.00    -0.387 C  
ENDROOT
BRANCH   4  25
HETATM   25  C   UNL     1     -11.170  12.174  66.246  1.00  0.00    -0.334 C  
HETATM   26  O   UNL     1     -12.135  11.763  66.875  1.00  0.00    -0.566 OA 
BRANCH  25  27
HETATM   27  O   UNL     1     -10.929  11.756  64.954  1.00  0.00    -0.297 OA 
HETATM   28  C   UNL     1     -11.382  12.691  63.969  1.00  0.00    -0.407 C  
HETATM   29 CL   UNL     1     -12.878  12.057  63.246  1.00  0.00    -0.533 Cl 
ENDBRANCH  25  27
ENDBRANCH   4  25
TORSDOF 2
ENDMDL
MODEL       20
REMARK 921   NORMALIZED FREE ENERGY PREDICTED BY IDOCK:   -6.17 KCAL/MOL
REMARK 922        TOTAL FREE ENERGY PREDICTED BY IDOCK:   -6.32 KCAL/MOL
REMARK 923 INTER-LIGAND FREE ENERGY PREDICTED BY IDOCK:   -6.94 KCAL/MOL
REMARK 924 INTRA-LIGAND FREE ENERGY PREDICTED BY IDOCK:    0.62 KCAL/MOL
REMARK 927      BINDING AFFINITY PREDICTED BY RF-SCORE:    0.00 PKD
ROOT
HETATM    1  C   UNL     1     -10.833  12.366  65.427  1.00  0.00    -0.320 C  
HETATM    2  C   UNL     1      -9.725  12.304  64.549  1.00  0.00    -0.018 C  
HETATM    3  C   UNL     1      -9.324  12.304  65.989  1.00  0.00    -0.142 C  
HETATM    4  C   UNL     1     -10.824  12.044  67.380  1.00  0.00    -0.242 C  
HETATM    5  C   UNL     1     -10.883  16.442  68.544  1.00  0.00    -0.339 C  
HETATM    6  C   UNL     1     -10.069  11.138  66.714  1.00  0.00    -0.255 C  
HETATM    7  O   UNL     1     -12.254  11.843  66.976  1.00  0.00    -0.492 OA 
HETATM    8  C   UNL     1     -10.214   9.678  66.354  1.00  0.00    -0.288 C  
HETATM    9  C   UNL     1      -8.813  11.881  67.975  1.00  0.00    -0.177 C  
HETATM   10  C   UNL     1      -9.847  16.164  67.445  1.00  0.00    -0.238 C  
HETATM   11  C   UNL     1      -8.460  16.630  67.922  1.00  0.00    -0.194 C  
HETATM   12  H   UNL     1     -12.945  11.723  67.617  1.00  0.00     0.000 HD 
HETATM   13  C   UNL     1      -7.918  17.822  67.635  1.00  0.00    -0.216 C  
HETATM   14  C   UNL     1      -9.203  13.592  68.284  1.00  0.00    -0.195 C  
HETATM   15  C   UNL     1      -9.714  14.631  67.047  1.00  0.00    -0.247 C  
HETATM   16  O   UNL     1      -8.569  20.005  67.039  1.00  0.00    -0.310 OA 
HETATM   17  O   UNL     1     -10.168  13.608  69.347  1.00  0.00    -0.413 OA 
HETATM   18  H   UNL     1     -10.376  14.520  69.512  1.00  0.00     0.000 HD 
HETATM   19  C   UNL     1     -10.947  14.081  66.064  1.00  0.00    -0.298 C  
HETATM   20  C   UNL     1     -11.109  15.044  64.876  1.00  0.00    -0.425 C  
HETATM   21  C   UNL     1     -11.350  16.484  65.316  1.00  0.00     0.211 C  
HETATM   22  C   UNL     1     -10.268  17.016  66.225  1.00  0.00    -0.336 C  
HETATM   23  C   UNL     1      -9.751  18.240  65.993  1.00  0.00    -0.114 C  
HETATM   24  C   UNL     1      -8.731  18.800  66.901  1.00  0.00    -0.293 C  
ENDROOT
BRANCH   4  25
HETATM   25  C   UNL     1     -11.052  11.064  68.757  1.00  0.00    -0.239 C  
HETATM   26  O   UNL     1     -10.248  10.356  69.346  1.00  0.00    -0.215 OA 
BRANCH  25  27
HETATM   27  O   UNL     1     -12.392  11.045  69.082  1.00  0.00    -0.451 OA 
HETATM   28  C   UNL     1     -12.636  11.282  70.474  1.00  0.00    -0.246 C  
HETATM   29 CL   UNL     1     -13.054   9.731  71.237  1.00  0.00    -0.453 Cl 
ENDBRANCH  25  27
ENDBRANCH   4  25
TORSDOF 2
ENDMDL
MODEL       21
REMARK 921   NORMALIZED FREE ENERGY PREDICTED BY IDOCK:   -6.16 KCAL/MOL
REMARK 922        TOTAL FREE ENERGY PREDICTED BY IDOCK:   -6.31 KCAL/MOL
REMARK 923 INTER-LIGAND FREE ENERGY PREDICTED BY IDOCK:   -6.75 KCAL/MOL
REMARK 924 INTRA-LIGAND FREE ENERGY PREDICTED BY IDOCK:    0.44 KCAL/MOL
REMARK 927      BINDING AFFINITY PREDICTED BY RF-SCORE:    0.00 PKD
ROOT
HETATM    1  C   UNL     1     -11.180  10.241  70.697  1.00  0.00    -0.406 C  
HETATM    2  C   UNL     1     -12.554   9.903  70.687  1.00  0.00    -0.250 C  
HETATM    3  C   UNL     1     -11.785   9.236  69.593  1.00  0.00     0.358 C  
HETATM    4  C   UNL     1      -9.728   9.354  69.685  1.00  0.00    -0.190 C  
HETATM    5  C   UNL     1      -9.488  12.511  66.418  1.00  0.00    -0.233 C  
HETATM    6  C   UNL     1     -10.588   8.458  70.228  1.00  0.00    -0.234 C  
HETATM    7  O   UNL     1      -9.024  10.059  70.807  1.00  0.00    -0.299 OA 
HETATM    8  C   UNL     1     -10.537   7.487  71.384  1.00  0.00    -0.229 C  
HETATM    9  C   UNL     1     -10.634   8.001  68.355  1.00  0.00    -0.150 C  
HETATM   10  C   UNL     1     -10.941  12.110  66.707  1.00  0.00    -0.325 C  
HETATM   11  C   UNL     1     -11.602  11.614  65.408  1.00  0.00    -0.095 C  
HETATM   12  H   UNL     1      -8.076  10.113  70.849  1.00  0.00     0.000 HD 
HETATM   13  C   UNL     1     -12.349  12.377  64.598  1.00  0.00    -0.518 C  
HETATM   14  C   UNL     1     -10.396   9.463  67.366  1.00  0.00    -0.263 C  
HETATM   15  C   UNL     1     -11.096  10.949  67.782  1.00  0.00    -0.371 C  
HETATM   16  O   UNL     1     -12.657  14.639  64.023  1.00  0.00    -0.819 OA 
HETATM   17  O   UNL     1      -8.979   9.631  67.215  1.00  0.00    -0.134 OA 
HETATM   18  H   UNL     1      -8.851  10.411  66.687  1.00  0.00     0.000 HD 
HETATM   19  C   UNL     1     -10.892  11.460  69.359  1.00  0.00    -0.214 C  
HETATM   20  C   UNL     1     -11.781  12.691  69.606  1.00  0.00    -0.373 C  
HETATM   21  C   UNL     1     -11.510  13.819  68.617  1.00  0.00    -0.336 C  
HETATM   22  C   UNL     1     -11.662  13.395  67.177  1.00  0.00    -0.424 C  
HETATM   23  C   UNL     1     -12.357  14.177  66.326  1.00  0.00    -0.451 C  
HETATM   24  C   UNL     1     -12.472  13.808  64.901  1.00  0.00    -0.386 C  
ENDROOT
BRANCH   4  25
HETATM   25  C   UNL     1      -8.436   8.250  69.538  1.00  0.00    -0.125 C  
HETATM   26  O   UNL     1      -8.398   7.175  68.958  1.00  0.00    -0.124 OA 
BRANCH  25  27
HETATM   27  O   UNL     1      -7.389   8.671  70.331  1.00  0.00    -0.052 OA 
HETATM   28  C   UNL     1      -6.566   7.593  70.791  1.00  0.00    -0.038 C  
HETATM   29 CL   UNL     1      -6.942   7.297  72.504  1.00  0.00    -0.067 Cl 
ENDBRANCH  25  27
ENDBRANCH   4  25
TORSDOF 2
ENDMDL
MODEL       22
REMARK 921   NORMALIZED FREE ENERGY PREDICTED BY IDOCK:   -6.16 KCAL/MOL
REMARK 922        TOTAL FREE ENERGY PREDICTED BY IDOCK:   -6.31 KCAL/MOL
REMARK 923 INTER-LIGAND FREE ENERGY PREDICTED BY IDOCK:   -6.93 KCAL/MOL
REMARK 924 INTRA-LIGAND FREE ENERGY PREDICTED BY IDOCK:    0.62 KCAL/MOL
REMARK 927      BINDING AFFINITY PREDICTED BY RF-SCORE:    0.00 PKD
ROOT
HETATM    1  C   UNL     1      -8.805  15.023  67.836  1.00  0.00    -0.171 C  
HETATM    2  C   UNL     1      -8.904  15.162  66.431  1.00  0.00    -0.277 C  
HETATM    3  C   UNL     1     -10.162  14.647  67.052  1.00  0.00    -0.261 C  
HETATM    4  C   UNL     1     -10.290  14.718  69.109  1.00  0.00    -0.233 C  
HETATM    5  C   UNL     1      -9.540  10.255  69.584  1.00  0.00    -0.192 C  
HETATM    6  C   UNL     1     -10.609  15.641  68.170  1.00  0.00    -0.274 C  
HETATM    7  O   UNL     1      -9.184  15.278  69.954  1.00  0.00    -0.435 OA 
HETATM    8  C   UNL     1     -10.773  17.143  68.155  1.00  0.00    -0.366 C  
HETATM    9  C   UNL     1     -12.017  14.338  67.971  1.00  0.00    -0.353 C  
HETATM   10  C   UNL     1      -9.514  10.677  68.108  1.00  0.00    -0.158 C  
HETATM   11  C   UNL     1     -10.552   9.854  67.325  1.00  0.00    -0.316 C  
HETATM   12  H   UNL     1      -9.243  15.311  70.901  1.00  0.00     0.000 HD 
HETATM   13  C   UNL     1     -10.275   8.735  66.641  1.00  0.00    -0.340 C  
HETATM   14  C   UNL     1     -11.396  12.711  68.343  1.00  0.00    -0.290 C  
HETATM   15  C   UNL     1      -9.851  12.210  67.861  1.00  0.00    -0.199 C  
HETATM   16  O   UNL     1      -8.694   6.991  66.595  1.00  0.00    -0.118 OA 
HETATM   17  O   UNL     1     -11.533  12.533  69.761  1.00  0.00    -0.445 OA 
HETATM   18  H   UNL     1     -11.202  11.665  69.960  1.00  0.00     0.000 HD 
HETATM   19  C   UNL     1      -8.584  13.243  68.209  1.00  0.00    -0.169 C  
HETATM   20  C   UNL     1      -7.317  12.737  67.498  1.00  0.00    -0.153 C  
HETATM   21  C   UNL     1      -6.975  11.297  67.861  1.00  0.00    -0.073 C  
HETATM   22  C   UNL     1      -8.101  10.332  67.582  1.00  0.00    -0.106 C  
HETATM   23  C   UNL     1      -7.837   9.169  66.951  1.00  0.00    -0.098 C  
HETATM   24  C   UNL     1      -8.914   8.188  66.717  1.00  0.00    -0.146 C  
ENDROOT
BRANCH   4  25
HETATM   25  C   UNL     1     -11.451  15.247  70.240  1.00  0.00    -0.297 C  
HETATM   26  O   UNL     1     -12.602  15.617  70.054  1.00  0.00    -0.334 OA 
BRANCH  25  27
HETATM   27  O   UNL     1     -10.859  15.355  71.481  1.00  0.00    -0.243 OA 
HETATM   28  C   UNL     1     -11.726  14.969  72.553  1.00  0.00    -0.297 C  
HETATM   29 CL   UNL     1     -12.292  16.443  73.370  1.00  0.00    -0.584 Cl 
ENDBRANCH  25  27
ENDBRANCH   4  25
TORSDOF 2
ENDMDL
MODEL       23
REMARK 921   NORMALIZED FREE ENERGY PREDICTED BY IDOCK:   -6.13 KCAL/MOL
REMARK 922        TOTAL FREE ENERGY PREDICTED BY IDOCK:   -6.27 KCAL/MOL
REMARK 923 INTER-LIGAND FREE ENERGY PREDICTED BY IDOCK:   -6.85 KCAL/MOL
REMARK 924 INTRA-LIGAND FREE ENERGY PREDICTED BY IDOCK:    0.58 KCAL/MOL
REMARK 927      BINDING AFFINITY PREDICTED BY RF-SCORE:    0.00 PKD
ROOT
HETATM    1  C   UNL     1      -9.965   9.232  65.929  1.00  0.00    -0.289 C  
HETATM    2  C   UNL     1      -8.897   9.603  65.078  1.00  0.00    -0.221 C  
HETATM    3  C   UNL     1      -8.563   9.755  66.527  1.00  0.00    -0.135 C  
HETATM    4  C   UNL     1      -9.882   8.934  67.884  1.00  0.00    -0.169 C  
HETATM    5  C   UNL     1     -11.659  12.968  69.012  1.00  0.00    -0.367 C  
HETATM    6  C   UNL     1      -8.820   8.390  67.243  1.00  0.00    -0.137 C  
HETATM    7  O   UNL     1     -11.114   8.199  67.447  1.00  0.00    -0.470 OA 
HETATM    8  C   UNL     1      -8.383   6.987  66.891  1.00  0.00    -0.118 C  
HETATM    9  C   UNL     1      -7.980   9.557  68.528  1.00  0.00    -0.093 C  
HETATM   10  C   UNL     1     -10.569  13.113  67.941  1.00  0.00    -0.243 C  
HETATM   11  C   UNL     1      -9.480  14.075  68.448  1.00  0.00    -0.213 C  
HETATM   12  H   UNL     1     -11.721   7.820  68.072  1.00  0.00     0.000 HD 
HETATM   13  C   UNL     1      -9.432  15.384  68.165  1.00  0.00    -0.202 C  
HETATM   14  C   UNL     1      -9.005  10.985  68.815  1.00  0.00    -0.149 C  
HETATM   15  C   UNL     1      -9.846  11.750  67.558  1.00  0.00    -0.195 C  
HETATM   16  O   UNL     1     -10.858  17.150  67.537  1.00  0.00    -0.309 OA 
HETATM   17  O   UNL     1      -9.928  10.625  69.854  1.00  0.00    -0.430 OA 
HETATM   18  H   UNL     1     -10.475  11.387  70.007  1.00  0.00     0.000 HD 
HETATM   19  C   UNL     1     -10.747  10.769  66.550  1.00  0.00    -0.245 C  
HETATM   20  C   UNL     1     -11.237  11.599  65.351  1.00  0.00    -0.262 C  
HETATM   21  C   UNL     1     -12.025  12.834  65.774  1.00  0.00    -0.502 C  
HETATM   22  C   UNL     1     -11.254  13.739  66.704  1.00  0.00    -0.327 C  
HETATM   23  C   UNL     1     -11.243  15.068  66.476  1.00  0.00    -0.312 C  
HETATM   24  C   UNL     1     -10.540  15.976  67.404  1.00  0.00    -0.316 C  
ENDROOT
BRANCH   4  25
HETATM   25  C   UNL     1      -9.750   7.939  69.263  1.00  0.00    -0.159 C  
HETATM   26  O   UNL     1      -8.784   7.741  69.986  1.00  0.00    -0.138 OA 
BRANCH  25  27
HETATM   27  O   UNL     1     -10.911   7.208  69.406  1.00  0.00    -0.235 OA 
HETATM   28  C   UNL     1     -11.483   7.315  70.715  1.00  0.00    -0.299 C  
HETATM   29 CL   UNL     1     -11.147   5.806  71.593  1.00  0.00    -0.315 Cl 
ENDBRANCH  25  27
ENDBRANCH   4  25
TORSDOF 2
ENDMDL
MODEL       24
REMARK 921   NORMALIZED FREE ENERGY PREDICTED BY IDOCK:   -5.99 KCAL/MOL
REMARK 922        TOTAL FREE ENERGY PREDICTED BY IDOCK:   -6.12 KCAL/MOL
REMARK 923 INTER-LIGAND FREE ENERGY PREDICTED BY IDOCK:   -6.62 KCAL/MOL
REMARK 924 INTRA-LIGAND FREE ENERGY PREDICTED BY IDOCK:    0.50 KCAL/MOL
REMARK 927      BINDING AFFINITY PREDICTED BY RF-SCORE:    0.00 PKD
ROOT
HETATM    1  C   UNL     1     -12.042   8.741  71.994  1.00  0.00    -0.447 C  
HETATM    2  C   UNL     1     -13.332   8.411  71.513  1.00  0.00    -0.311 C  
HETATM    3  C   UNL     1     -12.237   7.904  70.630  1.00  0.00     0.054 C  
HETATM    4  C   UNL     1     -10.315   8.004  71.369  1.00  0.00    -0.200 C  
HETATM    5  C   UNL     1      -9.219  11.593  68.797  1.00  0.00    -0.042 C  
HETATM    6  C   UNL     1     -11.261   7.041  71.492  1.00  0.00    -0.279 C  
HETATM    7  O   UNL     1     -10.017   8.540  72.738  1.00  0.00    -0.258 OA 
HETATM    8  C   UNL     1     -11.526   5.915  72.464  1.00  0.00    -0.347 C  
HETATM    9  C   UNL     1     -10.712   6.855  69.653  1.00  0.00    -0.276 C  
HETATM   10  C   UNL     1     -10.673  11.158  68.566  1.00  0.00    -0.235 C  
HETATM   11  C   UNL     1     -10.882  10.854  67.072  1.00  0.00    -0.323 C  
HETATM   12  H   UNL     1      -9.132   8.585  73.078  1.00  0.00     0.000 HD 
HETATM   13  C   UNL     1     -11.377  11.725  66.182  1.00  0.00    -0.342 C  
HETATM   14  C   UNL     1     -10.244   8.443  68.994  1.00  0.00    -0.207 C  
HETATM   15  C   UNL     1     -11.100   9.856  69.372  1.00  0.00    -0.237 C  
HETATM   16  O   UNL     1     -11.589  14.047  65.853  1.00  0.00    -0.329 OA 
HETATM   17  O   UNL     1      -8.857   8.627  69.313  1.00  0.00    -0.135 OA 
HETATM   18  H   UNL     1      -8.608   9.474  68.961  1.00  0.00     0.000 HD 
HETATM   19  C   UNL     1     -11.410  10.137  70.989  1.00  0.00    -0.385 C  
HETATM   20  C   UNL     1     -12.383  11.322  71.114  1.00  0.00    -0.429 C  
HETATM   21  C   UNL     1     -11.870  12.579  70.421  1.00  0.00    -0.246 C  
HETATM   22  C   UNL     1     -11.556  12.364  68.960  1.00  0.00    -0.362 C  
HETATM   23  C   UNL     1     -11.989  13.262  68.051  1.00  0.00    -0.351 C  
HETATM   24  C   UNL     1     -11.647  13.099  66.624  1.00  0.00    -0.356 C  
ENDROOT
BRANCH   4  25
HETATM   25  C   UNL     1      -8.995   6.929  71.480  1.00  0.00    -0.140 C  
HETATM   26  O   UNL     1      -8.640   6.055  70.702  1.00  0.00    -0.131 OA 
BRANCH  25  27
HETATM   27  O   UNL     1      -8.399   7.070  72.715  1.00  0.00    -0.107 OA 
HETATM   28  C   UNL     1      -7.328   6.144  72.931  1.00  0.00    -0.093 C  
HETATM   29 CL   UNL     1      -7.905   4.873  74.032  1.00  0.00    -0.100 Cl 
ENDBRANCH  25  27
ENDBRANCH   4  25
TORSDOF 2
ENDMDL
MODEL       25
REMARK 921   NORMALIZED FREE ENERGY PREDICTED BY IDOCK:   -5.99 KCAL/MOL
REMARK 922        TOTAL FREE ENERGY PREDICTED BY IDOCK:   -6.11 KCAL/MOL
REMARK 923 INTER-LIGAND FREE ENERGY PREDICTED BY IDOCK:   -6.56 KCAL/MOL
REMARK 924 INTRA-LIGAND FREE ENERGY PREDICTED BY IDOCK:    0.45 KCAL/MOL
REMARK 927      BINDING AFFINITY PREDICTED BY RF-SCORE:    0.00 PKD
ROOT
HETATM    1  C   UNL     1     -11.097  14.701  66.413  1.00  0.00    -0.334 C  
HETATM    2  C   UNL     1     -12.082  14.349  67.367  1.00  0.00    -0.348 C  
HETATM    3  C   UNL     1     -10.706  14.406  67.948  1.00  0.00    -0.246 C  
HETATM    4  C   UNL     1      -9.226  15.235  66.776  1.00  0.00    -0.250 C  
HETATM    5  C   UNL     1      -7.413  11.197  65.724  1.00  0.00     0.165 C  
HETATM    6  C   UNL     1     -10.094  15.811  67.643  1.00  0.00    -0.247 C  
HETATM    7  O   UNL     1      -9.510  15.779  65.407  1.00  0.00    -0.321 OA 
HETATM    8  C   UNL     1     -10.653  17.200  67.838  1.00  0.00    -0.376 C  
HETATM    9  C   UNL     1      -8.868  14.900  68.820  1.00  0.00    -0.183 C  
HETATM   10  C   UNL     1      -8.639  11.044  66.635  1.00  0.00    -0.157 C  
HETATM   11  C   UNL     1      -8.239  10.269  67.904  1.00  0.00    -0.109 C  
HETATM   12  H   UNL     1      -8.829  16.161  64.867  1.00  0.00     0.000 HD 
HETATM   13  C   UNL     1      -8.396   8.949  68.068  1.00  0.00    -0.121 C  
HETATM   14  C   UNL     1      -8.266  13.415  68.042  1.00  0.00    -0.161 C  
HETATM   15  C   UNL     1      -9.275  12.421  67.110  1.00  0.00    -0.199 C  
HETATM   16  O   UNL     1      -8.588   6.980  66.792  1.00  0.00    -0.114 OA 
HETATM   17  O   UNL     1      -7.122  13.794  67.262  1.00  0.00    -0.309 OA 
HETATM   18  H   UNL     1      -6.802  13.002  66.847  1.00  0.00     0.000 HD 
HETATM   19  C   UNL     1     -10.201  13.174  65.942  1.00  0.00    -0.294 C  
HETATM   20  C   UNL     1     -11.208  12.161  65.371  1.00  0.00    -0.381 C  
HETATM   21  C   UNL     1     -10.534  10.908  64.823  1.00  0.00    -0.373 C  
HETATM   22  C   UNL     1      -9.669  10.207  65.842  1.00  0.00    -0.292 C  
HETATM   23  C   UNL     1      -9.764   8.868  65.982  1.00  0.00    -0.308 C  
HETATM   24  C   UNL     1      -8.889   8.157  66.935  1.00  0.00    -0.131 C  
ENDROOT
BRANCH   4  25
HETATM   25  C   UNL     1      -7.996  16.395  67.004  1.00  0.00    -0.205 C  
HETATM   26  O   UNL     1      -7.339  16.640  68.006  1.00  0.00    -0.149 OA 
BRANCH  25  27
HETATM   27  O   UNL     1      -7.911  17.192  65.882  1.00  0.00    -0.477 OA 
HETATM   28  C   UNL     1      -7.371  18.490  66.154  1.00  0.00    -0.259 C  
HETATM   29 CL   UNL     1      -8.707  19.663  66.138  1.00  0.00    -0.383 Cl 
ENDBRANCH  25  27
ENDBRANCH   4  25
TORSDOF 2
ENDMDL
MODEL       26
REMARK 921   NORMALIZED FREE ENERGY PREDICTED BY IDOCK:   -5.99 KCAL/MOL
REMARK 922        TOTAL FREE ENERGY PREDICTED BY IDOCK:   -6.11 KCAL/MOL
REMARK 923 INTER-LIGAND FREE ENERGY PREDICTED BY IDOCK:   -6.59 KCAL/MOL
REMARK 924 INTRA-LIGAND FREE ENERGY PREDICTED BY IDOCK:    0.48 KCAL/MOL
REMARK 927      BINDING AFFINITY PREDICTED BY RF-SCORE:    0.00 PKD
ROOT
HETATM    1  C   UNL     1      -8.080  13.515  67.695  1.00  0.00    -0.180 C  
HETATM    2  C   UNL     1      -7.330  13.023  68.791  1.00  0.00    -0.064 C  
HETATM    3  C   UNL     1      -8.547  12.203  68.507  1.00  0.00    -0.079 C  
HETATM    4  C   UNL     1      -9.545  12.585  66.743  1.00  0.00    -0.231 C  
HETATM    5  C   UNL     1     -12.908  14.843  68.812  1.00  0.00     0.899 C  
HETATM    6  C   UNL     1      -8.507  11.754  67.011  1.00  0.00    -0.175 C  
HETATM    7  O   UNL     1      -9.068  13.623  65.770  1.00  0.00    -0.403 OA 
HETATM    8  C   UNL     1      -7.409  11.111  66.196  1.00  0.00    -0.007 C  
HETATM    9  C   UNL     1      -9.995  10.847  67.838  1.00  0.00    -0.195 C  
HETATM   10  C   UNL     1     -11.855  14.356  69.818  1.00  0.00    -0.375 C  
HETATM   11  C   UNL     1     -12.536  13.480  70.885  1.00  0.00    -0.414 C  
HETATM   12  H   UNL     1      -9.527  13.798  64.958  1.00  0.00     0.000 HD 
HETATM   13  C   UNL     1     -12.953  13.924  72.079  1.00  0.00    -0.438 C  
HETATM   14  C   UNL     1     -11.175  12.037  68.439  1.00  0.00    -0.262 C  
HETATM   15  C   UNL     1     -10.692  13.486  69.173  1.00  0.00    -0.118 C  
HETATM   16  O   UNL     1     -13.625  15.922  73.128  1.00  0.00    -0.580 OA 
HETATM   17  O   UNL     1     -12.057  12.330  67.345  1.00  0.00    -0.533 OA 
HETATM   18  H   UNL     1     -12.687  12.965  67.666  1.00  0.00     0.000 HD 
HETATM   19  C   UNL     1      -9.543  14.391  68.365  1.00  0.00    -0.219 C  
HETATM   20  C   UNL     1      -9.066  15.530  69.282  1.00  0.00    -0.266 C  
HETATM   21  C   UNL     1     -10.212  16.403  69.779  1.00  0.00    -0.142 C  
HETATM   22  C   UNL     1     -11.285  15.621  70.499  1.00  0.00    -0.382 C  
HETATM   23  C   UNL     1     -11.766  16.081  71.672  1.00  0.00    -0.583 C  
HETATM   24  C   UNL     1     -12.852  15.361  72.364  1.00  0.00    -0.383 C  
ENDROOT
BRANCH   4  25
HETATM   25  C   UNL     1     -10.164  11.640  65.464  1.00  0.00    -0.260 C  
HETATM   26  O   UNL     1     -10.528  10.473  65.469  1.00  0.00    -0.237 OA 
BRANCH  25  27
HETATM   27  O   UNL     1     -10.072  12.355  64.288  1.00  0.00    -0.315 OA 
HETATM   28  C   UNL     1     -10.300  11.552  63.124  1.00  0.00    -0.324 C  
HETATM   29 CL   UNL     1      -8.732  11.241  62.346  1.00  0.00    -0.327 Cl 
ENDBRANCH  25  27
ENDBRANCH   4  25
TORSDOF 2
ENDMDL
MODEL       27
REMARK 921   NORMALIZED FREE ENERGY PREDICTED BY IDOCK:   -5.98 KCAL/MOL
REMARK 922        TOTAL FREE ENERGY PREDICTED BY IDOCK:   -6.10 KCAL/MOL
REMARK 923 INTER-LIGAND FREE ENERGY PREDICTED BY IDOCK:   -6.55 KCAL/MOL
REMARK 924 INTRA-LIGAND FREE ENERGY PREDICTED BY IDOCK:    0.45 KCAL/MOL
REMARK 927      BINDING AFFINITY PREDICTED BY RF-SCORE:    0.00 PKD
ROOT
HETATM    1  C   UNL     1      -8.668  11.431  67.449  1.00  0.00    -0.145 C  
HETATM    2  C   UNL     1      -9.416  11.232  68.634  1.00  0.00    -0.179 C  
HETATM    3  C   UNL     1     -10.239  11.788  67.515  1.00  0.00    -0.214 C  
HETATM    4  C   UNL     1      -9.380  11.807  65.640  1.00  0.00    -0.152 C  
HETATM    5  C   UNL     1      -8.545  16.278  65.768  1.00  0.00     0.188 C  
HETATM    6  C   UNL     1     -10.095  10.847  66.276  1.00  0.00    -0.284 C  
HETATM    7  O   UNL     1      -8.001  11.272  65.394  1.00  0.00    -0.358 OA 
HETATM    8  C   UNL     1     -10.229   9.348  66.147  1.00  0.00    -0.264 C  
HETATM    9  C   UNL     1     -11.444  12.155  65.844  1.00  0.00    -0.418 C  
HETATM   10  C   UNL     1      -9.213  15.793  67.062  1.00  0.00    -0.233 C  
HETATM   11  C   UNL     1     -10.507  16.592  67.298  1.00  0.00    -0.304 C  
HETATM   12  H   UNL     1      -7.606  11.281  64.530  1.00  0.00     0.000 HD 
HETATM   13  C   UNL     1     -10.598  17.677  68.079  1.00  0.00    -0.379 C  
HETATM   14  C   UNL     1     -10.740  13.791  65.879  1.00  0.00    -0.285 C  
HETATM   15  C   UNL     1      -9.610  14.254  67.054  1.00  0.00    -0.260 C  
HETATM   16  O   UNL     1      -9.245  19.400  68.940  1.00  0.00    -0.378 OA 
HETATM   17  O   UNL     1     -10.193  14.031  64.574  1.00  0.00    -0.622 OA 
HETATM   18  H   UNL     1      -9.817  14.903  64.592  1.00  0.00     0.000 HD 
HETATM   19  C   UNL     1      -8.318  13.224  67.301  1.00  0.00    -0.182 C  
HETATM   20  C   UNL     1      -7.541  13.684  68.546  1.00  0.00    -0.130 C  
HETATM   21  C   UNL     1      -7.084  15.136  68.451  1.00  0.00    -0.107 C  
HETATM   22  C   UNL     1      -8.220  16.100  68.207  1.00  0.00    -0.162 C  
HETATM   23  C   UNL     1      -8.297  17.231  68.937  1.00  0.00    -0.174 C  
HETATM   24  C   UNL     1      -9.369  18.212  68.677  1.00  0.00    -0.297 C  
ENDROOT
BRANCH   4  25
HETATM   25  C   UNL     1      -9.865  11.340  64.073  1.00  0.00    -0.291 C  
HETATM   26  O   UNL     1     -10.992  11.245  63.607  1.00  0.00    -0.385 OA 
BRANCH  25  27
HETATM   27  O   UNL     1      -8.762  10.907  63.368  1.00  0.00    -0.153 OA 
HETATM   28  C   UNL     1      -9.041   9.788  62.520  1.00  0.00    -0.283 C  
HETATM   29 CL   UNL     1      -8.365   8.330  63.282  1.00  0.00    -0.097 Cl 
ENDBRANCH  25  27
ENDBRANCH   4  25
TORSDOF 2
ENDMDL
MODEL       28
REMARK 921   NORMALIZED FREE ENERGY PREDICTED BY IDOCK:   -5.91 KCAL/MOL
REMARK 922        TOTAL FREE ENERGY PREDICTED BY IDOCK:   -6.03 KCAL/MOL
REMARK 923 INTER-LIGAND FREE ENERGY PREDICTED BY IDOCK:   -6.58 KCAL/MOL
REMARK 924 INTRA-LIGAND FREE ENERGY PREDICTED BY IDOCK:    0.55 KCAL/MOL
REMARK 927      BINDING AFFINITY PREDICTED BY RF-SCORE:    0.00 PKD
ROOT
HETATM    1  C   UNL     1      -9.109  11.216  65.602  1.00  0.00    -0.221 C  
HETATM    2  C   UNL     1      -9.949  10.467  64.745  1.00  0.00    -0.409 C  
HETATM    3  C   UNL     1     -10.686  11.067  65.899  1.00  0.00    -0.226 C  
HETATM    4  C   UNL     1      -9.675  12.460  67.035  1.00  0.00    -0.211 C  
HETATM    5  C   UNL     1      -8.939   9.546  70.451  1.00  0.00    -0.291 C  
HETATM    6  C   UNL     1     -10.421  12.606  65.913  1.00  0.00    -0.295 C  
HETATM    7  O   UNL     1      -8.270  12.875  66.715  1.00  0.00    -0.395 OA 
HETATM    8  C   UNL     1     -10.516  13.640  64.815  1.00  0.00    -0.436 C  
HETATM    9  C   UNL     1     -11.755  12.246  67.258  1.00  0.00    -0.394 C  
HETATM   10  C   UNL     1      -9.703   8.880  69.298  1.00  0.00    -0.165 C  
HETATM   11  C   UNL     1     -11.028   8.304  69.830  1.00  0.00    -0.132 C  
HETATM   12  H   UNL     1      -7.804  13.517  67.238  1.00  0.00     0.000 HD 
HETATM   13  C   UNL     1     -11.204   7.031  70.209  1.00  0.00    -0.339 C  
HETATM   14  C   UNL     1     -11.087  11.158  68.501  1.00  0.00    -0.244 C  
HETATM   15  C   UNL     1     -10.068   9.864  68.103  1.00  0.00    -0.193 C  
HETATM   16  O   UNL     1      -9.961   5.190  70.989  1.00  0.00    -0.184 OA 
HETATM   17  O   UNL     1     -10.438  11.992  69.472  1.00  0.00    -0.419 OA 
HETATM   18  H   UNL     1     -10.082  11.412  70.135  1.00  0.00     0.000 HD 
HETATM   19  C   UNL     1      -8.782  10.203  67.093  1.00  0.00    -0.131 C  
HETATM   20  C   UNL     1      -8.121   8.882  66.663  1.00  0.00    -0.107 C  
HETATM   21  C   UNL     1      -7.685   8.029  67.850  1.00  0.00    -0.114 C  
HETATM   22  C   UNL     1      -8.815   7.716  68.801  1.00  0.00    -0.131 C  
HETATM   23  C   UNL     1      -8.975   6.453  69.246  1.00  0.00    -0.133 C  
HETATM   24  C   UNL     1     -10.039   6.137  70.219  1.00  0.00    -0.188 C  
ENDROOT
BRANCH   4  25
HETATM   25  C   UNL     1     -10.018  14.015  67.646  1.00  0.00    -0.237 C  
HETATM   26  O   UNL     1     -10.907  14.793  67.329  1.00  0.00    -0.294 OA 
BRANCH  25  27
HETATM   27  O   UNL     1      -9.016  14.391  68.515  1.00  0.00    -0.183 OA 
HETATM   28  C   UNL     1      -9.320  15.589  69.238  1.00  0.00    -0.266 C  
HETATM   29 CL   UNL     1      -8.374  16.920  68.534  1.00  0.00    -0.247 Cl 
ENDBRANCH  25  27
ENDBRANCH   4  25
TORSDOF 2
ENDMDL
MODEL       29
REMARK 921   NORMALIZED FREE ENERGY PREDICTED BY IDOCK:   -5.90 KCAL/MOL
REMARK 922        TOTAL FREE ENERGY PREDICTED BY IDOCK:   -6.02 KCAL/MOL
REMARK 923 INTER-LIGAND FREE ENERGY PREDICTED BY IDOCK:   -6.61 KCAL/MOL
REMARK 924 INTRA-LIGAND FREE ENERGY PREDICTED BY IDOCK:    0.59 KCAL/MOL
REMARK 927      BINDING AFFINITY PREDICTED BY RF-SCORE:    0.00 PKD
ROOT
HETATM    1  C   UNL     1      -8.361  12.135  68.173  1.00  0.00    -0.170 C  
HETATM    2  C   UNL     1      -7.668  11.555  67.084  1.00  0.00    -0.160 C  
HETATM    3  C   UNL     1      -9.151  11.416  66.967  1.00  0.00    -0.169 C  
HETATM    4  C   UNL     1     -10.303  12.503  68.288  1.00  0.00    -0.236 C  
HETATM    5  C   UNL     1     -11.279   8.873  70.851  1.00  0.00    -0.334 C  
HETATM    6  C   UNL     1      -9.795  12.835  67.076  1.00  0.00    -0.231 C  
HETATM    7  O   UNL     1      -9.690  13.412  69.312  1.00  0.00    -0.270 OA 
HETATM    8  C   UNL     1      -9.471  14.129  66.367  1.00  0.00    -0.289 C  
HETATM    9  C   UNL     1     -11.206  11.604  66.615  1.00  0.00    -0.362 C  
HETATM   10  C   UNL     1     -10.365   8.502  69.675  1.00  0.00    -0.218 C  
HETATM   11  C   UNL     1     -11.033   7.397  68.838  1.00  0.00    -0.006 C  
HETATM   12  H   UNL     1     -10.221  13.913  69.920  1.00  0.00     0.000 HD 
HETATM   13  C   UNL     1     -10.789   6.086  68.978  1.00  0.00    -0.412 C  
HETATM   14  C   UNL     1     -11.388  10.380  67.896  1.00  0.00    -0.173 C  
HETATM   15  C   UNL     1     -10.049   9.708  68.689  1.00  0.00    -0.196 C  
HETATM   16  O   UNL     1     -10.019   4.555  70.592  1.00  0.00    -0.212 OA 
HETATM   17  O   UNL     1     -12.288  10.933  68.868  1.00  0.00    -0.752 OA 
HETATM   18  H   UNL     1     -12.385  10.280  69.552  1.00  0.00     0.000 HD 
HETATM   19  C   UNL     1      -8.909  10.778  69.276  1.00  0.00    -0.039 C  
HETATM   20  C   UNL     1      -7.675   9.988  69.745  1.00  0.00    -0.173 C  
HETATM   21  C   UNL     1      -8.019   8.920  70.777  1.00  0.00    -0.150 C  
HETATM   22  C   UNL     1      -9.063   7.943  70.295  1.00  0.00    -0.152 C  
HETATM   23  C   UNL     1      -8.869   6.621  70.480  1.00  0.00    -0.152 C  
HETATM   24  C   UNL     1      -9.902   5.652  70.065  1.00  0.00    -0.186 C  
ENDROOT
BRANCH   4  25
HETATM   25  C   UNL     1     -11.664  13.524  68.164  1.00  0.00    -0.361 C  
HETATM   26  O   UNL     1     -12.110  14.104  67.185  1.00  0.00    -0.426 OA 
BRANCH  25  27
HETATM   27  O   UNL     1     -12.170  13.758  69.425  1.00  0.00    -0.334 OA 
HETATM   28  C   UNL     1     -12.610  15.108  69.612  1.00  0.00    -0.059 C  
HETATM   29 CL   UNL     1     -11.402  15.953  70.606  1.00  0.00    -0.388 Cl 
ENDBRANCH  25  27
ENDBRANCH   4  25
TORSDOF 2
ENDMDL
MODEL       30
REMARK 921   NORMALIZED FREE ENERGY PREDICTED BY IDOCK:   -5.78 KCAL/MOL
REMARK 922        TOTAL FREE ENERGY PREDICTED BY IDOCK:   -5.88 KCAL/MOL
REMARK 923 INTER-LIGAND FREE ENERGY PREDICTED BY IDOCK:   -6.53 KCAL/MOL
REMARK 924 INTRA-LIGAND FREE ENERGY PREDICTED BY IDOCK:    0.65 KCAL/MOL
REMARK 927      BINDING AFFINITY PREDICTED BY RF-SCORE:    0.00 PKD
ROOT
HETATM    1  C   UNL     1      -8.902   9.466  67.058  1.00  0.00    -0.139 C  
HETATM    2  C   UNL     1      -9.652   8.617  66.210  1.00  0.00    -0.322 C  
HETATM    3  C   UNL     1     -10.512   9.529  67.024  1.00  0.00    -0.302 C  
HETATM    4  C   UNL     1      -9.564  11.050  68.043  1.00  0.00    -0.170 C  
HETATM    5  C   UNL     1      -9.911   8.946  72.062  1.00  0.00    -0.338 C  
HETATM    6  C   UNL     1     -10.050  11.001  66.779  1.00  0.00    -0.260 C  
HETATM    7  O   UNL     1      -8.080  11.255  67.963  1.00  0.00    -0.117 OA 
HETATM    8  C   UNL     1      -9.787  11.759  65.499  1.00  0.00    -0.262 C  
HETATM    9  C   UNL     1     -11.657  11.079  67.842  1.00  0.00    -0.306 C  
HETATM   10  C   UNL     1     -10.518   8.104  70.931  1.00  0.00    -0.229 C  
HETATM   11  C   UNL     1     -11.987   7.785  71.265  1.00  0.00    -0.324 C  
HETATM   12  H   UNL     1      -7.644  11.956  68.432  1.00  0.00     0.000 HD 
HETATM   13  C   UNL     1     -12.404   6.654  71.849  1.00  0.00    -0.364 C  
HETATM   14  C   UNL     1     -11.399  10.251  69.398  1.00  0.00    -0.221 C  
HETATM   15  C   UNL     1     -10.506   8.815  69.510  1.00  0.00    -0.222 C  
HETATM   16  O   UNL     1     -11.598   4.939  73.247  1.00  0.00    -0.336 OA 
HETATM   17  O   UNL     1     -10.846  11.225  70.295  1.00  0.00    -0.397 OA 
HETATM   18  H   UNL     1     -10.708  10.784  71.125  1.00  0.00     0.000 HD 
HETATM   19  C   UNL     1      -9.013   8.798  68.761  1.00  0.00    -0.138 C  
HETATM   20  C   UNL     1      -8.466   7.360  68.768  1.00  0.00    -0.129 C  
HETATM   21  C   UNL     1      -8.390   6.768  70.171  1.00  0.00    -0.135 C  
HETATM   22  C   UNL     1      -9.716   6.783  70.893  1.00  0.00    -0.186 C  
HETATM   23  C   UNL     1     -10.129   5.675  71.543  1.00  0.00    -0.253 C  
HETATM   24  C   UNL     1     -11.396   5.686  72.300  1.00  0.00    -0.240 C  
ENDROOT
BRANCH   4  25
HETATM   25  C   UNL     1      -9.807  12.729  68.230  1.00  0.00    -0.224 C  
HETATM   26  O   UNL     1     -10.813  13.332  68.575  1.00  0.00    -0.249 OA 
BRANCH  25  27
HETATM   27  O   UNL     1      -8.691  13.401  67.778  1.00  0.00    -0.172 OA 
HETATM   28  C   UNL     1      -8.879  14.819  67.711  1.00  0.00    -0.175 C  
HETATM   29 CL   UNL     1      -9.091  15.271  66.004  1.00  0.00    -0.320 Cl 
ENDBRANCH  25  27
ENDBRANCH   4  25
TORSDOF 2
ENDMDL
MODEL       31
REMARK 921   NORMALIZED FREE ENERGY PREDICTED BY IDOCK:   -5.77 KCAL/MOL
REMARK 922        TOTAL FREE ENERGY PREDICTED BY IDOCK:   -5.87 KCAL/MOL
REMARK 923 INTER-LIGAND FREE ENERGY PREDICTED BY IDOCK:   -6.33 KCAL/MOL
REMARK 924 INTRA-LIGAND FREE ENERGY PREDICTED BY IDOCK:    0.46 KCAL/MOL
REMARK 927      BINDING AFFINITY PREDICTED BY RF-SCORE:    0.00 PKD
ROOT
HETATM    1  C   UNL     1     -10.904  14.438  65.747  1.00  0.00    -0.308 C  
HETATM    2  C   UNL     1     -12.303  14.320  65.925  1.00  0.00    -0.420 C  
HETATM    3  C   UNL     1     -11.557  14.376  67.219  1.00  0.00    -0.401 C  
HETATM    4  C   UNL     1      -9.562  14.892  67.130  1.00  0.00    -0.225 C  
HETATM    5  C   UNL     1      -8.144  10.618  67.775  1.00  0.00    -0.111 C  
HETATM    6  C   UNL     1     -10.672  15.664  67.229  1.00  0.00    -0.305 C  
HETATM    7  O   UNL     1      -8.885  15.219  65.832  1.00  0.00    -0.436 OA 
HETATM    8  C   UNL     1     -11.010  17.103  66.915  1.00  0.00     0.128 C  
HETATM    9  C   UNL     1     -10.552  14.878  68.986  1.00  0.00    -0.245 C  
HETATM   10  C   UNL     1      -9.676  10.705  67.754  1.00  0.00    -0.179 C  
HETATM   11  C   UNL     1     -10.239  10.127  69.064  1.00  0.00    -0.221 C  
HETATM   12  H   UNL     1      -7.966  15.457  65.791  1.00  0.00     0.000 HD 
HETATM   13  C   UNL     1     -10.669   8.867  69.215  1.00  0.00    -0.177 C  
HETATM   14  C   UNL     1      -9.848  13.245  68.875  1.00  0.00     0.110 C  
HETATM   15  C   UNL     1     -10.244  12.184  67.615  1.00  0.00    -0.206 C  
HETATM   16  O   UNL     1     -10.369   6.731  68.271  1.00  0.00    -0.165 OA 
HETATM   17  O   UNL     1      -8.423  13.408  68.930  1.00  0.00    -0.360 OA 
HETATM   18  H   UNL     1      -8.047  12.537  68.870  1.00  0.00     0.000 HD 
HETATM   19  C   UNL     1     -10.158  12.795  66.062  1.00  0.00    -0.277 C  
HETATM   20  C   UNL     1     -10.769  11.774  65.088  1.00  0.00    -0.343 C  
HETATM   21  C   UNL     1     -10.110  10.403  65.182  1.00  0.00    -0.379 C  
HETATM   22  C   UNL     1     -10.146   9.822  66.575  1.00  0.00    -0.307 C  
HETATM   23  C   UNL     1     -10.515   8.536  66.746  1.00  0.00    -0.308 C  
HETATM   24  C   UNL     1     -10.506   7.933  68.094  1.00  0.00    -0.173 C  
ENDROOT
BRANCH   4  25
HETATM   25  C   UNL     1      -8.548  15.985  67.959  1.00  0.00    -0.165 C  
HETATM   26  O   UNL     1      -8.691  16.488  69.064  1.00  0.00    -0.251 OA 
BRANCH  25  27
HETATM   27  O   UNL     1      -7.529  16.383  67.119  1.00  0.00    -0.153 OA 
HETATM   28  C   UNL     1      -6.976  17.656  67.472  1.00  0.00    -0.168 C  
HETATM   29 CL   UNL     1      -7.578  18.864  66.315  1.00  0.00    -0.281 Cl 
ENDBRANCH  25  27
ENDBRANCH   4  25
TORSDOF 2
ENDMDL
MODEL       32
REMARK 921   NORMALIZED FREE ENERGY PREDICTED BY IDOCK:   -5.74 KCAL/MOL
REMARK 922        TOTAL FREE ENERGY PREDICTED BY IDOCK:   -5.84 KCAL/MOL
REMARK 923 INTER-LIGAND FREE ENERGY PREDICTED BY IDOCK:   -6.28 KCAL/MOL
REMARK 924 INTRA-LIGAND FREE ENERGY PREDICTED BY IDOCK:    0.44 KCAL/MOL
REMARK 927      BINDING AFFINITY PREDICTED BY RF-SCORE:    0.00 PKD
ROOT
HETATM    1  C   UNL     1      -9.853   9.855  69.534  1.00  0.00    -0.241 C  
HETATM    2  C   UNL     1      -8.626   9.838  70.241  1.00  0.00    -0.169 C  
HETATM    3  C   UNL     1      -8.443   9.748  68.760  1.00  0.00    -0.122 C  
HETATM    4  C   UNL     1     -10.100  10.107  67.586  1.00  0.00    -0.190 C  
HETATM    5  C   UNL     1     -10.738   5.699  66.658  1.00  0.00    -0.339 C  
HETATM    6  C   UNL     1      -9.174  10.957  68.093  1.00  0.00    -0.158 C  
HETATM    7  O   UNL     1     -11.431  10.463  68.180  1.00  0.00    -0.514 OA 
HETATM    8  C   UNL     1      -9.129  12.436  68.400  1.00  0.00    -0.141 C  
HETATM    9  C   UNL     1      -8.192  10.050  66.704  1.00  0.00    -0.122 C  
HETATM   10  C   UNL     1      -9.532   5.911  67.583  1.00  0.00    -0.110 C  
HETATM   11  C   UNL     1      -8.279   5.294  66.935  1.00  0.00    -0.108 C  
HETATM   12  H   UNL     1     -12.194  10.629  67.639  1.00  0.00     0.000 HD 
HETATM   13  C   UNL     1      -7.814   4.065  67.200  1.00  0.00    -0.092 C  
HETATM   14  C   UNL     1      -8.781   8.377  66.537  1.00  0.00    -0.134 C  
HETATM   15  C   UNL     1      -9.199   7.436  67.883  1.00  0.00    -0.132 C  
HETATM   16  O   UNL     1      -8.571   1.979  67.988  1.00  0.00    -0.068 OA 
HETATM   17  O   UNL     1      -9.888   8.420  65.624  1.00  0.00    -0.412 OA 
HETATM   18  H   UNL     1     -10.202   7.527  65.535  1.00  0.00     0.000 HD 
HETATM   19  C   UNL     1     -10.218   8.140  69.004  1.00  0.00    -0.228 C  
HETATM   20  C   UNL     1     -10.293   7.238  70.248  1.00  0.00    -0.219 C  
HETATM   21  C   UNL     1     -10.729   5.815  69.917  1.00  0.00    -0.412 C  
HETATM   22  C   UNL     1      -9.846   5.148  68.890  1.00  0.00    -0.241 C  
HETATM   23  C   UNL     1      -9.417   3.887  69.105  1.00  0.00    -0.246 C  
HETATM   24  C   UNL     1      -8.598   3.198  68.089  1.00  0.00    -0.092 C  
ENDROOT
BRANCH   4  25
HETATM   25  C   UNL     1     -10.436  11.057  66.210  1.00  0.00    -0.254 C  
HETATM   26  O   UNL     1      -9.703  11.357  65.278  1.00  0.00    -0.228 OA 
BRANCH  25  27
HETATM   27  O   UNL     1     -11.690  11.616  66.340  1.00  0.00    -0.472 OA 
HETATM   28  C   UNL     1     -11.877  12.774  65.519  1.00  0.00    -0.422 C  
HETATM   29 CL   UNL     1     -11.796  14.213  66.559  1.00  0.00    -0.417 Cl 
ENDBRANCH  25  27
ENDBRANCH   4  25
TORSDOF 2
ENDMDL
MODEL       33
REMARK 921   NORMALIZED FREE ENERGY PREDICTED BY IDOCK:   -5.73 KCAL/MOL
REMARK 922        TOTAL FREE ENERGY PREDICTED BY IDOCK:   -5.82 KCAL/MOL
REMARK 923 INTER-LIGAND FREE ENERGY PREDICTED BY IDOCK:   -6.40 KCAL/MOL
REMARK 924 INTRA-LIGAND FREE ENERGY PREDICTED BY IDOCK:    0.58 KCAL/MOL
REMARK 927      BINDING AFFINITY PREDICTED BY RF-SCORE:    0.00 PKD
ROOT
HETATM    1  C   UNL     1     -10.128  15.728  69.436  1.00  0.00    -0.268 C  
HETATM    2  C   UNL     1      -9.120  15.293  70.330  1.00  0.00     0.692 C  
HETATM    3  C   UNL     1      -8.656  15.337  68.909  1.00  0.00    -0.207 C  
HETATM    4  C   UNL     1      -9.891  16.271  67.548  1.00  0.00    -0.238 C  
HETATM    5  C   UNL     1     -11.370  12.349  65.781  1.00  0.00    -0.393 C  
HETATM    6  C   UNL     1      -8.915  16.770  68.345  1.00  0.00    -0.233 C  
HETATM    7  O   UNL     1     -11.190  16.901  67.957  1.00  0.00    -0.271 OA 
HETATM    8  C   UNL     1      -8.578  18.133  68.903  1.00  0.00    -0.128 C  
HETATM    9  C   UNL     1      -7.913  15.805  67.009  1.00  0.00    -0.272 C  
HETATM   10  C   UNL     1     -10.371  12.111  66.921  1.00  0.00    -0.235 C  
HETATM   11  C   UNL     1      -9.198  11.260  66.402  1.00  0.00    -0.206 C  
HETATM   12  H   UNL     1     -11.759  17.332  67.330  1.00  0.00     0.000 HD 
HETATM   13  C   UNL     1      -9.112   9.928  66.528  1.00  0.00    -0.179 C  
HETATM   14  C   UNL     1      -8.841  14.388  66.459  1.00  0.00    -0.089 C  
HETATM   15  C   UNL     1      -9.749  13.440  67.531  1.00  0.00    -0.224 C  
HETATM   16  O   UNL     1     -10.501   8.047  66.804  1.00  0.00    -0.330 OA 
HETATM   17  O   UNL     1      -9.687  14.840  65.391  1.00  0.00    -0.457 OA 
HETATM   18  H   UNL     1     -10.182  14.084  65.098  1.00  0.00     0.000 HD 
HETATM   19  C   UNL     1     -10.779  14.254  68.565  1.00  0.00    -0.262 C  
HETATM   20  C   UNL     1     -11.331  13.263  69.604  1.00  0.00    -0.191 C  
HETATM   21  C   UNL     1     -12.019  12.063  68.964  1.00  0.00    -0.321 C  
HETATM   22  C   UNL     1     -11.129  11.310  68.005  1.00  0.00    -0.325 C  
HETATM   23  C   UNL     1     -11.074   9.964  68.070  1.00  0.00    -0.220 C  
HETATM   24  C   UNL     1     -10.252   9.206  67.107  1.00  0.00    -0.261 C  
ENDROOT
BRANCH   4  25
HETATM   25  C   UNL     1      -9.689  17.436  66.318  1.00  0.00    -0.261 C  
HETATM   26  O   UNL     1      -8.777  17.562  65.513  1.00  0.00    -0.203 OA 
BRANCH  25  27
HETATM   27  O   UNL     1     -10.681  18.388  66.428  1.00  0.00    -0.334 OA 
HETATM   28  C   UNL     1     -10.287  19.670  65.927  1.00  0.00    -0.488 C  
HETATM   29 CL   UNL     1      -9.958  20.733  67.314  1.00  0.00    -0.493 Cl 
ENDBRANCH  25  27
ENDBRANCH   4  25
TORSDOF 2
ENDMDL
MODEL       34
REMARK 921   NORMALIZED FREE ENERGY PREDICTED BY IDOCK:   -5.65 KCAL/MOL
REMARK 922        TOTAL FREE ENERGY PREDICTED BY IDOCK:   -5.73 KCAL/MOL
REMARK 923 INTER-LIGAND FREE ENERGY PREDICTED BY IDOCK:   -6.18 KCAL/MOL
REMARK 924 INTRA-LIGAND FREE ENERGY PREDICTED BY IDOCK:    0.44 KCAL/MOL
REMARK 927      BINDING AFFINITY PREDICTED BY RF-SCORE:    0.00 PKD
ROOT
HETATM    1  C   UNL     1      -7.791   9.834  69.158  1.00  0.00    -0.095 C  
HETATM    2  C   UNL     1      -7.089   8.735  68.606  1.00  0.00    -0.072 C  
HETATM    3  C   UNL     1      -8.555   8.690  68.318  1.00  0.00    -0.138 C  
HETATM    4  C   UNL     1      -9.649  10.383  68.754  1.00  0.00    -0.177 C  
HETATM    5  C   UNL     1     -11.461   8.577  72.516  1.00  0.00    -0.368 C  
HETATM    6  C   UNL     1      -8.970  10.032  67.634  1.00  0.00    -0.135 C  
HETATM    7  O   UNL     1      -9.010  11.618  69.317  1.00  0.00    -0.351 OA 
HETATM    8  C   UNL     1      -8.369  10.779  66.466  1.00  0.00    -0.146 C  
HETATM    9  C   UNL     1     -10.504   8.866  67.575  1.00  0.00    -0.337 C  
HETATM   10  C   UNL     1     -10.500   7.598  71.828  1.00  0.00    -0.241 C  
HETATM   11  C   UNL     1     -11.246   6.289  71.510  1.00  0.00    -0.344 C  
HETATM   12  H   UNL     1      -9.514  12.397  69.517  1.00  0.00     0.000 HD 
HETATM   13  C   UNL     1     -11.231   5.199  72.290  1.00  0.00    -0.123 C  
HETATM   14  C   UNL     1     -11.015   8.447  69.229  1.00  0.00     0.046 C  
HETATM   15  C   UNL     1      -9.892   8.132  70.460  1.00  0.00    -0.194 C  
HETATM   16  O   UNL     1     -10.892   4.591  74.539  1.00  0.00    -0.324 OA 
HETATM   17  O   UNL     1     -11.911   9.483  69.658  1.00  0.00    -0.433 OA 
HETATM   18  H   UNL     1     -12.183   9.260  70.540  1.00  0.00     0.000 HD 
HETATM   19  C   UNL     1      -8.663   9.245  70.658  1.00  0.00    -0.282 C  
HETATM   20  C   UNL     1      -7.629   8.679  71.646  1.00  0.00    -0.139 C  
HETATM   21  C   UNL     1      -8.246   8.289  72.984  1.00  0.00    -0.227 C  
HETATM   22  C   UNL     1      -9.378   7.299  72.849  1.00  0.00    -0.194 C  
HETATM   23  C   UNL     1      -9.420   6.226  73.665  1.00  0.00    -0.157 C  
HETATM   24  C   UNL     1     -10.546   5.275  73.586  1.00  0.00    -0.279 C  
ENDROOT
BRANCH   4  25
HETATM   25  C   UNL     1     -10.807  11.330  67.934  1.00  0.00    -0.228 C  
HETATM   26  O   UNL     1     -11.598  11.003  67.061  1.00  0.00    -0.427 OA 
BRANCH  25  27
HETATM   27  O   UNL     1     -10.647  12.652  68.294  1.00  0.00    -0.222 OA 
HETATM   28  C   UNL     1     -11.218  13.564  67.348  1.00  0.00    -0.295 C  
HETATM   29 CL   UNL     1      -9.895  14.293  66.411  1.00  0.00    -0.295 Cl 
ENDBRANCH  25  27
ENDBRANCH   4  25
TORSDOF 2
ENDMDL
MODEL       35
REMARK 921   NORMALIZED FREE ENERGY PREDICTED BY IDOCK:   -5.61 KCAL/MOL
REMARK 922        TOTAL FREE ENERGY PREDICTED BY IDOCK:   -5.70 KCAL/MOL
REMARK 923 INTER-LIGAND FREE ENERGY PREDICTED BY IDOCK:   -6.29 KCAL/MOL
REMARK 924 INTRA-LIGAND FREE ENERGY PREDICTED BY IDOCK:    0.60 KCAL/MOL
REMARK 927      BINDING AFFINITY PREDICTED BY RF-SCORE:    0.00 PKD
ROOT
HETATM    1  C   UNL     1     -10.105  16.554  67.176  1.00  0.00    -0.274 C  
HETATM    2  C   UNL     1     -10.957  16.427  68.299  1.00  0.00    -0.355 C  
HETATM    3  C   UNL     1      -9.711  17.195  68.601  1.00  0.00    -0.293 C  
HETATM    4  C   UNL     1      -8.544  17.758  66.997  1.00  0.00    -0.236 C  
HETATM    5  C   UNL     1      -5.425  14.542  67.786  1.00  0.00    -0.026 C  
HETATM    6  C   UNL     1      -9.596  18.377  67.586  1.00  0.00    -0.290 C  
HETATM    7  O   UNL     1      -8.928  17.434  65.584  1.00  0.00    -0.449 OA 
HETATM    8  C   UNL     1     -10.601  19.422  67.161  1.00  0.00    -0.596 C  
HETATM    9  C   UNL     1      -8.193  18.608  68.888  1.00  0.00    -0.228 C  
HETATM   10  C   UNL     1      -6.569  14.478  68.807  1.00  0.00    -0.088 C  
HETATM   11  C   UNL     1      -5.993  14.603  70.228  1.00  0.00    -0.159 C  
HETATM   12  H   UNL     1      -8.391  17.693  64.845  1.00  0.00     0.000 HD 
HETATM   13  C   UNL     1      -5.702  13.564  71.024  1.00  0.00    -0.188 C  
HETATM   14  C   UNL     1      -7.088  17.211  68.846  1.00  0.00    -0.242 C  
HETATM   15  C   UNL     1      -7.655  15.627  68.641  1.00  0.00    -0.143 C  
HETATM   16  O   UNL     1      -5.155  11.278  70.881  1.00  0.00    -0.095 OA 
HETATM   17  O   UNL     1      -6.103  17.496  67.842  1.00  0.00    -0.143 OA 
HETATM   18  H   UNL     1      -5.514  16.751  67.820  1.00  0.00     0.000 HD 
HETATM   19  C   UNL     1      -8.724  15.368  67.383  1.00  0.00    -0.194 C  
HETATM   20  C   UNL     1      -9.300  13.947  67.500  1.00  0.00    -0.217 C  
HETATM   21  C   UNL     1      -8.216  12.875  67.538  1.00  0.00    -0.184 C  
HETATM   22  C   UNL     1      -7.216  13.082  68.649  1.00  0.00    -0.101 C  
HETATM   23  C   UNL     1      -6.860  12.037  69.424  1.00  0.00    -0.028 C  
HETATM   24  C   UNL     1      -5.843  12.207  70.480  1.00  0.00    -0.119 C  
ENDROOT
BRANCH   4  25
HETATM   25  C   UNL     1      -7.792  19.200  66.484  1.00  0.00    -0.276 C  
HETATM   26  O   UNL     1      -7.857  20.322  66.966  1.00  0.00    -0.307 OA 
BRANCH  25  27
HETATM   27  O   UNL     1      -7.156  18.976  65.281  1.00  0.00    -0.485 OA 
HETATM   28  C   UNL     1      -5.998  19.799  65.096  1.00  0.00    -0.223 C  
HETATM   29 CL   UNL     1      -6.410  21.087  63.941  1.00  0.00    -0.353 Cl 
ENDBRANCH  25  27
ENDBRANCH   4  25
TORSDOF 2
ENDMDL
MODEL       36
REMARK 921   NORMALIZED FREE ENERGY PREDICTED BY IDOCK:   -5.61 KCAL/MOL
REMARK 922        TOTAL FREE ENERGY PREDICTED BY IDOCK:   -5.69 KCAL/MOL
REMARK 923 INTER-LIGAND FREE ENERGY PREDICTED BY IDOCK:   -6.14 KCAL/MOL
REMARK 924 INTRA-LIGAND FREE ENERGY PREDICTED BY IDOCK:    0.45 KCAL/MOL
REMARK 927      BINDING AFFINITY PREDICTED BY RF-SCORE:    0.00 PKD
ROOT
HETATM    1  C   UNL     1     -10.778  11.146  69.390  1.00  0.00    -0.220 C  
HETATM    2  C   UNL     1     -12.147  11.059  69.040  1.00  0.00    -0.285 C  
HETATM    3  C   UNL     1     -11.236  10.877  67.869  1.00  0.00    -0.387 C  
HETATM    4  C   UNL     1      -9.228  10.634  68.271  1.00  0.00    -0.153 C  
HETATM    5  C   UNL     1      -8.180  14.879  67.015  1.00  0.00    -0.228 C  
HETATM    6  C   UNL     1     -10.231   9.726  68.193  1.00  0.00    -0.220 C  
HETATM    7  O   UNL     1      -8.696  10.618  69.673  1.00  0.00    -0.391 OA 
HETATM    8  C   UNL     1     -10.459   8.330  68.726  1.00  0.00    -0.200 C  
HETATM    9  C   UNL     1      -9.963  10.211  66.346  1.00  0.00    -0.295 C  
HETATM   10  C   UNL     1      -9.685  14.608  66.883  1.00  0.00    -0.249 C  
HETATM   11  C   UNL     1     -10.127  14.883  65.434  1.00  0.00    -0.400 C  
HETATM   12  H   UNL     1      -7.771  10.505  69.858  1.00  0.00     0.000 HD 
HETATM   13  C   UNL     1     -10.660  16.036  65.008  1.00  0.00    -0.342 C  
HETATM   14  C   UNL     1      -9.449  11.913  66.233  1.00  0.00    -0.227 C  
HETATM   15  C   UNL     1     -10.112  13.116  67.226  1.00  0.00    -0.233 C  
HETATM   16  O   UNL     1     -10.705  18.322  65.573  1.00  0.00    -0.596 OA 
HETATM   17  O   UNL     1      -8.020  11.921  66.367  1.00  0.00    -0.374 OA 
HETATM   18  H   UNL     1      -7.746  12.829  66.307  1.00  0.00     0.000 HD 
HETATM   19  C   UNL     1     -10.168  12.792  68.864  1.00  0.00    -0.003 C  
HETATM   20  C   UNL     1     -11.002  13.880  69.562  1.00  0.00    -0.109 C  
HETATM   21  C   UNL     1     -10.479  15.286  69.292  1.00  0.00    -0.258 C  
HETATM   22  C   UNL     1     -10.392  15.613  67.821  1.00  0.00    -0.266 C  
HETATM   23  C   UNL     1     -10.865  16.796  67.377  1.00  0.00    -0.176 C  
HETATM   24  C   UNL     1     -10.741  17.159  65.951  1.00  0.00    -0.132 C  
ENDROOT
BRANCH   4  25
HETATM   25  C   UNL     1      -8.008   9.550  67.773  1.00  0.00    -0.099 C  
HETATM   26  O   UNL     1      -7.856   8.998  66.693  1.00  0.00    -0.098 OA 
BRANCH  25  27
HETATM   27  O   UNL     1      -7.220   9.227  68.857  1.00  0.00    -0.070 OA 
HETATM   28  C   UNL     1      -6.432   8.049  68.647  1.00  0.00    -0.053 C  
HETATM   29 CL   UNL     1      -7.171   6.714  69.559  1.00  0.00    -0.079 Cl 
ENDBRANCH  25  27
ENDBRANCH   4  25
TORSDOF 2
ENDMDL
MODEL       37
REMARK 921   NORMALIZED FREE ENERGY PREDICTED BY IDOCK:   -5.60 KCAL/MOL
REMARK 922        TOTAL FREE ENERGY PREDICTED BY IDOCK:   -5.68 KCAL/MOL
REMARK 923 INTER-LIGAND FREE ENERGY PREDICTED BY IDOCK:   -6.28 KCAL/MOL
REMARK 924 INTRA-LIGAND FREE ENERGY PREDICTED BY IDOCK:    0.59 KCAL/MOL
REMARK 927      BINDING AFFINITY PREDICTED BY RF-SCORE:    0.00 PKD
ROOT
HETATM    1  C   UNL     1     -10.769  12.587  64.557  1.00  0.00    -0.360 C  
HETATM    2  C   UNL     1     -11.852  11.749  64.197  1.00  0.00    -0.350 C  
HETATM    3  C   UNL     1     -11.757  11.972  65.672  1.00  0.00    -0.312 C  
HETATM    4  C   UNL     1     -10.455  13.435  66.318  1.00  0.00    -0.289 C  
HETATM    5  C   UNL     1      -7.327  10.431  67.692  1.00  0.00    -0.088 C  
HETATM    6  C   UNL     1     -11.756  13.510  65.944  1.00  0.00    -0.380 C  
HETATM    7  O   UNL     1      -9.649  14.259  65.358  1.00  0.00    -0.544 OA 
HETATM    8  C   UNL     1     -12.667  14.608  65.445  1.00  0.00    -0.070 C  
HETATM    9  C   UNL     1     -11.863  12.630  67.656  1.00  0.00    -0.390 C  
HETATM   10  C   UNL     1      -8.552   9.731  67.086  1.00  0.00    -0.129 C  
HETATM   11  C   UNL     1      -9.141   8.750  68.115  1.00  0.00    -0.142 C  
HETATM   12  H   UNL     1      -9.049  14.933  65.656  1.00  0.00     0.000 HD 
HETATM   13  C   UNL     1      -8.861   7.440  68.162  1.00  0.00    -0.127 C  
HETATM   14  C   UNL     1     -10.418  11.621  67.913  1.00  0.00    -0.192 C  
HETATM   15  C   UNL     1      -9.722  10.718  66.659  1.00  0.00    -0.227 C  
HETATM   16  O   UNL     1      -7.170   5.931  67.524  1.00  0.00    -0.073 OA 
HETATM   17  O   UNL     1      -9.420  12.472  68.495  1.00  0.00    -0.327 OA 
HETATM   18  H   UNL     1      -8.649  11.934  68.632  1.00  0.00     0.000 HD 
HETATM   19  C   UNL     1      -9.435  11.523  65.224  1.00  0.00    -0.206 C  
HETATM   20  C   UNL     1      -9.028  10.501  64.149  1.00  0.00    -0.237 C  
HETATM   21  C   UNL     1      -7.827   9.659  64.564  1.00  0.00    -0.134 C  
HETATM   22  C   UNL     1      -8.036   8.929  65.868  1.00  0.00    -0.109 C  
HETATM   23  C   UNL     1      -7.703   7.625  65.959  1.00  0.00    -0.090 C  
HETATM   24  C   UNL     1      -7.849   6.908  67.241  1.00  0.00    -0.110 C  
ENDROOT
BRANCH   4  25
HETATM   25  C   UNL     1     -10.537  14.745  67.407  1.00  0.00    -0.268 C  
HETATM   26  O   UNL     1     -11.438  15.062  68.171  1.00  0.00    -0.315 OA 
BRANCH  25  27
HETATM   27  O   UNL     1      -9.442  15.561  67.217  1.00  0.00    -0.209 OA 
HETATM   28  C   UNL     1      -9.634  16.886  67.726  1.00  0.00    -0.249 C  
HETATM   29 CL   UNL     1      -9.917  17.974  66.349  1.00  0.00    -0.351 Cl 
ENDBRANCH  25  27
ENDBRANCH   4  25
TORSDOF 2
ENDMDL
MODEL       38
REMARK 921   NORMALIZED FREE ENERGY PREDICTED BY IDOCK:   -5.59 KCAL/MOL
REMARK 922        TOTAL FREE ENERGY PREDICTED BY IDOCK:   -5.67 KCAL/MOL
REMARK 923 INTER-LIGAND FREE ENERGY PREDICTED BY IDOCK:   -6.18 KCAL/MOL
REMARK 924 INTRA-LIGAND FREE ENERGY PREDICTED BY IDOCK:    0.51 KCAL/MOL
REMARK 927      BINDING AFFINITY PREDICTED BY RF-SCORE:    0.00 PKD
ROOT
HETATM    1  C   UNL     1      -8.364  10.474  69.580  1.00  0.00    -0.075 C  
HETATM    2  C   UNL     1      -7.000  10.099  69.517  1.00  0.00    -0.086 C  
HETATM    3  C   UNL     1      -7.813   9.516  68.407  1.00  0.00    -0.086 C  
HETATM    4  C   UNL     1      -9.728  10.242  68.165  1.00  0.00    -0.143 C  
HETATM    5  C   UNL     1     -11.654   6.563  70.021  1.00  0.00    -0.455 C  
HETATM    6  C   UNL     1      -8.547  10.677  67.663  1.00  0.00    -0.118 C  
HETATM    7  O   UNL     1     -10.284  11.323  69.045  1.00  0.00    -0.272 OA 
HETATM    8  C   UNL     1      -8.031  11.988  67.116  1.00  0.00    -0.175 C  
HETATM    9  C   UNL     1      -8.862   9.066  66.652  1.00  0.00    -0.152 C  
HETATM   10  C   UNL     1     -10.123   6.451  70.010  1.00  0.00    -0.208 C  
HETATM   11  C   UNL     1      -9.711   5.172  69.259  1.00  0.00    -0.242 C  
HETATM   12  H   UNL     1     -11.166  11.658  68.933  1.00  0.00     0.000 HD 
HETATM   13  C   UNL     1      -9.436   4.001  69.850  1.00  0.00    -0.265 C  
HETATM   14  C   UNL     1      -9.737   7.881  67.655  1.00  0.00    -0.156 C  
HETATM   15  C   UNL     1      -9.386   7.667  69.299  1.00  0.00    -0.148 C  
HETATM   16  O   UNL     1      -9.915   2.820  71.830  1.00  0.00    -0.161 OA 
HETATM   17  O   UNL     1     -11.135   8.164  67.500  1.00  0.00    -0.483 OA 
HETATM   18  H   UNL     1     -11.602   7.532  68.035  1.00  0.00     0.000 HD 
HETATM   19  C   UNL     1      -9.308   9.048  70.236  1.00  0.00    -0.227 C  
HETATM   20  C   UNL     1      -8.756   8.680  71.624  1.00  0.00    -0.270 C  
HETATM   21  C   UNL     1      -9.570   7.589  72.310  1.00  0.00    -0.197 C  
HETATM   22  C   UNL     1      -9.684   6.329  71.487  1.00  0.00    -0.179 C  
HETATM   23  C   UNL     1      -9.473   5.133  72.074  1.00  0.00    -0.182 C  
HETATM   24  C   UNL     1      -9.633   3.886  71.300  1.00  0.00    -0.170 C  
ENDROOT
BRANCH   4  25
HETATM   25  C   UNL     1     -10.662  10.802  66.852  1.00  0.00    -0.252 C  
HETATM   26  O   UNL     1     -10.470  10.668  65.652  1.00  0.00    -0.236 OA 
BRANCH  25  27
HETATM   27  O   UNL     1     -11.672  11.611  67.327  1.00  0.00    -0.568 OA 
HETATM   28  C   UNL     1     -11.944  12.729  66.474  1.00  0.00    -0.358 C  
HETATM   29 CL   UNL     1     -11.253  14.184  67.226  1.00  0.00    -0.315 Cl 
ENDBRANCH  25  27
ENDBRANCH   4  25
TORSDOF 2
ENDMDL
MODEL       39
REMARK 921   NORMALIZED FREE ENERGY PREDICTED BY IDOCK:   -5.56 KCAL/MOL
REMARK 922        TOTAL FREE ENERGY PREDICTED BY IDOCK:   -5.64 KCAL/MOL
REMARK 923 INTER-LIGAND FREE ENERGY PREDICTED BY IDOCK:   -6.12 KCAL/MOL
REMARK 924 INTRA-LIGAND FREE ENERGY PREDICTED BY IDOCK:    0.48 KCAL/MOL
REMARK 927      BINDING AFFINITY PREDICTED BY RF-SCORE:    0.00 PKD
ROOT
HETATM    1  C   UNL     1      -7.284  11.899  67.621  1.00  0.00    -0.112 C  
HETATM    2  C   UNL     1      -6.698  11.750  68.901  1.00  0.00    -0.094 C  
HETATM    3  C   UNL     1      -7.918  10.904  68.719  1.00  0.00    -0.139 C  
HETATM    4  C   UNL     1      -8.676  10.751  66.808  1.00  0.00    -0.143 C  
HETATM    5  C   UNL     1     -12.128  13.592  67.654  1.00  0.00    -0.328 C  
HETATM    6  C   UNL     1      -7.727  10.022  67.444  1.00  0.00    -0.095 C  
HETATM    7  O   UNL     1      -8.030  11.436  65.641  1.00  0.00    -0.366 OA 
HETATM    8  C   UNL     1      -6.579   9.143  67.008  1.00  0.00    -0.064 C  
HETATM    9  C   UNL     1      -9.350   9.436  68.304  1.00  0.00    -0.140 C  
HETATM   10  C   UNL     1     -11.230  13.413  68.887  1.00  0.00    -0.320 C  
HETATM   11  C   UNL     1     -12.081  12.915  70.069  1.00  0.00    -0.357 C  
HETATM   12  H   UNL     1      -8.380  11.365  64.760  1.00  0.00     0.000 HD 
HETATM   13  C   UNL     1     -12.610  13.708  71.011  1.00  0.00    -0.441 C  
HETATM   14  C   UNL     1     -10.525  10.774  68.364  1.00  0.00    -0.183 C  
HETATM   15  C   UNL     1     -10.050  12.368  68.688  1.00  0.00    -0.143 C  
HETATM   16  O   UNL     1     -13.287  15.942  71.320  1.00  0.00    -0.507 OA 
HETATM   17  O   UNL     1     -11.253  10.737  67.128  1.00  0.00    -0.314 OA 
HETATM   18  H   UNL     1     -11.879  11.451  67.160  1.00  0.00     0.000 HD 
HETATM   19  C   UNL     1      -8.764  12.964  67.803  1.00  0.00    -0.188 C  
HETATM   20  C   UNL     1      -8.335  14.318  68.392  1.00  0.00    -0.164 C  
HETATM   21  C   UNL     1      -9.481  15.322  68.453  1.00  0.00    -0.206 C  
HETATM   22  C   UNL     1     -10.673  14.815  69.227  1.00  0.00    -0.263 C  
HETATM   23  C   UNL     1     -11.263  15.618  70.137  1.00  0.00    -0.346 C  
HETATM   24  C   UNL     1     -12.462  15.161  70.865  1.00  0.00    -0.365 C  
ENDROOT
BRANCH   4  25
HETATM   25  C   UNL     1      -9.193   9.475  65.801  1.00  0.00    -0.211 C  
HETATM   26  O   UNL     1      -9.628   8.374  66.107  1.00  0.00    -0.221 OA 
BRANCH  25  27
HETATM   27  O   UNL     1      -8.913   9.792  64.488  1.00  0.00    -0.207 OA 
HETATM   28  C   UNL     1      -8.380   8.690  63.745  1.00  0.00    -0.112 C  
HETATM   29 CL   UNL     1      -6.633   8.948  63.542  1.00  0.00    -0.089 Cl 
ENDBRANCH  25  27
ENDBRANCH   4  25
TORSDOF 2
ENDMDL
MODEL       40
REMARK 921   NORMALIZED FREE ENERGY PREDICTED BY IDOCK:   -5.50 KCAL/MOL
REMARK 922        TOTAL FREE ENERGY PREDICTED BY IDOCK:   -5.56 KCAL/MOL
REMARK 923 INTER-LIGAND FREE ENERGY PREDICTED BY IDOCK:   -5.99 KCAL/MOL
REMARK 924 INTRA-LIGAND FREE ENERGY PREDICTED BY IDOCK:    0.43 KCAL/MOL
REMARK 927      BINDING AFFINITY PREDICTED BY RF-SCORE:    0.00 PKD
ROOT
HETATM    1  C   UNL     1     -11.152  13.038  64.939  1.00  0.00    -0.326 C  
HETATM    2  C   UNL     1     -12.308  12.231  65.063  1.00  0.00    -0.326 C  
HETATM    3  C   UNL     1     -11.380  12.098  66.228  1.00  0.00    -0.411 C  
HETATM    4  C   UNL     1      -9.835  13.458  66.356  1.00  0.00    -0.296 C  
HETATM    5  C   UNL     1      -6.714  10.462  64.947  1.00  0.00    -0.049 C  
HETATM    6  C   UNL     1     -11.109  13.520  66.814  1.00  0.00    -0.311 C  
HETATM    7  O   UNL     1      -9.652  14.549  65.343  1.00  0.00    -0.525 OA 
HETATM    8  C   UNL     1     -12.057  14.632  67.200  1.00  0.00    -0.218 C  
HETATM    9  C   UNL     1     -10.296  12.247  68.012  1.00  0.00    -0.220 C  
HETATM   10  C   UNL     1      -8.116   9.837  64.990  1.00  0.00    -0.134 C  
HETATM   11  C   UNL     1      -8.092   8.594  65.897  1.00  0.00    -0.111 C  
HETATM   12  H   UNL     1      -8.941  15.176  65.403  1.00  0.00     0.000 HD 
HETATM   13  C   UNL     1      -7.933   7.337  65.459  1.00  0.00    -0.122 C  
HETATM   14  C   UNL     1      -9.039  11.321  67.154  1.00  0.00    -0.157 C  
HETATM   15  C   UNL     1      -9.244  10.804  65.553  1.00  0.00    -0.230 C  
HETATM   16  O   UNL     1      -7.019   6.162  63.636  1.00  0.00    -0.042 OA 
HETATM   17  O   UNL     1      -7.826  12.081  67.257  1.00  0.00    -0.154 OA 
HETATM   18  H   UNL     1      -7.156  11.587  66.799  1.00  0.00     0.000 HD 
HETATM   19  C   UNL     1      -9.758  11.952  64.454  1.00  0.00    -0.134 C  
HETATM   20  C   UNL     1     -10.108  11.254  63.128  1.00  0.00    -0.385 C  
HETATM   21  C   UNL     1      -8.950  10.432  62.573  1.00  0.00    -0.291 C  
HETATM   22  C   UNL     1      -8.440   9.396  63.544  1.00  0.00    -0.202 C  
HETATM   23  C   UNL     1      -8.213   8.138  63.112  1.00  0.00    -0.083 C  
HETATM   24  C   UNL     1      -7.663   7.123  64.032  1.00  0.00    -0.123 C  
ENDROOT
BRANCH   4  25
HETATM   25  C   UNL     1      -9.189  14.456  67.579  1.00  0.00    -0.200 C  
HETATM   26  O   UNL     1      -9.184  14.292  68.791  1.00  0.00    -0.185 OA 
BRANCH  25  27
HETATM   27  O   UNL     1      -8.757  15.639  67.017  1.00  0.00    -0.196 OA 
HETATM   28  C   UNL     1      -8.815  16.746  67.924  1.00  0.00    -0.218 C  
HETATM   29 CL   UNL     1     -10.211  17.754  67.482  1.00  0.00    -0.340 Cl 
ENDBRANCH  25  27
ENDBRANCH   4  25
TORSDOF 2
ENDMDL
MODEL       41
REMARK 921   NORMALIZED FREE ENERGY PREDICTED BY IDOCK:   -5.46 KCAL/MOL
REMARK 922        TOTAL FREE ENERGY PREDICTED BY IDOCK:   -5.52 KCAL/MOL
REMARK 923 INTER-LIGAND FREE ENERGY PREDICTED BY IDOCK:   -6.12 KCAL/MOL
REMARK 924 INTRA-LIGAND FREE ENERGY PREDICTED BY IDOCK:    0.60 KCAL/MOL
REMARK 927      BINDING AFFINITY PREDICTED BY RF-SCORE:    0.00 PKD
ROOT
HETATM    1  C   UNL     1     -11.211  10.651  68.570  1.00  0.00    -0.342 C  
HETATM    2  C   UNL     1     -10.566  10.436  69.812  1.00  0.00    -0.302 C  
HETATM    3  C   UNL     1      -9.753  11.267  68.872  1.00  0.00    -0.141 C  
HETATM    4  C   UNL     1     -10.694  11.951  67.169  1.00  0.00    -0.240 C  
HETATM    5  C   UNL     1      -8.649   8.900  64.483  1.00  0.00    -0.155 C  
HETATM    6  C   UNL     1     -10.614  12.486  68.411  1.00  0.00    -0.256 C  
HETATM    7  O   UNL     1     -12.136  11.651  66.885  1.00  0.00    -0.512 OA 
HETATM    8  C   UNL     1     -11.427  13.483  69.204  1.00  0.00    -0.345 C  
HETATM    9  C   UNL     1      -8.833  12.757  67.724  1.00  0.00    -0.187 C  
HETATM   10  C   UNL     1      -8.223   8.735  65.949  1.00  0.00    -0.118 C  
HETATM   11  C   UNL     1      -6.691   8.847  66.049  1.00  0.00    -0.069 C  
HETATM   12  H   UNL     1     -12.570  11.966  66.101  1.00  0.00     0.000 HD 
HETATM   13  C   UNL     1      -5.853   7.801  66.060  1.00  0.00    -0.037 C  
HETATM   14  C   UNL     1      -8.400  11.430  66.617  1.00  0.00    -0.172 C  
HETATM   15  C   UNL     1      -8.836   9.823  66.933  1.00  0.00    -0.150 C  
HETATM   16  O   UNL     1      -5.755   5.558  65.352  1.00  0.00    -0.016 OA 
HETATM   17  O   UNL     1      -8.879  11.806  65.318  1.00  0.00    -0.396 OA 
HETATM   18  H   UNL     1      -8.649  11.098  64.727  1.00  0.00     0.000 HD 
HETATM   19  C   UNL     1     -10.433   9.543  67.335  1.00  0.00    -0.336 C  
HETATM   20  C   UNL     1     -10.582   8.087  67.808  1.00  0.00    -0.239 C  
HETATM   21  C   UNL     1     -10.084   7.080  66.777  1.00  0.00    -0.270 C  
HETATM   22  C   UNL     1      -8.650   7.310  66.369  1.00  0.00    -0.141 C  
HETATM   23  C   UNL     1      -7.802   6.262  66.310  1.00  0.00    -0.104 C  
HETATM   24  C   UNL     1      -6.409   6.457  65.861  1.00  0.00    -0.039 C  
ENDROOT
BRANCH   4  25
HETATM   25  C   UNL     1     -10.826  13.451  66.368  1.00  0.00    -0.289 C  
HETATM   26  O   UNL     1     -10.066  14.409  66.388  1.00  0.00    -0.268 OA 
BRANCH  25  27
HETATM   27  O   UNL     1     -12.058  13.529  65.753  1.00  0.00    -0.382 OA 
HETATM   28  C   UNL     1     -11.967  13.798  64.349  1.00  0.00    -0.445 C  
HETATM   29 CL   UNL     1     -12.406  15.500  64.080  1.00  0.00    -0.172 Cl 
ENDBRANCH  25  27
ENDBRANCH   4  25
TORSDOF 2
ENDMDL
MODEL       42
REMARK 921   NORMALIZED FREE ENERGY PREDICTED BY IDOCK:   -5.37 KCAL/MOL
REMARK 922        TOTAL FREE ENERGY PREDICTED BY IDOCK:   -5.43 KCAL/MOL
REMARK 923 INTER-LIGAND FREE ENERGY PREDICTED BY IDOCK:   -6.03 KCAL/MOL
REMARK 924 INTRA-LIGAND FREE ENERGY PREDICTED BY IDOCK:    0.60 KCAL/MOL
REMARK 927      BINDING AFFINITY PREDICTED BY RF-SCORE:    0.00 PKD
ROOT
HETATM    1  C   UNL     1      -7.692   9.544  68.907  1.00  0.00    -0.076 C  
HETATM    2  C   UNL     1      -7.216   9.980  70.167  1.00  0.00    -0.167 C  
HETATM    3  C   UNL     1      -8.689   9.726  70.160  1.00  0.00    -0.215 C  
HETATM    4  C   UNL     1      -9.467   8.763  68.512  1.00  0.00    -0.145 C  
HETATM    5  C   UNL     1     -11.241  12.577  66.778  1.00  0.00    -0.347 C  
HETATM    6  C   UNL     1      -8.941   8.268  69.658  1.00  0.00    -0.149 C  
HETATM    7  O   UNL     1      -8.601   8.314  67.372  1.00  0.00    -0.123 OA 
HETATM    8  C   UNL     1      -8.323   6.954  70.076  1.00  0.00    -0.139 C  
HETATM    9  C   UNL     1     -10.638   8.968  70.246  1.00  0.00    -0.250 C  
HETATM   10  C   UNL     1     -10.501  12.848  68.096  1.00  0.00    -0.245 C  
HETATM   11  C   UNL     1     -11.465  13.515  69.094  1.00  0.00    -0.345 C  
HETATM   12  H   UNL     1      -8.959   7.870  66.613  1.00  0.00     0.000 HD 
HETATM   13  C   UNL     1     -11.560  14.837  69.289  1.00  0.00    -0.331 C  
HETATM   14  C   UNL     1     -11.077  10.395  69.274  1.00  0.00    -0.253 C  
HETATM   15  C   UNL     1      -9.926  11.545  68.801  1.00  0.00    -0.169 C  
HETATM   16  O   UNL     1     -11.146  16.863  68.165  1.00  0.00    -0.347 OA 
HETATM   17  O   UNL     1     -11.764   9.905  68.112  1.00  0.00    -0.557 OA 
HETATM   18  H   UNL     1     -11.998  10.666  67.594  1.00  0.00     0.000 HD 
HETATM   19  C   UNL     1      -8.526  10.962  68.101  1.00  0.00    -0.131 C  
HETATM   20  C   UNL     1      -7.519  12.117  67.958  1.00  0.00    -0.116 C  
HETATM   21  C   UNL     1      -8.084  13.295  67.173  1.00  0.00    -0.099 C  
HETATM   22  C   UNL     1      -9.363  13.840  67.760  1.00  0.00    -0.213 C  
HETATM   23  C   UNL     1      -9.509  15.173  67.909  1.00  0.00    -0.194 C  
HETATM   24  C   UNL     1     -10.772  15.729  68.430  1.00  0.00    -0.281 C  
ENDROOT
BRANCH   4  25
HETATM   25  C   UNL     1     -10.523   7.448  68.254  1.00  0.00    -0.189 C  
HETATM   26  O   UNL     1     -11.002   6.669  69.065  1.00  0.00    -0.265 OA 
BRANCH  25  27
HETATM   27  O   UNL     1     -10.683   7.255  66.898  1.00  0.00    -0.338 OA 
HETATM   28  C   UNL     1     -10.782   5.872  66.536  1.00  0.00    -0.181 C  
HETATM   29 CL   UNL     1      -9.238   5.377  65.806  1.00  0.00    -0.163 Cl 
ENDBRANCH  25  27
ENDBRANCH   4  25
TORSDOF 2
ENDMDL
MODEL       43
REMARK 921   NORMALIZED FREE ENERGY PREDICTED BY IDOCK:   -5.32 KCAL/MOL
REMARK 922        TOTAL FREE ENERGY PREDICTED BY IDOCK:   -5.37 KCAL/MOL
REMARK 923 INTER-LIGAND FREE ENERGY PREDICTED BY IDOCK:   -5.81 KCAL/MOL
REMARK 924 INTRA-LIGAND FREE ENERGY PREDICTED BY IDOCK:    0.44 KCAL/MOL
REMARK 927      BINDING AFFINITY PREDICTED BY RF-SCORE:    0.00 PKD
ROOT
HETATM    1  C   UNL     1      -9.993  16.967  65.392  1.00  0.00     0.149 C  
HETATM    2  C   UNL     1     -11.389  17.177  65.298  1.00  0.00     0.619 C  
HETATM    3  C   UNL     1     -10.884  17.253  66.703  1.00  0.00     0.049 C  
HETATM    4  C   UNL     1      -8.840  17.313  66.963  1.00  0.00    -0.228 C  
HETATM    5  C   UNL     1      -8.606  12.967  68.292  1.00  0.00    -0.167 C  
HETATM    6  C   UNL     1      -9.735  18.310  66.763  1.00  0.00    -0.322 C  
HETATM    7  O   UNL     1      -7.891  17.300  65.801  1.00  0.00    -0.495 OA 
HETATM    8  C   UNL     1      -9.664  19.729  66.249  1.00  0.00    -0.532 C  
HETATM    9  C   UNL     1     -10.108  17.771  68.577  1.00  0.00    -0.377 C  
HETATM   10  C   UNL     1     -10.047  13.377  67.957  1.00  0.00    -0.241 C  
HETATM   11  C   UNL     1     -10.947  13.122  69.179  1.00  0.00    -0.194 C  
HETATM   12  H   UNL     1      -6.950  17.328  65.921  1.00  0.00     0.000 HD 
HETATM   13  C   UNL     1     -11.682  12.017  69.364  1.00  0.00    -0.402 C  
HETATM   14  C   UNL     1      -9.802  16.027  68.768  1.00  0.00    -0.223 C  
HETATM   15  C   UNL     1     -10.216  14.908  67.564  1.00  0.00    -0.233 C  
HETATM   16  O   UNL     1     -11.739   9.756  68.711  1.00  0.00     0.185 OA 
HETATM   17  O   UNL     1      -8.411  15.886  69.090  1.00  0.00    -0.228 OA 
HETATM   18  H   UNL     1      -8.247  14.955  69.192  1.00  0.00     0.000 HD 
HETATM   19  C   UNL     1      -9.722  15.262  66.008  1.00  0.00    -0.367 C  
HETATM   20  C   UNL     1     -10.381  14.270  65.035  1.00  0.00    -0.448 C  
HETATM   21  C   UNL     1     -10.091  12.816  65.392  1.00  0.00    -0.274 C  
HETATM   22  C   UNL     1     -10.503  12.458  66.800  1.00  0.00    -0.242 C  
HETATM   23  C   UNL     1     -11.190  11.318  67.019  1.00  0.00    -0.324 C  
HETATM   24  C   UNL     1     -11.555  10.923  68.393  1.00  0.00    -0.276 C  
ENDROOT
BRANCH   4  25
HETATM   25  C   UNL     1      -7.753  18.268  67.867  1.00  0.00    -0.243 C  
HETATM   26  O   UNL     1      -7.915  18.810  68.951  1.00  0.00    -0.317 OA 
BRANCH  25  27
HETATM   27  O   UNL     1      -6.620  18.499  67.115  1.00  0.00    -0.191 OA 
HETATM   28  C   UNL     1      -5.924  19.689  67.503  1.00  0.00    -0.192 C  
HETATM   29 CL   UNL     1      -6.248  20.944  66.286  1.00  0.00    -0.292 Cl 
ENDBRANCH  25  27
ENDBRANCH   4  25
TORSDOF 2
ENDMDL
MODEL       44
REMARK 921   NORMALIZED FREE ENERGY PREDICTED BY IDOCK:   -5.29 KCAL/MOL
REMARK 922        TOTAL FREE ENERGY PREDICTED BY IDOCK:   -5.33 KCAL/MOL
REMARK 923 INTER-LIGAND FREE ENERGY PREDICTED BY IDOCK:   -5.85 KCAL/MOL
REMARK 924 INTRA-LIGAND FREE ENERGY PREDICTED BY IDOCK:    0.52 KCAL/MOL
REMARK 927      BINDING AFFINITY PREDICTED BY RF-SCORE:    0.00 PKD
ROOT
HETATM    1  C   UNL     1     -10.148   9.884  69.186  1.00  0.00    -0.210 C  
HETATM    2  C   UNL     1     -11.190   9.019  68.772  1.00  0.00     0.277 C  
HETATM    3  C   UNL     1     -10.097   9.137  67.759  1.00  0.00    -0.253 C  
HETATM    4  C   UNL     1      -8.362  10.079  68.356  1.00  0.00    -0.111 C  
HETATM    5  C   UNL     1      -9.345  13.913  66.112  1.00  0.00    -0.124 C  
HETATM    6  C   UNL     1      -8.740   8.780  68.446  1.00  0.00    -0.135 C  
HETATM    7  O   UNL     1      -8.185  10.607  69.748  1.00  0.00    -0.375 OA 
HETATM    8  C   UNL     1      -8.343   7.604  69.307  1.00  0.00    -0.134 C  
HETATM    9  C   UNL     1      -8.388   8.984  66.561  1.00  0.00    -0.115 C  
HETATM   10  C   UNL     1     -10.453  12.864  65.946  1.00  0.00    -0.294 C  
HETATM   11  C   UNL     1     -10.674  12.588  64.448  1.00  0.00    -0.379 C  
HETATM   12  H   UNL     1      -7.386  11.041  70.023  1.00  0.00     0.000 HD 
HETATM   13  C   UNL     1     -11.614  13.179  63.698  1.00  0.00    -0.445 C  
HETATM   14  C   UNL     1      -8.781  10.643  66.044  1.00  0.00    -0.177 C  
HETATM   15  C   UNL     1     -10.138  11.467  66.637  1.00  0.00    -0.242 C  
HETATM   16  O   UNL     1     -12.904  15.148  63.640  1.00  0.00    -0.473 OA 
HETATM   17  O   UNL     1      -7.606  11.434  66.274  1.00  0.00    -0.324 OA 
HETATM   18  H   UNL     1      -7.816  12.319  65.999  1.00  0.00     0.000 HD 
HETATM   19  C   UNL     1     -10.350  11.472  68.294  1.00  0.00    -0.211 C  
HETATM   20  C   UNL     1     -11.735  12.055  68.620  1.00  0.00    -0.380 C  
HETATM   21  C   UNL     1     -11.941  13.446  68.030  1.00  0.00    -0.357 C  
HETATM   22  C   UNL     1     -11.738  13.491  66.535  1.00  0.00    -0.408 C  
HETATM   23  C   UNL     1     -12.638  14.136  65.763  1.00  0.00    -0.475 C  
HETATM   24  C   UNL     1     -12.430  14.238  64.306  1.00  0.00    -0.272 C  
ENDROOT
BRANCH   4  25
HETATM   25  C   UNL     1      -6.694   9.741  68.249  1.00  0.00    -0.060 C  
HETATM   26  O   UNL     1      -6.101   9.000  67.477  1.00  0.00    -0.050 OA 
BRANCH  25  27
HETATM   27  O   UNL     1      -6.042  10.336  69.309  1.00  0.00    -0.037 OA 
HETATM   28  C   UNL     1      -5.127   9.456  69.971  1.00  0.00    -0.032 C  
HETATM   29 CL   UNL     1      -5.862   8.938  71.504  1.00  0.00    -0.052 Cl 
ENDBRANCH  25  27
ENDBRANCH   4  25
TORSDOF 2
ENDMDL
MODEL       45
REMARK 921   NORMALIZED FREE ENERGY PREDICTED BY IDOCK:   -5.23 KCAL/MOL
REMARK 922        TOTAL FREE ENERGY PREDICTED BY IDOCK:   -5.26 KCAL/MOL
REMARK 923 INTER-LIGAND FREE ENERGY PREDICTED BY IDOCK:   -5.71 KCAL/MOL
REMARK 924 INTRA-LIGAND FREE ENERGY PREDICTED BY IDOCK:    0.44 KCAL/MOL
REMARK 927      BINDING AFFINITY PREDICTED BY RF-SCORE:    0.00 PKD
ROOT
HETATM    1  C   UNL     1      -9.014   9.983  69.246  1.00  0.00    -0.186 C  
HETATM    2  C   UNL     1     -10.190  10.087  70.026  1.00  0.00    -0.306 C  
HETATM    3  C   UNL     1     -10.382   9.260  68.796  1.00  0.00    -0.231 C  
HETATM    4  C   UNL     1      -8.688   8.733  67.746  1.00  0.00    -0.136 C  
HETATM    5  C   UNL     1      -9.438  11.794  64.463  1.00  0.00     0.007 C  
HETATM    6  C   UNL     1      -9.309   8.125  68.785  1.00  0.00    -0.143 C  
HETATM    7  O   UNL     1      -7.316   9.139  68.198  1.00  0.00    -0.078 OA 
HETATM    8  C   UNL     1      -8.896   7.139  69.853  1.00  0.00    -0.142 C  
HETATM    9  C   UNL     1     -10.514   7.782  67.320  1.00  0.00    -0.392 C  
HETATM   10  C   UNL     1     -10.526  11.849  65.544  1.00  0.00    -0.309 C  
HETATM   11  C   UNL     1     -11.904  11.635  64.892  1.00  0.00    -0.018 C  
HETATM   12  H   UNL     1      -6.535   8.896  67.714  1.00  0.00     0.000 HD 
HETATM   13  C   UNL     1     -12.728  12.623  64.516  1.00  0.00    -0.439 C  
HETATM   14  C   UNL     1     -10.470   9.138  66.166  1.00  0.00     0.182 C  
HETATM   15  C   UNL     1     -10.373  10.749  66.682  1.00  0.00    -0.294 C  
HETATM   16  O   UNL     1     -12.659  14.892  63.890  1.00  0.00    -0.831 OA 
HETATM   17  O   UNL     1      -9.398   8.866  65.252  1.00  0.00    -0.421 OA 
HETATM   18  H   UNL     1      -9.375   9.590  64.636  1.00  0.00     0.000 HD 
HETATM   19  C   UNL     1      -9.194  11.107  67.810  1.00  0.00    -0.153 C  
HETATM   20  C   UNL     1      -9.410  12.541  68.323  1.00  0.00    -0.193 C  
HETATM   21  C   UNL     1      -9.433  13.570  67.198  1.00  0.00    -0.244 C  
HETATM   22  C   UNL     1     -10.472  13.273  66.144  1.00  0.00    -0.296 C  
HETATM   23  C   UNL     1     -11.272  14.266  65.703  1.00  0.00    -0.314 C  
HETATM   24  C   UNL     1     -12.257  14.009  64.635  1.00  0.00    -0.435 C  
ENDROOT
BRANCH   4  25
HETATM   25  C   UNL     1      -8.065   7.292  67.080  1.00  0.00    -0.114 C  
HETATM   26  O   UNL     1      -8.663   6.311  66.659  1.00  0.00    -0.119 OA 
BRANCH  25  27
HETATM   27  O   UNL     1      -6.692   7.290  67.207  1.00  0.00    -0.063 OA 
HETATM   28  C   UNL     1      -6.122   5.979  67.130  1.00  0.00    -0.022 C  
HETATM   29 CL   UNL     1      -5.663   5.474  68.772  1.00  0.00    -0.014 Cl 
ENDBRANCH  25  27
ENDBRANCH   4  25
TORSDOF 2
ENDMDL
MODEL       46
REMARK 921   NORMALIZED FREE ENERGY PREDICTED BY IDOCK:   -5.21 KCAL/MOL
REMARK 922        TOTAL FREE ENERGY PREDICTED BY IDOCK:   -5.25 KCAL/MOL
REMARK 923 INTER-LIGAND FREE ENERGY PREDICTED BY IDOCK:   -5.87 KCAL/MOL
REMARK 924 INTRA-LIGAND FREE ENERGY PREDICTED BY IDOCK:    0.62 KCAL/MOL
REMARK 927      BINDING AFFINITY PREDICTED BY RF-SCORE:    0.00 PKD
ROOT
HETATM    1  C   UNL     1      -7.445   7.705  70.891  1.00  0.00    -0.071 C  
HETATM    2  C   UNL     1      -6.761   8.938  71.013  1.00  0.00    -0.077 C  
HETATM    3  C   UNL     1      -8.245   9.086  71.114  1.00  0.00    -0.198 C  
HETATM    4  C   UNL     1      -9.349   7.354  71.302  1.00  0.00    -0.153 C  
HETATM    5  C   UNL     1     -10.750   7.453  66.974  1.00  0.00    -0.389 C  
HETATM    6  C   UNL     1      -8.764   8.136  72.241  1.00  0.00    -0.243 C  
HETATM    7  O   UNL     1      -8.702   6.002  71.355  1.00  0.00    -0.131 OA 
HETATM    8  C   UNL     1      -8.297   7.936  73.664  1.00  0.00    -0.282 C  
HETATM    9  C   UNL     1     -10.259   9.214  71.672  1.00  0.00    -0.372 C  
HETATM   10  C   UNL     1      -9.824   8.635  67.293  1.00  0.00    -0.256 C  
HETATM   11  C   UNL     1     -10.553   9.954  66.977  1.00  0.00    -0.272 C  
HETATM   12  H   UNL     1      -9.210   5.205  71.441  1.00  0.00     0.000 HD 
HETATM   13  C   UNL     1     -10.432  10.631  65.827  1.00  0.00    -0.235 C  
HETATM   14  C   UNL     1     -10.602   8.917  69.949  1.00  0.00    -0.221 C  
HETATM   15  C   UNL     1      -9.362   8.710  68.812  1.00  0.00    -0.142 C  
HETATM   16  O   UNL     1      -9.869  10.270  63.569  1.00  0.00    -0.275 OA 
HETATM   17  O   UNL     1     -11.488   7.789  69.895  1.00  0.00    -0.464 OA 
HETATM   18  H   UNL     1     -11.671   7.630  68.977  1.00  0.00     0.000 HD 
HETATM   19  C   UNL     1      -8.156   7.623  69.204  1.00  0.00    -0.125 C  
HETATM   20  C   UNL     1      -7.019   7.744  68.176  1.00  0.00    -0.079 C  
HETATM   21  C   UNL     1      -7.498   7.549  66.742  1.00  0.00    -0.093 C  
HETATM   22  C   UNL     1      -8.604   8.500  66.353  1.00  0.00    -0.136 C  
HETATM   23  C   UNL     1      -8.537   9.146  65.171  1.00  0.00    -0.200 C  
HETATM   24  C   UNL     1      -9.633  10.038  64.747  1.00  0.00    -0.308 C  
ENDROOT
BRANCH   4  25
HETATM   25  C   UNL     1     -10.607   6.815  72.319  1.00  0.00    -0.213 C  
HETATM   26  O   UNL     1     -11.235   7.432  73.168  1.00  0.00    -0.335 OA 
BRANCH  25  27
HETATM   27  O   UNL     1     -10.761   5.453  72.167  1.00  0.00    -0.221 OA 
HETATM   28  C   UNL     1     -11.685   4.885  73.102  1.00  0.00    -0.131 C  
HETATM   29 CL   UNL     1     -10.756   4.025  74.350  1.00  0.00    -0.248 Cl 
ENDBRANCH  25  27
ENDBRANCH   4  25
TORSDOF 2
ENDMDL
MODEL       47
REMARK 921   NORMALIZED FREE ENERGY PREDICTED BY IDOCK:   -5.21 KCAL/MOL
REMARK 922        TOTAL FREE ENERGY PREDICTED BY IDOCK:   -5.25 KCAL/MOL
REMARK 923 INTER-LIGAND FREE ENERGY PREDICTED BY IDOCK:   -6.42 KCAL/MOL
REMARK 924 INTRA-LIGAND FREE ENERGY PREDICTED BY IDOCK:    1.17 KCAL/MOL
REMARK 927      BINDING AFFINITY PREDICTED BY RF-SCORE:    0.00 PKD
ROOT
HETATM    1  C   UNL     1     -11.841  12.260  68.488  1.00  0.00    -0.359 C  
HETATM    2  C   UNL     1     -11.764  13.160  69.578  1.00  0.00    -0.382 C  
HETATM    3  C   UNL     1     -10.623  13.307  68.623  1.00  0.00    -0.264 C  
HETATM    4  C   UNL     1     -10.774  12.315  66.822  1.00  0.00    -0.240 C  
HETATM    5  C   UNL     1      -7.865   9.045  68.064  1.00  0.00    -0.101 C  
HETATM    6  C   UNL     1     -11.200  13.548  67.191  1.00  0.00    -0.324 C  
HETATM    7  O   UNL     1     -11.980  11.496  66.466  1.00  0.00    -0.386 OA 
HETATM    8  C   UNL     1     -12.247  14.515  66.693  1.00  0.00    -0.250 C  
HETATM    9  C   UNL     1      -9.289  13.780  67.082  1.00  0.00    -0.240 C  
HETATM   10  C   UNL     1      -8.078  10.067  69.190  1.00  0.00    -0.126 C  
HETATM   11  C   UNL     1      -6.719  10.661  69.602  1.00  0.00    -0.116 C  
HETATM   12  H   UNL     1     -12.049  11.040  65.635  1.00  0.00     0.000 HD 
HETATM   13  C   UNL     1      -5.977  10.220  70.627  1.00  0.00    -0.106 C  
HETATM   14  C   UNL     1      -8.465  12.265  67.530  1.00  0.00    -0.172 C  
HETATM   15  C   UNL     1      -9.020  11.285  68.796  1.00  0.00    -0.116 C  
HETATM   16  O   UNL     1      -5.638   8.272  71.904  1.00  0.00    -0.035 OA 
HETATM   17  O   UNL     1      -8.365  11.482  66.331  1.00  0.00    -0.219 OA 
HETATM   18  H   UNL     1      -7.926  10.674  66.570  1.00  0.00     0.000 HD 
HETATM   19  C   UNL     1     -10.647  10.905  68.794  1.00  0.00    -0.231 C  
HETATM   20  C   UNL     1     -11.002  10.218  70.123  1.00  0.00    -0.377 C  
HETATM   21  C   UNL     1     -10.145   8.987  70.396  1.00  0.00    -0.248 C  
HETATM   22  C   UNL     1      -8.664   9.282  70.386  1.00  0.00    -0.263 C  
HETATM   23  C   UNL     1      -7.885   8.795  71.374  1.00  0.00    -0.166 C  
HETATM   24  C   UNL     1      -6.427   9.026  71.353  1.00  0.00    -0.079 C  
ENDROOT
BRANCH   4  25
HETATM   25  C   UNL     1     -10.541  12.724  65.182  1.00  0.00    -0.302 C  
HETATM   26  O   UNL     1     -10.186  13.786  64.692  1.00  0.00    -0.412 OA 
BRANCH  25  27
HETATM   27  O   UNL     1     -10.967  11.678  64.390  1.00  0.00    -0.319 OA 
HETATM   28  C   UNL     1      -9.916  10.766  64.052  1.00  0.00    -0.342 C  
HETATM   29 CL   UNL     1      -9.450  11.056  62.361  1.00  0.00    -0.242 Cl 
ENDBRANCH  25  27
ENDBRANCH   4  25
TORSDOF 2
ENDMDL
MODEL       48
REMARK 921   NORMALIZED FREE ENERGY PREDICTED BY IDOCK:   -5.15 KCAL/MOL
REMARK 922        TOTAL FREE ENERGY PREDICTED BY IDOCK:   -5.18 KCAL/MOL
REMARK 923 INTER-LIGAND FREE ENERGY PREDICTED BY IDOCK:   -5.65 KCAL/MOL
REMARK 924 INTRA-LIGAND FREE ENERGY PREDICTED BY IDOCK:    0.47 KCAL/MOL
REMARK 927      BINDING AFFINITY PREDICTED BY RF-SCORE:    0.00 PKD
ROOT
HETATM    1  C   UNL     1     -10.841   7.283  70.729  1.00  0.00    -0.260 C  
HETATM    2  C   UNL     1     -12.108   6.857  70.264  1.00  0.00    -0.182 C  
HETATM    3  C   UNL     1     -11.058   6.822  69.200  1.00  0.00    -0.270 C  
HETATM    4  C   UNL     1      -9.103   7.080  69.804  1.00  0.00    -0.144 C  
HETATM    5  C   UNL     1      -8.913  11.367  68.293  1.00  0.00    -0.175 C  
HETATM    6  C   UNL     1      -9.860   5.959  69.712  1.00  0.00    -0.217 C  
HETATM    7  O   UNL     1      -8.737   7.275  71.246  1.00  0.00    -0.126 OA 
HETATM    8  C   UNL     1      -9.822   4.585  70.339  1.00  0.00    -0.302 C  
HETATM    9  C   UNL     1      -9.509   6.380  67.863  1.00  0.00    -0.115 C  
HETATM   10  C   UNL     1     -10.294  10.744  68.047  1.00  0.00    -0.211 C  
HETATM   11  C   UNL     1     -10.627  10.818  66.546  1.00  0.00    -0.279 C  
HETATM   12  H   UNL     1      -7.836   7.393  71.524  1.00  0.00     0.000 HD 
HETATM   13  C   UNL     1     -11.357  11.787  65.977  1.00  0.00    -0.335 C  
HETATM   14  C   UNL     1      -9.385   8.144  67.654  1.00  0.00    -0.140 C  
HETATM   15  C   UNL     1     -10.407   9.218  68.476  1.00  0.00    -0.237 C  
HETATM   16  O   UNL     1     -11.979  14.028  66.339  1.00  0.00    -0.396 OA 
HETATM   17  O   UNL     1      -8.018   8.495  67.917  1.00  0.00    -0.106 OA 
HETATM   18  H   UNL     1      -7.952   9.436  67.805  1.00  0.00     0.000 HD 
HETATM   19  C   UNL     1     -10.566   8.991  70.123  1.00  0.00    -0.250 C  
HETATM   20  C   UNL     1     -11.696   9.894  70.647  1.00  0.00    -0.404 C  
HETATM   21  C   UNL     1     -11.478  11.364  70.307  1.00  0.00    -0.244 C  
HETATM   22  C   UNL     1     -11.308  11.612  68.828  1.00  0.00    -0.324 C  
HETATM   23  C   UNL     1     -11.985  12.622  68.243  1.00  0.00    -0.271 C  
HETATM   24  C   UNL     1     -11.792  12.915  66.810  1.00  0.00    -0.385 C  
ENDROOT
BRANCH   4  25
HETATM   25  C   UNL     1      -7.623   6.283  69.514  1.00  0.00    -0.094 C  
HETATM   26  O   UNL     1      -7.211   5.762  68.487  1.00  0.00    -0.078 OA 
BRANCH  25  27
HETATM   27  O   UNL     1      -6.937   6.155  70.704  1.00  0.00    -0.060 OA 
HETATM   28  C   UNL     1      -5.936   5.132  70.667  1.00  0.00    -0.018 C  
HETATM   29 CL   UNL     1      -6.543   3.727  71.572  1.00  0.00    -0.025 Cl 
ENDBRANCH  25  27
ENDBRANCH   4  25
TORSDOF 2
ENDMDL
MODEL       49
REMARK 921   NORMALIZED FREE ENERGY PREDICTED BY IDOCK:   -5.10 KCAL/MOL
REMARK 922        TOTAL FREE ENERGY PREDICTED BY IDOCK:   -5.12 KCAL/MOL
REMARK 923 INTER-LIGAND FREE ENERGY PREDICTED BY IDOCK:   -5.68 KCAL/MOL
REMARK 924 INTRA-LIGAND FREE ENERGY PREDICTED BY IDOCK:    0.55 KCAL/MOL
REMARK 927      BINDING AFFINITY PREDICTED BY RF-SCORE:    0.00 PKD
ROOT
HETATM    1  C   UNL     1      -7.247   9.846  68.214  1.00  0.00    -0.078 C  
HETATM    2  C   UNL     1      -6.517   8.677  67.891  1.00  0.00    -0.057 C  
HETATM    3  C   UNL     1      -7.919   8.647  67.373  1.00  0.00    -0.102 C  
HETATM    4  C   UNL     1      -8.990  10.407  67.463  1.00  0.00    -0.135 C  
HETATM    5  C   UNL     1     -11.458   9.043  71.034  1.00  0.00    -0.358 C  
HETATM    6  C   UNL     1      -8.158   9.926  66.508  1.00  0.00    -0.117 C  
HETATM    7  O   UNL     1      -8.392  11.673  68.004  1.00  0.00    -0.134 OA 
HETATM    8  C   UNL     1      -7.346  10.533  65.388  1.00  0.00    -0.084 C  
HETATM    9  C   UNL     1      -9.715   8.806  66.310  1.00  0.00    -0.342 C  
HETATM   10  C   UNL     1     -10.445   7.972  70.607  1.00  0.00    -0.219 C  
HETATM   11  C   UNL     1     -11.190   6.661  70.297  1.00  0.00    -0.408 C  
HETATM   12  H   UNL     1      -8.886  12.483  68.045  1.00  0.00     0.000 HD 
HETATM   13  C   UNL     1     -11.350   5.654  71.168  1.00  0.00    -0.032 C  
HETATM   14  C   UNL     1     -10.501   8.571  67.891  1.00  0.00    -0.201 C  
HETATM   15  C   UNL     1      -9.604   8.348  69.312  1.00  0.00    -0.164 C  
HETATM   16  O   UNL     1     -11.401   5.266  73.489  1.00  0.00    -0.263 OA 
HETATM   17  O   UNL     1     -11.405   9.671  68.068  1.00  0.00    -0.525 OA 
HETATM   18  H   UNL     1     -11.824   9.546  68.912  1.00  0.00     0.000 HD 
HETATM   19  C   UNL     1      -8.372   9.438  69.602  1.00  0.00    -0.147 C  
HETATM   20  C   UNL     1      -7.535   8.943  70.794  1.00  0.00    -0.101 C  
HETATM   21  C   UNL     1      -8.375   8.708  72.044  1.00  0.00    -0.169 C  
HETATM   22  C   UNL     1      -9.515   7.744  71.821  1.00  0.00    -0.191 C  
HETATM   23  C   UNL     1      -9.735   6.760  72.717  1.00  0.00    -0.170 C  
HETATM   24  C   UNL     1     -10.876   5.840  72.545  1.00  0.00    -0.250 C  
ENDROOT
BRANCH   4  25
HETATM   25  C   UNL     1      -9.958  11.302  66.380  1.00  0.00    -0.215 C  
HETATM   26  O   UNL     1     -10.584  10.918  65.403  1.00  0.00    -0.246 OA 
BRANCH  25  27
HETATM   27  O   UNL     1      -9.838  12.645  66.669  1.00  0.00    -0.232 OA 
HETATM   28  C   UNL     1     -10.997  13.403  66.305  1.00  0.00    -0.288 C  
HETATM   29 CL   UNL     1     -10.625  14.312  64.823  1.00  0.00    -0.449 Cl 
ENDBRANCH  25  27
ENDBRANCH   4  25
TORSDOF 2
ENDMDL
MODEL       50
REMARK 921   NORMALIZED FREE ENERGY PREDICTED BY IDOCK:   -5.07 KCAL/MOL
REMARK 922        TOTAL FREE ENERGY PREDICTED BY IDOCK:   -5.09 KCAL/MOL
REMARK 923 INTER-LIGAND FREE ENERGY PREDICTED BY IDOCK:   -5.69 KCAL/MOL
REMARK 924 INTRA-LIGAND FREE ENERGY PREDICTED BY IDOCK:    0.60 KCAL/MOL
REMARK 927      BINDING AFFINITY PREDICTED BY RF-SCORE:    0.00 PKD
ROOT
HETATM    1  C   UNL     1     -11.284  12.106  68.310  1.00  0.00    -0.319 C  
HETATM    2  C   UNL     1     -11.063  13.099  69.294  1.00  0.00    -0.201 C  
HETATM    3  C   UNL     1      -9.821  12.345  68.942  1.00  0.00     0.105 C  
HETATM    4  C   UNL     1      -9.908  11.113  67.291  1.00  0.00    -0.175 C  
HETATM    5  C   UNL     1     -10.171   7.321  69.792  1.00  0.00    -0.214 C  
HETATM    6  C   UNL     1      -9.608  12.430  67.396  1.00  0.00    -0.184 C  
HETATM    7  O   UNL     1     -11.151  10.986  66.460  1.00  0.00    -0.226 OA 
HETATM    8  C   UNL     1      -9.621  13.612  66.456  1.00  0.00    -0.294 C  
HETATM    9  C   UNL     1      -8.044  11.582  68.141  1.00  0.00    -0.146 C  
HETATM   10  C   UNL     1     -10.099   8.574  70.675  1.00  0.00    -0.225 C  
HETATM   11  C   UNL     1      -8.898   8.457  71.630  1.00  0.00    -0.246 C  
HETATM   12  H   UNL     1     -11.191  10.419  65.699  1.00  0.00     0.000 HD 
HETATM   13  C   UNL     1      -8.972   8.007  72.891  1.00  0.00    -0.304 C  
HETATM   14  C   UNL     1      -8.502  10.064  68.952  1.00  0.00    -0.132 C  
HETATM   15  C   UNL     1      -9.922   9.932  69.868  1.00  0.00    -0.292 C  
HETATM   16  O   UNL     1     -10.324   6.633  74.242  1.00  0.00    -0.361 OA 
HETATM   17  O   UNL     1      -8.488   9.040  67.947  1.00  0.00    -0.120 OA 
HETATM   18  H   UNL     1      -8.733   8.231  68.379  1.00  0.00     0.000 HD 
HETATM   19  C   UNL     1     -11.330  10.480  69.155  1.00  0.00    -0.319 C  
HETATM   20  C   UNL     1     -12.451  10.496  70.207  1.00  0.00    -0.345 C  
HETATM   21  C   UNL     1     -12.656   9.138  70.869  1.00  0.00    -0.114 C  
HETATM   22  C   UNL     1     -11.401   8.595  71.509  1.00  0.00    -0.358 C  
HETATM   23  C   UNL     1     -11.463   8.080  72.754  1.00  0.00    -0.420 C  
HETATM   24  C   UNL     1     -10.259   7.495  73.376  1.00  0.00    -0.343 C  
ENDROOT
BRANCH   4  25
HETATM   25  C   UNL     1      -8.936  10.848  65.914  1.00  0.00    -0.192 C  
HETATM   26  O   UNL     1      -7.792  11.217  65.692  1.00  0.00     0.065 OA 
BRANCH  25  27
HETATM   27  O   UNL     1      -9.693  10.239  64.935  1.00  0.00    -0.273 OA 
HETATM   28  C   UNL     1      -9.092   9.044  64.424  1.00  0.00     0.131 C  
HETATM   29 CL   UNL     1      -8.415   9.405  62.819  1.00  0.00    -0.186 Cl 
ENDBRANCH  25  27
ENDBRANCH   4  25
TORSDOF 2
ENDMDL
MODEL       51
REMARK 921   NORMALIZED FREE ENERGY PREDICTED BY IDOCK:   -5.06 KCAL/MOL
REMARK 922        TOTAL FREE ENERGY PREDICTED BY IDOCK:   -5.08 KCAL/MOL
REMARK 923 INTER-LIGAND FREE ENERGY PREDICTED BY IDOCK:   -5.68 KCAL/MOL
REMARK 924 INTRA-LIGAND FREE ENERGY PREDICTED BY IDOCK:    0.60 KCAL/MOL
REMARK 927      BINDING AFFINITY PREDICTED BY RF-SCORE:    0.00 PKD
ROOT
HETATM    1  C   UNL     1     -10.646   5.237  69.982  1.00  0.00    -0.300 C  
HETATM    2  C   UNL     1      -9.636   4.302  70.312  1.00  0.00    -0.269 C  
HETATM    3  C   UNL     1      -9.196   5.719  70.493  1.00  0.00    -0.168 C  
HETATM    4  C   UNL     1     -10.653   7.174  70.386  1.00  0.00    -0.224 C  
HETATM    5  C   UNL     1      -9.419   8.491  66.210  1.00  0.00    -0.299 C  
HETATM    6  C   UNL     1     -10.212   6.440  71.436  1.00  0.00    -0.228 C  
HETATM    7  O   UNL     1     -12.096   6.837  70.158  1.00  0.00    -0.631 OA 
HETATM    8  C   UNL     1     -10.779   6.037  72.777  1.00  0.00    -0.269 C  
HETATM    9  C   UNL     1      -8.750   7.660  71.136  1.00  0.00    -0.138 C  
HETATM   10  C   UNL     1      -8.548   7.332  66.715  1.00  0.00    -0.127 C  
HETATM   11  C   UNL     1      -7.068   7.755  66.682  1.00  0.00    -0.079 C  
HETATM   12  H   UNL     1     -12.768   7.507  70.109  1.00  0.00     0.000 HD 
HETATM   13  C   UNL     1      -6.223   7.482  65.678  1.00  0.00    -0.038 C  
HETATM   14  C   UNL     1      -8.626   8.048  69.402  1.00  0.00    -0.136 C  
HETATM   15  C   UNL     1      -8.869   6.875  68.203  1.00  0.00    -0.125 C  
HETATM   16  O   UNL     1      -6.251   6.996  63.375  1.00  0.00    -0.042 OA 
HETATM   17  O   UNL     1      -9.505   9.158  69.166  1.00  0.00    -0.153 OA 
HETATM   18  H   UNL     1      -9.440   9.365  68.241  1.00  0.00     0.000 HD 
HETATM   19  C   UNL     1     -10.245   5.938  68.337  1.00  0.00    -0.236 C  
HETATM   20  C   UNL     1     -10.174   4.794  67.312  1.00  0.00    -0.157 C  
HETATM   21  C   UNL     1      -9.980   5.295  65.885  1.00  0.00    -0.103 C  
HETATM   22  C   UNL     1      -8.757   6.165  65.723  1.00  0.00    -0.151 C  
HETATM   23  C   UNL     1      -7.924   5.950  64.684  1.00  0.00    -0.123 C  
HETATM   24  C   UNL     1      -6.753   6.824  64.477  1.00  0.00    -0.042 C  
ENDROOT
BRANCH   4  25
HETATM   25  C   UNL     1     -11.096   8.527  71.327  1.00  0.00    -0.262 C  
HETATM   26  O   UNL     1     -10.808   8.792  72.485  1.00  0.00    -0.257 OA 
BRANCH  25  27
HETATM   27  O   UNL     1     -12.008   9.287  70.625  1.00  0.00    -0.253 OA 
HETATM   28  C   UNL     1     -11.926  10.684  70.931  1.00  0.00    -0.363 C  
HETATM   29 CL   UNL     1     -13.300  11.105  71.978  1.00  0.00    -0.506 Cl 
ENDBRANCH  25  27
ENDBRANCH   4  25
TORSDOF 2
ENDMDL
MODEL       52
REMARK 921   NORMALIZED FREE ENERGY PREDICTED BY IDOCK:   -5.06 KCAL/MOL
REMARK 922        TOTAL FREE ENERGY PREDICTED BY IDOCK:   -5.08 KCAL/MOL
REMARK 923 INTER-LIGAND FREE ENERGY PREDICTED BY IDOCK:   -5.58 KCAL/MOL
REMARK 924 INTRA-LIGAND FREE ENERGY PREDICTED BY IDOCK:    0.50 KCAL/MOL
REMARK 927      BINDING AFFINITY PREDICTED BY RF-SCORE:    0.00 PKD
ROOT
HETATM    1  C   UNL     1      -8.999   7.708  70.009  1.00  0.00    -0.143 C  
HETATM    2  C   UNL     1     -10.075   8.173  70.803  1.00  0.00    -0.211 C  
HETATM    3  C   UNL     1     -10.516   7.671  69.466  1.00  0.00    -0.227 C  
HETATM    4  C   UNL     1      -9.122   6.650  68.341  1.00  0.00    -0.124 C  
HETATM    5  C   UNL     1      -8.396  10.165  65.545  1.00  0.00    -0.160 C  
HETATM    6  C   UNL     1      -9.991   6.211  69.284  1.00  0.00    -0.196 C  
HETATM    7  O   UNL     1      -7.730   6.398  68.840  1.00  0.00    -0.104 OA 
HETATM    8  C   UNL     1     -10.070   5.007  70.193  1.00  0.00    -0.338 C  
HETATM    9  C   UNL     1     -11.151   6.589  67.790  1.00  0.00    -0.366 C  
HETATM   10  C   UNL     1      -9.427  10.511  66.628  1.00  0.00    -0.199 C  
HETATM   11  C   UNL     1     -10.737  10.966  65.959  1.00  0.00    -0.208 C  
HETATM   12  H   UNL     1      -7.088   5.926  68.322  1.00  0.00     0.000 HD 
HETATM   13  C   UNL     1     -11.071  12.245  65.736  1.00  0.00    -0.362 C  
HETATM   14  C   UNL     1     -10.502   7.954  66.847  1.00  0.00    -0.318 C  
HETATM   15  C   UNL     1      -9.792   9.300  67.592  1.00  0.00    -0.221 C  
HETATM   16  O   UNL     1     -10.060  14.351  65.448  1.00  0.00    -0.346 OA 
HETATM   17  O   UNL     1      -9.582   7.397  65.897  1.00  0.00    -0.407 OA 
HETATM   18  H   UNL     1      -9.235   8.125  65.394  1.00  0.00     0.000 HD 
HETATM   19  C   UNL     1      -8.632   8.991  68.754  1.00  0.00    -0.132 C  
HETATM   20  C   UNL     1      -8.280  10.305  69.472  1.00  0.00    -0.165 C  
HETATM   21  C   UNL     1      -7.826  11.397  68.510  1.00  0.00    -0.140 C  
HETATM   22  C   UNL     1      -8.837  11.694  67.430  1.00  0.00    -0.160 C  
HETATM   23  C   UNL     1      -9.143  12.976  67.143  1.00  0.00    -0.225 C  
HETATM   24  C   UNL     1     -10.089  13.289  66.054  1.00  0.00    -0.299 C  
ENDROOT
BRANCH   4  25
HETATM   25  C   UNL     1      -9.098   5.184  67.468  1.00  0.00    -0.114 C  
HETATM   26  O   UNL     1     -10.029   4.546  66.999  1.00  0.00    -0.204 OA 
BRANCH  25  27
HETATM   27  O   UNL     1      -7.815   4.678  67.469  1.00  0.00    -0.089 OA 
HETATM   28  C   UNL     1      -7.736   3.347  66.945  1.00  0.00    -0.080 C  
HETATM   29 CL   UNL     1      -7.525   2.225  68.308  1.00  0.00    -0.047 Cl 
ENDBRANCH  25  27
ENDBRANCH   4  25
TORSDOF 2
ENDMDL
MODEL       53
REMARK 921   NORMALIZED FREE ENERGY PREDICTED BY IDOCK:   -5.02 KCAL/MOL
REMARK 922        TOTAL FREE ENERGY PREDICTED BY IDOCK:   -5.04 KCAL/MOL
REMARK 923 INTER-LIGAND FREE ENERGY PREDICTED BY IDOCK:   -5.48 KCAL/MOL
REMARK 924 INTRA-LIGAND FREE ENERGY PREDICTED BY IDOCK:    0.45 KCAL/MOL
REMARK 927      BINDING AFFINITY PREDICTED BY RF-SCORE:    0.00 PKD
ROOT
HETATM    1  C   UNL     1      -7.324   8.646  66.990  1.00  0.00    -0.080 C  
HETATM    2  C   UNL     1      -6.169   9.246  66.432  1.00  0.00    -0.065 C  
HETATM    3  C   UNL     1      -6.661   9.959  67.651  1.00  0.00    -0.073 C  
HETATM    4  C   UNL     1      -8.116   9.014  68.767  1.00  0.00    -0.105 C  
HETATM    5  C   UNL     1     -11.443  11.699  67.210  1.00  0.00    -0.350 C  
HETATM    6  C   UNL     1      -6.764   8.930  68.822  1.00  0.00    -0.054 C  
HETATM    7  O   UNL     1      -8.649   7.663  68.393  1.00  0.00    -0.125 OA 
HETATM    8  C   UNL     1      -5.773   7.915  69.342  1.00  0.00    -0.027 C  
HETATM    9  C   UNL     1      -7.106  10.676  69.566  1.00  0.00    -0.127 C  
HETATM   10  C   UNL     1     -10.088  12.062  66.586  1.00  0.00    -0.220 C  
HETATM   11  C   UNL     1      -9.780  13.544  66.865  1.00  0.00    -0.261 C  
HETATM   12  H   UNL     1      -9.319   7.228  68.908  1.00  0.00     0.000 HD 
HETATM   13  C   UNL     1     -10.038  14.546  66.013  1.00  0.00    -0.336 C  
HETATM   14  C   UNL     1      -8.548  11.391  68.804  1.00  0.00    -0.083 C  
HETATM   15  C   UNL     1      -8.864  11.218  67.148  1.00  0.00    -0.153 C  
HETATM   16  O   UNL     1     -11.467  15.065  64.215  1.00  0.00    -0.255 OA 
HETATM   17  O   UNL     1      -9.681  10.930  69.554  1.00  0.00    -0.425 OA 
HETATM   18  H   UNL     1     -10.450  11.311  69.148  1.00  0.00     0.000 HD 
HETATM   19  C   UNL     1      -8.769   9.671  66.523  1.00  0.00    -0.147 C  
HETATM   20  C   UNL     1      -8.853   9.745  64.989  1.00  0.00    -0.224 C  
HETATM   21  C   UNL     1     -10.106  10.465  64.503  1.00  0.00    -0.365 C  
HETATM   22  C   UNL     1     -10.242  11.861  65.061  1.00  0.00    -0.316 C  
HETATM   23  C   UNL     1     -10.564  12.877  64.234  1.00  0.00    -0.430 C  
HETATM   24  C   UNL     1     -10.755  14.239  64.769  1.00  0.00    -0.416 C  
ENDROOT
BRANCH   4  25
HETATM   25  C   UNL     1      -8.353   8.675  70.421  1.00  0.00    -0.130 C  
HETATM   26  O   UNL     1      -7.873   9.225  71.402  1.00  0.00    -0.335 OA 
BRANCH  25  27
HETATM   27  O   UNL     1      -9.103   7.524  70.544  1.00  0.00    -0.154 OA 
HETATM   28  C   UNL     1      -8.689   6.699  71.640  1.00  0.00    -0.130 C  
HETATM   29 CL   UNL     1      -7.788   5.314  70.984  1.00  0.00    -0.099 Cl 
ENDBRANCH  25  27
ENDBRANCH   4  25
TORSDOF 2
ENDMDL
MODEL       54
REMARK 921   NORMALIZED FREE ENERGY PREDICTED BY IDOCK:   -4.95 KCAL/MOL
REMARK 922        TOTAL FREE ENERGY PREDICTED BY IDOCK:   -4.96 KCAL/MOL
REMARK 923 INTER-LIGAND FREE ENERGY PREDICTED BY IDOCK:   -5.51 KCAL/MOL
REMARK 924 INTRA-LIGAND FREE ENERGY PREDICTED BY IDOCK:    0.55 KCAL/MOL
REMARK 927      BINDING AFFINITY PREDICTED BY RF-SCORE:    0.00 PKD
ROOT
HETATM    1  C   UNL     1      -7.421   8.741  69.581  1.00  0.00    -0.071 C  
HETATM    2  C   UNL     1      -7.429   9.474  70.792  1.00  0.00    -0.099 C  
HETATM    3  C   UNL     1      -8.785   8.979  70.405  1.00  0.00    -0.224 C  
HETATM    4  C   UNL     1      -8.880   7.613  68.862  1.00  0.00    -0.135 C  
HETATM    5  C   UNL     1     -10.367  10.693  65.861  1.00  0.00    -0.291 C  
HETATM    6  C   UNL     1      -8.710   7.432  70.194  1.00  0.00    -0.143 C  
HETATM    7  O   UNL     1      -7.648   7.117  68.165  1.00  0.00    -0.109 OA 
HETATM    8  C   UNL     1      -8.133   6.339  71.064  1.00  0.00    -0.121 C  
HETATM    9  C   UNL     1     -10.568   7.933  70.075  1.00  0.00    -0.242 C  
HETATM   10  C   UNL     1     -10.130  11.321  67.242  1.00  0.00    -0.214 C  
HETATM   11  C   UNL     1     -11.429  11.987  67.729  1.00  0.00    -0.394 C  
HETATM   12  H   UNL     1      -7.692   6.487  67.455  1.00  0.00     0.000 HD 
HETATM   13  C   UNL     1     -11.718  13.287  67.582  1.00  0.00    -0.408 C  
HETATM   14  C   UNL     1     -10.808   9.063  68.719  1.00  0.00    -0.030 C  
HETATM   15  C   UNL     1      -9.688  10.284  68.363  1.00  0.00    -0.165 C  
HETATM   16  O   UNL     1     -11.166  15.114  66.203  1.00  0.00    -0.336 OA 
HETATM   17  O   UNL     1     -11.024   8.261  67.549  1.00  0.00    -0.500 OA 
HETATM   18  H   UNL     1     -11.152   8.864  66.825  1.00  0.00     0.000 HD 
HETATM   19  C   UNL     1      -8.084   9.827  68.263  1.00  0.00    -0.104 C  
HETATM   20  C   UNL     1      -7.209  11.089  68.169  1.00  0.00    -0.083 C  
HETATM   21  C   UNL     1      -7.603  11.991  67.005  1.00  0.00    -0.111 C  
HETATM   22  C   UNL     1      -9.052  12.412  67.045  1.00  0.00    -0.207 C  
HETATM   23  C   UNL     1      -9.373  13.705  66.837  1.00  0.00    -0.261 C  
HETATM   24  C   UNL     1     -10.787  14.127  66.818  1.00  0.00    -0.296 C  
ENDROOT
BRANCH   4  25
HETATM   25  C   UNL     1      -9.655   6.115  68.607  1.00  0.00    -0.127 C  
HETATM   26  O   UNL     1     -10.698   5.691  69.084  1.00  0.00    -0.276 OA 
BRANCH  25  27
HETATM   27  O   UNL     1      -8.837   5.306  67.846  1.00  0.00    -0.106 OA 
HETATM   28  C   UNL     1      -9.562   4.338  67.079  1.00  0.00    -0.203 C  
HETATM   29 CL   UNL     1      -9.374   2.754  67.863  1.00  0.00    -0.256 Cl 
ENDBRANCH  25  27
ENDBRANCH   4  25
TORSDOF 2
ENDMDL
MODEL       55
REMARK 921   NORMALIZED FREE ENERGY PREDICTED BY IDOCK:   -4.90 KCAL/MOL
REMARK 922        TOTAL FREE ENERGY PREDICTED BY IDOCK:   -4.90 KCAL/MOL
REMARK 923 INTER-LIGAND FREE ENERGY PREDICTED BY IDOCK:   -5.49 KCAL/MOL
REMARK 924 INTRA-LIGAND FREE ENERGY PREDICTED BY IDOCK:    0.60 KCAL/MOL
REMARK 927      BINDING AFFINITY PREDICTED BY RF-SCORE:    0.00 PKD
ROOT
HETATM    1  C   UNL     1      -8.523   8.801  69.650  1.00  0.00    -0.129 C  
HETATM    2  C   UNL     1      -7.623   9.545  70.450  1.00  0.00    -0.169 C  
HETATM    3  C   UNL     1      -8.706   8.894  71.248  1.00  0.00    -0.279 C  
HETATM    4  C   UNL     1      -9.882   7.506  70.278  1.00  0.00    -0.183 C  
HETATM    5  C   UNL     1     -13.407  10.355  69.889  1.00  0.00     0.758 C  
HETATM    6  C   UNL     1      -8.705   7.364  70.935  1.00  0.00    -0.144 C  
HETATM    7  O   UNL     1      -9.657   7.142  68.840  1.00  0.00    -0.142 OA 
HETATM    8  C   UNL     1      -7.580   6.356  70.916  1.00  0.00    -0.093 C  
HETATM    9  C   UNL     1      -9.956   7.649  72.375  1.00  0.00    -0.256 C  
HETATM   10  C   UNL     1     -12.216  11.025  70.589  1.00  0.00    -0.481 C  
HETATM   11  C   UNL     1     -12.662  11.546  71.967  1.00  0.00    -0.103 C  
HETATM   12  H   UNL     1     -10.198   6.502  68.393  1.00  0.00     0.000 HD 
HETATM   13  C   UNL     1     -13.056  12.804  72.212  1.00  0.00    -0.400 C  
HETATM   14  C   UNL     1     -11.269   8.726  71.835  1.00  0.00    -0.368 C  
HETATM   15  C   UNL     1     -10.977  10.061  70.833  1.00  0.00    -0.337 C  
HETATM   16  O   UNL     1     -13.968  14.662  71.090  1.00  0.00    -0.367 OA 
HETATM   17  O   UNL     1     -12.266   7.888  71.232  1.00  0.00    -0.305 OA 
HETATM   18  H   UNL     1     -12.966   8.462  70.945  1.00  0.00     0.000 HD 
HETATM   19  C   UNL     1     -10.057   9.787  69.466  1.00  0.00    -0.233 C  
HETATM   20  C   UNL     1      -9.707  11.138  68.819  1.00  0.00    -0.194 C  
HETATM   21  C   UNL     1     -10.941  11.974  68.500  1.00  0.00    -0.280 C  
HETATM   22  C   UNL     1     -11.813  12.228  69.705  1.00  0.00    -0.388 C  
HETATM   23  C   UNL     1     -12.274  13.474  69.938  1.00  0.00    -0.356 C  
HETATM   24  C   UNL     1     -13.172  13.733  71.081  1.00  0.00    -0.207 C  
ENDROOT
BRANCH   4  25
HETATM   25  C   UNL     1     -10.431   5.926  70.614  1.00  0.00    -0.253 C  
HETATM   26  O   UNL     1     -10.594   5.376  71.694  1.00  0.00    -0.227 OA 
BRANCH  25  27
HETATM   27  O   UNL     1     -10.549   5.226  69.432  1.00  0.00    -0.252 OA 
HETATM   28  C   UNL     1      -9.905   3.947  69.469  1.00  0.00    -0.010 C  
HETATM   29 CL   UNL     1      -8.391   4.059  68.544  1.00  0.00    -0.092 Cl 
ENDBRANCH  25  27
ENDBRANCH   4  25
TORSDOF 2
ENDMDL
MODEL       56
REMARK 921   NORMALIZED FREE ENERGY PREDICTED BY IDOCK:   -4.85 KCAL/MOL
REMARK 922        TOTAL FREE ENERGY PREDICTED BY IDOCK:   -4.84 KCAL/MOL
REMARK 923 INTER-LIGAND FREE ENERGY PREDICTED BY IDOCK:   -5.51 KCAL/MOL
REMARK 924 INTRA-LIGAND FREE ENERGY PREDICTED BY IDOCK:    0.67 KCAL/MOL
REMARK 927      BINDING AFFINITY PREDICTED BY RF-SCORE:    0.00 PKD
ROOT
HETATM    1  C   UNL     1     -10.250   5.702  69.615  1.00  0.00    -0.321 C  
HETATM    2  C   UNL     1      -9.137   4.829  69.562  1.00  0.00    -0.152 C  
HETATM    3  C   UNL     1      -8.861   6.073  70.342  1.00  0.00    -0.148 C  
HETATM    4  C   UNL     1     -10.475   7.273  70.797  1.00  0.00    -0.212 C  
HETATM    5  C   UNL     1      -9.428  10.358  67.621  1.00  0.00    -0.165 C  
HETATM    6  C   UNL     1      -9.946   6.214  71.457  1.00  0.00    -0.211 C  
HETATM    7  O   UNL     1     -11.872   6.913  70.387  1.00  0.00    -0.469 OA 
HETATM    8  C   UNL     1     -10.454   5.224  72.478  1.00  0.00    -0.266 C  
HETATM    9  C   UNL     1      -8.634   7.595  71.762  1.00  0.00    -0.130 C  
HETATM   10  C   UNL     1      -8.427   9.194  67.628  1.00  0.00    -0.116 C  
HETATM   11  C   UNL     1      -7.005   9.746  67.838  1.00  0.00    -0.078 C  
HETATM   12  H   UNL     1     -12.616   7.466  70.597  1.00  0.00     0.000 HD 
HETATM   13  C   UNL     1      -6.141  10.015  66.850  1.00  0.00    -0.056 C  
HETATM   14  C   UNL     1      -8.568   8.692  70.360  1.00  0.00    -0.153 C  
HETATM   15  C   UNL     1      -8.684   8.119  68.769  1.00  0.00    -0.138 C  
HETATM   16  O   UNL     1      -6.130  10.551  64.557  1.00  0.00    -0.116 OA 
HETATM   17  O   UNL     1      -9.569   9.697  70.577  1.00  0.00    -0.258 OA 
HETATM   18  H   UNL     1      -9.534  10.282  69.829  1.00  0.00     0.000 HD 
HETATM   19  C   UNL     1      -9.943   7.072  68.437  1.00  0.00    -0.160 C  
HETATM   20  C   UNL     1      -9.748   6.485  67.029  1.00  0.00    -0.188 C  
HETATM   21  C   UNL     1      -9.623   7.561  65.956  1.00  0.00     0.042 C  
HETATM   22  C   UNL     1      -8.508   8.542  66.228  1.00  0.00    -0.130 C  
HETATM   23  C   UNL     1      -7.663   8.878  65.231  1.00  0.00    -0.100 C  
HETATM   24  C   UNL     1      -6.601   9.876  65.462  1.00  0.00    -0.092 C  
ENDROOT
BRANCH   4  25
HETATM   25  C   UNL     1     -11.063   8.044  72.201  1.00  0.00    -0.311 C  
HETATM   26  O   UNL     1     -10.943   7.716  73.373  1.00  0.00    -0.371 OA 
BRANCH  25  27
HETATM   27  O   UNL     1     -11.879   9.093  71.833  1.00  0.00    -0.354 OA 
HETATM   28  C   UNL     1     -13.108   9.132  72.567  1.00  0.00    -0.377 C  
HETATM   29 CL   UNL     1     -14.409   8.547  71.506  1.00  0.00    -0.480 Cl 
ENDBRANCH  25  27
ENDBRANCH   4  25
TORSDOF 2
ENDMDL
MODEL       57
REMARK 921   NORMALIZED FREE ENERGY PREDICTED BY IDOCK:   -4.85 KCAL/MOL
REMARK 922        TOTAL FREE ENERGY PREDICTED BY IDOCK:   -4.84 KCAL/MOL
REMARK 923 INTER-LIGAND FREE ENERGY PREDICTED BY IDOCK:   -5.40 KCAL/MOL
REMARK 924 INTRA-LIGAND FREE ENERGY PREDICTED BY IDOCK:    0.56 KCAL/MOL
REMARK 927      BINDING AFFINITY PREDICTED BY RF-SCORE:    0.00 PKD
ROOT
HETATM    1  C   UNL     1     -11.494   8.224  71.030  1.00  0.00    -0.303 C  
HETATM    2  C   UNL     1     -11.548   8.821  72.313  1.00  0.00    -0.391 C  
HETATM    3  C   UNL     1     -10.218   8.989  71.651  1.00  0.00    -0.418 C  
HETATM    4  C   UNL     1     -10.092   8.482  69.657  1.00  0.00    -0.202 C  
HETATM    5  C   UNL     1      -7.932   4.569  70.506  1.00  0.00    -0.057 C  
HETATM    6  C   UNL     1     -10.437   9.649  70.252  1.00  0.00    -0.338 C  
HETATM    7  O   UNL     1     -11.279   7.984  68.888  1.00  0.00    -0.396 OA 
HETATM    8  C   UNL     1     -11.229  10.869  69.843  1.00  0.00    -0.355 C  
HETATM    9  C   UNL     1      -8.534   9.573  70.554  1.00  0.00    -0.213 C  
HETATM   10  C   UNL     1      -8.260   5.323  71.802  1.00  0.00    -0.118 C  
HETATM   11  C   UNL     1      -6.963   5.567  72.593  1.00  0.00    -0.083 C  
HETATM   12  H   UNL     1     -11.221   7.751  67.969  1.00  0.00     0.000 HD 
HETATM   13  C   UNL     1      -6.518   4.781  73.584  1.00  0.00    -0.060 C  
HETATM   14  C   UNL     1      -8.013   7.879  70.732  1.00  0.00    -0.100 C  
HETATM   15  C   UNL     1      -8.943   6.741  71.576  1.00  0.00    -0.137 C  
HETATM   16  O   UNL     1      -6.699   2.561  74.348  1.00  0.00    -0.027 OA 
HETATM   17  O   UNL     1      -7.749   7.389  69.409  1.00  0.00    -0.101 OA 
HETATM   18  H   UNL     1      -7.472   6.485  69.504  1.00  0.00     0.000 HD 
HETATM   19  C   UNL     1     -10.564   6.653  71.182  1.00  0.00    -0.263 C  
HETATM   20  C   UNL     1     -11.278   5.747  72.199  1.00  0.00    -0.327 C  
HETATM   21  C   UNL     1     -10.653   4.359  72.291  1.00  0.00    -0.141 C  
HETATM   22  C   UNL     1      -9.181   4.393  72.626  1.00  0.00    -0.146 C  
HETATM   23  C   UNL     1      -8.699   3.567  73.576  1.00  0.00    -0.082 C  
HETATM   24  C   UNL     1      -7.255   3.546  73.880  1.00  0.00    -0.052 C  
ENDROOT
BRANCH   4  25
HETATM   25  C   UNL     1      -9.461   9.213  68.251  1.00  0.00    -0.142 C  
HETATM   26  O   UNL     1      -8.590  10.065  68.145  1.00  0.00    -0.117 OA 
BRANCH  25  27
HETATM   27  O   UNL     1     -10.200   8.808  67.159  1.00  0.00    -0.227 OA 
HETATM   28  C   UNL     1      -9.455   8.834  65.936  1.00  0.00    -0.208 C  
HETATM   29 CL   UNL     1      -9.977  10.250  64.996  1.00  0.00    -0.393 Cl 
ENDBRANCH  25  27
ENDBRANCH   4  25
TORSDOF 2
ENDMDL
MODEL       58
REMARK 921   NORMALIZED FREE ENERGY PREDICTED BY IDOCK:   -4.79 KCAL/MOL
REMARK 922        TOTAL FREE ENERGY PREDICTED BY IDOCK:   -4.78 KCAL/MOL
REMARK 923 INTER-LIGAND FREE ENERGY PREDICTED BY IDOCK:   -5.32 KCAL/MOL
REMARK 924 INTRA-LIGAND FREE ENERGY PREDICTED BY IDOCK:    0.54 KCAL/MOL
REMARK 927      BINDING AFFINITY PREDICTED BY RF-SCORE:    0.00 PKD
ROOT
HETATM    1  C   UNL     1      -7.494  15.158  68.951  1.00  0.00    -0.143 C  
HETATM    2  C   UNL     1      -6.561  15.654  68.008  1.00  0.00    -0.152 C  
HETATM    3  C   UNL     1      -7.901  15.378  67.407  1.00  0.00    -0.215 C  
HETATM    4  C   UNL     1      -9.451  14.985  68.709  1.00  0.00    -0.210 C  
HETATM    5  C   UNL     1      -9.388  10.514  67.869  1.00  0.00    -0.150 C  
HETATM    6  C   UNL     1      -8.982  16.159  68.220  1.00  0.00    -0.189 C  
HETATM    7  O   UNL     1      -9.258  14.993  70.197  1.00  0.00    -0.397 OA 
HETATM    8  C   UNL     1      -9.044  17.604  68.657  1.00  0.00    -0.261 C  
HETATM    9  C   UNL     1      -9.867  15.391  66.689  1.00  0.00    -0.269 C  
HETATM   10  C   UNL     1      -8.309  11.253  67.066  1.00  0.00    -0.153 C  
HETATM   11  C   UNL     1      -8.505  10.969  65.566  1.00  0.00    -0.069 C  
HETATM   12  H   UNL     1      -9.972  14.812  70.797  1.00  0.00     0.000 HD 
HETATM   13  C   UNL     1      -7.856  10.016  64.882  1.00  0.00    -0.141 C  
HETATM   14  C   UNL     1      -9.742  13.615  66.740  1.00  0.00    -0.275 C  
HETATM   15  C   UNL     1      -8.327  12.832  67.247  1.00  0.00    -0.187 C  
HETATM   16  O   UNL     1      -6.762   7.963  65.243  1.00  0.00    -0.050 OA 
HETATM   17  O   UNL     1     -10.850  13.148  67.523  1.00  0.00    -0.248 OA 
HETATM   18  H   UNL     1     -10.783  12.200  67.551  1.00  0.00     0.000 HD 
HETATM   19  C   UNL     1      -7.654  13.353  68.685  1.00  0.00    -0.101 C  
HETATM   20  C   UNL     1      -6.273  12.698  68.857  1.00  0.00    -0.081 C  
HETATM   21  C   UNL     1      -6.330  11.177  68.790  1.00  0.00    -0.046 C  
HETATM   22  C   UNL     1      -6.952  10.663  67.513  1.00  0.00    -0.083 C  
HETATM   23  C   UNL     1      -6.350   9.661  66.840  1.00  0.00    -0.066 C  
HETATM   24  C   UNL     1      -6.969   9.108  65.620  1.00  0.00    -0.081 C  
ENDROOT
BRANCH   4  25
HETATM   25  C   UNL     1     -11.056  15.531  68.893  1.00  0.00    -0.282 C  
HETATM   26  O   UNL     1     -11.620  16.475  68.357  1.00  0.00    -0.231 OA 
BRANCH  25  27
HETATM   27  O   UNL     1     -11.664  14.817  69.904  1.00  0.00    -0.272 OA 
HETATM   28  C   UNL     1     -12.723  15.540  70.544  1.00  0.00    -0.388 C  
HETATM   29 CL   UNL     1     -12.135  16.103  72.125  1.00  0.00    -0.583 Cl 
ENDBRANCH  25  27
ENDBRANCH   4  25
TORSDOF 2
ENDMDL
MODEL       59
REMARK 921   NORMALIZED FREE ENERGY PREDICTED BY IDOCK:   -4.79 KCAL/MOL
REMARK 922        TOTAL FREE ENERGY PREDICTED BY IDOCK:   -4.77 KCAL/MOL
REMARK 923 INTER-LIGAND FREE ENERGY PREDICTED BY IDOCK:   -5.34 KCAL/MOL
REMARK 924 INTRA-LIGAND FREE ENERGY PREDICTED BY IDOCK:    0.57 KCAL/MOL
REMARK 927      BINDING AFFINITY PREDICTED BY RF-SCORE:    0.00 PKD
ROOT
HETATM    1  C   UNL     1      -6.984  13.032  68.024  1.00  0.00    -0.112 C  
HETATM    2  C   UNL     1      -6.732  13.324  69.386  1.00  0.00    -0.032 C  
HETATM    3  C   UNL     1      -8.191  13.213  69.076  1.00  0.00     0.360 C  
HETATM    4  C   UNL     1      -8.702  12.457  67.227  1.00  0.00    -0.191 C  
HETATM    5  C   UNL     1      -9.790  16.545  65.551  1.00  0.00    -0.059 C  
HETATM    6  C   UNL     1      -8.453  11.829  68.402  1.00  0.00    -0.155 C  
HETATM    7  O   UNL     1      -7.666  12.016  66.236  1.00  0.00    -0.366 OA 
HETATM    8  C   UNL     1      -8.036  10.434  68.804  1.00  0.00    -0.125 C  
HETATM    9  C   UNL     1     -10.172  12.642  68.719  1.00  0.00    -0.094 C  
HETATM   10  C   UNL     1      -9.306  16.643  67.005  1.00  0.00    -0.236 C  
HETATM   11  C   UNL     1     -10.392  17.321  67.860  1.00  0.00    -0.360 C  
HETATM   12  H   UNL     1      -7.902  11.667  65.385  1.00  0.00     0.000 HD 
HETATM   13  C   UNL     1     -10.420  18.627  68.156  1.00  0.00    -0.361 C  
HETATM   14  C   UNL     1     -10.296  14.174  67.818  1.00  0.00    -0.242 C  
HETATM   15  C   UNL     1      -8.987  15.241  67.682  1.00  0.00    -0.182 C  
HETATM   16  O   UNL     1      -9.632  20.685  67.324  1.00  0.00    -0.451 OA 
HETATM   17  O   UNL     1     -10.777  13.842  66.507  1.00  0.00    -0.282 OA 
HETATM   18  H   UNL     1     -10.843  14.659  66.027  1.00  0.00     0.000 HD 
HETATM   19  C   UNL     1      -7.527  14.581  67.209  1.00  0.00    -0.126 C  
HETATM   20  C   UNL     1      -6.423  15.642  67.368  1.00  0.00    -0.172 C  
HETATM   21  C   UNL     1      -6.727  16.925  66.604  1.00  0.00    -0.264 C  
HETATM   22  C   UNL     1      -8.050  17.544  66.985  1.00  0.00    -0.240 C  
HETATM   23  C   UNL     1      -8.116  18.869  67.227  1.00  0.00    -0.277 C  
HETATM   24  C   UNL     1      -9.409  19.503  67.549  1.00  0.00    -0.318 C  
ENDROOT
BRANCH   4  25
HETATM   25  C   UNL     1      -9.787  11.273  66.652  1.00  0.00    -0.205 C  
HETATM   26  O   UNL     1     -10.203  10.268  67.210  1.00  0.00    -0.195 OA 
BRANCH  25  27
HETATM   27  O   UNL     1     -10.062  11.518  65.323  1.00  0.00    -0.245 OA 
HETATM   28  C   UNL     1     -10.152  10.323  64.539  1.00  0.00    -0.216 C  
HETATM   29 CL   UNL     1      -8.666  10.176  63.574  1.00  0.00    -0.197 Cl 
ENDBRANCH  25  27
ENDBRANCH   4  25
TORSDOF 2
ENDMDL
MODEL       60
REMARK 921   NORMALIZED FREE ENERGY PREDICTED BY IDOCK:   -4.78 KCAL/MOL
REMARK 922        TOTAL FREE ENERGY PREDICTED BY IDOCK:   -4.77 KCAL/MOL
REMARK 923 INTER-LIGAND FREE ENERGY PREDICTED BY IDOCK:   -5.20 KCAL/MOL
REMARK 924 INTRA-LIGAND FREE ENERGY PREDICTED BY IDOCK:    0.43 KCAL/MOL
REMARK 927      BINDING AFFINITY PREDICTED BY RF-SCORE:    0.00 PKD
ROOT
HETATM    1  C   UNL     1     -11.248   9.625  69.469  1.00  0.00    -0.144 C  
HETATM    2  C   UNL     1     -11.173  10.394  70.655  1.00  0.00    -0.358 C  
HETATM    3  C   UNL     1      -9.828  10.071  70.086  1.00  0.00    -0.205 C  
HETATM    4  C   UNL     1      -9.782   9.261  68.191  1.00  0.00    -0.150 C  
HETATM    5  C   UNL     1      -8.917   5.061  69.710  1.00  0.00    -0.141 C  
HETATM    6  C   UNL     1      -9.788  10.553  68.601  1.00  0.00    -0.183 C  
HETATM    7  O   UNL     1     -11.033   9.020  67.400  1.00  0.00    -0.444 OA 
HETATM    8  C   UNL     1     -10.165  11.875  67.975  1.00  0.00    -0.199 C  
HETATM    9  C   UNL     1      -8.006   9.976  69.061  1.00  0.00    -0.108 C  
HETATM   10  C   UNL     1      -9.056   6.060  70.866  1.00  0.00    -0.161 C  
HETATM   11  C   UNL     1      -7.775   6.032  71.721  1.00  0.00    -0.101 C  
HETATM   12  H   UNL     1     -11.012   8.647  66.527  1.00  0.00     0.000 HD 
HETATM   13  C   UNL     1      -7.623   5.307  72.837  1.00  0.00    -0.097 C  
HETATM   14  C   UNL     1      -8.019   8.249  69.498  1.00  0.00    -0.112 C  
HETATM   15  C   UNL     1      -9.277   7.565  70.405  1.00  0.00    -0.157 C  
HETATM   16  O   UNL     1      -8.484   3.372  73.865  1.00  0.00    -0.077 OA 
HETATM   17  O   UNL     1      -7.862   7.515  68.275  1.00  0.00    -0.117 OA 
HETATM   18  H   UNL     1      -7.870   6.593  68.508  1.00  0.00     0.000 HD 
HETATM   19  C   UNL     1     -10.834   7.892  69.897  1.00  0.00    -0.221 C  
HETATM   20  C   UNL     1     -11.824   7.391  70.963  1.00  0.00    -0.336 C  
HETATM   21  C   UNL     1     -11.643   5.911  71.283  1.00  0.00    -0.080 C  
HETATM   22  C   UNL     1     -10.242   5.568  71.727  1.00  0.00    -0.256 C  
HETATM   23  C   UNL     1     -10.064   4.786  72.812  1.00  0.00    -0.219 C  
HETATM   24  C   UNL     1      -8.704   4.394  73.231  1.00  0.00    -0.100 C  
ENDROOT
BRANCH   4  25
HETATM   25  C   UNL     1      -8.909   9.564  66.757  1.00  0.00    -0.131 C  
HETATM   26  O   UNL     1      -7.810  10.082  66.614  1.00  0.00    -0.108 OA 
BRANCH  25  27
HETATM   27  O   UNL     1      -9.704   9.264  65.671  1.00  0.00    -0.284 OA 
HETATM   28  C   UNL     1      -9.415  10.071  64.524  1.00  0.00    -0.296 C  
HETATM   29 CL   UNL     1     -10.704  11.285  64.359  1.00  0.00    -0.412 Cl 
ENDBRANCH  25  27
ENDBRANCH   4  25
TORSDOF 2
ENDMDL
MODEL       61
REMARK 921   NORMALIZED FREE ENERGY PREDICTED BY IDOCK:   -4.76 KCAL/MOL
REMARK 922        TOTAL FREE ENERGY PREDICTED BY IDOCK:   -4.75 KCAL/MOL
REMARK 923 INTER-LIGAND FREE ENERGY PREDICTED BY IDOCK:   -6.48 KCAL/MOL
REMARK 924 INTRA-LIGAND FREE ENERGY PREDICTED BY IDOCK:    1.73 KCAL/MOL
REMARK 927      BINDING AFFINITY PREDICTED BY RF-SCORE:    0.00 PKD
ROOT
HETATM    1  C   UNL     1     -11.732  14.773  65.862  1.00  0.00    -0.248 C  
HETATM    2  C   UNL     1     -11.332  15.306  64.613  1.00  0.00    -0.364 C  
HETATM    3  C   UNL     1     -10.437  14.207  65.088  1.00  0.00    -0.422 C  
HETATM    4  C   UNL     1     -11.081  13.106  66.708  1.00  0.00    -0.289 C  
HETATM    5  C   UNL     1      -8.232  15.171  69.593  1.00  0.00    -0.080 C  
HETATM    6  C   UNL     1     -11.309  12.945  65.382  1.00  0.00    -0.336 C  
HETATM    7  O   UNL     1     -12.397  13.374  67.376  1.00  0.00    -0.260 OA 
HETATM    8  C   UNL     1     -12.364  12.252  64.551  1.00  0.00    -0.468 C  
HETATM    9  C   UNL     1      -9.464  12.414  65.556  1.00  0.00     0.008 C  
HETATM   10  C   UNL     1      -8.095  15.729  68.169  1.00  0.00    -0.140 C  
HETATM   11  C   UNL     1      -6.635  15.586  67.704  1.00  0.00    -0.195 C  
HETATM   12  H   UNL     1     -12.694  12.866  68.122  1.00  0.00     0.000 HD 
HETATM   13  C   UNL     1      -5.712  16.554  67.790  1.00  0.00    -0.151 C  
HETATM   14  C   UNL     1      -8.682  13.349  66.855  1.00  0.00    -0.142 C  
HETATM   15  C   UNL     1      -9.003  14.996  67.090  1.00  0.00    -0.235 C  
HETATM   16  O   UNL     1      -5.242  18.495  69.037  1.00  0.00    -0.184 OA 
HETATM   17  O   UNL     1      -8.926  12.638  68.077  1.00  0.00    -0.186 OA 
HETATM   18  H   UNL     1      -8.509  13.136  68.770  1.00  0.00     0.000 HD 
HETATM   19  C   UNL     1     -10.611  15.448  67.144  1.00  0.00    -0.305 C  
HETATM   20  C   UNL     1     -10.700  16.983  67.127  1.00  0.00    -0.177 C  
HETATM   21  C   UNL     1      -9.904  17.631  68.254  1.00  0.00    -0.324 C  
HETATM   22  C   UNL     1      -8.448  17.232  68.256  1.00  0.00    -0.243 C  
HETATM   23  C   UNL     1      -7.501  18.182  68.404  1.00  0.00    -0.287 C  
HETATM   24  C   UNL     1      -6.075  17.808  68.463  1.00  0.00    -0.181 C  
ENDROOT
BRANCH   4  25
HETATM   25  C   UNL     1     -11.204  11.446  67.082  1.00  0.00    -0.296 C  
HETATM   26  O   UNL     1     -11.658  10.910  68.083  1.00  0.00    -0.431 OA 
BRANCH  25  27
HETATM   27  O   UNL     1     -10.553  10.714  66.112  1.00  0.00    -0.219 OA 
HETATM   28  C   UNL     1     -10.316   9.356  66.499  1.00  0.00    -0.198 C  
HETATM   29 CL   UNL     1      -8.595   9.188  66.915  1.00  0.00    -0.124 Cl 
ENDBRANCH  25  27
ENDBRANCH   4  25
TORSDOF 2
ENDMDL
MODEL       62
REMARK 921   NORMALIZED FREE ENERGY PREDICTED BY IDOCK:   -4.72 KCAL/MOL
REMARK 922        TOTAL FREE ENERGY PREDICTED BY IDOCK:   -4.70 KCAL/MOL
REMARK 923 INTER-LIGAND FREE ENERGY PREDICTED BY IDOCK:   -6.37 KCAL/MOL
REMARK 924 INTRA-LIGAND FREE ENERGY PREDICTED BY IDOCK:    1.67 KCAL/MOL
REMARK 927      BINDING AFFINITY PREDICTED BY RF-SCORE:    0.00 PKD
ROOT
HETATM    1  C   UNL     1      -8.392   8.724  66.819  1.00  0.00    -0.108 C  
HETATM    2  C   UNL     1      -9.136   7.786  66.064  1.00  0.00    -0.169 C  
HETATM    3  C   UNL     1      -9.998   8.816  66.719  1.00  0.00    -0.338 C  
HETATM    4  C   UNL     1      -9.044  10.439  67.562  1.00  0.00    -0.134 C  
HETATM    5  C   UNL     1      -9.578   8.896  71.808  1.00  0.00    -0.353 C  
HETATM    6  C   UNL     1      -9.489  10.232  66.298  1.00  0.00    -0.223 C  
HETATM    7  O   UNL     1      -7.553  10.599  67.508  1.00  0.00    -0.092 OA 
HETATM    8  C   UNL     1      -9.165  10.807  64.939  1.00  0.00    -0.243 C  
HETATM    9  C   UNL     1     -11.128  10.486  67.283  1.00  0.00    -0.284 C  
HETATM   10  C   UNL     1     -10.169   7.924  70.778  1.00  0.00    -0.202 C  
HETATM   11  C   UNL     1     -11.656   7.684  71.097  1.00  0.00    -0.301 C  
HETATM   12  H   UNL     1      -7.114  11.346  67.896  1.00  0.00     0.000 HD 
HETATM   13  C   UNL     1     -12.122   6.650  71.811  1.00  0.00    -0.400 C  
HETATM   14  C   UNL     1     -10.942   9.867  68.943  1.00  0.00    -0.179 C  
HETATM   15  C   UNL     1     -10.092   8.439  69.276  1.00  0.00    -0.202 C  
HETATM   16  O   UNL     1     -11.407   5.120  73.451  1.00  0.00    -0.313 OA 
HETATM   17  O   UNL     1     -10.393  10.939  69.723  1.00  0.00    -0.440 OA 
HETATM   18  H   UNL     1     -10.294  10.609  70.608  1.00  0.00     0.000 HD 
HETATM   19  C   UNL     1      -8.576   8.290  68.590  1.00  0.00    -0.133 C  
HETATM   20  C   UNL     1      -8.067   6.855  68.807  1.00  0.00    -0.121 C  
HETATM   21  C   UNL     1      -8.053   6.452  70.278  1.00  0.00    -0.120 C  
HETATM   22  C   UNL     1      -9.401   6.592  70.943  1.00  0.00    -0.159 C  
HETATM   23  C   UNL     1      -9.864   5.590  71.718  1.00  0.00    -0.216 C  
HETATM   24  C   UNL     1     -11.155   5.729  72.421  1.00  0.00    -0.281 C  
ENDROOT
BRANCH   4  25
HETATM   25  C   UNL     1      -9.249  12.132  67.516  1.00  0.00    -0.182 C  
HETATM   26  O   UNL     1      -8.924  12.973  68.342  1.00  0.00    -0.188 OA 
BRANCH  25  27
HETATM   27  O   UNL     1     -10.010  12.467  66.417  1.00  0.00    -0.231 OA 
HETATM   28  C   UNL     1     -10.277  13.871  66.325  1.00  0.00    -0.297 C  
HETATM   29 CL   UNL     1     -11.962  14.150  66.815  1.00  0.00    -0.456 Cl 
ENDBRANCH  25  27
ENDBRANCH   4  25
TORSDOF 2
ENDMDL
MODEL       63
REMARK 921   NORMALIZED FREE ENERGY PREDICTED BY IDOCK:   -4.67 KCAL/MOL
REMARK 922        TOTAL FREE ENERGY PREDICTED BY IDOCK:   -4.64 KCAL/MOL
REMARK 923 INTER-LIGAND FREE ENERGY PREDICTED BY IDOCK:   -5.24 KCAL/MOL
REMARK 924 INTRA-LIGAND FREE ENERGY PREDICTED BY IDOCK:    0.59 KCAL/MOL
REMARK 927      BINDING AFFINITY PREDICTED BY RF-SCORE:    0.00 PKD
ROOT
HETATM    1  C   UNL     1      -7.710  10.055  68.384  1.00  0.00    -0.084 C  
HETATM    2  C   UNL     1      -7.097  10.331  67.138  1.00  0.00    -0.089 C  
HETATM    3  C   UNL     1      -8.546   9.986  67.007  1.00  0.00    -0.126 C  
HETATM    4  C   UNL     1      -9.650   9.899  68.747  1.00  0.00    -0.160 C  
HETATM    5  C   UNL     1      -9.713   5.350  68.805  1.00  0.00    -0.194 C  
HETATM    6  C   UNL     1      -9.370  10.942  67.928  1.00  0.00    -0.159 C  
HETATM    7  O   UNL     1      -9.041  10.187  70.088  1.00  0.00    -0.377 OA 
HETATM    8  C   UNL     1      -9.343  12.445  68.076  1.00  0.00    -0.204 C  
HETATM    9  C   UNL     1     -10.635   9.921  66.890  1.00  0.00    -0.248 C  
HETATM   10  C   UNL     1      -8.927   5.887  67.601  1.00  0.00    -0.107 C  
HETATM   11  C   UNL     1      -9.535   5.325  66.303  1.00  0.00    -0.166 C  
HETATM   12  H   UNL     1      -9.550  10.147  70.889  1.00  0.00     0.000 HD 
HETATM   13  C   UNL     1      -9.083   4.239  65.661  1.00  0.00    -0.136 C  
HETATM   14  C   UNL     1     -10.454   8.185  67.246  1.00  0.00    -0.309 C  
HETATM   15  C   UNL     1      -8.933   7.471  67.471  1.00  0.00    -0.127 C  
HETATM   16  O   UNL     1      -7.879   2.261  66.085  1.00  0.00    -0.074 OA 
HETATM   17  O   UNL     1     -11.281   7.911  68.387  1.00  0.00    -0.324 OA 
HETATM   18  H   UNL     1     -11.184   6.986  68.577  1.00  0.00     0.000 HD 
HETATM   19  C   UNL     1      -7.893   8.238  68.529  1.00  0.00    -0.121 C  
HETATM   20  C   UNL     1      -6.503   7.587  68.424  1.00  0.00    -0.045 C  
HETATM   21  C   UNL     1      -6.538   6.083  68.671  1.00  0.00    -0.058 C  
HETATM   22  C   UNL     1      -7.484   5.353  67.749  1.00  0.00    -0.080 C  
HETATM   23  C   UNL     1      -7.073   4.221  67.140  1.00  0.00    -0.067 C  
HETATM   24  C   UNL     1      -8.000   3.463  66.277  1.00  0.00    -0.091 C  
ENDROOT
BRANCH   4  25
HETATM   25  C   UNL     1     -11.150  10.519  69.271  1.00  0.00    -0.246 C  
HETATM   26  O   UNL     1     -11.914  11.285  68.700  1.00  0.00    -0.472 OA 
BRANCH  25  27
HETATM   27  O   UNL     1     -11.363  10.143  70.581  1.00  0.00    -0.307 OA 
HETATM   28  C   UNL     1     -12.739  10.224  70.971  1.00  0.00    -0.396 C  
HETATM   29 CL   UNL     1     -12.943  11.665  71.993  1.00  0.00    -0.470 Cl 
ENDBRANCH  25  27
ENDBRANCH   4  25
TORSDOF 2
ENDMDL
MODEL       64
REMARK 921   NORMALIZED FREE ENERGY PREDICTED BY IDOCK:   -4.67 KCAL/MOL
REMARK 922        TOTAL FREE ENERGY PREDICTED BY IDOCK:   -4.64 KCAL/MOL
REMARK 923 INTER-LIGAND FREE ENERGY PREDICTED BY IDOCK:   -5.24 KCAL/MOL
REMARK 924 INTRA-LIGAND FREE ENERGY PREDICTED BY IDOCK:    0.60 KCAL/MOL
REMARK 927      BINDING AFFINITY PREDICTED BY RF-SCORE:    0.00 PKD
ROOT
HETATM    1  C   UNL     1      -9.126   5.407  71.528  1.00  0.00    -0.158 C  
HETATM    2  C   UNL     1      -7.713   5.367  71.603  1.00  0.00    -0.106 C  
HETATM    3  C   UNL     1      -8.226   6.635  71.000  1.00  0.00    -0.120 C  
HETATM    4  C   UNL     1     -10.253   6.987  71.140  1.00  0.00    -0.195 C  
HETATM    5  C   UNL     1     -11.019   5.913  66.786  1.00  0.00    -0.280 C  
HETATM    6  C   UNL     1      -9.243   7.283  71.994  1.00  0.00    -0.149 C  
HETATM    7  O   UNL     1     -11.179   6.030  71.831  1.00  0.00    -0.265 OA 
HETATM    8  C   UNL     1      -9.138   7.572  73.473  1.00  0.00    -0.286 C  
HETATM    9  C   UNL     1      -8.964   8.545  70.563  1.00  0.00    -0.171 C  
HETATM   10  C   UNL     1      -9.535   5.766  67.150  1.00  0.00    -0.121 C  
HETATM   11  C   UNL     1      -8.690   6.641  66.206  1.00  0.00    -0.150 C  
HETATM   12  H   UNL     1     -12.112   6.192  71.896  1.00  0.00     0.000 HD 
HETATM   13  C   UNL     1      -8.093   6.198  65.091  1.00  0.00    -0.133 C  
HETATM   14  C   UNL     1      -9.477   7.830  69.013  1.00  0.00    -0.150 C  
HETATM   15  C   UNL     1      -9.181   6.205  68.636  1.00  0.00    -0.123 C  
HETATM   16  O   UNL     1      -8.295   4.477  63.497  1.00  0.00    -0.097 OA 
HETATM   17  O   UNL     1     -10.880   8.101  68.880  1.00  0.00    -0.408 OA 
HETATM   18  H   UNL     1     -11.153   7.720  68.054  1.00  0.00     0.000 HD 
HETATM   19  C   UNL     1      -9.605   5.076  69.791  1.00  0.00    -0.240 C  
HETATM   20  C   UNL     1      -9.054   3.701  69.375  1.00  0.00    -0.201 C  
HETATM   21  C   UNL     1      -9.519   3.277  67.986  1.00  0.00    -0.217 C  
HETATM   22  C   UNL     1      -9.173   4.281  66.913  1.00  0.00    -0.160 C  
HETATM   23  C   UNL     1      -8.630   3.853  65.755  1.00  0.00    -0.111 C  
HETATM   24  C   UNL     1      -8.335   4.811  64.673  1.00  0.00    -0.130 C  
ENDROOT
BRANCH   4  25
HETATM   25  C   UNL     1     -11.232   8.304  71.607  1.00  0.00    -0.270 C  
HETATM   26  O   UNL     1     -10.996   9.502  71.554  1.00  0.00    -0.364 OA 
BRANCH  25  27
HETATM   27  O   UNL     1     -12.364   7.826  72.235  1.00  0.00    -0.287 OA 
HETATM   28  C   UNL     1     -13.576   8.354  71.684  1.00  0.00    -0.349 C  
HETATM   29 CL   UNL     1     -14.211   9.578  72.806  1.00  0.00    -0.001 Cl 
ENDBRANCH  25  27
ENDBRANCH   4  25
TORSDOF 2
ENDMDL
MODEL       65
REMARK 921   NORMALIZED FREE ENERGY PREDICTED BY IDOCK:   -4.65 KCAL/MOL
REMARK 922        TOTAL FREE ENERGY PREDICTED BY IDOCK:   -4.62 KCAL/MOL
REMARK 923 INTER-LIGAND FREE ENERGY PREDICTED BY IDOCK:   -5.09 KCAL/MOL
REMARK 924 INTRA-LIGAND FREE ENERGY PREDICTED BY IDOCK:    0.46 KCAL/MOL
REMARK 927      BINDING AFFINITY PREDICTED BY RF-SCORE:    0.00 PKD
ROOT
HETATM    1  C   UNL     1     -10.257   5.567  68.323  1.00  0.00    -0.237 C  
HETATM    2  C   UNL     1     -11.146   5.831  67.254  1.00  0.00    -0.010 C  
HETATM    3  C   UNL     1     -10.045   6.837  67.353  1.00  0.00    -0.225 C  
HETATM    4  C   UNL     1      -8.488   6.400  68.632  1.00  0.00    -0.123 C  
HETATM    5  C   UNL     1      -9.930   9.306  71.822  1.00  0.00    -0.086 C  
HETATM    6  C   UNL     1      -8.677   6.082  67.328  1.00  0.00    -0.105 C  
HETATM    7  O   UNL     1      -8.442   5.123  69.419  1.00  0.00    -0.089 OA 
HETATM    8  C   UNL     1      -8.147   5.019  66.395  1.00  0.00    -0.108 C  
HETATM    9  C   UNL     1      -8.288   7.969  67.247  1.00  0.00    -0.122 C  
HETATM   10  C   UNL     1     -10.868   9.293  70.607  1.00  0.00    -0.339 C  
HETATM   11  C   UNL     1     -10.990  10.720  70.041  1.00  0.00    -0.280 C  
HETATM   12  H   UNL     1      -7.724   4.921  70.007  1.00  0.00     0.000 HD 
HETATM   13  C   UNL     1     -11.977  11.574  70.345  1.00  0.00    -0.459 C  
HETATM   14  C   UNL     1      -8.897   8.780  68.712  1.00  0.00    -0.134 C  
HETATM   15  C   UNL     1     -10.380   8.360  69.416  1.00  0.00    -0.217 C  
HETATM   16  O   UNL     1     -13.535  11.999  72.058  1.00  0.00    -0.447 OA 
HETATM   17  O   UNL     1      -7.858   8.682  69.697  1.00  0.00    -0.090 OA 
HETATM   18  H   UNL     1      -8.183   9.114  70.479  1.00  0.00     0.000 HD 
HETATM   19  C   UNL     1     -10.652   6.733  69.681  1.00  0.00    -0.267 C  
HETATM   20  C   UNL     1     -12.119   6.532  70.100  1.00  0.00    -0.039 C  
HETATM   21  C   UNL     1     -12.501   7.365  71.318  1.00  0.00    -0.381 C  
HETATM   22  C   UNL     1     -12.251   8.841  71.129  1.00  0.00    -0.284 C  
HETATM   23  C   UNL     1     -13.205   9.726  71.486  1.00  0.00    -0.493 C  
HETATM   24  C   UNL     1     -12.959  11.176  71.360  1.00  0.00    -0.403 C  
ENDROOT
BRANCH   4  25
HETATM   25  C   UNL     1      -6.785   6.425  68.533  1.00  0.00    -0.068 C  
HETATM   26  O   UNL     1      -6.063   7.046  67.766  1.00  0.00    -0.030 OA 
BRANCH  25  27
HETATM   27  O   UNL     1      -6.267   5.482  69.396  1.00  0.00    -0.026 OA 
HETATM   28  C   UNL     1      -5.176   4.746  68.832  1.00  0.00    -0.004 C  
HETATM   29 CL   UNL     1      -5.766   3.128  68.390  1.00  0.00    -0.022 Cl 
ENDBRANCH  25  27
ENDBRANCH   4  25
TORSDOF 2
ENDMDL
MODEL       66
REMARK 921   NORMALIZED FREE ENERGY PREDICTED BY IDOCK:   -4.65 KCAL/MOL
REMARK 922        TOTAL FREE ENERGY PREDICTED BY IDOCK:   -4.62 KCAL/MOL
REMARK 923 INTER-LIGAND FREE ENERGY PREDICTED BY IDOCK:   -6.35 KCAL/MOL
REMARK 924 INTRA-LIGAND FREE ENERGY PREDICTED BY IDOCK:    1.73 KCAL/MOL
REMARK 927      BINDING AFFINITY PREDICTED BY RF-SCORE:    0.00 PKD
ROOT
HETATM    1  C   UNL     1     -11.337  15.499  69.385  1.00  0.00    -0.321 C  
HETATM    2  C   UNL     1     -10.937  15.520  70.743  1.00  0.00    -0.360 C  
HETATM    3  C   UNL     1      -9.779  15.489  69.799  1.00  0.00    -0.247 C  
HETATM    4  C   UNL     1     -10.188  15.803  67.802  1.00  0.00    -0.251 C  
HETATM    5  C   UNL     1      -9.748  11.402  66.737  1.00  0.00    -0.221 C  
HETATM    6  C   UNL     1      -9.920  16.681  68.799  1.00  0.00    -0.265 C  
HETATM    7  O   UNL     1     -11.580  16.072  67.310  1.00  0.00     0.061 OA 
HETATM    8  C   UNL     1     -10.186  18.149  69.036  1.00  0.00    -0.237 C  
HETATM    9  C   UNL     1      -8.199  15.871  68.480  1.00  0.00    -0.169 C  
HETATM   10  C   UNL     1      -9.526  11.643  68.236  1.00  0.00    -0.191 C  
HETATM   11  C   UNL     1      -8.139  11.112  68.638  1.00  0.00    -0.150 C  
HETATM   12  H   UNL     1     -11.768  16.217  66.390  1.00  0.00     0.000 HD 
HETATM   13  C   UNL     1      -7.913   9.900  69.163  1.00  0.00    -0.112 C  
HETATM   14  C   UNL     1      -8.409  14.177  67.971  1.00  0.00    -0.160 C  
HETATM   15  C   UNL     1      -9.583  13.172  68.667  1.00  0.00    -0.034 C  
HETATM   16  O   UNL     1      -8.878   7.753  69.234  1.00  0.00    -0.138 OA 
HETATM   17  O   UNL     1      -8.583  14.195  66.546  1.00  0.00    -0.438 OA 
HETATM   18  H   UNL     1      -8.696  13.291  66.274  1.00  0.00     0.000 HD 
HETATM   19  C   UNL     1     -11.134  13.786  68.768  1.00  0.00    -0.295 C  
HETATM   20  C   UNL     1     -11.992  12.841  69.626  1.00  0.00    -0.354 C  
HETATM   21  C   UNL     1     -11.994  11.410  69.101  1.00  0.00    -0.395 C  
HETATM   22  C   UNL     1     -10.609  10.822  68.974  1.00  0.00    -0.250 C  
HETATM   23  C   UNL     1     -10.372   9.578  69.439  1.00  0.00    -0.225 C  
HETATM   24  C   UNL     1      -9.040   8.965  69.276  1.00  0.00    -0.145 C  
ENDROOT
BRANCH   4  25
HETATM   25  C   UNL     1      -9.539  16.780  66.564  1.00  0.00    -0.266 C  
HETATM   26  O   UNL     1      -9.741  16.739  65.359  1.00  0.00    -0.510 OA 
BRANCH  25  27
HETATM   27  O   UNL     1      -8.570  17.604  67.098  1.00  0.00    -0.219 OA 
HETATM   28  C   UNL     1      -8.159  18.641  66.200  1.00  0.00    -0.182 C  
HETATM   29 CL   UNL     1      -6.564  18.209  65.544  1.00  0.00    -0.276 Cl 
ENDBRANCH  25  27
ENDBRANCH   4  25
TORSDOF 2
ENDMDL
MODEL       67
REMARK 921   NORMALIZED FREE ENERGY PREDICTED BY IDOCK:   -4.64 KCAL/MOL
REMARK 922        TOTAL FREE ENERGY PREDICTED BY IDOCK:   -4.61 KCAL/MOL
REMARK 923 INTER-LIGAND FREE ENERGY PREDICTED BY IDOCK:   -6.47 KCAL/MOL
REMARK 924 INTRA-LIGAND FREE ENERGY PREDICTED BY IDOCK:    1.86 KCAL/MOL
REMARK 927      BINDING AFFINITY PREDICTED BY RF-SCORE:    0.00 PKD
ROOT
HETATM    1  C   UNL     1      -8.044   8.604  69.104  1.00  0.00    -0.116 C  
HETATM    2  C   UNL     1      -7.087   9.257  69.917  1.00  0.00    -0.064 C  
HETATM    3  C   UNL     1      -8.483   9.400  70.435  1.00  0.00    -0.247 C  
HETATM    4  C   UNL     1      -9.932   8.223  69.559  1.00  0.00    -0.187 C  
HETATM    5  C   UNL     1     -11.660  11.671  67.144  1.00  0.00    -0.291 C  
HETATM    6  C   UNL     1      -9.101   7.974  70.599  1.00  0.00    -0.154 C  
HETATM    7  O   UNL     1      -9.610   7.250  68.464  1.00  0.00    -0.140 OA 
HETATM    8  C   UNL     1      -8.565   6.731  71.271  1.00  0.00    -0.125 C  
HETATM    9  C   UNL     1     -10.354   9.229  71.357  1.00  0.00    -0.392 C  
HETATM   10  C   UNL     1     -10.463  12.122  67.993  1.00  0.00    -0.227 C  
HETATM   11  C   UNL     1     -10.897  13.279  68.911  1.00  0.00    -0.245 C  
HETATM   12  H   UNL     1     -10.277   6.708  68.061  1.00  0.00     0.000 HD 
HETATM   13  C   UNL     1     -10.729  14.578  68.626  1.00  0.00    -0.257 C  
HETATM   14  C   UNL     1     -10.911  10.364  70.102  1.00  0.00    -0.300 C  
HETATM   15  C   UNL     1      -9.861  10.986  68.927  1.00  0.00    -0.189 C  
HETATM   16  O   UNL     1     -10.471  16.001  66.768  1.00  0.00    -0.303 OA 
HETATM   17  O   UNL     1     -12.034   9.745  69.456  1.00  0.00    -0.446 OA 
HETATM   18  H   UNL     1     -12.331  10.351  68.787  1.00  0.00     0.000 HD 
HETATM   19  C   UNL     1      -8.905   9.882  68.114  1.00  0.00    -0.118 C  
HETATM   20  C   UNL     1      -7.868  10.643  67.271  1.00  0.00    -0.112 C  
HETATM   21  C   UNL     1      -8.508  11.638  66.309  1.00  0.00    -0.066 C  
HETATM   22  C   UNL     1      -9.398  12.643  67.001  1.00  0.00    -0.220 C  
HETATM   23  C   UNL     1      -9.292  13.950  66.685  1.00  0.00    -0.282 C  
HETATM   24  C   UNL     1     -10.189  14.941  67.310  1.00  0.00    -0.241 C  
ENDROOT
BRANCH   4  25
HETATM   25  C   UNL     1     -11.183   7.209  70.121  1.00  0.00    -0.262 C  
HETATM   26  O   UNL     1     -11.685   6.229  69.588  1.00  0.00    -0.382 OA 
BRANCH  25  27
HETATM   27  O   UNL     1     -11.709   7.739  71.280  1.00  0.00    -0.278 OA 
HETATM   28  C   UNL     1     -12.828   6.997  71.779  1.00  0.00    -0.324 C  
HETATM   29 CL   UNL     1     -14.309   7.909  71.413  1.00  0.00    -0.507 Cl 
ENDBRANCH  25  27
ENDBRANCH   4  25
TORSDOF 2
ENDMDL
MODEL       68
REMARK 921   NORMALIZED FREE ENERGY PREDICTED BY IDOCK:   -4.57 KCAL/MOL
REMARK 922        TOTAL FREE ENERGY PREDICTED BY IDOCK:   -4.53 KCAL/MOL
REMARK 923 INTER-LIGAND FREE ENERGY PREDICTED BY IDOCK:   -5.09 KCAL/MOL
REMARK 924 INTRA-LIGAND FREE ENERGY PREDICTED BY IDOCK:    0.56 KCAL/MOL
REMARK 927      BINDING AFFINITY PREDICTED BY RF-SCORE:    0.00 PKD
ROOT
HETATM    1  C   UNL     1     -11.221   9.376  69.672  1.00  0.00    -0.100 C  
HETATM    2  C   UNL     1     -10.837   9.638  71.009  1.00  0.00    -0.412 C  
HETATM    3  C   UNL     1      -9.736   9.891  70.029  1.00  0.00    -0.274 C  
HETATM    4  C   UNL     1     -10.242   9.888  68.030  1.00  0.00    -0.182 C  
HETATM    5  C   UNL     1      -8.442   5.773  67.299  1.00  0.00    -0.107 C  
HETATM    6  C   UNL     1     -10.255  10.888  68.944  1.00  0.00    -0.213 C  
HETATM    7  O   UNL     1     -11.651   9.662  67.568  1.00  0.00    -0.234 OA 
HETATM    8  C   UNL     1     -10.970  12.213  69.074  1.00  0.00    -0.255 C  
HETATM    9  C   UNL     1      -8.370  10.635  68.629  1.00  0.00    -0.137 C  
HETATM   10  C   UNL     1      -8.295   6.200  68.766  1.00  0.00    -0.111 C  
HETATM   11  C   UNL     1      -6.807   6.168  69.160  1.00  0.00    -0.062 C  
HETATM   12  H   UNL     1     -11.884   9.661  66.647  1.00  0.00     0.000 HD 
HETATM   13  C   UNL     1      -6.204   5.138  69.770  1.00  0.00    -0.026 C  
HETATM   14  C   UNL     1      -8.038   8.924  68.262  1.00  0.00    -0.109 C  
HETATM   15  C   UNL     1      -8.828   7.665  69.077  1.00  0.00    -0.135 C  
HETATM   16  O   UNL     1      -6.441   2.812  70.044  1.00  0.00    -0.028 OA 
HETATM   17  O   UNL     1      -8.221   8.763  66.848  1.00  0.00    -0.107 OA 
HETATM   18  H   UNL     1      -8.045   7.850  66.652  1.00  0.00     0.000 HD 
HETATM   19  C   UNL     1     -10.492   7.767  69.184  1.00  0.00    -0.219 C  
HETATM   20  C   UNL     1     -11.000   6.677  70.144  1.00  0.00    -0.358 C  
HETATM   21  C   UNL     1     -10.554   5.278  69.734  1.00  0.00    -0.283 C  
HETATM   22  C   UNL     1      -9.056   5.147  69.605  1.00  0.00    -0.153 C  
HETATM   23  C   UNL     1      -8.434   4.086  70.157  1.00  0.00    -0.093 C  
HETATM   24  C   UNL     1      -6.977   3.911  69.996  1.00  0.00    -0.041 C  
ENDROOT
BRANCH   4  25
HETATM   25  C   UNL     1      -9.945  10.909  66.696  1.00  0.00    -0.208 C  
HETATM   26  O   UNL     1      -9.578  12.075  66.680  1.00  0.00    -0.205 OA 
BRANCH  25  27
HETATM   27  O   UNL     1     -10.332  10.266  65.539  1.00  0.00    -0.258 OA 
HETATM   28  C   UNL     1      -9.672  10.769  64.371  1.00  0.00    -0.301 C  
HETATM   29 CL   UNL     1     -10.827  11.778  63.471  1.00  0.00    -0.477 Cl 
ENDBRANCH  25  27
ENDBRANCH   4  25
TORSDOF 2
ENDMDL
MODEL       69
REMARK 921   NORMALIZED FREE ENERGY PREDICTED BY IDOCK:   -4.54 KCAL/MOL
REMARK 922        TOTAL FREE ENERGY PREDICTED BY IDOCK:   -4.50 KCAL/MOL
REMARK 923 INTER-LIGAND FREE ENERGY PREDICTED BY IDOCK:   -5.16 KCAL/MOL
REMARK 924 INTRA-LIGAND FREE ENERGY PREDICTED BY IDOCK:    0.66 KCAL/MOL
REMARK 927      BINDING AFFINITY PREDICTED BY RF-SCORE:    0.00 PKD
ROOT
HETATM    1  C   UNL     1      -7.305   9.122  69.249  1.00  0.00    -0.070 C  
HETATM    2  C   UNL     1      -6.670   9.771  70.335  1.00  0.00    -0.123 C  
HETATM    3  C   UNL     1      -8.038   9.275  70.676  1.00  0.00    -0.207 C  
HETATM    4  C   UNL     1      -8.945   8.015  69.318  1.00  0.00    -0.148 C  
HETATM    5  C   UNL     1     -11.722  11.258  67.748  1.00  0.00    -0.254 C  
HETATM    6  C   UNL     1      -8.110   7.748  70.351  1.00  0.00    -0.115 C  
HETATM    7  O   UNL     1      -8.263   7.593  68.050  1.00  0.00    -0.121 OA 
HETATM    8  C   UNL     1      -7.184   6.611  70.716  1.00  0.00    -0.070 C  
HETATM    9  C   UNL     1      -9.751   8.216  71.250  1.00  0.00    -0.207 C  
HETATM   10  C   UNL     1     -10.791  11.796  68.843  1.00  0.00    -0.265 C  
HETATM   11  C   UNL     1     -11.636  12.400  69.979  1.00  0.00    -0.216 C  
HETATM   12  H   UNL     1      -8.681   7.012  67.425  1.00  0.00     0.000 HD 
HETATM   13  C   UNL     1     -11.937  13.701  70.093  1.00  0.00    -0.407 C  
HETATM   14  C   UNL     1     -10.641   9.430  70.298  1.00  0.00    -0.250 C  
HETATM   15  C   UNL     1      -9.849  10.696  69.496  1.00  0.00    -0.115 C  
HETATM   16  O   UNL     1     -12.152  15.628  68.758  1.00  0.00    -0.301 OA 
HETATM   17  O   UNL     1     -11.448   8.704  69.358  1.00  0.00    -0.362 OA 
HETATM   18  H   UNL     1     -11.923   9.352  68.850  1.00  0.00     0.000 HD 
HETATM   19  C   UNL     1      -8.539  10.281  68.546  1.00  0.00    -0.126 C  
HETATM   20  C   UNL     1      -7.819  11.564  68.098  1.00  0.00    -0.128 C  
HETATM   21  C   UNL     1      -8.745  12.535  67.374  1.00  0.00    -0.189 C  
HETATM   22  C   UNL     1      -9.955  12.921  68.190  1.00  0.00    -0.234 C  
HETATM   23  C   UNL     1     -10.315  14.218  68.268  1.00  0.00    -0.242 C  
HETATM   24  C   UNL     1     -11.525  14.610  69.016  1.00  0.00    -0.291 C  
ENDROOT
BRANCH   4  25
HETATM   25  C   UNL     1      -9.765   6.521  69.400  1.00  0.00    -0.146 C  
HETATM   26  O   UNL     1     -10.714   6.196  70.099  1.00  0.00    -0.248 OA 
BRANCH  25  27
HETATM   27  O   UNL     1      -9.097   5.595  68.626  1.00  0.00    -0.117 OA 
HETATM   28  C   UNL     1      -9.679   4.288  68.689  1.00  0.00    -0.104 C  
HETATM   29 CL   UNL     1      -8.646   3.268  69.717  1.00  0.00    -0.100 Cl 
ENDBRANCH  25  27
ENDBRANCH   4  25
TORSDOF 2
ENDMDL
MODEL       70
REMARK 921   NORMALIZED FREE ENERGY PREDICTED BY IDOCK:   -4.44 KCAL/MOL
REMARK 922        TOTAL FREE ENERGY PREDICTED BY IDOCK:   -4.38 KCAL/MOL
REMARK 923 INTER-LIGAND FREE ENERGY PREDICTED BY IDOCK:   -4.82 KCAL/MOL
REMARK 924 INTRA-LIGAND FREE ENERGY PREDICTED BY IDOCK:    0.44 KCAL/MOL
REMARK 927      BINDING AFFINITY PREDICTED BY RF-SCORE:    0.00 PKD
ROOT
HETATM    1  C   UNL     1      -8.221  10.670  68.947  1.00  0.00    -0.145 C  
HETATM    2  C   UNL     1      -6.806  10.634  68.981  1.00  0.00    -0.071 C  
HETATM    3  C   UNL     1      -7.359  10.425  67.608  1.00  0.00    -0.088 C  
HETATM    4  C   UNL     1      -9.370  10.792  67.340  1.00  0.00    -0.150 C  
HETATM    5  C   UNL     1     -10.445   6.372  67.241  1.00  0.00    -0.326 C  
HETATM    6  C   UNL     1      -8.302  11.622  67.263  1.00  0.00    -0.158 C  
HETATM    7  O   UNL     1     -10.246  11.267  68.462  1.00  0.00    -0.191 OA 
HETATM    8  C   UNL     1      -8.092  13.114  67.372  1.00  0.00    -0.181 C  
HETATM    9  C   UNL     1      -8.123  10.559  65.664  1.00  0.00    -0.161 C  
HETATM   10  C   UNL     1      -8.939   6.581  67.454  1.00  0.00    -0.110 C  
HETATM   11  C   UNL     1      -8.161   5.846  66.347  1.00  0.00    -0.112 C  
HETATM   12  H   UNL     1     -11.173  11.437  68.338  1.00  0.00     0.000 HD 
HETATM   13  C   UNL     1      -7.646   4.615  66.469  1.00  0.00    -0.087 C  
HETATM   14  C   UNL     1      -8.745   8.915  65.953  1.00  0.00    -0.170 C  
HETATM   15  C   UNL     1      -8.479   8.102  67.416  1.00  0.00    -0.126 C  
HETATM   16  O   UNL     1      -7.963   2.641  67.712  1.00  0.00    -0.063 OA 
HETATM   17  O   UNL     1     -10.154   8.955  65.681  1.00  0.00    -0.387 OA 
HETATM   18  H   UNL     1     -10.486   8.078  65.835  1.00  0.00     0.000 HD 
HETATM   19  C   UNL     1      -8.823   8.944  68.817  1.00  0.00    -0.137 C  
HETATM   20  C   UNL     1      -8.305   8.143  70.023  1.00  0.00    -0.122 C  
HETATM   21  C   UNL     1      -8.868   6.727  70.074  1.00  0.00    -0.142 C  
HETATM   22  C   UNL     1      -8.598   5.936  68.817  1.00  0.00    -0.110 C  
HETATM   23  C   UNL     1      -8.138   4.672  68.916  1.00  0.00    -0.081 C  
HETATM   24  C   UNL     1      -7.919   3.863  67.701  1.00  0.00    -0.090 C  
ENDROOT
BRANCH   4  25
HETATM   25  C   UNL     1     -10.312  11.656  66.210  1.00  0.00    -0.235 C  
HETATM   26  O   UNL     1     -10.059  11.942  65.049  1.00  0.00    -0.254 OA 
BRANCH  25  27
HETATM   27  O   UNL     1     -11.427  12.162  66.843  1.00  0.00    -0.324 OA 
HETATM   28  C   UNL     1     -11.981  13.304  66.178  1.00  0.00    -0.418 C  
HETATM   29 CL   UNL     1     -11.545  14.755  67.109  1.00  0.00    -0.385 Cl 
ENDBRANCH  25  27
ENDBRANCH   4  25
TORSDOF 2
ENDMDL
MODEL       71
REMARK 921   NORMALIZED FREE ENERGY PREDICTED BY IDOCK:   -4.41 KCAL/MOL
REMARK 922        TOTAL FREE ENERGY PREDICTED BY IDOCK:   -4.35 KCAL/MOL
REMARK 923 INTER-LIGAND FREE ENERGY PREDICTED BY IDOCK:   -4.83 KCAL/MOL
REMARK 924 INTRA-LIGAND FREE ENERGY PREDICTED BY IDOCK:    0.48 KCAL/MOL
REMARK 927      BINDING AFFINITY PREDICTED BY RF-SCORE:    0.00 PKD
ROOT
HETATM    1  C   UNL     1      -9.100   8.628  69.194  1.00  0.00    -0.142 C  
HETATM    2  C   UNL     1     -10.022   9.412  68.460  1.00  0.00    -0.190 C  
HETATM    3  C   UNL     1     -10.612   8.128  68.947  1.00  0.00    -0.161 C  
HETATM    4  C   UNL     1      -9.509   7.047  70.313  1.00  0.00    -0.165 C  
HETATM    5  C   UNL     1      -8.181   3.979  67.227  1.00  0.00    -0.099 C  
HETATM    6  C   UNL     1     -10.411   8.042  70.494  1.00  0.00    -0.205 C  
HETATM    7  O   UNL     1      -8.181   7.528  70.818  1.00  0.00    -0.107 OA 
HETATM    8  C   UNL     1     -10.701   9.041  71.589  1.00  0.00    -0.441 C  
HETATM    9  C   UNL     1     -11.526   6.555  69.982  1.00  0.00    -0.476 C  
HETATM   10  C   UNL     1      -9.073   5.060  66.599  1.00  0.00    -0.119 C  
HETATM   11  C   UNL     1     -10.285   4.392  65.925  1.00  0.00    -0.252 C  
HETATM   12  H   UNL     1      -7.673   7.030  71.448  1.00  0.00     0.000 HD 
HETATM   13  C   UNL     1     -10.354   4.083  64.622  1.00  0.00    -0.220 C  
HETATM   14  C   UNL     1     -10.647   5.496  68.851  1.00  0.00    -0.188 C  
HETATM   15  C   UNL     1      -9.642   6.120  67.637  1.00  0.00    -0.113 C  
HETATM   16  O   UNL     1      -8.940   3.612  62.800  1.00  0.00    -0.092 OA 
HETATM   17  O   UNL     1      -9.902   4.567  69.653  1.00  0.00    -0.205 OA 
HETATM   18  H   UNL     1      -9.432   4.002  69.050  1.00  0.00     0.000 HD 
HETATM   19  C   UNL     1      -8.526   7.272  68.105  1.00  0.00    -0.123 C  
HETATM   20  C   UNL     1      -7.879   7.880  66.849  1.00  0.00    -0.104 C  
HETATM   21  C   UNL     1      -7.247   6.828  65.945  1.00  0.00    -0.070 C  
HETATM   22  C   UNL     1      -8.217   5.755  65.515  1.00  0.00    -0.132 C  
HETATM   23  C   UNL     1      -8.261   5.381  64.220  1.00  0.00    -0.129 C  
HETATM   24  C   UNL     1      -9.165   4.297  63.789  1.00  0.00    -0.139 C  
ENDROOT
BRANCH   4  25
HETATM   25  C   UNL     1      -9.825   6.287  71.807  1.00  0.00    -0.163 C  
HETATM   26  O   UNL     1     -10.895   5.939  72.287  1.00  0.00    -0.222 OA 
BRANCH  25  27
HETATM   27  O   UNL     1      -8.659   6.226  72.540  1.00  0.00    -0.121 OA 
HETATM   28  C   UNL     1      -8.853   6.518  73.928  1.00  0.00    -0.133 C  
HETATM   29 CL   UNL     1      -8.246   8.159  74.242  1.00  0.00    -0.313 Cl 
ENDBRANCH  25  27
ENDBRANCH   4  25
TORSDOF 2
ENDMDL
MODEL       72
REMARK 921   NORMALIZED FREE ENERGY PREDICTED BY IDOCK:   -4.32 KCAL/MOL
REMARK 922        TOTAL FREE ENERGY PREDICTED BY IDOCK:   -4.25 KCAL/MOL
REMARK 923 INTER-LIGAND FREE ENERGY PREDICTED BY IDOCK:   -4.82 KCAL/MOL
REMARK 924 INTRA-LIGAND FREE ENERGY PREDICTED BY IDOCK:    0.56 KCAL/MOL
REMARK 927      BINDING AFFINITY PREDICTED BY RF-SCORE:    0.00 PKD
ROOT
HETATM    1  C   UNL     1      -7.459   8.179  64.763  1.00  0.00    -0.094 C  
HETATM    2  C   UNL     1      -6.356   8.823  64.153  1.00  0.00    -0.072 C  
HETATM    3  C   UNL     1      -6.515   9.187  65.594  1.00  0.00    -0.068 C  
HETATM    4  C   UNL     1      -7.855   8.076  66.700  1.00  0.00    -0.098 C  
HETATM    5  C   UNL     1     -11.016  11.348  66.669  1.00  0.00    -0.341 C  
HETATM    6  C   UNL     1      -6.540   7.874  66.440  1.00  0.00    -0.050 C  
HETATM    7  O   UNL     1      -8.626   6.937  66.101  1.00  0.00    -0.132 OA 
HETATM    8  C   UNL     1      -5.618   6.678  66.444  1.00  0.00    -0.018 C  
HETATM    9  C   UNL     1      -6.500   9.350  67.681  1.00  0.00    -0.062 C  
HETATM   10  C   UNL     1      -9.761  11.770  65.892  1.00  0.00    -0.259 C  
HETATM   11  C   UNL     1      -9.210  13.079  66.485  1.00  0.00    -0.187 C  
HETATM   12  H   UNL     1      -9.243   6.425  66.610  1.00  0.00     0.000 HD 
HETATM   13  C   UNL     1      -9.481  14.302  66.010  1.00  0.00    -0.213 C  
HETATM   14  C   UNL     1      -7.947  10.366  67.465  1.00  0.00    -0.106 C  
HETATM   15  C   UNL     1      -8.581  10.706  65.931  1.00  0.00    -0.177 C  
HETATM   16  O   UNL     1     -11.131  15.431  64.765  1.00  0.00    -0.416 OA 
HETATM   17  O   UNL     1      -8.976   9.797  68.289  1.00  0.00    -0.119 OA 
HETATM   18  H   UNL     1      -9.748  10.339  68.173  1.00  0.00     0.000 HD 
HETATM   19  C   UNL     1      -8.813   9.405  64.908  1.00  0.00    -0.240 C  
HETATM   20  C   UNL     1      -9.165   9.928  63.505  1.00  0.00    -0.279 C  
HETATM   21  C   UNL     1     -10.377  10.853  63.510  1.00  0.00    -0.342 C  
HETATM   22  C   UNL     1     -10.218  12.033  64.438  1.00  0.00    -0.332 C  
HETATM   23  C   UNL     1     -10.545  13.267  64.003  1.00  0.00    -0.217 C  
HETATM   24  C   UNL     1     -10.448  14.426  64.912  1.00  0.00    -0.423 C  
ENDROOT
BRANCH   4  25
HETATM   25  C   UNL     1      -7.830   7.290  68.214  1.00  0.00    -0.122 C  
HETATM   26  O   UNL     1      -7.128   7.512  69.190  1.00  0.00    -0.073 OA 
BRANCH  25  27
HETATM   27  O   UNL     1      -8.663   6.192  68.168  1.00  0.00    -0.115 OA 
HETATM   28  C   UNL     1      -9.513   6.083  69.315  1.00  0.00    -0.132 C  
HETATM   29 CL   UNL     1      -8.875   4.793  70.360  1.00  0.00    -0.129 Cl 
ENDBRANCH  25  27
ENDBRANCH   4  25
TORSDOF 2
ENDMDL
MODEL       73
REMARK 921   NORMALIZED FREE ENERGY PREDICTED BY IDOCK:   -4.28 KCAL/MOL
REMARK 922        TOTAL FREE ENERGY PREDICTED BY IDOCK:   -4.20 KCAL/MOL
REMARK 923 INTER-LIGAND FREE ENERGY PREDICTED BY IDOCK:   -5.89 KCAL/MOL
REMARK 924 INTRA-LIGAND FREE ENERGY PREDICTED BY IDOCK:    1.69 KCAL/MOL
REMARK 927      BINDING AFFINITY PREDICTED BY RF-SCORE:    0.00 PKD
ROOT
HETATM    1  C   UNL     1     -11.996  13.079  68.566  1.00  0.00    -0.296 C  
HETATM    2  C   UNL     1     -11.726  12.803  69.928  1.00  0.00    -0.321 C  
HETATM    3  C   UNL     1     -10.629  13.571  69.264  1.00  0.00     0.033 C  
HETATM    4  C   UNL     1     -11.024  14.342  67.392  1.00  0.00    -0.295 C  
HETATM    5  C   UNL     1      -8.578  11.152  65.261  1.00  0.00     0.028 C  
HETATM    6  C   UNL     1     -11.238  14.860  68.626  1.00  0.00    -0.288 C  
HETATM    7  O   UNL     1     -12.356  14.164  66.726  1.00  0.00    -0.514 OA 
HETATM    8  C   UNL     1     -12.154  15.915  69.201  1.00  0.00    -0.158 C  
HETATM    9  C   UNL     1      -9.322  14.987  68.446  1.00  0.00    -0.193 C  
HETATM   10  C   UNL     1      -8.573  10.942  66.781  1.00  0.00    -0.137 C  
HETATM   11  C   UNL     1      -7.120  10.926  67.290  1.00  0.00    -0.097 C  
HETATM   12  H   UNL     1     -12.538  14.519  65.864  1.00  0.00     0.000 HD 
HETATM   13  C   UNL     1      -6.399   9.815  67.493  1.00  0.00    -0.064 C  
HETATM   14  C   UNL     1      -8.713  13.637  67.456  1.00  0.00    -0.198 C  
HETATM   15  C   UNL     1      -9.341  12.069  67.598  1.00  0.00    -0.185 C  
HETATM   16  O   UNL     1      -6.289   7.576  66.772  1.00  0.00    -0.046 OA 
HETATM   17  O   UNL     1      -8.796  14.061  66.088  1.00  0.00    -0.453 OA 
HETATM   18  H   UNL     1      -8.472  13.341  65.560  1.00  0.00     0.000 HD 
HETATM   19  C   UNL     1     -11.004  11.919  67.552  1.00  0.00    -0.299 C  
HETATM   20  C   UNL     1     -11.387  10.477  67.926  1.00  0.00    -0.297 C  
HETATM   21  C   UNL     1     -10.711   9.440  67.036  1.00  0.00    -0.207 C  
HETATM   22  C   UNL     1      -9.206   9.554  67.031  1.00  0.00    -0.166 C  
HETATM   23  C   UNL     1      -8.457   8.440  67.171  1.00  0.00    -0.123 C  
HETATM   24  C   UNL     1      -6.985   8.523  67.115  1.00  0.00    -0.075 C  
ENDROOT
BRANCH   4  25
HETATM   25  C   UNL     1     -10.820  15.853  66.629  1.00  0.00    -0.213 C  
HETATM   26  O   UNL     1     -10.642  16.106  65.445  1.00  0.00    -0.385 OA 
BRANCH  25  27
HETATM   27  O   UNL     1     -10.729  16.838  67.590  1.00  0.00    -0.339 OA 
HETATM   28  C   UNL     1     -10.576  18.150  67.037  1.00  0.00    -0.328 C  
HETATM   29 CL   UNL     1      -8.881  18.646  67.242  1.00  0.00    -0.277 Cl 
ENDBRANCH  25  27
ENDBRANCH   4  25
TORSDOF 2
ENDMDL
MODEL       74
REMARK 921   NORMALIZED FREE ENERGY PREDICTED BY IDOCK:   -4.22 KCAL/MOL
REMARK 922        TOTAL FREE ENERGY PREDICTED BY IDOCK:   -4.14 KCAL/MOL
REMARK 923 INTER-LIGAND FREE ENERGY PREDICTED BY IDOCK:   -4.68 KCAL/MOL
REMARK 924 INTRA-LIGAND FREE ENERGY PREDICTED BY IDOCK:    0.54 KCAL/MOL
REMARK 927      BINDING AFFINITY PREDICTED BY RF-SCORE:    0.00 PKD
ROOT
HETATM    1  C   UNL     1     -10.015   9.015  70.598  1.00  0.00    -0.287 C  
HETATM    2  C   UNL     1     -11.103   9.765  70.090  1.00  0.00    -0.335 C  
HETATM    3  C   UNL     1     -11.000   8.405  69.478  1.00  0.00    -0.051 C  
HETATM    4  C   UNL     1      -9.688   7.078  70.356  1.00  0.00    -0.176 C  
HETATM    5  C   UNL     1      -6.566   7.572  67.084  1.00  0.00    -0.062 C  
HETATM    6  C   UNL     1     -10.990   7.343  70.623  1.00  0.00    -0.274 C  
HETATM    7  O   UNL     1      -8.883   7.443  71.568  1.00  0.00    -0.124 OA 
HETATM    8  C   UNL     1     -11.899   7.161  71.817  1.00  0.00    -0.338 C  
HETATM    9  C   UNL     1     -11.093   6.380  68.956  1.00  0.00    -0.424 C  
HETATM   10  C   UNL     1      -7.797   8.453  66.826  1.00  0.00    -0.094 C  
HETATM   11  C   UNL     1      -8.385   8.116  65.444  1.00  0.00    -0.163 C  
HETATM   12  H   UNL     1      -8.279   6.832  71.973  1.00  0.00     0.000 HD 
HETATM   13  C   UNL     1      -8.110   8.788  64.317  1.00  0.00    -0.157 C  
HETATM   14  C   UNL     1      -9.651   6.721  67.967  1.00  0.00    -0.117 C  
HETATM   15  C   UNL     1      -8.965   8.269  67.887  1.00  0.00    -0.134 C  
HETATM   16  O   UNL     1      -6.430  10.153  63.393  1.00  0.00    -0.132 OA 
HETATM   17  O   UNL     1      -8.646   5.777  68.366  1.00  0.00    -0.112 OA 
HETATM   18  H   UNL     1      -7.877   5.958  67.839  1.00  0.00     0.000 HD 
HETATM   19  C   UNL     1      -8.682   9.040  69.342  1.00  0.00    -0.142 C  
HETATM   20  C   UNL     1      -8.285  10.500  69.065  1.00  0.00    -0.145 C  
HETATM   21  C   UNL     1      -7.085  10.616  68.131  1.00  0.00    -0.081 C  
HETATM   22  C   UNL     1      -7.291   9.914  66.811  1.00  0.00    -0.095 C  
HETATM   23  C   UNL     1      -6.963  10.547  65.666  1.00  0.00    -0.113 C  
HETATM   24  C   UNL     1      -7.106   9.857  64.369  1.00  0.00    -0.134 C  
ENDROOT
BRANCH   4  25
HETATM   25  C   UNL     1      -9.759   5.452  70.867  1.00  0.00    -0.180 C  
HETATM   26  O   UNL     1     -10.236   4.481  70.297  1.00  0.00    -0.219 OA 
BRANCH  25  27
HETATM   27  O   UNL     1      -9.305   5.365  72.166  1.00  0.00    -0.142 OA 
HETATM   28  C   UNL     1      -9.517   4.075  72.750  1.00  0.00    -0.125 C  
HETATM   29 CL   UNL     1     -10.884   4.193  73.881  1.00  0.00    -0.318 Cl 
ENDBRANCH  25  27
ENDBRANCH   4  25
TORSDOF 2
ENDMDL
MODEL       75
REMARK 921   NORMALIZED FREE ENERGY PREDICTED BY IDOCK:   -4.13 KCAL/MOL
REMARK 922        TOTAL FREE ENERGY PREDICTED BY IDOCK:   -4.04 KCAL/MOL
REMARK 923 INTER-LIGAND FREE ENERGY PREDICTED BY IDOCK:   -4.77 KCAL/MOL
REMARK 924 INTRA-LIGAND FREE ENERGY PREDICTED BY IDOCK:    0.73 KCAL/MOL
REMARK 927      BINDING AFFINITY PREDICTED BY RF-SCORE:    0.00 PKD
ROOT
HETATM    1  C   UNL     1      -7.395   6.737  68.996  1.00  0.00    -0.094 C  
HETATM    2  C   UNL     1      -7.364   6.995  70.388  1.00  0.00    -0.083 C  
HETATM    3  C   UNL     1      -8.741   6.704  69.882  1.00  0.00    -0.141 C  
HETATM    4  C   UNL     1      -8.899   5.975  67.959  1.00  0.00    -0.110 C  
HETATM    5  C   UNL     1     -10.322   9.955  66.275  1.00  0.00    -0.233 C  
HETATM    6  C   UNL     1      -8.718   5.330  69.137  1.00  0.00    -0.106 C  
HETATM    7  O   UNL     1      -7.692   5.726  67.104  1.00  0.00    -0.098 OA 
HETATM    8  C   UNL     1      -8.166   3.986  69.551  1.00  0.00    -0.068 C  
HETATM    9  C   UNL     1     -10.560   5.889  69.244  1.00  0.00    -0.379 C  
HETATM   10  C   UNL     1     -10.048  10.047  67.782  1.00  0.00    -0.222 C  
HETATM   11  C   UNL     1     -11.319  10.531  68.503  1.00  0.00    -0.320 C  
HETATM   12  H   UNL     1      -7.765   5.390  66.218  1.00  0.00     0.000 HD 
HETATM   13  C   UNL     1     -11.566  11.807  68.832  1.00  0.00    -0.370 C  
HETATM   14  C   UNL     1     -10.780   7.431  68.381  1.00  0.00    -0.096 C  
HETATM   15  C   UNL     1      -9.626   8.670  68.454  1.00  0.00    -0.157 C  
HETATM   16  O   UNL     1     -10.973  13.989  68.175  1.00  0.00    -0.242 OA 
HETATM   17  O   UNL     1     -11.036   7.101  67.008  1.00  0.00    -0.533 OA 
HETATM   18  H   UNL     1     -11.153   7.924  66.548  1.00  0.00     0.000 HD 
HETATM   19  C   UNL     1      -8.039   8.237  68.163  1.00  0.00    -0.124 C  
HETATM   20  C   UNL     1      -7.125   9.427  68.500  1.00  0.00    -0.071 C  
HETATM   21  C   UNL     1      -7.503  10.693  67.740  1.00  0.00    -0.091 C  
HETATM   22  C   UNL     1      -8.937  11.109  67.959  1.00  0.00    -0.149 C  
HETATM   23  C   UNL     1      -9.219  12.401  68.229  1.00  0.00    -0.189 C  
HETATM   24  C   UNL     1     -10.618  12.838  68.393  1.00  0.00    -0.248 C  
ENDROOT
BRANCH   4  25
HETATM   25  C   UNL     1      -9.724   4.685  67.208  1.00  0.00    -0.185 C  
HETATM   26  O   UNL     1      -9.941   3.557  67.627  1.00  0.00     0.012 OA 
BRANCH  25  27
HETATM   27  O   UNL     1     -10.027   5.036  65.909  1.00  0.00    -0.179 OA 
HETATM   28  C   UNL     1      -9.818   3.969  64.977  1.00  0.00    -0.202 C  
HETATM   29 CL   UNL     1      -8.323   4.303  64.074  1.00  0.00    -0.099 Cl 
ENDBRANCH  25  27
ENDBRANCH   4  25
TORSDOF 2
ENDMDL
MODEL       76
REMARK 921   NORMALIZED FREE ENERGY PREDICTED BY IDOCK:   -4.12 KCAL/MOL
REMARK 922        TOTAL FREE ENERGY PREDICTED BY IDOCK:   -4.03 KCAL/MOL
REMARK 923 INTER-LIGAND FREE ENERGY PREDICTED BY IDOCK:   -4.55 KCAL/MOL
REMARK 924 INTRA-LIGAND FREE ENERGY PREDICTED BY IDOCK:    0.51 KCAL/MOL
REMARK 927      BINDING AFFINITY PREDICTED BY RF-SCORE:    0.00 PKD
ROOT
HETATM    1  C   UNL     1      -9.970   6.213  66.462  1.00  0.00    -0.179 C  
HETATM    2  C   UNL     1      -9.428   7.520  66.427  1.00  0.00    -0.208 C  
HETATM    3  C   UNL     1      -8.435   6.492  66.866  1.00  0.00    -0.114 C  
HETATM    4  C   UNL     1      -8.971   4.514  66.636  1.00  0.00    -0.114 C  
HETATM    5  C   UNL     1      -9.845   3.951  71.066  1.00  0.00    -0.219 C  
HETATM    6  C   UNL     1      -8.366   5.371  65.779  1.00  0.00    -0.126 C  
HETATM    7  O   UNL     1     -10.287   4.112  66.039  1.00  0.00    -0.427 OA 
HETATM    8  C   UNL     1      -8.201   5.452  64.280  1.00  0.00    -0.129 C  
HETATM    9  C   UNL     1      -6.972   5.008  67.061  1.00  0.00    -0.064 C  
HETATM   10  C   UNL     1      -9.398   5.387  70.758  1.00  0.00    -0.200 C  
HETATM   11  C   UNL     1      -8.165   5.731  71.614  1.00  0.00    -0.119 C  
HETATM   12  H   UNL     1     -10.533   3.201  65.933  1.00  0.00     0.000 HD 
HETATM   13  C   UNL     1      -8.213   6.377  72.788  1.00  0.00    -0.107 C  
HETATM   14  C   UNL     1      -7.683   4.726  68.670  1.00  0.00    -0.076 C  
HETATM   15  C   UNL     1      -8.995   5.634  69.240  1.00  0.00    -0.122 C  
HETATM   16  O   UNL     1      -9.701   6.786  74.565  1.00  0.00    -0.273 OA 
HETATM   17  O   UNL     1      -8.007   3.329  68.736  1.00  0.00    -0.057 OA 
HETATM   18  H   UNL     1      -8.387   3.178  69.594  1.00  0.00     0.000 HD 
HETATM   19  C   UNL     1     -10.303   5.791  68.214  1.00  0.00    -0.265 C  
HETATM   20  C   UNL     1     -11.279   6.826  68.800  1.00  0.00    -0.178 C  
HETATM   21  C   UNL     1     -11.723   6.479  70.216  1.00  0.00    -0.430 C  
HETATM   22  C   UNL     1     -10.569   6.307  71.174  1.00  0.00    -0.289 C  
HETATM   23  C   UNL     1     -10.621   6.895  72.386  1.00  0.00    -0.240 C  
HETATM   24  C   UNL     1      -9.528   6.695  73.358  1.00  0.00    -0.144 C  
ENDROOT
BRANCH   4  25
HETATM   25  C   UNL     1      -8.230   3.117  65.997  1.00  0.00    -0.094 C  
HETATM   26  O   UNL     1      -7.042   2.838  65.916  1.00  0.00    -0.061 OA 
BRANCH  25  27
HETATM   27  O   UNL     1      -9.191   2.327  65.401  1.00  0.00    -0.127 OA 
HETATM   28  C   UNL     1      -8.770   1.783  64.145  1.00  0.00    -0.089 C  
HETATM   29 CL   UNL     1      -9.582   2.687  62.847  1.00  0.00    -0.093 Cl 
ENDBRANCH  25  27
ENDBRANCH   4  25
TORSDOF 2
ENDMDL
MODEL       77
REMARK 921   NORMALIZED FREE ENERGY PREDICTED BY IDOCK:   -4.10 KCAL/MOL
REMARK 922        TOTAL FREE ENERGY PREDICTED BY IDOCK:   -4.01 KCAL/MOL
REMARK 923 INTER-LIGAND FREE ENERGY PREDICTED BY IDOCK:   -5.71 KCAL/MOL
REMARK 924 INTRA-LIGAND FREE ENERGY PREDICTED BY IDOCK:    1.70 KCAL/MOL
REMARK 927      BINDING AFFINITY PREDICTED BY RF-SCORE:    0.00 PKD
ROOT
HETATM    1  C   UNL     1     -10.594  14.181  67.219  1.00  0.00    -0.277 C  
HETATM    2  C   UNL     1      -9.311  13.582  67.204  1.00  0.00    -0.240 C  
HETATM    3  C   UNL     1      -9.637  14.221  68.515  1.00  0.00    -0.220 C  
HETATM    4  C   UNL     1     -11.586  14.828  68.805  1.00  0.00    -0.320 C  
HETATM    5  C   UNL     1     -10.604  19.224  68.167  1.00  0.00    -0.367 C  
HETATM    6  C   UNL     1     -10.988  13.634  69.035  1.00  0.00    -0.271 C  
HETATM    7  O   UNL     1     -12.644  14.623  67.761  1.00  0.00    -0.446 OA 
HETATM    8  C   UNL     1     -11.461  12.205  69.173  1.00  0.00    -0.352 C  
HETATM    9  C   UNL     1     -10.270  14.738  70.443  1.00  0.00     0.406 C  
HETATM   10  C   UNL     1      -9.357  18.341  68.017  1.00  0.00    -0.293 C  
HETATM   11  C   UNL     1      -8.275  18.816  69.003  1.00  0.00    -0.163 C  
HETATM   12  H   UNL     1     -13.542  14.902  67.895  1.00  0.00     0.000 HD 
HETATM   13  C   UNL     1      -7.279  19.657  68.690  1.00  0.00    -0.371 C  
HETATM   14  C   UNL     1     -10.123  16.422  69.880  1.00  0.00     0.048 C  
HETATM   15  C   UNL     1      -9.611  16.799  68.309  1.00  0.00    -0.244 C  
HETATM   16  O   UNL     1      -6.768  21.352  67.138  1.00  0.00    -0.537 OA 
HETATM   17  O   UNL     1     -11.388  17.051  70.131  1.00  0.00    -0.266 OA 
HETATM   18  H   UNL     1     -11.310  17.949  69.830  1.00  0.00     0.000 HD 
HETATM   19  C   UNL     1     -10.369  15.992  67.058  1.00  0.00    -0.292 C  
HETATM   20  C   UNL     1      -9.621  16.287  65.746  1.00  0.00    -0.266 C  
HETATM   21  C   UNL     1      -9.507  17.779  65.457  1.00  0.00     0.747 C  
HETATM   22  C   UNL     1      -8.846  18.551  66.573  1.00  0.00    -0.301 C  
HETATM   23  C   UNL     1      -7.885  19.450  66.277  1.00  0.00    -0.320 C  
HETATM   24  C   UNL     1      -7.264  20.254  67.349  1.00  0.00    -0.290 C  
ENDROOT
BRANCH   4  25
HETATM   25  C   UNL     1     -12.745  14.653  70.045  1.00  0.00    -0.152 C  
HETATM   26  O   UNL     1     -13.753  15.312  70.261  1.00  0.00     0.090 OA 
BRANCH  25  27
HETATM   27  O   UNL     1     -12.314  13.694  70.937  1.00  0.00    -0.351 OA 
HETATM   28  C   UNL     1     -13.310  13.337  71.902  1.00  0.00    -0.451 C  
HETATM   29 CL   UNL     1     -12.881  14.097  73.451  1.00  0.00    -0.210 Cl 
ENDBRANCH  25  27
ENDBRANCH   4  25
TORSDOF 2
ENDMDL
MODEL       78
REMARK 921   NORMALIZED FREE ENERGY PREDICTED BY IDOCK:   -4.09 KCAL/MOL
REMARK 922        TOTAL FREE ENERGY PREDICTED BY IDOCK:   -3.99 KCAL/MOL
REMARK 923 INTER-LIGAND FREE ENERGY PREDICTED BY IDOCK:   -5.71 KCAL/MOL
REMARK 924 INTRA-LIGAND FREE ENERGY PREDICTED BY IDOCK:    1.72 KCAL/MOL
REMARK 927      BINDING AFFINITY PREDICTED BY RF-SCORE:    0.00 PKD
ROOT
HETATM    1  C   UNL     1     -11.068  16.940  68.876  1.00  0.00    -0.128 C  
HETATM    2  C   UNL     1     -10.689  16.420  70.137  1.00  0.00    -0.209 C  
HETATM    3  C   UNL     1      -9.547  16.499  69.176  1.00  0.00    -0.228 C  
HETATM    4  C   UNL     1      -9.862  17.548  67.429  1.00  0.00    -0.297 C  
HETATM    5  C   UNL     1     -10.268  13.778  64.914  1.00  0.00    -0.374 C  
HETATM    6  C   UNL     1      -9.442  17.966  68.647  1.00  0.00    -0.301 C  
HETATM    7  O   UNL     1     -11.169  18.223  67.133  1.00  0.00    -0.004 OA 
HETATM    8  C   UNL     1      -9.422  19.286  69.381  1.00  0.00    -0.079 C  
HETATM    9  C   UNL     1      -7.906  17.009  67.980  1.00  0.00    -0.182 C  
HETATM   10  C   UNL     1     -10.023  13.445  66.393  1.00  0.00    -0.293 C  
HETATM   11  C   UNL     1      -8.769  12.560  66.515  1.00  0.00    -0.035 C  
HETATM   12  H   UNL     1     -11.314  18.707  66.328  1.00  0.00     0.000 HD 
HETATM   13  C   UNL     1      -8.788  11.222  66.586  1.00  0.00    -0.175 C  
HETATM   14  C   UNL     1      -8.434  15.662  66.940  1.00  0.00    -0.251 C  
HETATM   15  C   UNL     1      -9.788  14.717  67.317  1.00  0.00    -0.231 C  
HETATM   16  O   UNL     1     -10.151   9.401  65.978  1.00  0.00    -0.300 OA 
HETATM   17  O   UNL     1      -8.583  16.199  65.617  1.00  0.00    -0.188 OA 
HETATM   18  H   UNL     1      -8.864  15.481  65.062  1.00  0.00     0.000 HD 
HETATM   19  C   UNL     1     -11.192  15.536  67.705  1.00  0.00    -0.291 C  
HETATM   20  C   UNL     1     -12.227  14.531  68.238  1.00  0.00    -0.126 C  
HETATM   21  C   UNL     1     -12.500  13.393  67.261  1.00  0.00     0.039 C  
HETATM   22  C   UNL     1     -11.253  12.638  66.867  1.00  0.00    -0.348 C  
HETATM   23  C   UNL     1     -11.267  11.289  66.870  1.00  0.00    -0.300 C  
HETATM   24  C   UNL     1     -10.076  10.533  66.437  1.00  0.00    -0.228 C  
ENDROOT
BRANCH   4  25
HETATM   25  C   UNL     1      -9.021  18.752  66.561  1.00  0.00    -0.319 C  
HETATM   26  O   UNL     1      -9.362  19.367  65.560  1.00  0.00    -0.184 OA 
BRANCH  25  27
HETATM   27  O   UNL     1      -7.745  18.869  67.070  1.00  0.00    -0.225 OA 
HETATM   28  C   UNL     1      -6.956  19.851  66.389  1.00  0.00    -0.230 C  
HETATM   29 CL   UNL     1      -5.801  19.005  65.335  1.00  0.00    -0.224 Cl 
ENDBRANCH  25  27
ENDBRANCH   4  25
TORSDOF 2
ENDMDL
MODEL       79
REMARK 921   NORMALIZED FREE ENERGY PREDICTED BY IDOCK:   -4.09 KCAL/MOL
REMARK 922        TOTAL FREE ENERGY PREDICTED BY IDOCK:   -3.99 KCAL/MOL
REMARK 923 INTER-LIGAND FREE ENERGY PREDICTED BY IDOCK:   -5.56 KCAL/MOL
REMARK 924 INTRA-LIGAND FREE ENERGY PREDICTED BY IDOCK:    1.57 KCAL/MOL
REMARK 927      BINDING AFFINITY PREDICTED BY RF-SCORE:    0.00 PKD
ROOT
HETATM    1  C   UNL     1     -10.177   6.410  68.672  1.00  0.00    -0.201 C  
HETATM    2  C   UNL     1      -8.883   5.929  68.359  1.00  0.00    -0.111 C  
HETATM    3  C   UNL     1      -8.927   6.678  69.652  1.00  0.00    -0.142 C  
HETATM    4  C   UNL     1     -10.790   7.138  70.408  1.00  0.00    -0.246 C  
HETATM    5  C   UNL     1     -10.520  11.506  69.165  1.00  0.00    -0.135 C  
HETATM    6  C   UNL     1     -10.019   6.034  70.564  1.00  0.00    -0.233 C  
HETATM    7  O   UNL     1     -12.052   6.726  69.710  1.00  0.00    -0.648 OA 
HETATM    8  C   UNL     1     -10.273   4.594  70.943  1.00  0.00    -0.213 C  
HETATM    9  C   UNL     1      -9.091   7.347  71.629  1.00  0.00    -0.141 C  
HETATM   10  C   UNL     1      -9.263  10.726  68.757  1.00  0.00    -0.192 C  
HETATM   11  C   UNL     1      -8.022  11.401  69.370  1.00  0.00     0.257 C  
HETATM   12  H   UNL     1     -12.911   6.937  70.058  1.00  0.00     0.000 HD 
HETATM   13  C   UNL     1      -7.246  12.287  68.731  1.00  0.00    -0.098 C  
HETATM   14  C   UNL     1      -9.290   8.964  70.910  1.00  0.00    -0.238 C  
HETATM   15  C   UNL     1      -9.252   9.210  69.233  1.00  0.00    -0.146 C  
HETATM   16  O   UNL     1      -7.355  13.839  66.964  1.00  0.00     0.049 OA 
HETATM   17  O   UNL     1     -10.510   9.503  71.441  1.00  0.00    -0.317 OA 
HETATM   18  H   UNL     1     -10.617  10.366  71.057  1.00  0.00     0.000 HD 
HETATM   19  C   UNL     1     -10.212   8.205  68.305  1.00  0.00    -0.245 C  
HETATM   20  C   UNL     1      -9.871   8.418  66.821  1.00  0.00    -0.329 C  
HETATM   21  C   UNL     1     -10.009   9.874  66.389  1.00  0.00    -0.309 C  
HETATM   22  C   UNL     1      -9.173  10.820  67.216  1.00  0.00    -0.158 C  
HETATM   23  C   UNL     1      -8.432  11.762  66.598  1.00  0.00    -0.153 C  
HETATM   24  C   UNL     1      -7.650  12.731  67.391  1.00  0.00    -0.152 C  
ENDROOT
BRANCH   4  25
HETATM   25  C   UNL     1     -11.558   6.999  71.924  1.00  0.00    -0.284 C  
HETATM   26  O   UNL     1     -11.083   6.688  73.007  1.00  0.00    -0.255 OA 
BRANCH  25  27
HETATM   27  O   UNL     1     -12.918   7.155  71.759  1.00  0.00    -0.352 OA 
HETATM   28  C   UNL     1     -13.290   8.488  71.391  1.00  0.00    -0.217 C  
HETATM   29 CL   UNL     1     -13.989   9.285  72.819  1.00  0.00    -0.348 Cl 
ENDBRANCH  25  27
ENDBRANCH   4  25
TORSDOF 2
ENDMDL
MODEL       80
REMARK 921   NORMALIZED FREE ENERGY PREDICTED BY IDOCK:   -4.04 KCAL/MOL
REMARK 922        TOTAL FREE ENERGY PREDICTED BY IDOCK:   -3.94 KCAL/MOL
REMARK 923 INTER-LIGAND FREE ENERGY PREDICTED BY IDOCK:   -4.49 KCAL/MOL
REMARK 924 INTRA-LIGAND FREE ENERGY PREDICTED BY IDOCK:    0.55 KCAL/MOL
REMARK 927      BINDING AFFINITY PREDICTED BY RF-SCORE:    0.00 PKD
ROOT
HETATM    1  C   UNL     1      -9.040  10.250  68.306  1.00  0.00    -0.139 C  
HETATM    2  C   UNL     1      -8.271  10.925  69.284  1.00  0.00    -0.046 C  
HETATM    3  C   UNL     1      -7.672   9.617  68.875  1.00  0.00    -0.077 C  
HETATM    4  C   UNL     1      -8.485   8.689  67.223  1.00  0.00    -0.115 C  
HETATM    5  C   UNL     1     -10.732   5.616  69.714  1.00  0.00    -0.401 C  
HETATM    6  C   UNL     1      -7.499   9.613  67.322  1.00  0.00    -0.088 C  
HETATM    7  O   UNL     1      -9.615   9.298  66.446  1.00  0.00    -0.197 OA 
HETATM    8  C   UNL     1      -6.883  10.629  66.389  1.00  0.00    -0.129 C  
HETATM    9  C   UNL     1      -6.648   8.018  67.994  1.00  0.00    -0.057 C  
HETATM   10  C   UNL     1      -9.946   6.592  70.600  1.00  0.00    -0.201 C  
HETATM   11  C   UNL     1      -8.983   5.799  71.502  1.00  0.00    -0.146 C  
HETATM   12  H   UNL     1      -9.989   8.871  65.685  1.00  0.00     0.000 HD 
HETATM   13  C   UNL     1      -9.252   5.432  72.762  1.00  0.00    -0.142 C  
HETATM   14  C   UNL     1      -7.847   6.990  68.817  1.00  0.00    -0.118 C  
HETATM   15  C   UNL     1      -9.069   7.644  69.793  1.00  0.00    -0.147 C  
HETATM   16  O   UNL     1     -11.095   5.005  74.164  1.00  0.00    -0.275 OA 
HETATM   17  O   UNL     1      -8.439   6.160  67.807  1.00  0.00    -0.115 OA 
HETATM   18  H   UNL     1      -9.079   5.611  68.246  1.00  0.00     0.000 HD 
HETATM   19  C   UNL     1      -9.955   8.902  69.143  1.00  0.00    -0.192 C  
HETATM   20  C   UNL     1     -10.843   9.510  70.243  1.00  0.00    -0.319 C  
HETATM   21  C   UNL     1     -11.747   8.477  70.906  1.00  0.00    -0.274 C  
HETATM   22  C   UNL     1     -10.987   7.310  71.489  1.00  0.00    -0.259 C  
HETATM   23  C   UNL     1     -11.284   6.881  72.733  1.00  0.00    -0.277 C  
HETATM   24  C   UNL     1     -10.590   5.708  73.300  1.00  0.00    -0.250 C  
ENDROOT
BRANCH   4  25
HETATM   25  C   UNL     1      -7.871   7.967  65.805  1.00  0.00    -0.097 C  
HETATM   26  O   UNL     1      -6.787   7.436  65.613  1.00  0.00    -0.054 OA 
BRANCH  25  27
HETATM   27  O   UNL     1      -8.751   8.189  64.766  1.00  0.00    -0.043 OA 
HETATM   28  C   UNL     1      -8.103   8.630  63.567  1.00  0.00    -0.167 C  
HETATM   29 CL   UNL     1      -8.399  10.373  63.383  1.00  0.00    -0.166 Cl 
ENDBRANCH  25  27
ENDBRANCH   4  25
TORSDOF 2
ENDMDL
MODEL       81
REMARK 921   NORMALIZED FREE ENERGY PREDICTED BY IDOCK:   -4.03 KCAL/MOL
REMARK 922        TOTAL FREE ENERGY PREDICTED BY IDOCK:   -3.93 KCAL/MOL
REMARK 923 INTER-LIGAND FREE ENERGY PREDICTED BY IDOCK:   -5.73 KCAL/MOL
REMARK 924 INTRA-LIGAND FREE ENERGY PREDICTED BY IDOCK:    1.80 KCAL/MOL
REMARK 927      BINDING AFFINITY PREDICTED BY RF-SCORE:    0.00 PKD
ROOT
HETATM    1  C   UNL     1      -9.126   6.034  71.370  1.00  0.00    -0.149 C  
HETATM    2  C   UNL     1      -7.902   6.436  71.955  1.00  0.00    -0.100 C  
HETATM    3  C   UNL     1      -8.779   7.591  71.595  1.00  0.00    -0.126 C  
HETATM    4  C   UNL     1     -10.723   7.161  71.057  1.00  0.00    -0.232 C  
HETATM    5  C   UNL     1      -9.931   7.809  66.624  1.00  0.00    -0.299 C  
HETATM    6  C   UNL     1     -10.172   7.390  72.274  1.00  0.00    -0.237 C  
HETATM    7  O   UNL     1     -11.250   5.756  71.044  1.00  0.00    -0.245 OA 
HETATM    8  C   UNL     1     -10.541   7.055  73.699  1.00  0.00    -0.383 C  
HETATM    9  C   UNL     1     -10.175   9.147  71.478  1.00  0.00    -0.403 C  
HETATM   10  C   UNL     1      -8.662   8.024  67.460  1.00  0.00    -0.125 C  
HETATM   11  C   UNL     1      -8.111   9.437  67.196  1.00  0.00    -0.102 C  
HETATM   12  H   UNL     1     -12.145   5.558  70.797  1.00  0.00     0.000 HD 
HETATM   13  C   UNL     1      -7.146   9.723  66.311  1.00  0.00    -0.095 C  
HETATM   14  C   UNL     1      -9.952   9.017  69.715  1.00  0.00    -0.196 C  
HETATM   15  C   UNL     1      -8.884   7.895  69.028  1.00  0.00    -0.145 C  
HETATM   16  O   UNL     1      -6.194   8.862  64.337  1.00  0.00    -0.070 OA 
HETATM   17  O   UNL     1     -11.258   8.837  69.148  1.00  0.00    -0.433 OA 
HETATM   18  H   UNL     1     -11.140   8.768  68.208  1.00  0.00     0.000 HD 
HETATM   19  C   UNL     1      -9.004   6.317  69.564  1.00  0.00    -0.134 C  
HETATM   20  C   UNL     1      -7.818   5.509  69.011  1.00  0.00    -0.091 C  
HETATM   21  C   UNL     1      -7.721   5.573  67.491  1.00  0.00    -0.096 C  
HETATM   22  C   UNL     1      -7.631   6.984  66.962  1.00  0.00    -0.102 C  
HETATM   23  C   UNL     1      -6.709   7.283  66.023  1.00  0.00    -0.053 C  
HETATM   24  C   UNL     1      -6.641   8.643  65.454  1.00  0.00    -0.067 C  
ENDROOT
BRANCH   4  25
HETATM   25  C   UNL     1     -12.264   7.758  71.477  1.00  0.00    -0.318 C  
HETATM   26  O   UNL     1     -13.369   7.362  71.132  1.00  0.00    -0.305 OA 
BRANCH  25  27
HETATM   27  O   UNL     1     -12.117   8.924  72.199  1.00  0.00    -0.358 OA 
HETATM   28  C   UNL     1     -13.294   9.740  72.194  1.00  0.00    -0.431 C  
HETATM   29 CL   UNL     1     -13.018  11.107  71.091  1.00  0.00    -0.437 Cl 
ENDBRANCH  25  27
ENDBRANCH   4  25
TORSDOF 2
ENDMDL
MODEL       82
REMARK 921   NORMALIZED FREE ENERGY PREDICTED BY IDOCK:   -4.00 KCAL/MOL
REMARK 922        TOTAL FREE ENERGY PREDICTED BY IDOCK:   -3.89 KCAL/MOL
REMARK 923 INTER-LIGAND FREE ENERGY PREDICTED BY IDOCK:   -4.45 KCAL/MOL
REMARK 924 INTRA-LIGAND FREE ENERGY PREDICTED BY IDOCK:    0.56 KCAL/MOL
REMARK 927      BINDING AFFINITY PREDICTED BY RF-SCORE:    0.00 PKD
ROOT
HETATM    1  C   UNL     1     -10.100  10.683  69.282  1.00  0.00    -0.227 C  
HETATM    2  C   UNL     1     -11.226  10.939  68.464  1.00  0.00    -0.335 C  
HETATM    3  C   UNL     1     -10.952   9.479  68.633  1.00  0.00    -0.113 C  
HETATM    4  C   UNL     1      -9.566   8.945  70.063  1.00  0.00    -0.178 C  
HETATM    5  C   UNL     1      -6.326   8.068  66.993  1.00  0.00    -0.056 C  
HETATM    6  C   UNL     1     -10.901   9.155  70.160  1.00  0.00    -0.269 C  
HETATM    7  O   UNL     1      -8.873   9.965  70.917  1.00  0.00    -0.327 OA 
HETATM    8  C   UNL     1     -11.855   9.500  71.280  1.00  0.00    -0.450 C  
HETATM    9  C   UNL     1     -10.809   7.474  69.218  1.00  0.00    -0.131 C  
HETATM   10  C   UNL     1      -7.621   8.546  66.323  1.00  0.00    -0.090 C  
HETATM   11  C   UNL     1      -8.091   7.488  65.308  1.00  0.00    -0.130 C  
HETATM   12  H   UNL     1      -8.235   9.719  71.576  1.00  0.00     0.000 HD 
HETATM   13  C   UNL     1      -7.821   7.522  63.996  1.00  0.00    -0.127 C  
HETATM   14  C   UNL     1      -9.354   7.431  68.192  1.00  0.00    -0.135 C  
HETATM   15  C   UNL     1      -8.825   8.792  67.332  1.00  0.00    -0.140 C  
HETATM   16  O   UNL     1      -6.236   8.414  62.501  1.00  0.00    -0.086 OA 
HETATM   17  O   UNL     1      -8.285   6.944  69.016  1.00  0.00    -0.122 OA 
HETATM   18  H   UNL     1      -7.508   6.921  68.469  1.00  0.00     0.000 HD 
HETATM   19  C   UNL     1      -8.705  10.222  68.187  1.00  0.00    -0.123 C  
HETATM   20  C   UNL     1      -8.442  11.374  67.202  1.00  0.00    -0.153 C  
HETATM   21  C   UNL     1      -7.208  11.138  66.338  1.00  0.00    -0.094 C  
HETATM   22  C   UNL     1      -7.265   9.844  65.563  1.00  0.00    -0.122 C  
HETATM   23  C   UNL     1      -6.937   9.841  64.255  1.00  0.00    -0.123 C  
HETATM   24  C   UNL     1      -6.934   8.578  63.492  1.00  0.00    -0.089 C  
ENDROOT
BRANCH   4  25
HETATM   25  C   UNL     1      -9.502   7.808  71.334  1.00  0.00    -0.148 C  
HETATM   26  O   UNL     1     -10.412   7.187  71.864  1.00  0.00    -0.197 OA 
BRANCH  25  27
HETATM   27  O   UNL     1      -8.219   7.761  71.836  1.00  0.00    -0.099 OA 
HETATM   28  C   UNL     1      -8.103   6.944  73.006  1.00  0.00    -0.106 C  
HETATM   29 CL   UNL     1      -7.965   8.012  74.420  1.00  0.00    -0.279 Cl 
ENDBRANCH  25  27
ENDBRANCH   4  25
TORSDOF 2
ENDMDL
MODEL       83
REMARK 921   NORMALIZED FREE ENERGY PREDICTED BY IDOCK:   -4.00 KCAL/MOL
REMARK 922        TOTAL FREE ENERGY PREDICTED BY IDOCK:   -3.89 KCAL/MOL
REMARK 923 INTER-LIGAND FREE ENERGY PREDICTED BY IDOCK:   -4.43 KCAL/MOL
REMARK 924 INTRA-LIGAND FREE ENERGY PREDICTED BY IDOCK:    0.54 KCAL/MOL
REMARK 927      BINDING AFFINITY PREDICTED BY RF-SCORE:    0.00 PKD
ROOT
HETATM    1  C   UNL     1      -7.525   8.323  67.996  1.00  0.00    -0.097 C  
HETATM    2  C   UNL     1      -7.290   8.980  66.765  1.00  0.00    -0.086 C  
HETATM    3  C   UNL     1      -8.731   8.645  66.977  1.00  0.00    -0.135 C  
HETATM    4  C   UNL     1      -9.278   8.003  68.859  1.00  0.00    -0.147 C  
HETATM    5  C   UNL     1      -9.601   3.649  67.578  1.00  0.00    -0.194 C  
HETATM    6  C   UNL     1      -9.188   9.252  68.342  1.00  0.00    -0.132 C  
HETATM    7  O   UNL     1      -8.286   7.892  69.978  1.00  0.00    -0.115 OA 
HETATM    8  C   UNL     1      -9.026  10.641  68.915  1.00  0.00    -0.172 C  
HETATM    9  C   UNL     1     -10.762   8.553  67.475  1.00  0.00    -0.211 C  
HETATM   10  C   UNL     1      -9.172   4.549  66.411  1.00  0.00    -0.137 C  
HETATM   11  C   UNL     1     -10.167   4.385  65.248  1.00  0.00    -0.230 C  
HETATM   12  H   UNL     1      -8.538   7.596  70.845  1.00  0.00     0.000 HD 
HETATM   13  C   UNL     1      -9.992   3.559  64.208  1.00  0.00    -0.191 C  
HETATM   14  C   UNL     1     -10.591   6.797  67.228  1.00  0.00    -0.320 C  
HETATM   15  C   UNL     1      -9.119   6.097  66.766  1.00  0.00    -0.137 C  
HETATM   16  O   UNL     1      -8.839   1.584  63.646  1.00  0.00    -0.082 OA 
HETATM   17  O   UNL     1     -11.062   6.166  68.428  1.00  0.00    -0.330 OA 
HETATM   18  H   UNL     1     -10.970   5.229  68.296  1.00  0.00     0.000 HD 
HETATM   19  C   UNL     1      -7.768   6.541  67.643  1.00  0.00    -0.106 C  
HETATM   20  C   UNL     1      -6.513   5.997  66.939  1.00  0.00    -0.050 C  
HETATM   21  C   UNL     1      -6.566   4.488  66.727  1.00  0.00    -0.050 C  
HETATM   22  C   UNL     1      -7.784   4.040  65.956  1.00  0.00    -0.090 C  
HETATM   23  C   UNL     1      -7.641   3.159  64.945  1.00  0.00    -0.077 C  
HETATM   24  C   UNL     1      -8.825   2.668  64.213  1.00  0.00    -0.099 C  
ENDROOT
BRANCH   4  25
HETATM   25  C   UNL     1     -10.517   8.388  69.966  1.00  0.00    -0.224 C  
HETATM   26  O   UNL     1     -11.164   9.420  70.076  1.00  0.00    -0.240 OA 
BRANCH  25  27
HETATM   27  O   UNL     1     -10.626   7.375  70.895  1.00  0.00    -0.220 OA 
HETATM   28  C   UNL     1     -11.305   7.779  72.089  1.00  0.00    -0.302 C  
HETATM   29 CL   UNL     1     -10.092   7.997  73.371  1.00  0.00    -0.257 Cl 
ENDBRANCH  25  27
ENDBRANCH   4  25
TORSDOF 2
ENDMDL
MODEL       84
REMARK 921   NORMALIZED FREE ENERGY PREDICTED BY IDOCK:   -3.87 KCAL/MOL
REMARK 922        TOTAL FREE ENERGY PREDICTED BY IDOCK:   -3.75 KCAL/MOL
REMARK 923 INTER-LIGAND FREE ENERGY PREDICTED BY IDOCK:   -4.59 KCAL/MOL
REMARK 924 INTRA-LIGAND FREE ENERGY PREDICTED BY IDOCK:    0.84 KCAL/MOL
REMARK 927      BINDING AFFINITY PREDICTED BY RF-SCORE:    0.00 PKD
ROOT
HETATM    1  C   UNL     1      -7.108  15.787  68.183  1.00  0.00    -0.123 C  
HETATM    2  C   UNL     1      -6.072  15.564  67.245  1.00  0.00     0.085 C  
HETATM    3  C   UNL     1      -7.390  15.842  66.597  1.00  0.00    -0.015 C  
HETATM    4  C   UNL     1      -8.909  16.523  67.816  1.00  0.00    -0.197 C  
HETATM    5  C   UNL     1     -11.037  12.502  67.872  1.00  0.00    -0.286 C  
HETATM    6  C   UNL     1      -7.940  17.197  67.148  1.00  0.00    -0.216 C  
HETATM    7  O   UNL     1      -8.705  16.752  69.284  1.00  0.00    -0.146 OA 
HETATM    8  C   UNL     1      -7.285  18.551  67.288  1.00  0.00    -0.215 C  
HETATM    9  C   UNL     1      -9.118  16.640  65.727  1.00  0.00    -0.002 C  
HETATM   10  C   UNL     1      -9.752  12.447  67.034  1.00  0.00    -0.211 C  
HETATM   11  C   UNL     1     -10.093  11.981  65.608  1.00  0.00    -0.272 C  
HETATM   12  H   UNL     1      -9.405  17.066  69.845  1.00  0.00     0.000 HD 
HETATM   13  C   UNL     1     -10.002  10.714  65.181  1.00  0.00    -0.366 C  
HETATM   14  C   UNL     1      -9.868  15.077  66.134  1.00  0.00    -0.301 C  
HETATM   15  C   UNL     1      -8.999  13.841  66.902  1.00  0.00    -0.234 C  
HETATM   16  O   UNL     1     -10.032   8.516  66.026  1.00  0.00    -0.191 OA 
HETATM   17  O   UNL     1     -11.047  15.373  66.897  1.00  0.00    -0.316 OA 
HETATM   18  H   UNL     1     -11.447  14.539  67.114  1.00  0.00     0.000 HD 
HETATM   19  C   UNL     1      -8.129  14.268  68.263  1.00  0.00    -0.143 C  
HETATM   20  C   UNL     1      -7.234  13.087  68.675  1.00  0.00    -0.101 C  
HETATM   21  C   UNL     1      -8.023  11.802  68.901  1.00  0.00     0.009 C  
HETATM   22  C   UNL     1      -8.842  11.390  67.702  1.00  0.00    -0.139 C  
HETATM   23  C   UNL     1      -8.816  10.106  67.291  1.00  0.00    -0.137 C  
HETATM   24  C   UNL     1      -9.651   9.672  66.154  1.00  0.00    -0.233 C  
ENDROOT
BRANCH   4  25
HETATM   25  C   UNL     1     -10.045  17.794  67.753  1.00  0.00    -0.345 C  
HETATM   26  O   UNL     1     -10.604  18.286  66.783  1.00  0.00    -0.370 OA 
BRANCH  25  27
HETATM   27  O   UNL     1     -10.172  18.349  69.009  1.00  0.00    -0.367 OA 
HETATM   28  C   UNL     1     -10.061  19.777  69.004  1.00  0.00    -0.334 C  
HETATM   29 CL   UNL     1      -8.460  20.212  69.642  1.00  0.00     0.579 Cl 
ENDBRANCH  25  27
ENDBRANCH   4  25
TORSDOF 2
ENDMDL
MODEL       85
REMARK 921   NORMALIZED FREE ENERGY PREDICTED BY IDOCK:   -3.81 KCAL/MOL
REMARK 922        TOTAL FREE ENERGY PREDICTED BY IDOCK:   -3.68 KCAL/MOL
REMARK 923 INTER-LIGAND FREE ENERGY PREDICTED BY IDOCK:   -4.43 KCAL/MOL
REMARK 924 INTRA-LIGAND FREE ENERGY PREDICTED BY IDOCK:    0.75 KCAL/MOL
REMARK 927      BINDING AFFINITY PREDICTED BY RF-SCORE:    0.00 PKD
ROOT
HETATM    1  C   UNL     1      -7.440  11.399  66.819  1.00  0.00    -0.137 C  
HETATM    2  C   UNL     1      -6.545  12.111  67.653  1.00  0.00    -0.116 C  
HETATM    3  C   UNL     1      -7.358  11.105  68.401  1.00  0.00    -0.094 C  
HETATM    4  C   UNL     1      -8.449   9.761  67.280  1.00  0.00    -0.125 C  
HETATM    5  C   UNL     1     -12.393  11.889  68.063  1.00  0.00     0.614 C  
HETATM    6  C   UNL     1      -7.170   9.709  67.724  1.00  0.00    -0.085 C  
HETATM    7  O   UNL     1      -8.420   9.770  65.780  1.00  0.00    -0.128 OA 
HETATM    8  C   UNL     1      -5.920   8.967  67.312  1.00  0.00    -0.050 C  
HETATM    9  C   UNL     1      -8.185   9.426  69.339  1.00  0.00    -0.119 C  
HETATM   10  C   UNL     1     -11.221  12.607  68.745  1.00  0.00    -0.325 C  
HETATM   11  C   UNL     1     -11.500  12.719  70.255  1.00  0.00     0.129 C  
HETATM   12  H   UNL     1      -8.922   9.150  65.264  1.00  0.00     0.000 HD 
HETATM   13  C   UNL     1     -12.039  13.793  70.850  1.00  0.00    -0.366 C  
HETATM   14  C   UNL     1      -9.723  10.320  69.256  1.00  0.00    -0.225 C  
HETATM   15  C   UNL     1      -9.821  11.872  68.583  1.00  0.00    -0.139 C  
HETATM   16  O   UNL     1     -13.411  15.638  70.346  1.00  0.00    -0.338 OA 
HETATM   17  O   UNL     1     -10.664   9.457  68.600  1.00  0.00    -0.280 OA 
HETATM   18  H   UNL     1     -11.485   9.934  68.555  1.00  0.00     0.000 HD 
HETATM   19  C   UNL     1      -9.118  12.086  67.083  1.00  0.00    -0.186 C  
HETATM   20  C   UNL     1      -9.101  13.587  66.747  1.00  0.00    -0.223 C  
HETATM   21  C   UNL     1     -10.488  14.218  66.806  1.00  0.00    -0.273 C  
HETATM   22  C   UNL     1     -11.169  14.029  68.139  1.00  0.00    -0.299 C  
HETATM   23  C   UNL     1     -11.774  15.081  68.729  1.00  0.00    -0.360 C  
HETATM   24  C   UNL     1     -12.492  14.906  70.007  1.00  0.00    -0.275 C  
ENDROOT
BRANCH   4  25
HETATM   25  C   UNL     1      -8.677   8.070  67.287  1.00  0.00    -0.131 C  
HETATM   26  O   UNL     1      -8.045   7.206  67.878  1.00  0.00    -0.116 OA 
BRANCH  25  27
HETATM   27  O   UNL     1      -9.647   7.740  66.364  1.00  0.00    -0.203 OA 
HETATM   28  C   UNL     1     -10.635   6.843  66.884  1.00  0.00    -0.302 C  
HETATM   29 CL   UNL     1     -10.318   5.223  66.222  1.00  0.00    -0.279 Cl 
ENDBRANCH  25  27
ENDBRANCH   4  25
TORSDOF 2
ENDMDL
MODEL       86
REMARK 921   NORMALIZED FREE ENERGY PREDICTED BY IDOCK:   -3.74 KCAL/MOL
REMARK 922        TOTAL FREE ENERGY PREDICTED BY IDOCK:   -3.61 KCAL/MOL
REMARK 923 INTER-LIGAND FREE ENERGY PREDICTED BY IDOCK:   -5.37 KCAL/MOL
REMARK 924 INTRA-LIGAND FREE ENERGY PREDICTED BY IDOCK:    1.76 KCAL/MOL
REMARK 927      BINDING AFFINITY PREDICTED BY RF-SCORE:    0.00 PKD
ROOT
HETATM    1  C   UNL     1      -6.604  11.437  68.177  1.00  0.00    -0.057 C  
HETATM    2  C   UNL     1      -6.572  11.575  69.585  1.00  0.00    -0.112 C  
HETATM    3  C   UNL     1      -7.919  11.179  69.073  1.00  0.00    -0.087 C  
HETATM    4  C   UNL     1      -8.039  10.606  67.095  1.00  0.00    -0.121 C  
HETATM    5  C   UNL     1      -9.923  14.534  65.785  1.00  0.00    -0.361 C  
HETATM    6  C   UNL     1      -7.763   9.886  68.210  1.00  0.00    -0.085 C  
HETATM    7  O   UNL     1      -6.831  10.565  66.207  1.00  0.00    -0.111 OA 
HETATM    8  C   UNL     1      -7.059   8.580  68.497  1.00  0.00    -0.073 C  
HETATM    9  C   UNL     1      -9.653  10.226  68.388  1.00  0.00    -0.155 C  
HETATM   10  C   UNL     1      -9.627  14.526  67.291  1.00  0.00    -0.226 C  
HETATM   11  C   UNL     1     -10.928  14.803  68.067  1.00  0.00    -0.276 C  
HETATM   12  H   UNL     1      -6.886  10.301  65.296  1.00  0.00     0.000 HD 
HETATM   13  C   UNL     1     -11.306  16.010  68.510  1.00  0.00    -0.382 C  
HETATM   14  C   UNL     1     -10.058  11.804  67.667  1.00  0.00    -0.193 C  
HETATM   15  C   UNL     1      -9.044  13.151  67.834  1.00  0.00    -0.207 C  
HETATM   16  O   UNL     1     -10.968  18.293  68.040  1.00  0.00    -0.254 OA 
HETATM   17  O   UNL     1     -10.306  11.566  66.274  1.00  0.00    -0.225 OA 
HETATM   18  H   UNL     1     -10.522  12.408  65.889  1.00  0.00     0.000 HD 
HETATM   19  C   UNL     1      -7.426  12.922  67.487  1.00  0.00    -0.155 C  
HETATM   20  C   UNL     1      -6.639  14.172  67.916  1.00  0.00    -0.174 C  
HETATM   21  C   UNL     1      -7.170  15.449  67.275  1.00  0.00    -0.229 C  
HETATM   22  C   UNL     1      -8.636  15.685  67.547  1.00  0.00    -0.185 C  
HETATM   23  C   UNL     1      -9.050  16.909  67.933  1.00  0.00    -0.233 C  
HETATM   24  C   UNL     1     -10.485  17.174  68.151  1.00  0.00    -0.366 C  
ENDROOT
BRANCH   4  25
HETATM   25  C   UNL     1      -8.735   9.302  66.244  1.00  0.00    -0.142 C  
HETATM   26  O   UNL     1      -9.297   9.297  65.158  1.00  0.00    -0.240 OA 
BRANCH  25  27
HETATM   27  O   UNL     1      -8.719   8.178  67.044  1.00  0.00    -0.127 OA 
HETATM   28  C   UNL     1      -9.219   7.011  66.383  1.00  0.00    -0.149 C  
HETATM   29 CL   UNL     1     -10.854   6.680  66.999  1.00  0.00    -0.447 Cl 
ENDBRANCH  25  27
ENDBRANCH   4  25
TORSDOF 2
ENDMDL
MODEL       87
REMARK 921   NORMALIZED FREE ENERGY PREDICTED BY IDOCK:   -3.70 KCAL/MOL
REMARK 922        TOTAL FREE ENERGY PREDICTED BY IDOCK:   -3.56 KCAL/MOL
REMARK 923 INTER-LIGAND FREE ENERGY PREDICTED BY IDOCK:   -4.00 KCAL/MOL
REMARK 924 INTRA-LIGAND FREE ENERGY PREDICTED BY IDOCK:    0.44 KCAL/MOL
REMARK 927      BINDING AFFINITY PREDICTED BY RF-SCORE:    0.00 PKD
ROOT
HETATM    1  C   UNL     1     -10.019   5.626  69.106  1.00  0.00    -0.244 C  
HETATM    2  C   UNL     1      -9.042   5.192  68.178  1.00  0.00    -0.125 C  
HETATM    3  C   UNL     1      -8.454   5.937  69.333  1.00  0.00    -0.113 C  
HETATM    4  C   UNL     1      -9.700   6.328  70.929  1.00  0.00    -0.176 C  
HETATM    5  C   UNL     1     -10.222  10.705  69.802  1.00  0.00    -0.098 C  
HETATM    6  C   UNL     1      -8.922   5.253  70.658  1.00  0.00    -0.159 C  
HETATM    7  O   UNL     1     -11.129   5.873  70.950  1.00  0.00    -0.282 OA 
HETATM    8  C   UNL     1      -8.908   3.804  71.085  1.00  0.00    -0.135 C  
HETATM    9  C   UNL     1      -7.625   6.597  71.139  1.00  0.00    -0.089 C  
HETATM   10  C   UNL     1      -9.316   9.971  68.804  1.00  0.00    -0.162 C  
HETATM   11  C   UNL     1      -7.956  10.689  68.726  1.00  0.00    -0.135 C  
HETATM   12  H   UNL     1     -11.703   6.053  71.685  1.00  0.00     0.000 HD 
HETATM   13  C   UNL     1      -7.632  11.603  67.801  1.00  0.00    -0.121 C  
HETATM   14  C   UNL     1      -8.207   8.207  70.647  1.00  0.00    -0.114 C  
HETATM   15  C   UNL     1      -9.022   8.456  69.182  1.00  0.00    -0.147 C  
HETATM   16  O   UNL     1      -8.659  13.152  66.356  1.00  0.00     0.074 OA 
HETATM   17  O   UNL     1      -9.011   8.701  71.728  1.00  0.00    -0.205 OA 
HETATM   18  H   UNL     1      -9.322   9.560  71.466  1.00  0.00     0.000 HD 
HETATM   19  C   UNL     1     -10.287   7.419  68.841  1.00  0.00    -0.214 C  
HETATM   20  C   UNL     1     -10.742   7.646  67.389  1.00  0.00    -0.318 C  
HETATM   21  C   UNL     1     -11.122   9.096  67.112  1.00  0.00     0.309 C  
HETATM   22  C   UNL     1     -10.013  10.070  67.427  1.00  0.00    -0.242 C  
HETATM   23  C   UNL     1      -9.710  11.039  66.539  1.00  0.00    -0.230 C  
HETATM   24  C   UNL     1      -8.666  12.034  66.852  1.00  0.00    -0.193 C  
ENDROOT
BRANCH   4  25
HETATM   25  C   UNL     1      -9.600   6.161  72.624  1.00  0.00    -0.155 C  
HETATM   26  O   UNL     1      -8.624   6.255  73.355  1.00  0.00    -0.122 OA 
BRANCH  25  27
HETATM   27  O   UNL     1     -10.817   5.733  73.109  1.00  0.00    -0.246 OA 
HETATM   28  C   UNL     1     -10.712   5.050  74.364  1.00  0.00    -0.080 C  
HETATM   29 CL   UNL     1     -10.906   3.308  74.067  1.00  0.00    -0.281 Cl 
ENDBRANCH  25  27
ENDBRANCH   4  25
TORSDOF 2
ENDMDL
MODEL       88
REMARK 921   NORMALIZED FREE ENERGY PREDICTED BY IDOCK:   -3.54 KCAL/MOL
REMARK 922        TOTAL FREE ENERGY PREDICTED BY IDOCK:   -3.38 KCAL/MOL
REMARK 923 INTER-LIGAND FREE ENERGY PREDICTED BY IDOCK:   -3.81 KCAL/MOL
REMARK 924 INTRA-LIGAND FREE ENERGY PREDICTED BY IDOCK:    0.43 KCAL/MOL
REMARK 927      BINDING AFFINITY PREDICTED BY RF-SCORE:    0.00 PKD
ROOT
HETATM    1  C   UNL     1      -7.441   5.336  69.646  1.00  0.00    -0.065 C  
HETATM    2  C   UNL     1      -6.063   5.650  69.731  1.00  0.00    -0.025 C  
HETATM    3  C   UNL     1      -6.943   6.801  70.097  1.00  0.00    -0.066 C  
HETATM    4  C   UNL     1      -8.950   6.402  70.355  1.00  0.00    -0.155 C  
HETATM    5  C   UNL     1     -10.109   8.226  66.352  1.00  0.00    -0.222 C  
HETATM    6  C   UNL     1      -7.916   6.343  71.230  1.00  0.00    -0.112 C  
HETATM    7  O   UNL     1      -9.510   5.018  70.205  1.00  0.00    -0.145 OA 
HETATM    8  C   UNL     1      -7.655   5.626  72.534  1.00  0.00    -0.098 C  
HETATM    9  C   UNL     1      -8.163   8.242  71.002  1.00  0.00    -0.123 C  
HETATM   10  C   UNL     1      -8.594   8.297  66.585  1.00  0.00    -0.135 C  
HETATM   11  C   UNL     1      -8.131   9.762  66.489  1.00  0.00    -0.116 C  
HETATM   12  H   UNL     1     -10.434   4.835  70.324  1.00  0.00     0.000 HD 
HETATM   13  C   UNL     1      -7.628  10.328  65.384  1.00  0.00    -0.146 C  
HETATM   14  C   UNL     1      -8.729   8.587  69.349  1.00  0.00    -0.136 C  
HETATM   15  C   UNL     1      -8.126   7.752  68.003  1.00  0.00    -0.123 C  
HETATM   16  O   UNL     1      -7.669  10.071  63.044  1.00  0.00    -0.134 OA 
HETATM   17  O   UNL     1     -10.160   8.479  69.373  1.00  0.00    -0.193 OA 
HETATM   18  H   UNL     1     -10.462   8.663  68.491  1.00  0.00     0.000 HD 
HETATM   19  C   UNL     1      -8.093   6.085  68.106  1.00  0.00    -0.110 C  
HETATM   20  C   UNL     1      -7.308   5.524  66.908  1.00  0.00    -0.079 C  
HETATM   21  C   UNL     1      -7.871   5.987  65.569  1.00  0.00    -0.105 C  
HETATM   22  C   UNL     1      -7.939   7.489  65.441  1.00  0.00    -0.124 C  
HETATM   23  C   UNL     1      -7.496   8.079  64.311  1.00  0.00    -0.106 C  
HETATM   24  C   UNL     1      -7.603   9.541  64.144  1.00  0.00    -0.123 C  
ENDROOT
BRANCH   4  25
HETATM   25  C   UNL     1     -10.124   6.771  71.537  1.00  0.00    -0.181 C  
HETATM   26  O   UNL     1     -10.152   7.693  72.339  1.00  0.00    -0.186 OA 
BRANCH  25  27
HETATM   27  O   UNL     1     -11.050   5.751  71.589  1.00  0.00    -0.265 OA 
HETATM   28  C   UNL     1     -11.594   5.553  72.899  1.00  0.00    -0.218 C  
HETATM   29 CL   UNL     1     -10.853   4.094  73.595  1.00  0.00    -0.317 Cl 
ENDBRANCH  25  27
ENDBRANCH   4  25
TORSDOF 2
ENDMDL
MODEL       89
REMARK 921   NORMALIZED FREE ENERGY PREDICTED BY IDOCK:   -3.33 KCAL/MOL
REMARK 922        TOTAL FREE ENERGY PREDICTED BY IDOCK:   -3.14 KCAL/MOL
REMARK 923 INTER-LIGAND FREE ENERGY PREDICTED BY IDOCK:   -3.60 KCAL/MOL
REMARK 924 INTRA-LIGAND FREE ENERGY PREDICTED BY IDOCK:    0.46 KCAL/MOL
REMARK 927      BINDING AFFINITY PREDICTED BY RF-SCORE:    0.00 PKD
ROOT
HETATM    1  C   UNL     1     -10.339   6.060  69.039  1.00  0.00    -0.283 C  
HETATM    2  C   UNL     1     -10.867   6.036  67.726  1.00  0.00    -0.380 C  
HETATM    3  C   UNL     1      -9.376   5.932  67.753  1.00  0.00    -0.106 C  
HETATM    4  C   UNL     1      -8.492   5.607  69.587  1.00  0.00    -0.110 C  
HETATM    5  C   UNL     1      -7.088   9.916  69.982  1.00  0.00    -0.127 C  
HETATM    6  C   UNL     1      -8.978   4.733  68.672  1.00  0.00    -0.136 C  
HETATM    7  O   UNL     1      -9.300   5.460  70.843  1.00  0.00    -0.150 OA 
HETATM    8  C   UNL     1      -9.466   3.304  68.707  1.00  0.00    -0.198 C  
HETATM    9  C   UNL     1      -7.362   5.366  67.830  1.00  0.00    -0.073 C  
HETATM   10  C   UNL     1      -7.863   9.694  68.676  1.00  0.00    -0.081 C  
HETATM   11  C   UNL     1      -6.979  10.100  67.483  1.00  0.00    -0.085 C  
HETATM   12  H   UNL     1      -8.892   5.310  71.688  1.00  0.00     0.000 HD 
HETATM   13  C   UNL     1      -7.015  11.298  66.884  1.00  0.00    -0.137 C  
HETATM   14  C   UNL     1      -7.058   7.059  68.294  1.00  0.00    -0.082 C  
HETATM   15  C   UNL     1      -8.313   8.189  68.432  1.00  0.00    -0.126 C  
HETATM   16  O   UNL     1      -7.618  13.528  67.340  1.00  0.00    -0.165 OA 
HETATM   17  O   UNL     1      -6.316   7.021  69.522  1.00  0.00    -0.033 OA 
HETATM   18  H   UNL     1      -6.153   7.924  69.770  1.00  0.00     0.000 HD 
HETATM   19  C   UNL     1      -9.642   7.729  69.333  1.00  0.00    -0.156 C  
HETATM   20  C   UNL     1     -10.757   8.774  69.150  1.00  0.00    -0.150 C  
HETATM   21  C   UNL     1     -10.304  10.185  69.509  1.00  0.00    -0.263 C  
HETATM   22  C   UNL     1      -9.090  10.633  68.732  1.00  0.00    -0.170 C  
HETATM   23  C   UNL     1      -9.078  11.861  68.172  1.00  0.00    -0.190 C  
HETATM   24  C   UNL     1      -7.880  12.339  67.454  1.00  0.00    -0.171 C  
ENDROOT
BRANCH   4  25
HETATM   25  C   UNL     1      -7.309   4.540  70.198  1.00  0.00    -0.050 C  
HETATM   26  O   UNL     1      -6.429   3.936  69.602  1.00  0.00    -0.031 OA 
BRANCH  25  27
HETATM   27  O   UNL     1      -7.560   4.302  71.533  1.00  0.00    -0.064 OA 
HETATM   28  C   UNL     1      -6.979   3.081  72.005  1.00  0.00    -0.034 C  
HETATM   29 CL   UNL     1      -8.276   1.877  72.175  1.00  0.00    -0.052 Cl 
ENDBRANCH  25  27
ENDBRANCH   4  25
TORSDOF 2
ENDMDL
MODEL       90
REMARK 921   NORMALIZED FREE ENERGY PREDICTED BY IDOCK:   -3.32 KCAL/MOL
REMARK 922        TOTAL FREE ENERGY PREDICTED BY IDOCK:   -3.13 KCAL/MOL
REMARK 923 INTER-LIGAND FREE ENERGY PREDICTED BY IDOCK:   -4.99 KCAL/MOL
REMARK 924 INTRA-LIGAND FREE ENERGY PREDICTED BY IDOCK:    1.86 KCAL/MOL
REMARK 927      BINDING AFFINITY PREDICTED BY RF-SCORE:    0.00 PKD
ROOT
HETATM    1  C   UNL     1     -11.654  13.902  67.849  1.00  0.00    -0.377 C  
HETATM    2  C   UNL     1     -12.486  14.368  66.803  1.00  0.00    -0.054 C  
HETATM    3  C   UNL     1     -11.117  13.997  66.332  1.00  0.00    -0.316 C  
HETATM    4  C   UNL     1      -9.910  12.985  67.663  1.00  0.00    -0.212 C  
HETATM    5  C   UNL     1      -7.389  16.656  68.594  1.00  0.00    -0.203 C  
HETATM    6  C   UNL     1     -10.821  12.527  66.770  1.00  0.00    -0.281 C  
HETATM    7  O   UNL     1     -10.381  12.614  69.038  1.00  0.00    -0.425 OA 
HETATM    8  C   UNL     1     -11.636  11.263  66.622  1.00  0.00     0.123 C  
HETATM    9  C   UNL     1      -9.366  13.086  65.635  1.00  0.00     0.198 C  
HETATM   10  C   UNL     1      -8.500  16.977  67.585  1.00  0.00    -0.210 C  
HETATM   11  C   UNL     1      -7.874  17.559  66.304  1.00  0.00    -0.322 C  
HETATM   12  H   UNL     1      -9.825  12.147  69.651  1.00  0.00     0.000 HD 
HETATM   13  C   UNL     1      -7.752  18.868  66.046  1.00  0.00    -0.239 C  
HETATM   14  C   UNL     1      -8.527  14.479  66.362  1.00  0.00     0.334 C  
HETATM   15  C   UNL     1      -9.370  15.720  67.150  1.00  0.00    -0.224 C  
HETATM   16  O   UNL     1      -7.622  20.928  67.179  1.00  0.00    -0.327 OA 
HETATM   17  O   UNL     1      -7.533  13.943  67.248  1.00  0.00    -0.300 OA 
HETATM   18  H   UNL     1      -7.085  14.686  67.636  1.00  0.00     0.000 HD 
HETATM   19  C   UNL     1     -10.499  15.255  68.290  1.00  0.00    -0.244 C  
HETATM   20  C   UNL     1     -11.314  16.487  68.719  1.00  0.00    -0.221 C  
HETATM   21  C   UNL     1     -10.437  17.621  69.237  1.00  0.00    -0.026 C  
HETATM   22  C   UNL     1      -9.387  18.059  68.244  1.00  0.00    -0.299 C  
HETATM   23  C   UNL     1      -9.202  19.375  68.013  1.00  0.00    -0.388 C  
HETATM   24  C   UNL     1      -8.144  19.826  67.087  1.00  0.00    -0.292 C  
ENDROOT
BRANCH   4  25
HETATM   25  C   UNL     1      -8.927  11.592  67.601  1.00  0.00    -0.160 C  
HETATM   26  O   UNL     1      -8.480  10.918  68.519  1.00  0.00    -0.132 OA 
BRANCH  25  27
HETATM   27  O   UNL     1      -8.543  11.366  66.296  1.00  0.00    -0.177 OA 
HETATM   28  C   UNL     1      -7.882  10.108  66.116  1.00  0.00    -0.116 C  
HETATM   29 CL   UNL     1      -6.140  10.417  65.932  1.00  0.00    -0.102 Cl 
ENDBRANCH  25  27
ENDBRANCH   4  25
TORSDOF 2
ENDMDL
MODEL       91
REMARK 921   NORMALIZED FREE ENERGY PREDICTED BY IDOCK:   -3.31 KCAL/MOL
REMARK 922        TOTAL FREE ENERGY PREDICTED BY IDOCK:   -3.12 KCAL/MOL
REMARK 923 INTER-LIGAND FREE ENERGY PREDICTED BY IDOCK:   -4.93 KCAL/MOL
REMARK 924 INTRA-LIGAND FREE ENERGY PREDICTED BY IDOCK:    1.81 KCAL/MOL
REMARK 927      BINDING AFFINITY PREDICTED BY RF-SCORE:    0.00 PKD
ROOT
HETATM    1  C   UNL     1      -8.270  14.865  68.032  1.00  0.00    -0.140 C  
HETATM    2  C   UNL     1      -7.716  15.610  66.963  1.00  0.00    -0.257 C  
HETATM    3  C   UNL     1      -9.176  15.341  66.787  1.00  0.00    -0.274 C  
HETATM    4  C   UNL     1     -10.191  14.575  68.410  1.00  0.00    -0.239 C  
HETATM    5  C   UNL     1     -10.341  10.370  66.679  1.00  0.00    -0.292 C  
HETATM    6  C   UNL     1      -9.933  15.857  68.053  1.00  0.00    -0.220 C  
HETATM    7  O   UNL     1      -9.509  14.313  69.721  1.00  0.00    -0.085 OA 
HETATM    8  C   UNL     1      -9.868  17.180  68.778  1.00  0.00    -0.293 C  
HETATM    9  C   UNL     1     -11.269  15.324  66.768  1.00  0.00    -0.241 C  
HETATM   10  C   UNL     1      -9.607  11.339  65.742  1.00  0.00    -0.256 C  
HETATM   11  C   UNL     1     -10.292  11.332  64.363  1.00  0.00    -0.388 C  
HETATM   12  H   UNL     1      -9.977  13.961  70.469  1.00  0.00     0.000 HD 
HETATM   13  C   UNL     1      -9.895  10.587  63.322  1.00  0.00    -0.309 C  
HETATM   14  C   UNL     1     -11.105  13.588  66.403  1.00  0.00    -0.302 C  
HETATM   15  C   UNL     1      -9.589  12.846  66.246  1.00  0.00    -0.245 C  
HETATM   16  O   UNL     1      -8.710   8.604  62.869  1.00  0.00    -0.126 OA 
HETATM   17  O   UNL     1     -11.877  12.886  67.388  1.00  0.00    -0.367 OA 
HETATM   18  H   UNL     1     -11.789  11.961  67.193  1.00  0.00     0.000 HD 
HETATM   19  C   UNL     1      -8.481  13.137  67.461  1.00  0.00    -0.198 C  
HETATM   20  C   UNL     1      -7.111  12.582  67.033  1.00  0.00     0.031 C  
HETATM   21  C   UNL     1      -7.163  11.102  66.671  1.00  0.00    -0.144 C  
HETATM   22  C   UNL     1      -8.169  10.792  65.589  1.00  0.00    -0.127 C  
HETATM   23  C   UNL     1      -7.813   9.992  64.563  1.00  0.00    -0.145 C  
HETATM   24  C   UNL     1      -8.797   9.633  63.524  1.00  0.00    -0.234 C  
ENDROOT
BRANCH   4  25
HETATM   25  C   UNL     1     -11.650  14.936  69.217  1.00  0.00    -0.306 C  
HETATM   26  O   UNL     1     -12.500  15.771  68.943  1.00  0.00    -0.003 OA 
BRANCH  25  27
HETATM   27  O   UNL     1     -11.707  14.219  70.393  1.00  0.00    -0.286 OA 
HETATM   28  C   UNL     1     -11.644  12.802  70.190  1.00  0.00    -0.052 C  
HETATM   29 CL   UNL     1     -13.276  12.135  70.416  1.00  0.00     0.564 Cl 
ENDBRANCH  25  27
ENDBRANCH   4  25
TORSDOF 2
ENDMDL
MODEL       92
REMARK 921   NORMALIZED FREE ENERGY PREDICTED BY IDOCK:   -3.23 KCAL/MOL
REMARK 922        TOTAL FREE ENERGY PREDICTED BY IDOCK:   -3.03 KCAL/MOL
REMARK 923 INTER-LIGAND FREE ENERGY PREDICTED BY IDOCK:   -4.74 KCAL/MOL
REMARK 924 INTRA-LIGAND FREE ENERGY PREDICTED BY IDOCK:    1.71 KCAL/MOL
REMARK 927      BINDING AFFINITY PREDICTED BY RF-SCORE:    0.00 PKD
ROOT
HETATM    1  C   UNL     1      -9.379  18.281  67.050  1.00  0.00    -0.274 C  
HETATM    2  C   UNL     1     -10.517  18.574  67.840  1.00  0.00    -0.419 C  
HETATM    3  C   UNL     1      -9.766  17.376  68.326  1.00  0.00    -0.299 C  
HETATM    4  C   UNL     1      -7.911  17.031  67.496  1.00  0.00    -0.170 C  
HETATM    5  C   UNL     1      -9.416  13.640  64.863  1.00  0.00     0.658 C  
HETATM    6  C   UNL     1      -8.276  17.784  68.562  1.00  0.00    -0.296 C  
HETATM    7  O   UNL     1      -7.321  17.946  66.463  1.00  0.00    -0.207 OA 
HETATM    8  C   UNL     1      -7.672  18.948  69.311  1.00  0.00    -0.074 C  
HETATM    9  C   UNL     1      -8.487  15.986  69.227  1.00  0.00    -0.224 C  
HETATM   10  C   UNL     1     -10.549  14.245  65.703  1.00  0.00    -0.328 C  
HETATM   11  C   UNL     1     -11.205  13.138  66.547  1.00  0.00    -0.339 C  
HETATM   12  H   UNL     1      -6.466  17.787  66.081  1.00  0.00     0.000 HD 
HETATM   13  C   UNL     1     -12.309  12.466  66.192  1.00  0.00     0.112 C  
HETATM   14  C   UNL     1      -8.975  14.900  67.901  1.00  0.00    -0.177 C  
HETATM   15  C   UNL     1     -10.078  15.382  66.709  1.00  0.00    -0.266 C  
HETATM   16  O   UNL     1     -13.512  11.862  64.261  1.00  0.00    -0.545 OA 
HETATM   17  O   UNL     1      -7.765  14.448  67.274  1.00  0.00    -0.226 OA 
HETATM   18  H   UNL     1      -8.025  13.869  66.567  1.00  0.00     0.000 HD 
HETATM   19  C   UNL     1      -9.795  16.856  65.976  1.00  0.00    -0.281 C  
HETATM   20  C   UNL     1     -11.010  17.224  65.107  1.00  0.00     0.118 C  
HETATM   21  C   UNL     1     -11.347  16.149  64.081  1.00  0.00     0.085 C  
HETATM   22  C   UNL     1     -11.590  14.794  64.700  1.00  0.00    -0.401 C  
HETATM   23  C   UNL     1     -12.660  14.070  64.313  1.00  0.00    -0.171 C  
HETATM   24  C   UNL     1     -12.886  12.721  64.866  1.00  0.00    -0.278 C  
ENDROOT
BRANCH   4  25
HETATM   25  C   UNL     1      -6.355  16.670  68.095  1.00  0.00    -0.135 C  
HETATM   26  O   UNL     1      -5.345  16.351  67.485  1.00  0.00    -0.128 OA 
BRANCH  25  27
HETATM   27  O   UNL     1      -6.397  16.638  69.473  1.00  0.00    -0.209 OA 
HETATM   28  C   UNL     1      -5.171  16.188  70.062  1.00  0.00    -0.144 C  
HETATM   29 CL   UNL     1      -5.404  14.518  70.624  1.00  0.00    -0.121 Cl 
ENDBRANCH  25  27
ENDBRANCH   4  25
TORSDOF 2
ENDMDL
MODEL       93
REMARK 921   NORMALIZED FREE ENERGY PREDICTED BY IDOCK:   -3.17 KCAL/MOL
REMARK 922        TOTAL FREE ENERGY PREDICTED BY IDOCK:   -2.97 KCAL/MOL
REMARK 923 INTER-LIGAND FREE ENERGY PREDICTED BY IDOCK:   -4.57 KCAL/MOL
REMARK 924 INTRA-LIGAND FREE ENERGY PREDICTED BY IDOCK:    1.60 KCAL/MOL
REMARK 927      BINDING AFFINITY PREDICTED BY RF-SCORE:    0.00 PKD
ROOT
HETATM    1  C   UNL     1      -8.209  10.405  64.763  1.00  0.00    -0.141 C  
HETATM    2  C   UNL     1      -8.724   9.768  63.608  1.00  0.00    -0.235 C  
HETATM    3  C   UNL     1      -9.779  10.070  64.624  1.00  0.00    -0.339 C  
HETATM    4  C   UNL     1      -9.246  11.296  66.194  1.00  0.00    -0.206 C  
HETATM    5  C   UNL     1      -8.957   7.849  69.148  1.00  0.00    -0.145 C  
HETATM    6  C   UNL     1      -9.724  11.594  64.961  1.00  0.00    -0.237 C  
HETATM    7  O   UNL     1      -7.870  11.881  66.311  1.00  0.00    -0.378 OA 
HETATM    8  C   UNL     1      -9.693  12.809  64.063  1.00  0.00     0.256 C  
HETATM    9  C   UNL     1     -11.276  10.871  65.848  1.00  0.00     0.163 C  
HETATM   10  C   UNL     1      -9.341   7.357  67.746  1.00  0.00    -0.144 C  
HETATM   11  C   UNL     1     -10.668   6.581  67.823  1.00  0.00    -0.368 C  
HETATM   12  H   UNL     1      -7.625  12.446  67.034  1.00  0.00     0.000 HD 
HETATM   13  C   UNL     1     -10.763   5.248  67.928  1.00  0.00    -0.008 C  
HETATM   14  C   UNL     1     -10.782   9.623  67.018  1.00  0.00    -0.155 C  
HETATM   15  C   UNL     1      -9.542   8.519  66.680  1.00  0.00    -0.292 C  
HETATM   16  O   UNL     1      -9.510   3.402  68.677  1.00  0.00    -0.170 OA 
HETATM   17  O   UNL     1     -10.488  10.305  68.247  1.00  0.00    -0.177 OA 
HETATM   18  H   UNL     1     -10.225   9.639  68.871  1.00  0.00     0.000 HD 
HETATM   19  C   UNL     1      -8.110   9.153  66.097  1.00  0.00    -0.107 C  
HETATM   20  C   UNL     1      -7.204   8.000  65.633  1.00  0.00    -0.071 C  
HETATM   21  C   UNL     1      -6.951   6.973  66.731  1.00  0.00    -0.073 C  
HETATM   22  C   UNL     1      -8.220   6.389  67.301  1.00  0.00    -0.113 C  
HETATM   23  C   UNL     1      -8.317   5.055  67.475  1.00  0.00    -0.105 C  
HETATM   24  C   UNL     1      -9.528   4.469  68.081  1.00  0.00    -0.149 C  
ENDROOT
BRANCH   4  25
HETATM   25  C   UNL     1      -9.918  12.670  66.950  1.00  0.00    -0.230 C  
HETATM   26  O   UNL     1     -10.835  12.739  67.755  1.00  0.00    -0.217 OA 
BRANCH  25  27
HETATM   27  O   UNL     1      -9.360  13.806  66.403  1.00  0.00    -0.262 OA 
HETATM   28  C   UNL     1     -10.115  14.991  66.681  1.00  0.00    -0.261 C  
HETATM   29 CL   UNL     1     -10.993  15.450  65.205  1.00  0.00    -0.407 Cl 
ENDBRANCH  25  27
ENDBRANCH   4  25
TORSDOF 2
ENDMDL
MODEL       94
REMARK 921   NORMALIZED FREE ENERGY PREDICTED BY IDOCK:   -3.16 KCAL/MOL
REMARK 922        TOTAL FREE ENERGY PREDICTED BY IDOCK:   -2.96 KCAL/MOL
REMARK 923 INTER-LIGAND FREE ENERGY PREDICTED BY IDOCK:   -4.65 KCAL/MOL
REMARK 924 INTRA-LIGAND FREE ENERGY PREDICTED BY IDOCK:    1.69 KCAL/MOL
REMARK 927      BINDING AFFINITY PREDICTED BY RF-SCORE:    0.00 PKD
ROOT
HETATM    1  C   UNL     1      -6.722   4.802  67.906  1.00  0.00    -0.054 C  
HETATM    2  C   UNL     1      -6.785   3.722  68.819  1.00  0.00    -0.045 C  
HETATM    3  C   UNL     1      -8.014   3.843  67.978  1.00  0.00    -0.080 C  
HETATM    4  C   UNL     1      -7.933   5.142  66.378  1.00  0.00    -0.104 C  
HETATM    5  C   UNL     1     -10.405   8.327  68.486  1.00  0.00    -0.230 C  
HETATM    6  C   UNL     1      -7.593   3.833  66.474  1.00  0.00    -0.084 C  
HETATM    7  O   UNL     1      -6.694   5.921  66.051  1.00  0.00    -0.055 OA 
HETATM    8  C   UNL     1      -6.687   2.901  65.702  1.00  0.00    -0.043 C  
HETATM    9  C   UNL     1      -9.519   3.769  66.524  1.00  0.00    -0.204 C  
HETATM   10  C   UNL     1     -10.189   7.099  69.380  1.00  0.00    -0.194 C  
HETATM   11  C   UNL     1     -11.555   6.541  69.819  1.00  0.00    -0.392 C  
HETATM   12  H   UNL     1      -6.656   6.519  65.314  1.00  0.00     0.000 HD 
HETATM   13  C   UNL     1     -12.159   6.835  70.978  1.00  0.00    -0.426 C  
HETATM   14  C   UNL     1     -10.156   5.229  67.321  1.00  0.00    -0.195 C  
HETATM   15  C   UNL     1      -9.402   5.910  68.677  1.00  0.00    -0.126 C  
HETATM   16  O   UNL     1     -12.201   8.529  72.613  1.00  0.00    -0.379 OA 
HETATM   17  O   UNL     1     -10.290   6.229  66.300  1.00  0.00    -0.425 OA 
HETATM   18  H   UNL     1     -10.629   7.008  66.725  1.00  0.00     0.000 HD 
HETATM   19  C   UNL     1      -7.754   6.161  68.574  1.00  0.00    -0.100 C  
HETATM   20  C   UNL     1      -7.220   6.558  69.961  1.00  0.00    -0.080 C  
HETATM   21  C   UNL     1      -7.932   7.776  70.539  1.00  0.00    -0.098 C  
HETATM   22  C   UNL     1      -9.428   7.599  70.630  1.00  0.00    -0.163 C  
HETATM   23  C   UNL     1     -10.068   7.948  71.765  1.00  0.00    -0.236 C  
HETATM   24  C   UNL     1     -11.537   7.834  71.856  1.00  0.00    -0.287 C  
ENDROOT
BRANCH   4  25
HETATM   25  C   UNL     1      -8.348   5.067  64.725  1.00  0.00    -0.140 C  
HETATM   26  O   UNL     1      -8.262   5.932  63.865  1.00  0.00    -0.118 OA 
BRANCH  25  27
HETATM   27  O   UNL     1      -8.976   3.866  64.470  1.00  0.00    -0.121 OA 
HETATM   28  C   UNL     1      -9.179   3.625  63.072  1.00  0.00    -0.101 C  
HETATM   29 CL   UNL     1     -10.897   3.903  62.705  1.00  0.00    -0.166 Cl 
ENDBRANCH  25  27
ENDBRANCH   4  25
TORSDOF 2
ENDMDL
MODEL       95
REMARK 921   NORMALIZED FREE ENERGY PREDICTED BY IDOCK:   -3.08 KCAL/MOL
REMARK 922        TOTAL FREE ENERGY PREDICTED BY IDOCK:   -2.86 KCAL/MOL
REMARK 923 INTER-LIGAND FREE ENERGY PREDICTED BY IDOCK:   -4.52 KCAL/MOL
REMARK 924 INTRA-LIGAND FREE ENERGY PREDICTED BY IDOCK:    1.66 KCAL/MOL
REMARK 927      BINDING AFFINITY PREDICTED BY RF-SCORE:    0.00 PKD
ROOT
HETATM    1  C   UNL     1      -8.655   4.976  69.268  1.00  0.00    -0.096 C  
HETATM    2  C   UNL     1      -9.810   4.939  70.086  1.00  0.00    -0.309 C  
HETATM    3  C   UNL     1     -10.132   5.108  68.636  1.00  0.00    -0.220 C  
HETATM    4  C   UNL     1      -8.591   4.834  67.295  1.00  0.00    -0.104 C  
HETATM    5  C   UNL     1      -8.072   9.294  66.559  1.00  0.00    -0.104 C  
HETATM    6  C   UNL     1      -9.459   3.947  67.838  1.00  0.00    -0.227 C  
HETATM    7  O   UNL     1      -7.208   4.462  67.740  1.00  0.00    -0.063 OA 
HETATM    8  C   UNL     1      -9.465   2.453  68.063  1.00  0.00    -0.199 C  
HETATM    9  C   UNL     1     -10.573   4.917  66.599  1.00  0.00    -0.200 C  
HETATM   10  C   UNL     1      -9.185   9.017  67.579  1.00  0.00    -0.152 C  
HETATM   11  C   UNL     1     -10.498   9.654  67.087  1.00  0.00    -0.317 C  
HETATM   12  H   UNL     1      -6.498   4.335  67.122  1.00  0.00     0.000 HD 
HETATM   13  C   UNL     1     -10.944  10.861  67.462  1.00  0.00    -0.352 C  
HETATM   14  C   UNL     1     -10.015   6.604  66.471  1.00  0.00    -0.084 C  
HETATM   15  C   UNL     1      -9.478   7.474  67.823  1.00  0.00    -0.157 C  
HETATM   16  O   UNL     1     -10.130  12.909  68.292  1.00  0.00    -0.233 OA 
HETATM   17  O   UNL     1      -8.998   6.625  65.459  1.00  0.00    -0.349 OA 
HETATM   18  H   UNL     1      -8.700   7.524  65.391  1.00  0.00     0.000 HD 
HETATM   19  C   UNL     1      -8.353   6.722  68.802  1.00  0.00    -0.121 C  
HETATM   20  C   UNL     1      -8.168   7.554  70.083  1.00  0.00    -0.132 C  
HETATM   21  C   UNL     1      -7.774   8.998  69.793  1.00  0.00    -0.077 C  
HETATM   22  C   UNL     1      -8.754   9.710  68.892  1.00  0.00    -0.132 C  
HETATM   23  C   UNL     1      -9.170  10.952  69.216  1.00  0.00    -0.006 C  
HETATM   24  C   UNL     1     -10.086  11.687  68.321  1.00  0.00    -0.202 C  
ENDROOT
BRANCH   4  25
HETATM   25  C   UNL     1      -8.379   3.965  65.842  1.00  0.00    -0.109 C  
HETATM   26  O   UNL     1      -7.556   4.131  64.953  1.00  0.00    -0.075 OA 
BRANCH  25  27
HETATM   27  O   UNL     1      -9.414   3.066  65.697  1.00  0.00    -0.127 OA 
HETATM   28  C   UNL     1      -9.401   2.393  64.433  1.00  0.00    -0.135 C  
HETATM   29 CL   UNL     1     -10.679   3.095  63.416  1.00  0.00    -0.241 Cl 
ENDBRANCH  25  27
ENDBRANCH   4  25
TORSDOF 2
ENDMDL
MODEL       96
REMARK 921   NORMALIZED FREE ENERGY PREDICTED BY IDOCK:   -3.06 KCAL/MOL
REMARK 922        TOTAL FREE ENERGY PREDICTED BY IDOCK:   -2.85 KCAL/MOL
REMARK 923 INTER-LIGAND FREE ENERGY PREDICTED BY IDOCK:   -3.66 KCAL/MOL
REMARK 924 INTRA-LIGAND FREE ENERGY PREDICTED BY IDOCK:    0.81 KCAL/MOL
REMARK 927      BINDING AFFINITY PREDICTED BY RF-SCORE:    0.00 PKD
ROOT
HETATM    1  C   UNL     1      -9.401   7.798  66.337  1.00  0.00    -0.237 C  
HETATM    2  C   UNL     1      -9.522   9.182  66.606  1.00  0.00    -0.242 C  
HETATM    3  C   UNL     1      -8.228   8.609  67.088  1.00  0.00    -0.107 C  
HETATM    4  C   UNL     1      -7.760   6.699  66.468  1.00  0.00    -0.102 C  
HETATM    5  C   UNL     1      -8.803   4.842  70.488  1.00  0.00    -0.146 C  
HETATM    6  C   UNL     1      -7.520   7.900  65.889  1.00  0.00    -0.078 C  
HETATM    7  O   UNL     1      -8.660   5.917  65.557  1.00  0.00    -0.151 OA 
HETATM    8  C   UNL     1      -7.232   8.376  64.484  1.00  0.00    -0.087 C  
HETATM    9  C   UNL     1      -6.281   7.893  67.367  1.00  0.00    -0.054 C  
HETATM   10  C   UNL     1      -9.034   6.360  70.492  1.00  0.00    -0.151 C  
HETATM   11  C   UNL     1      -8.212   6.998  71.627  1.00  0.00    -0.104 C  
HETATM   12  H   UNL     1      -8.444   5.037  65.271  1.00  0.00     0.000 HD 
HETATM   13  C   UNL     1      -8.693   7.281  72.845  1.00  0.00    -0.152 C  
HETATM   14  C   UNL     1      -6.970   6.982  68.734  1.00  0.00    -0.079 C  
HETATM   15  C   UNL     1      -8.611   7.087  69.144  1.00  0.00    -0.133 C  
HETATM   16  O   UNL     1     -10.404   6.605  74.314  1.00  0.00    -0.361 OA 
HETATM   17  O   UNL     1      -6.619   5.605  68.528  1.00  0.00    -0.047 OA 
HETATM   18  H   UNL     1      -6.987   5.119  69.257  1.00  0.00     0.000 HD 
HETATM   19  C   UNL     1      -9.710   6.894  67.900  1.00  0.00    -0.136 C  
HETATM   20  C   UNL     1     -11.115   7.252  68.414  1.00  0.00     0.068 C  
HETATM   21  C   UNL     1     -11.516   6.441  69.641  1.00  0.00    -0.446 C  
HETATM   22  C   UNL     1     -10.538   6.571  70.783  1.00  0.00    -0.278 C  
HETATM   23  C   UNL     1     -11.001   6.793  72.031  1.00  0.00    -0.269 C  
HETATM   24  C   UNL     1     -10.064   6.869  73.169  1.00  0.00    -0.215 C  
ENDROOT
BRANCH   4  25
HETATM   25  C   UNL     1      -6.387   5.936  65.801  1.00  0.00    -0.042 C  
HETATM   26  O   UNL     1      -5.221   6.302  65.802  1.00  0.00    -0.013 OA 
BRANCH  25  27
HETATM   27  O   UNL     1      -6.789   4.833  65.076  1.00  0.00    -0.050 OA 
HETATM   28  C   UNL     1      -6.610   3.601  65.784  1.00  0.00    -0.040 C  
HETATM   29 CL   UNL     1      -5.192   2.771  65.103  1.00  0.00    -0.008 Cl 
ENDBRANCH  25  27
ENDBRANCH   4  25
TORSDOF 2
ENDMDL
MODEL       97
REMARK 921   NORMALIZED FREE ENERGY PREDICTED BY IDOCK:   -3.00 KCAL/MOL
REMARK 922        TOTAL FREE ENERGY PREDICTED BY IDOCK:   -2.78 KCAL/MOL
REMARK 923 INTER-LIGAND FREE ENERGY PREDICTED BY IDOCK:   -4.59 KCAL/MOL
REMARK 924 INTRA-LIGAND FREE ENERGY PREDICTED BY IDOCK:    1.81 KCAL/MOL
REMARK 927      BINDING AFFINITY PREDICTED BY RF-SCORE:    0.00 PKD
ROOT
HETATM    1  C   UNL     1      -9.633   8.983  70.620  1.00  0.00    -0.289 C  
HETATM    2  C   UNL     1     -10.730   9.501  69.892  1.00  0.00    -0.268 C  
HETATM    3  C   UNL     1     -10.729   8.007  69.954  1.00  0.00    -0.242 C  
HETATM    4  C   UNL     1      -9.399   7.124  71.260  1.00  0.00    -0.155 C  
HETATM    5  C   UNL     1      -6.543   5.882  67.943  1.00  0.00    -0.052 C  
HETATM    6  C   UNL     1     -10.664   7.571  71.453  1.00  0.00    -0.243 C  
HETATM    7  O   UNL     1      -8.483   7.935  72.128  1.00  0.00    -0.112 OA 
HETATM    8  C   UNL     1     -11.476   8.007  72.650  1.00  0.00    -0.465 C  
HETATM    9  C   UNL     1     -10.940   5.974  70.407  1.00  0.00    -0.399 C  
HETATM   10  C   UNL     1      -7.757   6.639  67.387  1.00  0.00    -0.109 C  
HETATM   11  C   UNL     1      -8.470   5.762  66.341  1.00  0.00    -0.122 C  
HETATM   12  H   UNL     1      -7.871   7.528  72.730  1.00  0.00     0.000 HD 
HETATM   13  C   UNL     1      -8.265   5.838  65.019  1.00  0.00    -0.137 C  
HETATM   14  C   UNL     1      -9.573   5.735  69.290  1.00  0.00    -0.139 C  
HETATM   15  C   UNL     1      -8.839   7.032  68.482  1.00  0.00    -0.124 C  
HETATM   16  O   UNL     1      -6.617   6.525  63.484  1.00  0.00    -0.039 OA 
HETATM   17  O   UNL     1      -8.574   5.001  70.014  1.00  0.00    -0.096 OA 
HETATM   18  H   UNL     1      -7.845   4.873  69.419  1.00  0.00     0.000 HD 
HETATM   19  C   UNL     1      -8.408   8.350  69.414  1.00  0.00    -0.120 C  
HETATM   20  C   UNL     1      -7.981   9.500  68.486  1.00  0.00    -0.093 C  
HETATM   21  C   UNL     1      -6.860   9.102  67.533  1.00  0.00    -0.077 C  
HETATM   22  C   UNL     1      -7.200   7.900  66.686  1.00  0.00    -0.084 C  
HETATM   23  C   UNL     1      -6.945   7.929  65.362  1.00  0.00    -0.059 C  
HETATM   24  C   UNL     1      -7.220   6.745  64.525  1.00  0.00    -0.072 C  
ENDROOT
BRANCH   4  25
HETATM   25  C   UNL     1      -9.488   5.907  72.452  1.00  0.00    -0.146 C  
HETATM   26  O   UNL     1      -8.620   5.505  73.214  1.00  0.00    -0.117 OA 
BRANCH  25  27
HETATM   27  O   UNL     1     -10.709   5.274  72.363  1.00  0.00    -0.217 OA 
HETATM   28  C   UNL     1     -11.090   4.615  73.576  1.00  0.00    -0.331 C  
HETATM   29 CL   UNL     1     -10.853   2.867  73.358  1.00  0.00    -0.285 Cl 
ENDBRANCH  25  27
ENDBRANCH   4  25
TORSDOF 2
ENDMDL
MODEL       98
REMARK 921   NORMALIZED FREE ENERGY PREDICTED BY IDOCK:   -2.47 KCAL/MOL
REMARK 922        TOTAL FREE ENERGY PREDICTED BY IDOCK:   -2.19 KCAL/MOL
REMARK 923 INTER-LIGAND FREE ENERGY PREDICTED BY IDOCK:   -4.12 KCAL/MOL
REMARK 924 INTRA-LIGAND FREE ENERGY PREDICTED BY IDOCK:    1.93 KCAL/MOL
REMARK 927      BINDING AFFINITY PREDICTED BY RF-SCORE:    0.00 PKD
ROOT
HETATM    1  C   UNL     1     -10.195   6.105  69.395  1.00  0.00    -0.248 C  
HETATM    2  C   UNL     1     -11.430   5.768  68.792  1.00  0.00     0.672 C  
HETATM    3  C   UNL     1     -10.444   6.328  67.819  1.00  0.00    -0.289 C  
HETATM    4  C   UNL     1      -8.500   6.543  68.472  1.00  0.00    -0.124 C  
HETATM    5  C   UNL     1      -8.879  11.047  68.985  1.00  0.00    -0.068 C  
HETATM    6  C   UNL     1      -9.130   5.487  67.901  1.00  0.00    -0.109 C  
HETATM    7  O   UNL     1      -8.078   6.139  69.854  1.00  0.00    -0.114 OA 
HETATM    8  C   UNL     1      -8.903   3.994  67.865  1.00  0.00    -0.132 C  
HETATM    9  C   UNL     1      -8.932   6.707  66.421  1.00  0.00    -0.161 C  
HETATM   10  C   UNL     1     -10.193  10.424  68.493  1.00  0.00    -0.191 C  
HETATM   11  C   UNL     1     -10.615  11.098  67.175  1.00  0.00    -0.286 C  
HETATM   12  H   UNL     1      -7.183   6.237  70.155  1.00  0.00     0.000 HD 
HETATM   13  C   UNL     1     -11.480  12.118  67.087  1.00  0.00    -0.413 C  
HETATM   14  C   UNL     1      -9.020   8.389  67.003  1.00  0.00    -0.142 C  
HETATM   15  C   UNL     1     -10.109   8.862  68.212  1.00  0.00    -0.219 C  
HETATM   16  O   UNL     1     -12.330  13.884  68.392  1.00  0.00    -0.261 OA 
HETATM   17  O   UNL     1      -7.689   8.759  67.391  1.00  0.00    -0.095 OA 
HETATM   18  H   UNL     1      -7.735   9.656  67.701  1.00  0.00     0.000 HD 
HETATM   19  C   UNL     1     -10.149   7.926  69.595  1.00  0.00    -0.197 C  
HETATM   20  C   UNL     1     -11.342   8.364  70.462  1.00  0.00    -0.228 C  
HETATM   21  C   UNL     1     -11.311   9.850  70.798  1.00  0.00    -0.430 C  
HETATM   22  C   UNL     1     -11.253  10.733  69.575  1.00  0.00    -0.342 C  
HETATM   23  C   UNL     1     -12.071  11.803  69.491  1.00  0.00    -0.314 C  
HETATM   24  C   UNL     1     -11.992  12.709  68.329  1.00  0.00    -0.222 C  
ENDROOT
BRANCH   4  25
HETATM   25  C   UNL     1      -6.958   6.143  67.862  1.00  0.00    -0.076 C  
HETATM   26  O   UNL     1      -6.048   6.882  67.512  1.00  0.00    -0.029 OA 
BRANCH  25  27
HETATM   27  O   UNL     1      -6.891   4.781  67.657  1.00  0.00    -0.057 OA 
HETATM   28  C   UNL     1      -5.785   4.391  66.834  1.00  0.00    -0.022 C  
HETATM   29 CL   UNL     1      -6.409   3.988  65.219  1.00  0.00    -0.027 Cl 
ENDBRANCH  25  27
ENDBRANCH   4  25
TORSDOF 2
ENDMDL
MODEL       99
REMARK 921   NORMALIZED FREE ENERGY PREDICTED BY IDOCK:   -2.39 KCAL/MOL
REMARK 922        TOTAL FREE ENERGY PREDICTED BY IDOCK:   -2.09 KCAL/MOL
REMARK 923 INTER-LIGAND FREE ENERGY PREDICTED BY IDOCK:   -3.36 KCAL/MOL
REMARK 924 INTRA-LIGAND FREE ENERGY PREDICTED BY IDOCK:    1.27 KCAL/MOL
REMARK 927      BINDING AFFINITY PREDICTED BY RF-SCORE:    0.00 PKD
ROOT
HETATM    1  C   UNL     1      -9.860   9.748  66.070  1.00  0.00    -0.342 C  
HETATM    2  C   UNL     1     -10.289  10.243  64.815  1.00  0.00    -0.101 C  
HETATM    3  C   UNL     1      -8.849  10.534  65.091  1.00  0.00    -0.206 C  
HETATM    4  C   UNL     1      -7.994   9.585  66.709  1.00  0.00    -0.109 C  
HETATM    5  C   UNL     1      -8.097  13.320  69.304  1.00  0.00     0.613 C  
HETATM    6  C   UNL     1      -8.124   9.190  65.419  1.00  0.00    -0.124 C  
HETATM    7  O   UNL     1      -8.767   8.627  67.567  1.00  0.00    -0.133 OA 
HETATM    8  C   UNL     1      -8.119   7.862  64.698  1.00  0.00    -0.125 C  
HETATM    9  C   UNL     1      -6.767  10.555  65.304  1.00  0.00    -0.049 C  
HETATM   10  C   UNL     1      -8.694  13.583  67.914  1.00  0.00    -0.183 C  
HETATM   11  C   UNL     1      -7.937  14.744  67.245  1.00  0.00    -0.232 C  
HETATM   12  H   UNL     1      -8.372   8.190  68.312  1.00  0.00     0.000 HD 
HETATM   13  C   UNL     1      -8.335  16.023  67.266  1.00  0.00    -0.205 C  
HETATM   14  C   UNL     1      -7.054  11.804  66.541  1.00  0.00     0.113 C  
HETATM   15  C   UNL     1      -8.615  12.342  66.925  1.00  0.00    -0.182 C  
HETATM   16  O   UNL     1      -9.654  17.483  68.560  1.00  0.00    -0.283 OA 
HETATM   17  O   UNL     1      -6.399  11.357  67.737  1.00  0.00    -0.053 OA 
HETATM   18  H   UNL     1      -6.552  12.023  68.397  1.00  0.00     0.000 HD 
HETATM   19  C   UNL     1      -9.762  11.165  67.228  1.00  0.00    -0.186 C  
HETATM   20  C   UNL     1     -11.147  11.828  67.323  1.00  0.00    -0.342 C  
HETATM   21  C   UNL     1     -11.197  12.936  68.370  1.00  0.00    -0.305 C  
HETATM   22  C   UNL     1     -10.162  14.011  68.146  1.00  0.00    -0.243 C  
HETATM   23  C   UNL     1     -10.526  15.308  68.224  1.00  0.00    -0.244 C  
HETATM   24  C   UNL     1      -9.518  16.374  68.062  1.00  0.00    -0.217 C  
ENDROOT
BRANCH   4  25
HETATM   25  C   UNL     1      -6.557   8.708  66.989  1.00  0.00    -0.058 C  
HETATM   26  O   UNL     1      -5.502   8.733  66.371  1.00  0.00    -0.034 OA 
BRANCH  25  27
HETATM   27  O   UNL     1      -6.777   7.785  67.989  1.00  0.00    -0.060 OA 
HETATM   28  C   UNL     1      -6.717   8.354  69.302  1.00  0.00    -0.046 C  
HETATM   29 CL   UNL     1      -5.172   7.881  70.043  1.00  0.00    -0.023 Cl 
ENDBRANCH  25  27
ENDBRANCH   4  25
TORSDOF 2
ENDMDL
MODEL      100
REMARK 921   NORMALIZED FREE ENERGY PREDICTED BY IDOCK:   -2.27 KCAL/MOL
REMARK 922        TOTAL FREE ENERGY PREDICTED BY IDOCK:   -1.96 KCAL/MOL
REMARK 923 INTER-LIGAND FREE ENERGY PREDICTED BY IDOCK:   -3.67 KCAL/MOL
REMARK 924 INTRA-LIGAND FREE ENERGY PREDICTED BY IDOCK:    1.71 KCAL/MOL
REMARK 927      BINDING AFFINITY PREDICTED BY RF-SCORE:    0.00 PKD
ROOT
HETATM    1  C   UNL     1     -10.157   4.929  69.894  1.00  0.00    -0.332 C  
HETATM    2  C   UNL     1      -9.506   3.672  69.882  1.00  0.00    -0.262 C  
HETATM    3  C   UNL     1      -8.591   4.796  70.249  1.00  0.00    -0.110 C  
HETATM    4  C   UNL     1      -9.460   6.623  70.645  1.00  0.00    -0.169 C  
HETATM    5  C   UNL     1      -8.217   8.390  66.641  1.00  0.00    -0.105 C  
HETATM    6  C   UNL     1      -9.210   5.568  71.458  1.00  0.00    -0.164 C  
HETATM    7  O   UNL     1     -10.946   6.823  70.589  1.00  0.00    -0.240 OA 
HETATM    8  C   UNL     1      -9.762   5.074  72.774  1.00  0.00    -0.175 C  
HETATM    9  C   UNL     1      -7.449   6.295  71.161  1.00  0.00    -0.085 C  
HETATM   10  C   UNL     1      -7.758   6.932  66.780  1.00  0.00    -0.102 C  
HETATM   11  C   UNL     1      -6.232   6.858  66.591  1.00  0.00    -0.041 C  
HETATM   12  H   UNL     1     -11.347   7.665  70.772  1.00  0.00     0.000 HD 
HETATM   13  C   UNL     1      -5.623   6.565  65.434  1.00  0.00    -0.025 C  
HETATM   14  C   UNL     1      -7.351   7.006  69.531  1.00  0.00    -0.094 C  
HETATM   15  C   UNL     1      -8.086   6.276  68.190  1.00  0.00    -0.115 C  
HETATM   16  O   UNL     1      -6.018   6.649  63.114  1.00  0.00    -0.033 OA 
HETATM   17  O   UNL     1      -7.810   8.361  69.645  1.00  0.00    -0.096 OA 
HETATM   18  H   UNL     1      -7.758   8.740  68.776  1.00  0.00     0.000 HD 
HETATM   19  C   UNL     1      -9.684   5.820  68.365  1.00  0.00    -0.161 C  
HETATM   20  C   UNL     1     -10.100   4.977  67.147  1.00  0.00    -0.239 C  
HETATM   21  C   UNL     1      -9.870   5.700  65.825  1.00  0.00     0.098 C  
HETATM   22  C   UNL     1      -8.442   6.149  65.635  1.00  0.00    -0.151 C  
HETATM   23  C   UNL     1      -7.827   5.922  64.456  1.00  0.00    -0.115 C  
HETATM   24  C   UNL     1      -6.449   6.401  64.231  1.00  0.00    -0.033 C  
ENDROOT
BRANCH   4  25
HETATM   25  C   UNL     1      -9.327   7.795  71.877  1.00  0.00    -0.153 C  
HETATM   26  O   UNL     1      -9.469   9.008  71.811  1.00  0.00    -0.278 OA 
BRANCH  25  27
HETATM   27  O   UNL     1      -8.865   7.192  73.027  1.00  0.00    -0.123 OA 
HETATM   28  C   UNL     1      -8.471   8.132  74.034  1.00  0.00    -0.225 C  
HETATM   29 CL   UNL     1      -6.694   8.188  74.078  1.00  0.00    -0.139 Cl 
ENDBRANCH  25  27
ENDBRANCH   4  25
TORSDOF 2
ENDMDL
MODEL      101
REMARK 921   NORMALIZED FREE ENERGY PREDICTED BY IDOCK:   -2.16 KCAL/MOL
REMARK 922        TOTAL FREE ENERGY PREDICTED BY IDOCK:   -1.84 KCAL/MOL
REMARK 923 INTER-LIGAND FREE ENERGY PREDICTED BY IDOCK:   -3.61 KCAL/MOL
REMARK 924 INTRA-LIGAND FREE ENERGY PREDICTED BY IDOCK:    1.77 KCAL/MOL
REMARK 927      BINDING AFFINITY PREDICTED BY RF-SCORE:    0.00 PKD
ROOT
HETATM    1  C   UNL     1      -9.331   8.038  67.149  1.00  0.00    -0.186 C  
HETATM    2  C   UNL     1     -10.685   7.714  67.404  1.00  0.00    -0.318 C  
HETATM    3  C   UNL     1     -10.135   8.711  68.372  1.00  0.00    -0.217 C  
HETATM    4  C   UNL     1      -8.299   9.537  67.927  1.00  0.00    -0.115 C  
HETATM    5  C   UNL     1      -6.105   7.001  71.002  1.00  0.00    -0.036 C  
HETATM    6  C   UNL     1      -9.549   9.916  67.568  1.00  0.00    -0.183 C  
HETATM    7  O   UNL     1      -7.547   9.175  66.680  1.00  0.00    -0.089 OA 
HETATM    8  C   UNL     1     -10.140  10.745  66.452  1.00  0.00    -0.278 C  
HETATM    9  C   UNL     1      -9.487  10.394  69.435  1.00  0.00    -0.204 C  
HETATM   10  C   UNL     1      -7.607   6.682  70.977  1.00  0.00    -0.085 C  
HETATM   11  C   UNL     1      -8.195   6.887  72.385  1.00  0.00    -0.105 C  
HETATM   12  H   UNL     1      -6.702   9.556  66.475  1.00  0.00     0.000 HD 
HETATM   13  C   UNL     1      -8.365   5.910  73.286  1.00  0.00    -0.116 C  
HETATM   14  C   UNL     1      -8.448   9.252  70.322  1.00  0.00    -0.203 C  
HETATM   15  C   UNL     1      -8.450   7.591  69.983  1.00  0.00    -0.137 C  
HETATM   16  O   UNL     1      -7.507   3.786  73.832  1.00  0.00    -0.066 OA 
HETATM   17  O   UNL     1      -7.107   9.754  70.224  1.00  0.00    -0.111 OA 
HETATM   18  H   UNL     1      -6.552   9.145  70.696  1.00  0.00     0.000 HD 
HETATM   19  C   UNL     1      -8.301   7.152  68.378  1.00  0.00    -0.125 C  
HETATM   20  C   UNL     1      -8.557   5.640  68.247  1.00  0.00    -0.107 C  
HETATM   21  C   UNL     1      -7.641   4.809  69.138  1.00  0.00    -0.056 C  
HETATM   22  C   UNL     1      -7.729   5.189  70.597  1.00  0.00    -0.079 C  
HETATM   23  C   UNL     1      -7.838   4.219  71.528  1.00  0.00    -0.081 C  
HETATM   24  C   UNL     1      -7.871   4.566  72.962  1.00  0.00    -0.091 C  
ENDROOT
BRANCH   4  25
HETATM   25  C   UNL     1      -7.648  11.114  67.887  1.00  0.00    -0.099 C  
HETATM   26  O   UNL     1      -6.543  11.505  68.234  1.00  0.00    -0.059 OA 
BRANCH  25  27
HETATM   27  O   UNL     1      -8.637  12.002  67.519  1.00  0.00    -0.152 OA 
HETATM   28  C   UNL     1      -8.160  13.345  67.376  1.00  0.00    -0.172 C  
HETATM   29 CL   UNL     1      -8.696  14.279  68.791  1.00  0.00    -0.141 Cl 
ENDBRANCH  25  27
ENDBRANCH   4  25
TORSDOF 2
ENDMDL
MODEL      102
REMARK 921   NORMALIZED FREE ENERGY PREDICTED BY IDOCK:   -2.06 KCAL/MOL
REMARK 922        TOTAL FREE ENERGY PREDICTED BY IDOCK:   -1.72 KCAL/MOL
REMARK 923 INTER-LIGAND FREE ENERGY PREDICTED BY IDOCK:   -3.41 KCAL/MOL
REMARK 924 INTRA-LIGAND FREE ENERGY PREDICTED BY IDOCK:    1.69 KCAL/MOL
REMARK 927      BINDING AFFINITY PREDICTED BY RF-SCORE:    0.00 PKD
ROOT
HETATM    1  C   UNL     1      -9.533   7.453  66.720  1.00  0.00    -0.226 C  
HETATM    2  C   UNL     1      -8.867   8.573  67.271  1.00  0.00    -0.137 C  
HETATM    3  C   UNL     1      -7.952   7.416  67.031  1.00  0.00    -0.116 C  
HETATM    4  C   UNL     1      -8.697   5.846  65.921  1.00  0.00    -0.150 C  
HETATM    5  C   UNL     1      -9.295   3.190  69.566  1.00  0.00    -0.228 C  
HETATM    6  C   UNL     1      -8.075   6.986  65.534  1.00  0.00    -0.132 C  
HETATM    7  O   UNL     1     -10.087   5.863  65.356  1.00  0.00    -0.067 OA 
HETATM    8  C   UNL     1      -8.014   7.797  64.261  1.00  0.00    -0.120 C  
HETATM    9  C   UNL     1      -6.633   5.963  66.304  1.00  0.00    -0.055 C  
HETATM   10  C   UNL     1      -8.731   4.564  69.956  1.00  0.00    -0.115 C  
HETATM   11  C   UNL     1      -7.411   4.373  70.725  1.00  0.00    -0.048 C  
HETATM   12  H   UNL     1     -10.430   5.140  64.844  1.00  0.00     0.000 HD 
HETATM   13  C   UNL     1      -7.307   4.347  72.061  1.00  0.00    -0.066 C  
HETATM   14  C   UNL     1      -7.248   4.950  67.634  1.00  0.00    -0.070 C  
HETATM   15  C   UNL     1      -8.418   5.515  68.722  1.00  0.00    -0.101 C  
HETATM   16  O   UNL     1      -8.613   3.887  73.965  1.00  0.00    -0.092 OA 
HETATM   17  O   UNL     1      -7.704   3.725  67.041  1.00  0.00    -0.079 OA 
HETATM   18  H   UNL     1      -8.032   3.185  67.750  1.00  0.00     0.000 HD 
HETATM   19  C   UNL     1      -9.776   6.229  68.061  1.00  0.00    -0.122 C  
HETATM   20  C   UNL     1     -10.598   6.879  69.187  1.00  0.00    -0.245 C  
HETATM   21  C   UNL     1     -10.969   5.894  70.289  1.00  0.00    -0.390 C  
HETATM   22  C   UNL     1      -9.771   5.209  70.901  1.00  0.00    -0.252 C  
HETATM   23  C   UNL     1      -9.675   5.115  72.243  1.00  0.00    -0.201 C  
HETATM   24  C   UNL     1      -8.538   4.403  72.859  1.00  0.00    -0.105 C  
ENDROOT
BRANCH   4  25
HETATM   25  C   UNL     1      -8.148   4.921  64.597  1.00  0.00    -0.111 C  
HETATM   26  O   UNL     1      -8.700   3.998  64.015  1.00  0.00    -0.104 OA 
BRANCH  25  27
HETATM   27  O   UNL     1      -6.842   5.263  64.317  1.00  0.00    -0.045 OA 
HETATM   28  C   UNL     1      -6.334   4.621  63.141  1.00  0.00    -0.026 C  
HETATM   29 CL   UNL     1      -5.241   3.314  63.649  1.00  0.00    -0.008 Cl 
ENDBRANCH  25  27
ENDBRANCH   4  25
TORSDOF 2
ENDMDL
MODEL      103
REMARK 921   NORMALIZED FREE ENERGY PREDICTED BY IDOCK:   -1.74 KCAL/MOL
REMARK 922        TOTAL FREE ENERGY PREDICTED BY IDOCK:   -1.37 KCAL/MOL
REMARK 923 INTER-LIGAND FREE ENERGY PREDICTED BY IDOCK:   -2.62 KCAL/MOL
REMARK 924 INTRA-LIGAND FREE ENERGY PREDICTED BY IDOCK:    1.25 KCAL/MOL
REMARK 927      BINDING AFFINITY PREDICTED BY RF-SCORE:    0.00 PKD
ROOT
HETATM    1  C   UNL     1      -9.295   5.915  68.899  1.00  0.00    -0.139 C  
HETATM    2  C   UNL     1      -9.764   6.365  67.641  1.00  0.00    -0.130 C  
HETATM    3  C   UNL     1      -8.894   7.368  68.328  1.00  0.00    -0.128 C  
HETATM    4  C   UNL     1      -7.862   6.729  69.995  1.00  0.00    -0.111 C  
HETATM    5  C   UNL     1     -10.674   8.842  72.882  1.00  0.00     0.592 C  
HETATM    6  C   UNL     1      -7.533   6.687  68.681  1.00  0.00    -0.088 C  
HETATM    7  O   UNL     1      -7.958   5.318  70.495  1.00  0.00    -0.094 OA 
HETATM    8  C   UNL     1      -6.585   5.866  67.839  1.00  0.00    -0.052 C  
HETATM    9  C   UNL     1      -7.356   8.562  69.097  1.00  0.00    -0.079 C  
HETATM   10  C   UNL     1     -11.104   9.050  71.423  1.00  0.00    -0.399 C  
HETATM   11  C   UNL     1     -11.176  10.558  71.123  1.00  0.00     0.217 C  
HETATM   12  H   UNL     1      -7.482   5.024  71.263  1.00  0.00     0.000 HD 
HETATM   13  C   UNL     1     -12.295  11.292  71.184  1.00  0.00    -0.429 C  
HETATM   14  C   UNL     1      -8.539   9.022  70.347  1.00  0.00    -0.193 C  
HETATM   15  C   UNL     1     -10.118   8.408  70.354  1.00  0.00    -0.202 C  
HETATM   16  O   UNL     1     -14.402  11.287  72.235  1.00  0.00     0.724 OA 
HETATM   17  O   UNL     1      -7.920   8.758  71.615  1.00  0.00    -0.207 OA 
HETATM   18  H   UNL     1      -8.551   9.003  72.282  1.00  0.00     0.000 HD 
HETATM   19  C   UNL     1     -10.281   6.753  70.197  1.00  0.00    -0.215 C  
HETATM   20  C   UNL     1     -11.768   6.413  69.991  1.00  0.00    -0.345 C  
HETATM   21  C   UNL     1     -12.654   6.955  71.106  1.00  0.00    -0.366 C  
HETATM   22  C   UNL     1     -12.522   8.446  71.297  1.00  0.00    -0.264 C  
HETATM   23  C   UNL     1     -13.634   9.199  71.425  1.00  0.00    -0.348 C  
HETATM   24  C   UNL     1     -13.525  10.651  71.666  1.00  0.00    -0.183 C  
ENDROOT
BRANCH   4  25
HETATM   25  C   UNL     1      -6.252   6.839  70.549  1.00  0.00    -0.031 C  
HETATM   26  O   UNL     1      -5.349   7.566  70.162  1.00  0.00    -0.023 OA 
BRANCH  25  27
HETATM   27  O   UNL     1      -6.019   5.835  71.465  1.00  0.00    -0.024 OA 
HETATM   28  C   UNL     1      -6.524   6.139  72.770  1.00  0.00    -0.064 C  
HETATM   29 CL   UNL     1      -5.149   6.573  73.811  1.00  0.00    -0.039 Cl 
ENDBRANCH  25  27
ENDBRANCH   4  25
TORSDOF 2
ENDMDL
MODEL      104
REMARK 921   NORMALIZED FREE ENERGY PREDICTED BY IDOCK:   -1.35 KCAL/MOL
REMARK 922        TOTAL FREE ENERGY PREDICTED BY IDOCK:   -0.93 KCAL/MOL
REMARK 923 INTER-LIGAND FREE ENERGY PREDICTED BY IDOCK:   -2.44 KCAL/MOL
REMARK 924 INTRA-LIGAND FREE ENERGY PREDICTED BY IDOCK:    1.51 KCAL/MOL
REMARK 927      BINDING AFFINITY PREDICTED BY RF-SCORE:    0.00 PKD
ROOT
HETATM    1  C   UNL     1      -7.258   9.637  69.255  1.00  0.00    -0.069 C  
HETATM    2  C   UNL     1      -8.102   9.486  70.382  1.00  0.00    -0.209 C  
HETATM    3  C   UNL     1      -8.863   9.644  69.104  1.00  0.00    -0.157 C  
HETATM    4  C   UNL     1      -7.785   9.528  67.350  1.00  0.00    -0.095 C  
HETATM    5  C   UNL     1      -7.880  14.026  66.672  1.00  0.00     0.738 C  
HETATM    6  C   UNL     1      -8.372   8.559  68.094  1.00  0.00    -0.127 C  
HETATM    7  O   UNL     1      -6.306   9.276  67.343  1.00  0.00    -0.061 OA 
HETATM    8  C   UNL     1      -8.187   7.068  68.251  1.00  0.00    -0.124 C  
HETATM    9  C   UNL     1      -9.885   9.442  67.289  1.00  0.00    -0.232 C  
HETATM   10  C   UNL     1      -8.604  13.636  67.968  1.00  0.00    -0.175 C  
HETATM   11  C   UNL     1     -10.051  14.159  67.921  1.00  0.00    -0.235 C  
HETATM   12  H   UNL     1      -5.810   9.222  66.535  1.00  0.00     0.000 HD 
HETATM   13  C   UNL     1     -10.459  15.316  68.461  1.00  0.00    -0.235 C  
HETATM   14  C   UNL     1      -9.531  11.174  67.066  1.00  0.00    -0.177 C  
HETATM   15  C   UNL     1      -8.682  12.070  68.227  1.00  0.00    -0.178 C  
HETATM   16  O   UNL     1      -9.602  17.417  69.087  1.00  0.00    -0.191 OA 
HETATM   17  O   UNL     1      -8.875  11.299  65.796  1.00  0.00    -0.226 OA 
HETATM   18  H   UNL     1      -8.686  12.223  65.677  1.00  0.00     0.000 HD 
HETATM   19  C   UNL     1      -7.255  11.409  68.791  1.00  0.00    -0.107 C  
HETATM   20  C   UNL     1      -6.758  12.238  69.988  1.00  0.00     0.327 C  
HETATM   21  C   UNL     1      -6.591  13.715  69.651  1.00  0.00    -0.040 C  
HETATM   22  C   UNL     1      -7.853  14.348  69.117  1.00  0.00    -0.026 C  
HETATM   23  C   UNL     1      -8.250  15.543  69.600  1.00  0.00    -0.117 C  
HETATM   24  C   UNL     1      -9.451  16.204  69.054  1.00  0.00    -0.246 C  
ENDROOT
BRANCH   4  25
HETATM   25  C   UNL     1      -7.955   8.701  65.868  1.00  0.00    -0.105 C  
HETATM   26  O   UNL     1      -8.958   8.221  65.359  1.00  0.00    -0.127 OA 
BRANCH  25  27
HETATM   27  O   UNL     1      -6.706   8.491  65.321  1.00  0.00    -0.062 OA 
HETATM   28  C   UNL     1      -6.097   9.693  64.835  1.00  0.00    -0.083 C  
HETATM   29 CL   UNL     1      -6.204   9.692  63.060  1.00  0.00    -0.101 Cl 
ENDBRANCH  25  27
ENDBRANCH   4  25
TORSDOF 2
ENDMDL
MODEL      105
REMARK 921   NORMALIZED FREE ENERGY PREDICTED BY IDOCK:   -1.07 KCAL/MOL
REMARK 922        TOTAL FREE ENERGY PREDICTED BY IDOCK:   -0.62 KCAL/MOL
REMARK 923 INTER-LIGAND FREE ENERGY PREDICTED BY IDOCK:   -1.10 KCAL/MOL
REMARK 924 INTRA-LIGAND FREE ENERGY PREDICTED BY IDOCK:    0.48 KCAL/MOL
REMARK 927      BINDING AFFINITY PREDICTED BY RF-SCORE:    0.00 PKD
ROOT
HETATM    1  C   UNL     1      -6.614   8.176  68.064  1.00  0.00    -0.057 C  
HETATM    2  C   UNL     1      -5.524   8.000  68.950  1.00  0.00    -0.030 C  
HETATM    3  C   UNL     1      -6.763   8.474  69.640  1.00  0.00    -0.040 C  
HETATM    4  C   UNL     1      -8.513   8.445  68.551  1.00  0.00    -0.132 C  
HETATM    5  C   UNL     1      -8.496  12.946  67.886  1.00  0.00    -0.181 C  
HETATM    6  C   UNL     1      -7.927   7.486  69.308  1.00  0.00    -0.121 C  
HETATM    7  O   UNL     1      -8.558   7.954  67.134  1.00  0.00    -0.125 OA 
HETATM    8  C   UNL     1      -8.000   5.979  69.376  1.00  0.00    -0.103 C  
HETATM    9  C   UNL     1      -8.588   8.721  70.634  1.00  0.00    -0.203 C  
HETATM   10  C   UNL     1      -7.275  12.492  68.698  1.00  0.00    -0.103 C  
HETATM   11  C   UNL     1      -7.243  13.250  70.038  1.00  0.00     0.945 C  
HETATM   12  H   UNL     1      -9.364   7.940  66.632  1.00  0.00     0.000 HD 
HETATM   13  C   UNL     1      -6.532  14.363  70.263  1.00  0.00    -0.130 C  
HETATM   14  C   UNL     1      -8.543  10.383  69.994  1.00  0.00     0.293 C  
HETATM   15  C   UNL     1      -7.259  10.940  69.040  1.00  0.00    -0.101 C  
HETATM   16  O   UNL     1      -5.591  16.174  69.089  1.00  0.00    -0.110 OA 
HETATM   17  O   UNL     1      -9.779  10.587  69.293  1.00  0.00    -0.214 OA 
HETATM   18  H   UNL     1      -9.755  11.473  68.952  1.00  0.00     0.000 HD 
HETATM   19  C   UNL     1      -6.801   9.973  67.757  1.00  0.00    -0.076 C  
HETATM   20  C   UNL     1      -5.492  10.517  67.161  1.00  0.00    -0.041 C  
HETATM   21  C   UNL     1      -5.598  11.979  66.744  1.00  0.00     0.012 C  
HETATM   22  C   UNL     1      -6.030  12.887  67.870  1.00  0.00    -0.125 C  
HETATM   23  C   UNL     1      -5.370  14.045  68.078  1.00  0.00    -0.104 C  
HETATM   24  C   UNL     1      -5.810  14.971  69.139  1.00  0.00    -0.097 C  
ENDROOT
BRANCH   4  25
HETATM   25  C   UNL     1     -10.105   7.891  68.816  1.00  0.00    -0.193 C  
HETATM   26  O   UNL     1     -10.734   7.813  69.861  1.00  0.00    -0.243 OA 
BRANCH  25  27
HETATM   27  O   UNL     1     -10.602   7.365  67.642  1.00  0.00    -0.233 OA 
HETATM   28  C   UNL     1     -11.454   6.233  67.851  1.00  0.00     0.411 C  
HETATM   29 CL   UNL     1     -10.549   4.767  67.411  1.00  0.00     0.001 Cl 
ENDBRANCH  25  27
ENDBRANCH   4  25
TORSDOF 2
ENDMDL
MODEL      106
REMARK 921   NORMALIZED FREE ENERGY PREDICTED BY IDOCK:   -0.64 KCAL/MOL
REMARK 922        TOTAL FREE ENERGY PREDICTED BY IDOCK:   -0.14 KCAL/MOL
REMARK 923 INTER-LIGAND FREE ENERGY PREDICTED BY IDOCK:   -2.64 KCAL/MOL
REMARK 924 INTRA-LIGAND FREE ENERGY PREDICTED BY IDOCK:    2.50 KCAL/MOL
REMARK 927      BINDING AFFINITY PREDICTED BY RF-SCORE:    0.00 PKD
ROOT
HETATM    1  C   UNL     1      -9.207  11.621  65.648  1.00  0.00    -0.150 C  
HETATM    2  C   UNL     1     -10.234  10.974  64.920  1.00  0.00    -0.373 C  
HETATM    3  C   UNL     1     -10.416  10.865  66.399  1.00  0.00    -0.307 C  
HETATM    4  C   UNL     1      -9.202  12.040  67.583  1.00  0.00    -0.182 C  
HETATM    5  C   UNL     1      -6.526   8.558  68.772  1.00  0.00    -0.053 C  
HETATM    6  C   UNL     1     -10.402  12.303  67.010  1.00  0.00    -0.237 C  
HETATM    7  O   UNL     1      -8.192  12.981  66.995  1.00  0.00    -0.317 OA 
HETATM    8  C   UNL     1     -11.153  13.554  66.620  1.00  0.00    -0.309 C  
HETATM    9  C   UNL     1     -10.874  11.086  68.430  1.00  0.00    -0.264 C  
HETATM   10  C   UNL     1      -7.638   8.111  67.813  1.00  0.00    -0.098 C  
HETATM   11  C   UNL     1      -8.455   6.984  68.471  1.00  0.00    -0.121 C  
HETATM   12  H   UNL     1      -7.634  13.522  67.541  1.00  0.00     0.000 HD 
HETATM   13  C   UNL     1      -8.245   5.676  68.267  1.00  0.00    -0.103 C  
HETATM   14  C   UNL     1      -9.548   9.927  68.703  1.00  0.00    -0.156 C  
HETATM   15  C   UNL     1      -8.663   9.261  67.421  1.00  0.00    -0.121 C  
HETATM   16  O   UNL     1      -6.528   4.203  67.614  1.00  0.00    -0.036 OA 
HETATM   17  O   UNL     1      -8.647  10.546  69.633  1.00  0.00    -0.360 OA 
HETATM   18  H   UNL     1      -7.940   9.929  69.778  1.00  0.00     0.000 HD 
HETATM   19  C   UNL     1      -8.071  10.330  66.282  1.00  0.00    -0.129 C  
HETATM   20  C   UNL     1      -7.508   9.534  65.093  1.00  0.00    -0.109 C  
HETATM   21  C   UNL     1      -6.445   8.524  65.512  1.00  0.00    -0.059 C  
HETATM   22  C   UNL     1      -6.932   7.550  66.557  1.00  0.00    -0.070 C  
HETATM   23  C   UNL     1      -6.678   6.234  66.407  1.00  0.00    -0.056 C  
HETATM   24  C   UNL     1      -7.098   5.272  67.444  1.00  0.00    -0.067 C  
ENDROOT
BRANCH   4  25
HETATM   25  C   UNL     1      -9.437  13.086  68.909  1.00  0.00     0.262 C  
HETATM   26  O   UNL     1     -10.397  13.795  69.175  1.00  0.00    -0.121 OA 
BRANCH  25  27
HETATM   27  O   UNL     1      -8.271  13.159  69.641  1.00  0.00     1.037 OA 
HETATM   28  C   UNL     1      -7.239  13.899  68.979  1.00  0.00    -0.078 C  
HETATM   29 CL   UNL     1      -6.048  12.744  68.340  1.00  0.00    -0.064 Cl 
ENDBRANCH  25  27
ENDBRANCH   4  25
TORSDOF 2
ENDMDL
MODEL      107
REMARK 921   NORMALIZED FREE ENERGY PREDICTED BY IDOCK:   -0.30 KCAL/MOL
REMARK 922        TOTAL FREE ENERGY PREDICTED BY IDOCK:    0.23 KCAL/MOL
REMARK 923 INTER-LIGAND FREE ENERGY PREDICTED BY IDOCK:   -0.92 KCAL/MOL
REMARK 924 INTRA-LIGAND FREE ENERGY PREDICTED BY IDOCK:    1.15 KCAL/MOL
REMARK 927      BINDING AFFINITY PREDICTED BY RF-SCORE:    0.00 PKD
ROOT
HETATM    1  C   UNL     1      -9.836  15.896  66.029  1.00  0.00    -0.366 C  
HETATM    2  C   UNL     1     -11.060  16.027  65.330  1.00  0.00    -0.159 C  
HETATM    3  C   UNL     1     -10.877  17.075  66.380  1.00  0.00     0.048 C  
HETATM    4  C   UNL     1      -9.009  17.227  67.239  1.00  0.00    -0.227 C  
HETATM    5  C   UNL     1     -10.308  15.177  71.087  1.00  0.00     0.635 C  
HETATM    6  C   UNL     1      -9.520  17.804  66.124  1.00  0.00    -0.177 C  
HETATM    7  O   UNL     1      -7.870  16.343  66.822  1.00  0.00    -0.209 OA 
HETATM    8  C   UNL     1      -8.939  18.410  64.868  1.00  0.00     3.901 C  
HETATM    9  C   UNL     1     -10.419  18.757  67.540  1.00  0.00    -0.495 C  
HETATM   10  C   UNL     1     -11.464  15.272  70.082  1.00  0.00    -0.319 C  
HETATM   11  C   UNL     1     -12.646  16.014  70.732  1.00  0.00    -0.039 C  
HETATM   12  H   UNL     1      -7.009  16.413  67.218  1.00  0.00     0.000 HD 
HETATM   13  C   UNL     1     -13.685  15.412  71.328  1.00  0.00    -0.558 C  
HETATM   14  C   UNL     1     -10.668  17.679  68.936  1.00  0.00     0.002 C  
HETATM   15  C   UNL     1     -11.104  16.052  68.745  1.00  0.00    -0.338 C  
HETATM   16  O   UNL     1     -14.231  13.381  72.386  1.00  0.00    -0.637 OA 
HETATM   17  O   UNL     1      -9.479  17.761  69.735  1.00  0.00     0.553 OA 
HETATM   18  H   UNL     1      -9.612  17.186  70.480  1.00  0.00     0.000 HD 
HETATM   19  C   UNL     1     -10.200  15.154  67.664  1.00  0.00    -0.241 C  
HETATM   20  C   UNL     1     -10.880  13.791  67.453  1.00  0.00    -0.285 C  
HETATM   21  C   UNL     1     -11.098  13.035  68.759  1.00  0.00    -0.311 C  
HETATM   22  C   UNL     1     -11.894  13.820  69.773  1.00  0.00    -0.394 C  
HETATM   23  C   UNL     1     -12.905  13.217  70.432  1.00  0.00     0.048 C  
HETATM   24  C   UNL     1     -13.661  13.950  71.466  1.00  0.00    -0.279 C  
ENDROOT
BRANCH   4  25
HETATM   25  C   UNL     1      -7.924  18.498  67.582  1.00  0.00    -0.246 C  
HETATM   26  O   UNL     1      -7.529  19.397  66.853  1.00  0.00    -0.217 OA 
BRANCH  25  27
HETATM   27  O   UNL     1      -7.386  18.308  68.837  1.00  0.00    -0.285 OA 
HETATM   28  C   UNL     1      -5.956  18.231  68.828  1.00  0.00    -0.199 C  
HETATM   29 CL   UNL     1      -5.489  16.528  69.038  1.00  0.00    -0.126 Cl 
ENDBRANCH  25  27
ENDBRANCH   4  25
TORSDOF 2
ENDMDL
MODEL      108
REMARK 921   NORMALIZED FREE ENERGY PREDICTED BY IDOCK:   -0.04 KCAL/MOL
REMARK 922        TOTAL FREE ENERGY PREDICTED BY IDOCK:    0.53 KCAL/MOL
REMARK 923 INTER-LIGAND FREE ENERGY PREDICTED BY IDOCK:   -2.02 KCAL/MOL
REMARK 924 INTRA-LIGAND FREE ENERGY PREDICTED BY IDOCK:    2.55 KCAL/MOL
REMARK 927      BINDING AFFINITY PREDICTED BY RF-SCORE:    0.00 PKD
ROOT
HETATM    1  C   UNL     1      -8.701  13.687  69.295  1.00  0.00     0.657 C  
HETATM    2  C   UNL     1      -7.316  13.471  69.491  1.00  0.00     0.361 C  
HETATM    3  C   UNL     1      -7.639  13.946  68.111  1.00  0.00    -0.134 C  
HETATM    4  C   UNL     1      -9.555  14.631  67.779  1.00  0.00    -0.213 C  
HETATM    5  C   UNL     1     -10.819  10.854  65.578  1.00  0.00    -0.106 C  
HETATM    6  C   UNL     1      -8.449  15.277  68.219  1.00  0.00    -0.154 C  
HETATM    7  O   UNL     1     -10.582  14.674  68.872  1.00  0.00    -0.240 OA 
HETATM    8  C   UNL     1      -8.185  16.538  69.009  1.00  0.00    -0.208 C  
HETATM    9  C   UNL     1      -8.057  15.000  66.351  1.00  0.00     0.437 C  
HETATM   10  C   UNL     1      -9.362  10.769  66.053  1.00  0.00    -0.215 C  
HETATM   11  C   UNL     1      -8.447  10.499  64.845  1.00  0.00    -0.161 C  
HETATM   12  H   UNL     1     -11.465  14.990  68.719  1.00  0.00     0.000 HD 
HETATM   13  C   UNL     1      -8.022   9.284  64.470  1.00  0.00    -0.128 C  
HETATM   14  C   UNL     1      -8.801  13.481  65.793  1.00  0.00     0.960 C  
HETATM   15  C   UNL     1      -8.827  12.088  66.758  1.00  0.00    -0.198 C  
HETATM   16  O   UNL     1      -8.643   7.020  64.646  1.00  0.00     0.084 OA 
HETATM   17  O   UNL     1     -10.140  13.803  65.388  1.00  0.00    -0.372 OA 
HETATM   18  H   UNL     1     -10.537  12.993  65.091  1.00  0.00     0.000 HD 
HETATM   19  C   UNL     1      -9.358  12.275  68.331  1.00  0.00    -0.162 C  
HETATM   20  C   UNL     1      -9.092  10.974  69.107  1.00  0.00    -0.006 C  
HETATM   21  C   UNL     1      -9.726   9.755  68.447  1.00  0.00    -0.162 C  
HETATM   22  C   UNL     1      -9.288   9.561  67.016  1.00  0.00    -0.183 C  
HETATM   23  C   UNL     1      -8.916   8.334  66.597  1.00  0.00    -0.179 C  
HETATM   24  C   UNL     1      -8.536   8.112  65.188  1.00  0.00    -0.071 C  
ENDROOT
BRANCH   4  25
HETATM   25  C   UNL     1     -10.248  16.005  67.044  1.00  0.00    -0.282 C  
HETATM   26  O   UNL     1     -11.025  16.071  66.102  1.00  0.00    -0.225 OA 
BRANCH  25  27
HETATM   27  O   UNL     1      -9.682  17.141  67.582  1.00  0.00    -0.254 OA 
HETATM   28  C   UNL     1     -10.641  18.008  68.199  1.00  0.00    -0.319 C  
HETATM   29 CL   UNL     1     -10.912  19.394  67.118  1.00  0.00    -0.552 Cl 
ENDBRANCH  25  27
ENDBRANCH   4  25
TORSDOF 2
ENDMDL
MODEL      109
REMARK 921   NORMALIZED FREE ENERGY PREDICTED BY IDOCK:    1.28 KCAL/MOL
REMARK 922        TOTAL FREE ENERGY PREDICTED BY IDOCK:    2.01 KCAL/MOL
REMARK 923 INTER-LIGAND FREE ENERGY PREDICTED BY IDOCK:    1.07 KCAL/MOL
REMARK 924 INTRA-LIGAND FREE ENERGY PREDICTED BY IDOCK:    0.94 KCAL/MOL
REMARK 927      BINDING AFFINITY PREDICTED BY RF-SCORE:    0.00 PKD
ROOT
HETATM    1  C   UNL     1     -10.988  11.099  66.375  1.00  0.00    -0.248 C  
HETATM    2  C   UNL     1     -12.010  11.654  65.568  1.00  0.00     0.320 C  
HETATM    3  C   UNL     1     -10.648  12.147  65.199  1.00  0.00    -0.324 C  
HETATM    4  C   UNL     1      -9.038  11.178  66.047  1.00  0.00    -0.203 C  
HETATM    5  C   UNL     1      -8.235  14.527  69.019  1.00  0.00    -0.076 C  
HETATM    6  C   UNL     1      -9.732  10.915  64.913  1.00  0.00    -0.318 C  
HETATM    7  O   UNL     1      -9.213  10.014  66.978  1.00  0.00    -0.144 OA 
HETATM    8  C   UNL     1      -9.949   9.697  64.046  1.00  0.00     0.860 C  
HETATM    9  C   UNL     1      -8.730  12.491  64.434  1.00  0.00     2.103 C  
HETATM   10  C   UNL     1      -9.446  14.842  68.130  1.00  0.00    -0.208 C  
HETATM   11  C   UNL     1      -9.214  16.181  67.407  1.00  0.00    -0.213 C  
HETATM   12  H   UNL     1      -8.471   9.567  67.368  1.00  0.00     0.000 HD 
HETATM   13  C   UNL     1      -9.671  17.365  67.836  1.00  0.00    -0.272 C  
HETATM   14  C   UNL     1      -8.506  13.527  65.866  1.00  0.00     1.504 C  
HETATM   15  C   UNL     1      -9.735  13.751  67.011  1.00  0.00    -0.251 C  
HETATM   16  O   UNL     1     -10.339  18.429  69.827  1.00  0.00     0.273 OA 
HETATM   17  O   UNL     1      -7.319  13.064  66.527  1.00  0.00     0.008 OA 
HETATM   18  H   UNL     1      -7.199  13.616  67.290  1.00  0.00     0.000 HD 
HETATM   19  C   UNL     1     -10.481  12.373  67.590  1.00  0.00    -0.229 C  
HETATM   20  C   UNL     1     -11.706  12.781  68.426  1.00  0.00    -0.380 C  
HETATM   21  C   UNL     1     -11.353  13.739  69.558  1.00  0.00    -0.283 C  
HETATM   22  C   UNL     1     -10.657  14.990  69.080  1.00  0.00    -0.251 C  
HETATM   23  C   UNL     1     -11.058  16.191  69.547  1.00  0.00    -0.344 C  
HETATM   24  C   UNL     1     -10.355  17.421  69.134  1.00  0.00    -0.271 C  
ENDROOT
BRANCH   4  25
HETATM   25  C   UNL     1      -7.568  10.527  65.476  1.00  0.00    -0.120 C  
HETATM   26  O   UNL     1      -6.607  11.100  64.982  1.00  0.00     0.359 OA 
BRANCH  25  27
HETATM   27  O   UNL     1      -7.641   9.150  65.504  1.00  0.00    -0.089 OA 
HETATM   28  C   UNL     1      -6.470   8.516  64.978  1.00  0.00    -0.060 C  
HETATM   29 CL   UNL     1      -6.854   7.894  63.357  1.00  0.00    -0.074 Cl 
ENDBRANCH  25  27
ENDBRANCH   4  25
TORSDOF 2
ENDMDL
MODEL      110
REMARK 921   NORMALIZED FREE ENERGY PREDICTED BY IDOCK:    1.88 KCAL/MOL
REMARK 922        TOTAL FREE ENERGY PREDICTED BY IDOCK:    2.68 KCAL/MOL
REMARK 923 INTER-LIGAND FREE ENERGY PREDICTED BY IDOCK:    0.86 KCAL/MOL
REMARK 924 INTRA-LIGAND FREE ENERGY PREDICTED BY IDOCK:    1.82 KCAL/MOL
REMARK 927      BINDING AFFINITY PREDICTED BY RF-SCORE:    0.00 PKD
ROOT
HETATM    1  C   UNL     1      -8.661  11.269  66.187  1.00  0.00    -0.179 C  
HETATM    2  C   UNL     1      -8.892  10.373  67.258  1.00  0.00    -0.135 C  
HETATM    3  C   UNL     1      -9.773  11.580  67.312  1.00  0.00    -0.197 C  
HETATM    4  C   UNL     1      -9.798  12.797  65.648  1.00  0.00    -0.179 C  
HETATM    5  C   UNL     1      -7.195  15.979  67.599  1.00  0.00    -0.175 C  
HETATM    6  C   UNL     1     -10.534  11.702  65.954  1.00  0.00    -0.300 C  
HETATM    7  O   UNL     1      -8.988  12.486  64.425  1.00  0.00     0.310 OA 
HETATM    8  C   UNL     1     -11.322  10.684  65.162  1.00  0.00     0.821 C  
HETATM    9  C   UNL     1     -11.264  13.039  67.137  1.00  0.00    -0.322 C  
HETATM   10  C   UNL     1      -7.438  14.794  68.543  1.00  0.00    -0.117 C  
HETATM   11  C   UNL     1      -8.072  15.303  69.850  1.00  0.00     0.121 C  
HETATM   12  H   UNL     1      -9.000  13.047  63.658  1.00  0.00     0.000 HD 
HETATM   13  C   UNL     1      -7.386  15.592  70.964  1.00  0.00     2.077 C  
HETATM   14  C   UNL     1      -9.989  14.188  67.615  1.00  0.00    -0.233 C  
HETATM   15  C   UNL     1      -8.409  13.680  67.956  1.00  0.00    -0.170 C  
HETATM   16  O   UNL     1      -5.219  16.216  71.641  1.00  0.00    -0.086 OA 
HETATM   17  O   UNL     1      -9.954  15.206  66.605  1.00  0.00    -0.239 OA 
HETATM   18  H   UNL     1      -9.274  15.819  66.860  1.00  0.00     0.000 HD 
HETATM   19  C   UNL     1      -7.683  12.677  66.835  1.00  0.00     0.080 C  
HETATM   20  C   UNL     1      -6.366  12.141  67.421  1.00  0.00    -0.144 C  
HETATM   21  C   UNL     1      -5.423  13.255  67.861  1.00  0.00    -0.118 C  
HETATM   22  C   UNL     1      -6.046  14.199  68.861  1.00  0.00    -0.085 C  
HETATM   23  C   UNL     1      -5.350  14.554  69.960  1.00  0.00    -0.097 C  
HETATM   24  C   UNL     1      -5.920  15.517  70.922  1.00  0.00     0.227 C  
ENDROOT
BRANCH   4  25
HETATM   25  C   UNL     1     -11.006  13.526  64.689  1.00  0.00    -0.385 C  
HETATM   26  O   UNL     1     -11.615  14.570  64.872  1.00  0.00    -0.365 OA 
BRANCH  25  27
HETATM   27  O   UNL     1     -11.352  12.667  63.667  1.00  0.00    -0.427 OA 
HETATM   28  C   UNL     1     -12.623  12.974  63.082  1.00  0.00     0.093 C  
HETATM   29 CL   UNL     1     -13.806  11.782  63.665  1.00  0.00     1.083 Cl 
ENDBRANCH  25  27
ENDBRANCH   4  25
TORSDOF 2
ENDMDL
MODEL      111
REMARK 921   NORMALIZED FREE ENERGY PREDICTED BY IDOCK:    3.17 KCAL/MOL
REMARK 922        TOTAL FREE ENERGY PREDICTED BY IDOCK:    4.12 KCAL/MOL
REMARK 923 INTER-LIGAND FREE ENERGY PREDICTED BY IDOCK:    0.34 KCAL/MOL
REMARK 924 INTRA-LIGAND FREE ENERGY PREDICTED BY IDOCK:    3.78 KCAL/MOL
REMARK 927      BINDING AFFINITY PREDICTED BY RF-SCORE:    0.00 PKD
ROOT
HETATM    1  C   UNL     1      -8.472  16.525  69.774  1.00  0.00     0.762 C  
HETATM    2  C   UNL     1      -7.565  15.661  70.434  1.00  0.00     0.993 C  
HETATM    3  C   UNL     1      -8.186  15.036  69.226  1.00  0.00    -0.165 C  
HETATM    4  C   UNL     1      -9.255  16.277  67.973  1.00  0.00    -0.196 C  
HETATM    5  C   UNL     1     -13.280  14.762  69.456  1.00  0.00     1.059 C  
HETATM    6  C   UNL     1      -7.935  15.970  67.998  1.00  0.00    -0.142 C  
HETATM    7  O   UNL     1      -9.394  17.747  68.241  1.00  0.00    -0.271 OA 
HETATM    8  C   UNL     1      -6.672  16.623  67.490  1.00  0.00    -0.181 C  
HETATM    9  C   UNL     1      -8.731  14.347  67.326  1.00  0.00    -0.228 C  
HETATM   10  C   UNL     1     -12.117  14.071  70.181  1.00  0.00    -0.419 C  
HETATM   11  C   UNL     1     -12.236  12.547  70.001  1.00  0.00    -0.262 C  
HETATM   12  H   UNL     1      -9.886  18.318  67.664  1.00  0.00     0.000 HD 
HETATM   13  C   UNL     1     -12.810  11.720  70.886  1.00  0.00    -0.243 C  
HETATM   14  C   UNL     1     -10.351  14.125  68.033  1.00  0.00    -0.231 C  
HETATM   15  C   UNL     1     -10.678  14.493  69.655  1.00  0.00    -0.128 C  
HETATM   16  O   UNL     1     -14.407  11.752  72.615  1.00  0.00     0.717 OA 
HETATM   17  O   UNL     1     -11.268  14.837  67.190  1.00  0.00    -0.324 OA 
HETATM   18  H   UNL     1     -12.132  14.718  67.567  1.00  0.00     0.000 HD 
HETATM   19  C   UNL     1     -10.171  15.987  70.203  1.00  0.00    -0.021 C  
HETATM   20  C   UNL     1     -10.342  16.045  71.730  1.00  0.00     2.157 C  
HETATM   21  C   UNL     1     -11.769  15.745  72.174  1.00  0.00    -0.573 C  
HETATM   22  C   UNL     1     -12.276  14.411  71.682  1.00  0.00    -0.385 C  
HETATM   23  C   UNL     1     -12.913  13.587  72.539  1.00  0.00    -0.359 C  
HETATM   24  C   UNL     1     -13.463  12.302  72.065  1.00  0.00    -0.316 C  
ENDROOT
BRANCH   4  25
HETATM   25  C   UNL     1      -9.310  16.557  66.291  1.00  0.00    -0.302 C  
HETATM   26  O   UNL     1      -9.192  17.608  65.677  1.00  0.00    -0.414 OA 
BRANCH  25  27
HETATM   27  O   UNL     1      -9.673  15.392  65.650  1.00  0.00    -0.343 OA 
HETATM   28  C   UNL     1     -10.549  15.612  64.539  1.00  0.00     0.215 C  
HETATM   29 CL   UNL     1     -12.192  15.137  65.023  1.00  0.00    -0.063 Cl 
ENDBRANCH  25  27
ENDBRANCH   4  25
TORSDOF 2
ENDMDL
MODEL      112
REMARK 921   NORMALIZED FREE ENERGY PREDICTED BY IDOCK:    3.73 KCAL/MOL
REMARK 922        TOTAL FREE ENERGY PREDICTED BY IDOCK:    4.74 KCAL/MOL
REMARK 923 INTER-LIGAND FREE ENERGY PREDICTED BY IDOCK:    2.22 KCAL/MOL
REMARK 924 INTRA-LIGAND FREE ENERGY PREDICTED BY IDOCK:    2.53 KCAL/MOL
REMARK 927      BINDING AFFINITY PREDICTED BY RF-SCORE:    0.00 PKD
ROOT
HETATM    1  C   UNL     1     -10.754   4.462  69.215  1.00  0.00     1.425 C  
HETATM    2  C   UNL     1     -10.756   4.576  67.805  1.00  0.00     0.815 C  
HETATM    3  C   UNL     1      -9.481   5.053  68.423  1.00  0.00    -0.178 C  
HETATM    4  C   UNL     1      -9.193   4.633  70.421  1.00  0.00    -0.125 C  
HETATM    5  C   UNL     1     -10.124   8.889  71.733  1.00  0.00    -0.407 C  
HETATM    6  C   UNL     1      -8.901   3.908  69.314  1.00  0.00    -0.145 C  
HETATM    7  O   UNL     1     -10.203   3.866  71.224  1.00  0.00    -0.090 OA 
HETATM    8  C   UNL     1      -8.665   2.445  69.021  1.00  0.00    -0.131 C  
HETATM    9  C   UNL     1      -7.578   5.310  69.258  1.00  0.00    -0.073 C  
HETATM   10  C   UNL     1     -10.241   8.730  70.210  1.00  0.00    -0.220 C  
HETATM   11  C   UNL     1      -9.307   9.740  69.519  1.00  0.00    -0.226 C  
HETATM   12  H   UNL     1     -10.070   3.672  72.145  1.00  0.00     0.000 HD 
HETATM   13  C   UNL     1      -9.690  10.941  69.065  1.00  0.00    -0.181 C  
HETATM   14  C   UNL     1      -8.248   6.807  69.954  1.00  0.00    -0.127 C  
HETATM   15  C   UNL     1      -9.849   7.287  69.673  1.00  0.00    -0.163 C  
HETATM   16  O   UNL     1     -11.355  12.565  69.436  1.00  0.00    -0.252 OA 
HETATM   17  O   UNL     1      -8.013   6.743  71.369  1.00  0.00    -0.107 OA 
HETATM   18  H   UNL     1      -8.371   7.541  71.740  1.00  0.00     0.000 HD 
HETATM   19  C   UNL     1     -11.033   6.134  69.913  1.00  0.00    -0.458 C  
HETATM   20  C   UNL     1     -12.374   6.675  69.390  1.00  0.00     1.489 C  
HETATM   21  C   UNL     1     -12.758   8.007  70.025  1.00  0.00     1.581 C  
HETATM   22  C   UNL     1     -11.705   9.074  69.849  1.00  0.00     0.276 C  
HETATM   23  C   UNL     1     -12.074  10.310  69.453  1.00  0.00     0.023 C  
HETATM   24  C   UNL     1     -11.067  11.381  69.327  1.00  0.00    -0.254 C  
ENDROOT
BRANCH   4  25
HETATM   25  C   UNL     1      -7.924   3.987  71.361  1.00  0.00    -0.072 C  
HETATM   26  O   UNL     1      -7.741   2.835  71.728  1.00  0.00    -0.047 OA 
BRANCH  25  27
HETATM   27  O   UNL     1      -7.132   5.018  71.820  1.00  0.00    -0.061 OA 
HETATM   28  C   UNL     1      -6.029   4.566  72.615  1.00  0.00    -0.016 C  
HETATM   29 CL   UNL     1      -6.399   4.904  74.321  1.00  0.00    -0.060 Cl 
ENDBRANCH  25  27
ENDBRANCH   4  25
TORSDOF 2
ENDMDL
MODEL      113
REMARK 921   NORMALIZED FREE ENERGY PREDICTED BY IDOCK:    5.43 KCAL/MOL
REMARK 922        TOTAL FREE ENERGY PREDICTED BY IDOCK:    6.64 KCAL/MOL
REMARK 923 INTER-LIGAND FREE ENERGY PREDICTED BY IDOCK:    2.80 KCAL/MOL
REMARK 924 INTRA-LIGAND FREE ENERGY PREDICTED BY IDOCK:    3.83 KCAL/MOL
REMARK 927      BINDING AFFINITY PREDICTED BY RF-SCORE:    0.00 PKD
ROOT
HETATM    1  C   UNL     1     -11.465  17.024  65.796  1.00  0.00     1.086 C  
HETATM    2  C   UNL     1     -10.633  17.812  64.965  1.00  0.00     0.739 C  
HETATM    3  C   UNL     1     -10.224  16.375  65.000  1.00  0.00     0.193 C  
HETATM    4  C   UNL     1     -11.533  15.048  65.883  1.00  0.00    -0.224 C  
HETATM    5  C   UNL     1      -9.049  14.698  69.679  1.00  0.00     0.321 C  
HETATM    6  C   UNL     1     -11.455  15.497  64.607  1.00  0.00    -0.326 C  
HETATM    7  O   UNL     1     -12.849  15.491  66.451  1.00  0.00     1.115 OA 
HETATM    8  C   UNL     1     -12.414  15.597  63.444  1.00  0.00     1.819 C  
HETATM    9  C   UNL     1      -9.932  14.320  64.730  1.00  0.00    -0.009 C  
HETATM   10  C   UNL     1      -8.410  15.667  68.675  1.00  0.00    -0.177 C  
HETATM   11  C   UNL     1      -6.977  15.202  68.359  1.00  0.00    -0.108 C  
HETATM   12  H   UNL     1     -13.452  14.880  66.857  1.00  0.00     0.000 HD 
HETATM   13  C   UNL     1      -5.876  15.667  68.966  1.00  0.00    -0.105 C  
HETATM   14  C   UNL     1      -9.277  14.345  66.387  1.00  0.00    -0.213 C  
HETATM   15  C   UNL     1      -9.182  15.776  67.290  1.00  0.00    -0.217 C  
HETATM   16  O   UNL     1      -5.220  16.681  70.987  1.00  0.00    -0.197 OA 
HETATM   17  O   UNL     1     -10.006  13.360  67.132  1.00  0.00    -0.235 OA 
HETATM   18  H   UNL     1      -9.657  13.373  68.016  1.00  0.00     0.000 HD 
HETATM   19  C   UNL     1     -10.563  16.713  67.360  1.00  0.00    -0.295 C  
HETATM   20  C   UNL     1     -10.220  18.062  68.015  1.00  0.00    -0.390 C  
HETATM   21  C   UNL     1      -9.586  17.902  69.393  1.00  0.00     0.205 C  
HETATM   22  C   UNL     1      -8.345  17.043  69.379  1.00  0.00     0.289 C  
HETATM   23  C   UNL     1      -7.244  17.460  70.036  1.00  0.00     1.098 C  
HETATM   24  C   UNL     1      -6.037  16.610  70.080  1.00  0.00    -0.148 C  
ENDROOT
BRANCH   4  25
HETATM   25  C   UNL     1     -12.197  13.533  65.468  1.00  0.00    -0.451 C  
HETATM   26  O   UNL     1     -12.508  13.099  64.368  1.00  0.00    -0.543 OA 
BRANCH  25  27
HETATM   27  O   UNL     1     -12.503  12.841  66.621  1.00  0.00    -0.373 OA 
HETATM   28  C   UNL     1     -11.365  12.202  67.210  1.00  0.00    -0.334 C  
HETATM   29 CL   UNL     1     -11.465  10.460  66.866  1.00  0.00     0.282 Cl 
ENDBRANCH  25  27
ENDBRANCH   4  25
TORSDOF 2
ENDMDL
MODEL      114
REMARK 921   NORMALIZED FREE ENERGY PREDICTED BY IDOCK:    5.46 KCAL/MOL
REMARK 922        TOTAL FREE ENERGY PREDICTED BY IDOCK:    6.67 KCAL/MOL
REMARK 923 INTER-LIGAND FREE ENERGY PREDICTED BY IDOCK:    3.87 KCAL/MOL
REMARK 924 INTRA-LIGAND FREE ENERGY PREDICTED BY IDOCK:    2.80 KCAL/MOL
REMARK 927      BINDING AFFINITY PREDICTED BY RF-SCORE:    0.00 PKD
ROOT
HETATM    1  C   UNL     1     -11.024  10.858  65.498  1.00  0.00    -0.024 C  
HETATM    2  C   UNL     1     -11.476  11.899  64.652  1.00  0.00    -0.345 C  
HETATM    3  C   UNL     1     -10.104  12.145  65.193  1.00  0.00    -0.288 C  
HETATM    4  C   UNL     1      -9.179  10.574  66.154  1.00  0.00    -0.170 C  
HETATM    5  C   UNL     1      -9.919  12.311  70.294  1.00  0.00     3.480 C  
HETATM    6  C   UNL     1      -9.203  10.918  64.844  1.00  0.00    -0.230 C  
HETATM    7  O   UNL     1      -9.834   9.232  66.293  1.00  0.00    -0.251 OA 
HETATM    8  C   UNL     1      -8.978  10.190  63.539  1.00  0.00    -0.265 C  
HETATM    9  C   UNL     1      -8.057  12.267  65.610  1.00  0.00     1.415 C  
HETATM   10  C   UNL     1     -10.498  13.211  69.193  1.00  0.00     0.066 C  
HETATM   11  C   UNL     1      -9.894  14.622  69.318  1.00  0.00    -0.076 C  
HETATM   12  H   UNL     1      -9.408   8.508  66.736  1.00  0.00     0.000 HD 
HETATM   13  C   UNL     1     -10.476  15.642  69.964  1.00  0.00    -0.333 C  
HETATM   14  C   UNL     1      -8.568  12.624  67.278  1.00  0.00    -0.196 C  
HETATM   15  C   UNL     1     -10.203  12.707  67.715  1.00  0.00    -0.222 C  
HETATM   16  O   UNL     1     -12.039  16.038  71.679  1.00  0.00    -0.435 OA 
HETATM   17  O   UNL     1      -7.898  11.678  68.124  1.00  0.00    -0.118 OA 
HETATM   18  H   UNL     1      -8.170  11.868  69.015  1.00  0.00     0.000 HD 
HETATM   19  C   UNL     1     -11.176  11.439  67.230  1.00  0.00    -0.370 C  
HETATM   20  C   UNL     1     -12.645  11.800  67.508  1.00  0.00     2.001 C  
HETATM   21  C   UNL     1     -12.895  12.164  68.967  1.00  0.00     1.463 C  
HETATM   22  C   UNL     1     -12.020  13.294  69.454  1.00  0.00    -0.356 C  
HETATM   23  C   UNL     1     -12.572  14.302  70.161  1.00  0.00    -0.338 C  
HETATM   24  C   UNL     1     -11.725  15.388  70.692  1.00  0.00    -0.339 C  
ENDROOT
BRANCH   4  25
HETATM   25  C   UNL     1      -7.641   9.839  66.087  1.00  0.00    -0.101 C  
HETATM   26  O   UNL     1      -7.226   8.854  66.681  1.00  0.00    -0.083 OA 
BRANCH  25  27
HETATM   27  O   UNL     1      -6.797  10.624  65.329  1.00  0.00    -0.087 OA 
HETATM   28  C   UNL     1      -5.476  10.716  65.875  1.00  0.00    -0.114 C  
HETATM   29 CL   UNL     1      -5.295  12.316  66.629  1.00  0.00     0.188 Cl 
ENDBRANCH  25  27
ENDBRANCH   4  25
TORSDOF 2
ENDMDL
MODEL      115
REMARK 921   NORMALIZED FREE ENERGY PREDICTED BY IDOCK:    5.65 KCAL/MOL
REMARK 922        TOTAL FREE ENERGY PREDICTED BY IDOCK:    6.89 KCAL/MOL
REMARK 923 INTER-LIGAND FREE ENERGY PREDICTED BY IDOCK:    3.96 KCAL/MOL
REMARK 924 INTRA-LIGAND FREE ENERGY PREDICTED BY IDOCK:    2.93 KCAL/MOL
REMARK 927      BINDING AFFINITY PREDICTED BY RF-SCORE:    0.00 PKD
ROOT
HETATM    1  C   UNL     1     -10.677  15.236  66.050  1.00  0.00    -0.324 C  
HETATM    2  C   UNL     1      -9.595  14.957  65.181  1.00  0.00     0.169 C  
HETATM    3  C   UNL     1      -9.682  13.999  66.326  1.00  0.00    -0.311 C  
HETATM    4  C   UNL     1     -11.393  14.063  67.474  1.00  0.00    -0.321 C  
HETATM    5  C   UNL     1      -9.343  16.244  70.900  1.00  0.00     3.142 C  
HETATM    6  C   UNL     1     -11.113  13.372  66.343  1.00  0.00    -0.312 C  
HETATM    7  O   UNL     1     -12.516  15.011  67.172  1.00  0.00    -0.208 OA 
HETATM    8  C   UNL     1     -11.931  12.736  65.243  1.00  0.00    -0.473 C  
HETATM    9  C   UNL     1     -10.069  12.443  67.671  1.00  0.00    -0.199 C  
HETATM   10  C   UNL     1      -8.374  15.986  69.738  1.00  0.00     0.329 C  
HETATM   11  C   UNL     1      -7.160  15.191  70.253  1.00  0.00     0.176 C  
HETATM   12  H   UNL     1     -13.305  15.040  67.701  1.00  0.00     0.000 HD 
HETATM   13  C   UNL     1      -5.998  15.741  70.630  1.00  0.00     0.118 C  
HETATM   14  C   UNL     1      -9.519  13.585  68.922  1.00  0.00     0.165 C  
HETATM   15  C   UNL     1      -9.002  15.153  68.539  1.00  0.00    -0.186 C  
HETATM   16  O   UNL     1      -5.141  17.784  71.427  1.00  0.00    -0.477 OA 
HETATM   17  O   UNL     1     -10.566  13.656  69.901  1.00  0.00    -0.237 OA 
HETATM   18  H   UNL     1     -10.274  14.266  70.569  1.00  0.00     0.000 HD 
HETATM   19  C   UNL     1     -10.001  16.051  67.545  1.00  0.00    -0.240 C  
HETATM   20  C   UNL     1      -9.265  17.335  67.124  1.00  0.00    -0.240 C  
HETATM   21  C   UNL     1      -8.785  18.154  68.316  1.00  0.00    -0.294 C  
HETATM   22  C   UNL     1      -7.895  17.373  69.253  1.00  0.00     0.096 C  
HETATM   23  C   UNL     1      -6.750  17.930  69.697  1.00  0.00    -0.005 C  
HETATM   24  C   UNL     1      -5.893  17.205  70.655  1.00  0.00     0.214 C  
ENDROOT
BRANCH   4  25
HETATM   25  C   UNL     1     -12.498  12.914  68.080  1.00  0.00     0.562 C  
HETATM   26  O   UNL     1     -13.014  11.962  67.513  1.00  0.00     2.107 OA 
BRANCH  25  27
HETATM   27  O   UNL     1     -12.889  13.286  69.349  1.00  0.00     0.384 OA 
HETATM   28  C   UNL     1     -12.305  12.477  70.377  1.00  0.00    -0.232 C  
HETATM   29 CL   UNL     1     -13.552  11.362  70.981  1.00  0.00     0.553 Cl 
ENDBRANCH  25  27
ENDBRANCH   4  25
TORSDOF 2
ENDMDL
MODEL      116
REMARK 921   NORMALIZED FREE ENERGY PREDICTED BY IDOCK:    7.39 KCAL/MOL
REMARK 922        TOTAL FREE ENERGY PREDICTED BY IDOCK:    8.83 KCAL/MOL
REMARK 923 INTER-LIGAND FREE ENERGY PREDICTED BY IDOCK:    6.92 KCAL/MOL
REMARK 924 INTRA-LIGAND FREE ENERGY PREDICTED BY IDOCK:    1.91 KCAL/MOL
REMARK 927      BINDING AFFINITY PREDICTED BY RF-SCORE:    0.00 PKD
ROOT
HETATM    1  C   UNL     1     -11.020  12.611  64.689  1.00  0.00    -0.346 C  
HETATM    2  C   UNL     1     -10.178  12.898  63.588  1.00  0.00     0.135 C  
HETATM    3  C   UNL     1      -9.574  11.915  64.538  1.00  0.00    -0.045 C  
HETATM    4  C   UNL     1     -10.809  11.140  65.996  1.00  0.00    -0.166 C  
HETATM    5  C   UNL     1      -9.018  13.731  69.279  1.00  0.00     0.597 C  
HETATM    6  C   UNL     1     -10.572  10.728  64.727  1.00  0.00    -0.264 C  
HETATM    7  O   UNL     1     -12.256  11.523  66.096  1.00  0.00     0.063 OA 
HETATM    8  C   UNL     1     -11.313   9.884  63.717  1.00  0.00     5.479 C  
HETATM    9  C   UNL     1      -8.939  10.249  65.635  1.00  0.00    -0.198 C  
HETATM   10  C   UNL     1      -8.360  14.009  67.920  1.00  0.00    -0.168 C  
HETATM   11  C   UNL     1      -6.841  13.786  68.035  1.00  0.00    -0.140 C  
HETATM   12  H   UNL     1     -12.825  11.166  66.768  1.00  0.00     0.000 HD 
HETATM   13  C   UNL     1      -5.946  14.758  68.265  1.00  0.00    -0.122 C  
HETATM   14  C   UNL     1      -8.600  11.418  66.935  1.00  0.00    -0.154 C  
HETATM   15  C   UNL     1      -8.880  13.079  66.741  1.00  0.00    -0.144 C  
HETATM   16  O   UNL     1      -5.818  16.903  69.227  1.00  0.00    -0.151 OA 
HETATM   17  O   UNL     1      -9.298  10.952  68.099  1.00  0.00    -0.155 OA 
HETATM   18  H   UNL     1      -9.118  11.576  68.793  1.00  0.00     0.000 HD 
HETATM   19  C   UNL     1     -10.374  13.524  66.141  1.00  0.00    -0.296 C  
HETATM   20  C   UNL     1     -10.356  15.027  65.818  1.00  0.00    -0.354 C  
HETATM   21  C   UNL     1      -9.962  15.882  67.017  1.00  0.00    -0.248 C  
HETATM   22  C   UNL     1      -8.625  15.499  67.604  1.00  0.00    -0.175 C  
HETATM   23  C   UNL     1      -7.732  16.464  67.904  1.00  0.00    -0.161 C  
HETATM   24  C   UNL     1      -6.441  16.115  68.529  1.00  0.00    -0.117 C  
ENDROOT
BRANCH   4  25
HETATM   25  C   UNL     1     -11.159   9.581  66.596  1.00  0.00     0.518 C  
HETATM   26  O   UNL     1     -12.194   9.154  67.086  1.00  0.00     4.185 OA 
BRANCH  25  27
HETATM   27  O   UNL     1     -10.004   8.827  66.596  1.00  0.00    -0.239 OA 
HETATM   28  C   UNL     1     -10.230   7.455  66.940  1.00  0.00    -0.276 C  
HETATM   29 CL   UNL     1      -9.670   7.202  68.609  1.00  0.00    -0.140 Cl 
ENDBRANCH  25  27
ENDBRANCH   4  25
TORSDOF 2
ENDMDL
MODEL      117
REMARK 921   NORMALIZED FREE ENERGY PREDICTED BY IDOCK:    7.40 KCAL/MOL
REMARK 922        TOTAL FREE ENERGY PREDICTED BY IDOCK:    8.84 KCAL/MOL
REMARK 923 INTER-LIGAND FREE ENERGY PREDICTED BY IDOCK:    6.30 KCAL/MOL
REMARK 924 INTRA-LIGAND FREE ENERGY PREDICTED BY IDOCK:    2.54 KCAL/MOL
REMARK 927      BINDING AFFINITY PREDICTED BY RF-SCORE:    0.00 PKD
ROOT
HETATM    1  C   UNL     1      -8.863  17.581  67.613  1.00  0.00    -0.228 C  
HETATM    2  C   UNL     1      -7.654  17.502  68.345  1.00  0.00    -0.254 C  
HETATM    3  C   UNL     1      -8.277  16.164  68.109  1.00  0.00    -0.157 C  
HETATM    4  C   UNL     1      -9.845  16.082  66.772  1.00  0.00    -0.250 C  
HETATM    5  C   UNL     1     -12.981  15.729  70.049  1.00  0.00     0.353 C  
HETATM    6  C   UNL     1      -8.508  15.985  66.574  1.00  0.00    -0.348 C  
HETATM    7  O   UNL     1     -10.334  17.301  66.048  1.00  0.00    -0.370 OA 
HETATM    8  C   UNL     1      -7.580  16.191  65.400  1.00  0.00     3.612 C  
HETATM    9  C   UNL     1      -8.929  14.300  67.412  1.00  0.00    -0.205 C  
HETATM   10  C   UNL     1     -11.566  15.839  70.634  1.00  0.00    -0.416 C  
HETATM   11  C   UNL     1     -11.290  14.622  71.535  1.00  0.00     0.079 C  
HETATM   12  H   UNL     1     -11.056  17.263  65.431  1.00  0.00     0.000 HD 
HETATM   13  C   UNL     1     -11.454  14.610  72.866  1.00  0.00     0.418 C  
HETATM   14  C   UNL     1     -10.279  14.511  68.556  1.00  0.00    -0.240 C  
HETATM   15  C   UNL     1     -10.411  15.882  69.543  1.00  0.00    -0.281 C  
HETATM   16  O   UNL     1     -12.676  15.719  74.545  1.00  0.00    -0.590 OA 
HETATM   17  O   UNL     1     -11.488  14.352  67.798  1.00  0.00    -0.301 OA 
HETATM   18  H   UNL     1     -12.208  14.465  68.408  1.00  0.00     0.000 HD 
HETATM   19  C   UNL     1     -10.248  17.366  68.793  1.00  0.00    -0.361 C  
HETATM   20  C   UNL     1     -10.163  18.463  69.867  1.00  0.00     0.886 C  
HETATM   21  C   UNL     1     -11.355  18.449  70.818  1.00  0.00     4.499 C  
HETATM   22  C   UNL     1     -11.552  17.118  71.502  1.00  0.00     1.225 C  
HETATM   23  C   UNL     1     -11.780  17.084  72.831  1.00  0.00     0.353 C  
HETATM   24  C   UNL     1     -12.029  15.797  73.510  1.00  0.00    -0.400 C  
ENDROOT
BRANCH   4  25
HETATM   25  C   UNL     1     -10.264  15.098  65.443  1.00  0.00    -0.372 C  
HETATM   26  O   UNL     1     -10.037  15.265  64.253  1.00  0.00     0.359 OA 
BRANCH  25  27
HETATM   27  O   UNL     1     -11.077  14.072  65.877  1.00  0.00    -0.297 OA 
HETATM   28  C   UNL     1     -11.236  13.032  64.906  1.00  0.00    -0.302 C  
HETATM   29 CL   UNL     1     -12.852  13.190  64.181  1.00  0.00    -0.111 Cl 
ENDBRANCH  25  27
ENDBRANCH   4  25
TORSDOF 2
ENDMDL
MODEL      118
REMARK 921   NORMALIZED FREE ENERGY PREDICTED BY IDOCK:    8.29 KCAL/MOL
REMARK 922        TOTAL FREE ENERGY PREDICTED BY IDOCK:    9.84 KCAL/MOL
REMARK 923 INTER-LIGAND FREE ENERGY PREDICTED BY IDOCK:    7.93 KCAL/MOL
REMARK 924 INTRA-LIGAND FREE ENERGY PREDICTED BY IDOCK:    1.91 KCAL/MOL
REMARK 927      BINDING AFFINITY PREDICTED BY RF-SCORE:    0.00 PKD
ROOT
HETATM    1  C   UNL     1      -8.677  12.373  67.736  1.00  0.00    -0.176 C  
HETATM    2  C   UNL     1      -7.597  11.831  68.475  1.00  0.00    -0.131 C  
HETATM    3  C   UNL     1      -8.572  12.572  69.332  1.00  0.00     1.197 C  
HETATM    4  C   UNL     1     -10.361  13.117  68.462  1.00  0.00    -0.238 C  
HETATM    5  C   UNL     1      -9.134  17.476  68.019  1.00  0.00    -0.269 C  
HETATM    6  C   UNL     1      -9.997  11.976  69.096  1.00  0.00     0.241 C  
HETATM    7  O   UNL     1     -10.689  12.773  67.039  1.00  0.00    -0.249 OA 
HETATM    8  C   UNL     1     -10.488  10.547  69.099  1.00  0.00    -0.250 C  
HETATM    9  C   UNL     1     -10.141  13.234  70.550  1.00  0.00     3.931 C  
HETATM   10  C   UNL     1      -8.015  16.638  68.654  1.00  0.00    -0.236 C  
HETATM   11  C   UNL     1      -7.632  17.246  70.015  1.00  0.00     1.508 C  
HETATM   12  H   UNL     1     -11.513  13.024  66.639  1.00  0.00     0.000 HD 
HETATM   13  C   UNL     1      -6.615  18.098  70.207  1.00  0.00     0.630 C  
HETATM   14  C   UNL     1      -9.691  14.865  69.991  1.00  0.00     0.283 C  
HETATM   15  C   UNL     1      -8.406  15.119  68.916  1.00  0.00    -0.190 C  
HETATM   16  O   UNL     1      -5.324  19.666  69.016  1.00  0.00    -0.188 OA 
HETATM   17  O   UNL     1     -10.883  15.459  69.456  1.00  0.00    -0.233 OA 
HETATM   18  H   UNL     1     -10.643  16.328  69.157  1.00  0.00     0.000 HD 
HETATM   19  C   UNL     1      -8.377  14.170  67.541  1.00  0.00    -0.194 C  
HETATM   20  C   UNL     1      -7.035  14.376  66.819  1.00  0.00     1.364 C  
HETATM   21  C   UNL     1      -6.763  15.840  66.489  1.00  0.00     0.977 C  
HETATM   22  C   UNL     1      -6.801  16.738  67.702  1.00  0.00    -0.158 C  
HETATM   23  C   UNL     1      -5.822  17.647  67.884  1.00  0.00    -0.151 C  
HETATM   24  C   UNL     1      -5.869  18.571  69.034  1.00  0.00    -0.222 C  
ENDROOT
BRANCH   4  25
HETATM   25  C   UNL     1     -12.008  13.006  68.891  1.00  0.00    -0.263 C  
HETATM   26  O   UNL     1     -12.997  13.002  68.171  1.00  0.00     1.169 OA 
BRANCH  25  27
HETATM   27  O   UNL     1     -12.124  13.066  70.264  1.00  0.00    -0.348 OA 
HETATM   28  C   UNL     1     -13.462  13.329  70.703  1.00  0.00     0.623 C  
HETATM   29 CL   UNL     1     -13.551  15.024  71.232  1.00  0.00    -0.497 Cl 
ENDBRANCH  25  27
ENDBRANCH   4  25
TORSDOF 2
ENDMDL
MODEL      119
REMARK 921   NORMALIZED FREE ENERGY PREDICTED BY IDOCK:   11.53 KCAL/MOL
REMARK 922        TOTAL FREE ENERGY PREDICTED BY IDOCK:   13.45 KCAL/MOL
REMARK 923 INTER-LIGAND FREE ENERGY PREDICTED BY IDOCK:   11.58 KCAL/MOL
REMARK 924 INTRA-LIGAND FREE ENERGY PREDICTED BY IDOCK:    1.87 KCAL/MOL
REMARK 927      BINDING AFFINITY PREDICTED BY RF-SCORE:    0.00 PKD
ROOT
HETATM    1  C   UNL     1     -11.054   9.441  65.982  1.00  0.00     1.560 C  
HETATM    2  C   UNL     1     -11.317  10.397  64.972  1.00  0.00     1.549 C  
HETATM    3  C   UNL     1      -9.870  10.038  65.067  1.00  0.00    -0.374 C  
HETATM    4  C   UNL     1      -9.381   8.417  66.245  1.00  0.00    -0.219 C  
HETATM    5  C   UNL     1      -7.818  11.008  69.643  1.00  0.00     0.201 C  
HETATM    6  C   UNL     1      -9.732   8.487  64.938  1.00  0.00     1.245 C  
HETATM    7  O   UNL     1     -10.425   7.615  66.963  1.00  0.00    -0.304 OA 
HETATM    8  C   UNL     1     -10.305   7.521  63.928  1.00  0.00     8.723 C  
HETATM    9  C   UNL     1      -7.948   9.219  64.932  1.00  0.00    -0.121 C  
HETATM   10  C   UNL     1      -8.336  11.861  68.476  1.00  0.00    -0.118 C  
HETATM   11  C   UNL     1      -7.213  12.795  67.989  1.00  0.00    -0.115 C  
HETATM   12  H   UNL     1     -10.200   6.868  67.505  1.00  0.00     0.000 HD 
HETATM   13  C   UNL     1      -7.059  14.067  68.384  1.00  0.00    -0.102 C  
HETATM   14  C   UNL     1      -7.636  10.074  66.463  1.00  0.00    -0.106 C  
HETATM   15  C   UNL     1      -8.822  11.020  67.218  1.00  0.00    -0.135 C  
HETATM   16  O   UNL     1      -7.600  15.476  70.191  1.00  0.00     0.067 OA 
HETATM   17  O   UNL     1      -7.151   9.091  67.390  1.00  0.00    -0.078 OA 
HETATM   18  H   UNL     1      -6.984   9.547  68.207  1.00  0.00     0.000 HD 
HETATM   19  C   UNL     1     -10.327  10.323  67.414  1.00  0.00    -0.282 C  
HETATM   20  C   UNL     1     -11.318  11.397  67.894  1.00  0.00    -0.371 C  
HETATM   21  C   UNL     1     -10.857  12.093  69.170  1.00  0.00    -0.165 C  
HETATM   22  C   UNL     1      -9.490  12.720  69.043  1.00  0.00     0.418 C  
HETATM   23  C   UNL     1      -9.294  13.977  69.490  1.00  0.00     0.726 C  
HETATM   24  C   UNL     1      -7.952  14.589  69.425  1.00  0.00     0.067 C  
ENDROOT
BRANCH   4  25
HETATM   25  C   UNL     1      -8.408   7.028  66.064  1.00  0.00    -0.134 C  
HETATM   26  O   UNL     1      -7.934   6.297  66.922  1.00  0.00    -0.106 OA 
BRANCH  25  27
HETATM   27  O   UNL     1      -8.067   6.884  64.735  1.00  0.00    -0.125 OA 
HETATM   28  C   UNL     1      -7.692   5.544  64.394  1.00  0.00    -0.095 C  
HETATM   29 CL   UNL     1      -5.923   5.489  64.222  1.00  0.00    -0.021 Cl 
ENDBRANCH  25  27
ENDBRANCH   4  25
TORSDOF 2
ENDMDL
MODEL      120
REMARK 921   NORMALIZED FREE ENERGY PREDICTED BY IDOCK:   18.23 KCAL/MOL
REMARK 922        TOTAL FREE ENERGY PREDICTED BY IDOCK:   20.93 KCAL/MOL
REMARK 923 INTER-LIGAND FREE ENERGY PREDICTED BY IDOCK:   20.48 KCAL/MOL
REMARK 924 INTRA-LIGAND FREE ENERGY PREDICTED BY IDOCK:    0.45 KCAL/MOL
REMARK 927      BINDING AFFINITY PREDICTED BY RF-SCORE:    0.00 PKD
ROOT
HETATM    1  C   UNL     1      -9.726  11.984  69.939  1.00  0.00     2.116 C  
HETATM    2  C   UNL     1     -10.155  11.033  70.896  1.00  0.00     3.150 C  
HETATM    3  C   UNL     1     -11.255  11.478  69.987  1.00  0.00    -0.108 C  
HETATM    4  C   UNL     1     -10.716  12.589  68.336  1.00  0.00    -0.240 C  
HETATM    5  C   UNL     1     -12.142  16.505  70.162  1.00  0.00     0.826 C  
HETATM    6  C   UNL     1     -10.804  11.248  68.510  1.00  0.00    -0.245 C  
HETATM    7  O   UNL     1      -9.284  12.925  68.039  1.00  0.00    -0.199 OA 
HETATM    8  C   UNL     1     -10.209  10.037  67.831  1.00  0.00    -0.228 C  
HETATM    9  C   UNL     1     -12.655  11.787  68.462  1.00  0.00     1.107 C  
HETATM   10  C   UNL     1     -12.351  15.326  71.123  1.00  0.00    -0.421 C  
HETATM   11  C   UNL     1     -13.838  15.246  71.514  1.00  0.00    -0.617 C  
HETATM   12  H   UNL     1      -9.036  13.436  67.277  1.00  0.00     0.000 HD 
HETATM   13  C   UNL     1     -14.360  15.783  72.626  1.00  0.00    -0.189 C  
HETATM   14  C   UNL     1     -12.832  13.418  69.156  1.00  0.00     1.089 C  
HETATM   15  C   UNL     1     -11.951  13.912  70.518  1.00  0.00    -0.384 C  
HETATM   16  O   UNL     1     -13.929  17.501  74.176  1.00  0.00     2.243 OA 
HETATM   17  O   UNL     1     -12.610  14.347  68.085  1.00  0.00    -0.503 OA 
HETATM   18  H   UNL     1     -12.704  15.217  68.455  1.00  0.00     0.000 HD 
HETATM   19  C   UNL     1     -10.305  13.633  70.489  1.00  0.00     2.538 C  
HETATM   20  C   UNL     1      -9.722  13.928  71.882  1.00  0.00     8.567 C  
HETATM   21  C   UNL     1     -10.039  15.339  72.365  1.00  0.00     3.489 C  
HETATM   22  C   UNL     1     -11.517  15.641  72.386  1.00  0.00    -0.434 C  
HETATM   23  C   UNL     1     -12.056  16.238  73.469  1.00  0.00    -0.557 C  
HETATM   24  C   UNL     1     -13.489  16.591  73.488  1.00  0.00     0.345 C  
ENDROOT
BRANCH   4  25
HETATM   25  C   UNL     1     -11.075  12.548  66.669  1.00  0.00    -0.283 C  
HETATM   26  O   UNL     1     -12.030  12.045  66.095  1.00  0.00    -0.581 OA 
BRANCH  25  27
HETATM   27  O   UNL     1     -10.009  13.066  65.963  1.00  0.00    -0.272 OA 
HETATM   28  C   UNL     1      -9.902  12.534  64.638  1.00  0.00    -0.054 C  
HETATM   29 CL   UNL     1      -8.563  11.365  64.614  1.00  0.00     0.330 Cl 
ENDBRANCH  25  27
ENDBRANCH   4  25
TORSDOF 2
ENDMDL
MODEL      121
REMARK 921   NORMALIZED FREE ENERGY PREDICTED BY IDOCK:   18.31 KCAL/MOL
REMARK 922        TOTAL FREE ENERGY PREDICTED BY IDOCK:   21.02 KCAL/MOL
REMARK 923 INTER-LIGAND FREE ENERGY PREDICTED BY IDOCK:   12.55 KCAL/MOL
REMARK 924 INTRA-LIGAND FREE ENERGY PREDICTED BY IDOCK:    8.47 KCAL/MOL
REMARK 927      BINDING AFFINITY PREDICTED BY RF-SCORE:    0.00 PKD
ROOT
HETATM    1  C   UNL     1      -9.255  13.662  66.908  1.00  0.00    -0.257 C  
HETATM    2  C   UNL     1     -10.383  14.015  66.128  1.00  0.00    -0.301 C  
HETATM    3  C   UNL     1      -9.729  15.196  66.770  1.00  0.00    -0.255 C  
HETATM    4  C   UNL     1      -7.888  14.890  67.646  1.00  0.00    -0.172 C  
HETATM    5  C   UNL     1      -9.583  14.934  71.868  1.00  0.00     4.176 C  
HETATM    6  C   UNL     1      -8.219  15.208  66.371  1.00  0.00     0.200 C  
HETATM    7  O   UNL     1      -7.215  13.549  67.629  1.00  0.00    -0.142 OA 
HETATM    8  C   UNL     1      -7.547  15.079  65.024  1.00  0.00     9.633 C  
HETATM    9  C   UNL     1      -8.570  16.851  67.317  1.00  0.00    -0.212 C  
HETATM   10  C   UNL     1     -10.685  15.126  70.817  1.00  0.00    -0.113 C  
HETATM   11  C   UNL     1     -11.435  16.440  71.099  1.00  0.00    -0.252 C  
HETATM   12  H   UNL     1      -6.367  13.408  68.032  1.00  0.00     0.000 HD 
HETATM   13  C   UNL     1     -12.578  16.528  71.794  1.00  0.00     0.759 C  
HETATM   14  C   UNL     1      -9.110  16.494  68.977  1.00  0.00    -0.229 C  
HETATM   15  C   UNL     1     -10.153  15.204  69.321  1.00  0.00    -0.246 C  
HETATM   16  O   UNL     1     -13.784  15.355  73.441  1.00  0.00    -0.348 OA 
HETATM   17  O   UNL     1      -7.924  16.372  69.777  1.00  0.00     0.179 OA 
HETATM   18  H   UNL     1      -8.212  16.181  70.662  1.00  0.00     0.000 HD 
HETATM   19  C   UNL     1      -9.752  13.718  68.670  1.00  0.00    -0.140 C  
HETATM   20  C   UNL     1     -10.920  12.743  68.891  1.00  0.00    -0.275 C  
HETATM   21  C   UNL     1     -11.314  12.618  70.358  1.00  0.00     0.548 C  
HETATM   22  C   UNL     1     -11.665  13.942  70.992  1.00  0.00     0.029 C  
HETATM   23  C   UNL     1     -12.777  14.040  71.749  1.00  0.00    -0.406 C  
HETATM   24  C   UNL     1     -13.109  15.311  72.421  1.00  0.00    -0.391 C  
ENDROOT
BRANCH   4  25
HETATM   25  C   UNL     1      -6.374  15.674  67.607  1.00  0.00    -0.163 C  
HETATM   26  O   UNL     1      -5.782  16.168  66.658  1.00  0.00    -0.239 OA 
BRANCH  25  27
HETATM   27  O   UNL     1      -5.773  15.559  68.843  1.00  0.00    -0.100 OA 
HETATM   28  C   UNL     1      -6.415  14.603  69.693  1.00  0.00    -0.149 C  
HETATM   29 CL   UNL     1      -7.359  15.488  70.913  1.00  0.00     1.419 Cl 
ENDBRANCH  25  27
ENDBRANCH   4  25
TORSDOF 2
ENDMDL
MODEL      122
REMARK 921   NORMALIZED FREE ENERGY PREDICTED BY IDOCK:   18.96 KCAL/MOL
REMARK 922        TOTAL FREE ENERGY PREDICTED BY IDOCK:   21.75 KCAL/MOL
REMARK 923 INTER-LIGAND FREE ENERGY PREDICTED BY IDOCK:   10.84 KCAL/MOL
REMARK 924 INTRA-LIGAND FREE ENERGY PREDICTED BY IDOCK:   10.91 KCAL/MOL
REMARK 927      BINDING AFFINITY PREDICTED BY RF-SCORE:    0.00 PKD
ROOT
HETATM    1  C   UNL     1     -10.698  14.285  69.498  1.00  0.00    -0.095 C  
HETATM    2  C   UNL     1      -9.402  13.823  69.831  1.00  0.00     1.871 C  
HETATM    3  C   UNL     1      -9.798  15.042  70.600  1.00  0.00     0.808 C  
HETATM    4  C   UNL     1     -11.773  15.625  70.481  1.00  0.00    -0.366 C  
HETATM    5  C   UNL     1     -10.871  19.066  67.645  1.00  0.00    -0.439 C  
HETATM    6  C   UNL     1     -11.156  14.757  71.319  1.00  0.00     0.065 C  
HETATM    7  O   UNL     1     -12.780  14.857  69.677  1.00  0.00    -0.584 OA 
HETATM    8  C   UNL     1     -11.600  13.596  72.178  1.00  0.00     2.121 C  
HETATM    9  C   UNL     1     -10.526  16.467  71.950  1.00  0.00     2.696 C  
HETATM   10  C   UNL     1      -9.598  18.291  68.012  1.00  0.00    -0.314 C  
HETATM   11  C   UNL     1      -8.570  19.259  68.625  1.00  0.00    -0.401 C  
HETATM   12  H   UNL     1     -13.689  15.126  69.622  1.00  0.00     0.000 HD 
HETATM   13  C   UNL     1      -7.583  19.852  67.940  1.00  0.00    -0.336 C  
HETATM   14  C   UNL     1     -10.396  17.607  70.588  1.00  0.00     1.916 C  
HETATM   15  C   UNL     1      -9.826  17.124  69.067  1.00  0.00    -0.240 C  
HETATM   16  O   UNL     1      -7.047  20.498  65.740  1.00  0.00    -0.225 OA 
HETATM   17  O   UNL     1     -11.685  18.220  70.440  1.00  0.00     3.818 OA 
HETATM   18  H   UNL     1     -11.616  18.828  69.713  1.00  0.00     0.000 HD 
HETATM   19  C   UNL     1     -10.510  15.748  68.411  1.00  0.00    -0.245 C  
HETATM   20  C   UNL     1      -9.714  15.341  67.159  1.00  0.00    -0.220 C  
HETATM   21  C   UNL     1      -9.625  16.461  66.130  1.00  0.00    -0.356 C  
HETATM   22  C   UNL     1      -9.031  17.732  66.687  1.00  0.00    -0.283 C  
HETATM   23  C   UNL     1      -8.080  18.382  65.985  1.00  0.00    -0.118 C  
HETATM   24  C   UNL     1      -7.525  19.655  66.486  1.00  0.00    -0.261 C  
ENDROOT
BRANCH   4  25
HETATM   25  C   UNL     1     -12.979  16.079  71.598  1.00  0.00    -0.097 C  
HETATM   26  O   UNL     1     -14.155  16.349  71.401  1.00  0.00     1.124 OA 
BRANCH  25  27
HETATM   27  O   UNL     1     -12.403  16.259  72.838  1.00  0.00    -0.474 OA 
HETATM   28  C   UNL     1     -11.609  15.143  73.256  1.00  0.00    -0.063 C  
HETATM   29 CL   UNL     1     -12.520  14.240  74.486  1.00  0.00     1.534 Cl 
ENDBRANCH  25  27
ENDBRANCH   4  25
TORSDOF 2
ENDMDL
MODEL      123
REMARK 921   NORMALIZED FREE ENERGY PREDICTED BY IDOCK:   19.67 KCAL/MOL
REMARK 922        TOTAL FREE ENERGY PREDICTED BY IDOCK:   22.54 KCAL/MOL
REMARK 923 INTER-LIGAND FREE ENERGY PREDICTED BY IDOCK:    9.41 KCAL/MOL
REMARK 924 INTRA-LIGAND FREE ENERGY PREDICTED BY IDOCK:   13.13 KCAL/MOL
REMARK 927      BINDING AFFINITY PREDICTED BY RF-SCORE:    0.00 PKD
ROOT
HETATM    1  C   UNL     1      -6.980  11.762  67.257  1.00  0.00    -0.138 C  
HETATM    2  C   UNL     1      -5.794  12.339  67.773  1.00  0.00    -0.098 C  
HETATM    3  C   UNL     1      -5.608  10.920  67.339  1.00  0.00    -0.045 C  
HETATM    4  C   UNL     1      -7.138  10.062  66.256  1.00  0.00    -0.105 C  
HETATM    5  C   UNL     1      -8.637   7.619  69.790  1.00  0.00    -0.135 C  
HETATM    6  C   UNL     1      -6.068  10.789  65.852  1.00  0.00    -0.128 C  
HETATM    7  O   UNL     1      -8.379  10.823  65.896  1.00  0.00    -0.159 OA 
HETATM    8  C   UNL     1      -5.731  11.614  64.632  1.00  0.00     2.410 C  
HETATM    9  C   UNL     1      -5.267   9.107  66.350  1.00  0.00    -0.036 C  
HETATM   10  C   UNL     1      -7.428   8.483  70.175  1.00  0.00    -0.060 C  
HETATM   11  C   UNL     1      -6.315   7.581  70.737  1.00  0.00    -0.038 C  
HETATM   12  H   UNL     1      -9.084  10.427  65.397  1.00  0.00     0.000 HD 
HETATM   13  C   UNL     1      -6.113   7.347  72.041  1.00  0.00    -0.040 C  
HETATM   14  C   UNL     1      -6.178   8.373  67.693  1.00  0.00    -0.053 C  
HETATM   15  C   UNL     1      -6.800   9.302  68.966  1.00  0.00    -0.055 C  
HETATM   16  O   UNL     1      -7.288   7.357  74.081  1.00  0.00    -0.102 OA 
HETATM   17  O   UNL     1      -7.238   7.608  67.100  1.00  0.00    -0.085 OA 
HETATM   18  H   UNL     1      -7.724   7.216  67.816  1.00  0.00     0.000 HD 
HETATM   19  C   UNL     1      -7.675  10.661  68.547  1.00  0.00    -0.107 C  
HETATM   20  C   UNL     1      -7.951  11.490  69.813  1.00  0.00     0.994 C  
HETATM   21  C   UNL     1      -8.660  10.686  70.898  1.00  0.00     3.176 C  
HETATM   22  C   UNL     1      -7.912   9.436  71.293  1.00  0.00     0.181 C  
HETATM   23  C   UNL     1      -7.750   9.146  72.600  1.00  0.00     0.750 C  
HETATM   24  C   UNL     1      -7.070   7.901  73.007  1.00  0.00    -0.090 C  
ENDROOT
BRANCH   4  25
HETATM   25  C   UNL     1      -7.252   9.153  64.817  1.00  0.00    -0.097 C  
HETATM   26  O   UNL     1      -7.161   7.945  64.655  1.00  0.00    -0.071 OA 
BRANCH  25  27
HETATM   27  O   UNL     1      -7.326  10.014  63.743  1.00  0.00    -0.132 OA 
HETATM   28  C   UNL     1      -6.041  10.397  63.240  1.00  0.00    -0.122 C  
HETATM   29 CL   UNL     1      -5.708  12.061  63.771  1.00  0.00     3.798 Cl 
ENDBRANCH  25  27
ENDBRANCH   4  25
TORSDOF 2
ENDMDL
MODEL      124
REMARK 921   NORMALIZED FREE ENERGY PREDICTED BY IDOCK:   21.36 KCAL/MOL
REMARK 922        TOTAL FREE ENERGY PREDICTED BY IDOCK:   24.43 KCAL/MOL
REMARK 923 INTER-LIGAND FREE ENERGY PREDICTED BY IDOCK:    3.45 KCAL/MOL
REMARK 924 INTRA-LIGAND FREE ENERGY PREDICTED BY IDOCK:   20.98 KCAL/MOL
REMARK 927      BINDING AFFINITY PREDICTED BY RF-SCORE:    0.00 PKD
ROOT
HETATM    1  C   UNL     1     -11.023  16.476  66.062  1.00  0.00     0.057 C  
HETATM    2  C   UNL     1     -12.361  16.925  66.173  1.00  0.00     4.096 C  
HETATM    3  C   UNL     1     -11.526  17.292  67.357  1.00  0.00     0.698 C  
HETATM    4  C   UNL     1      -9.489  17.015  67.192  1.00  0.00    -0.242 C  
HETATM    5  C   UNL     1      -9.514  13.265  69.768  1.00  0.00     2.025 C  
HETATM    6  C   UNL     1     -10.268  18.072  66.858  1.00  0.00    -0.366 C  
HETATM    7  O   UNL     1      -8.860  16.487  65.937  1.00  0.00    -0.464 OA 
HETATM    8  C   UNL     1     -10.137  19.245  65.914  1.00  0.00    -0.358 C  
HETATM    9  C   UNL     1     -10.259  18.152  68.784  1.00  0.00    -0.353 C  
HETATM   10  C   UNL     1     -10.927  13.841  69.599  1.00  0.00    -0.017 C  
HETATM   11  C   UNL     1     -11.530  14.126  70.987  1.00  0.00     0.182 C  
HETATM   12  H   UNL     1      -7.921  16.360  65.861  1.00  0.00     0.000 HD 
HETATM   13  C   UNL     1     -12.338  13.287  71.650  1.00  0.00    -0.001 C  
HETATM   14  C   UNL     1     -10.148  16.508  69.461  1.00  0.00    -0.165 C  
HETATM   15  C   UNL     1     -10.983  15.201  68.778  1.00  0.00    -0.257 C  
HETATM   16  O   UNL     1     -12.847  10.991  71.776  1.00  0.00    -0.430 OA 
HETATM   17  O   UNL     1      -8.751  16.190  69.541  1.00  0.00    -0.173 OA 
HETATM   18  H   UNL     1      -8.691  15.313  69.901  1.00  0.00     0.000 HD 
HETATM   19  C   UNL     1     -10.837  14.997  67.127  1.00  0.00    -0.314 C  
HETATM   20  C   UNL     1     -11.836  13.922  66.665  1.00  0.00    -0.447 C  
HETATM   21  C   UNL     1     -11.662  12.601  67.406  1.00  0.00    -0.432 C  
HETATM   22  C   UNL     1     -11.765  12.743  68.905  1.00  0.00    -0.370 C  
HETATM   23  C   UNL     1     -12.522  11.872  69.602  1.00  0.00     0.027 C  
HETATM   24  C   UNL     1     -12.593  11.961  71.074  1.00  0.00    -0.283 C  
ENDROOT
BRANCH   4  25
HETATM   25  C   UNL     1      -8.101  17.950  67.521  1.00  0.00    -0.225 C  
HETATM   26  O   UNL     1      -7.257  17.803  68.393  1.00  0.00    -0.230 OA 
BRANCH  25  27
HETATM   27  O   UNL     1      -8.108  19.069  66.715  1.00  0.00    -0.251 OA 
HETATM   28  C   UNL     1      -9.420  19.606  66.511  1.00  0.00    -0.384 C  
HETATM   29 CL   UNL     1      -9.951  19.171  64.871  1.00  0.00     2.128 Cl 
ENDBRANCH  25  27
ENDBRANCH   4  25
TORSDOF 2
ENDMDL
MODEL      125
REMARK 921   NORMALIZED FREE ENERGY PREDICTED BY IDOCK:   27.06 KCAL/MOL
REMARK 922        TOTAL FREE ENERGY PREDICTED BY IDOCK:   30.80 KCAL/MOL
REMARK 923 INTER-LIGAND FREE ENERGY PREDICTED BY IDOCK:   25.64 KCAL/MOL
REMARK 924 INTRA-LIGAND FREE ENERGY PREDICTED BY IDOCK:    5.16 KCAL/MOL
REMARK 927      BINDING AFFINITY PREDICTED BY RF-SCORE:    0.00 PKD
ROOT
HETATM    1  C   UNL     1      -7.032  12.185  64.420  1.00  0.00     5.623 C  
HETATM    2  C   UNL     1      -7.957  11.921  63.382  1.00  0.00     2.196 C  
HETATM    3  C   UNL     1      -8.611  12.063  64.719  1.00  0.00     1.265 C  
HETATM    4  C   UNL     1      -7.447  12.785  66.260  1.00  0.00     1.566 C  
HETATM    5  C   UNL     1      -6.951   8.688  68.173  1.00  0.00    -0.074 C  
HETATM    6  C   UNL     1      -8.193  13.436  65.335  1.00  0.00     3.588 C  
HETATM    7  O   UNL     1      -6.013  13.174  66.056  1.00  0.00     2.387 OA 
HETATM    8  C   UNL     1      -8.202  14.830  64.751  1.00  0.00     7.914 C  
HETATM    9  C   UNL     1      -9.534  12.677  66.494  1.00  0.00    -0.247 C  
HETATM   10  C   UNL     1      -7.797   8.613  66.895  1.00  0.00    -0.091 C  
HETATM   11  C   UNL     1      -9.164   7.986  67.223  1.00  0.00    -0.164 C  
HETATM   12  H   UNL     1      -5.477  13.507  66.766  1.00  0.00     0.000 HD 
HETATM   13  C   UNL     1      -9.460   6.688  67.069  1.00  0.00    -0.170 C  
HETATM   14  C   UNL     1      -8.959  11.127  67.157  1.00  0.00    -0.145 C  
HETATM   15  C   UNL     1      -8.081  10.023  66.218  1.00  0.00    -0.117 C  
HETATM   16  O   UNL     1      -8.395   4.591  66.975  1.00  0.00    -0.105 OA 
HETATM   17  O   UNL     1      -8.214  11.439  68.343  1.00  0.00    -0.137 OA 
HETATM   18  H   UNL     1      -7.907  10.612  68.697  1.00  0.00     0.000 HD 
HETATM   19  C   UNL     1      -6.784  10.631  65.359  1.00  0.00    -0.019 C  
HETATM   20  C   UNL     1      -6.265   9.546  64.399  1.00  0.00    -0.084 C  
HETATM   21  C   UNL     1      -5.898   8.253  65.118  1.00  0.00    -0.045 C  
HETATM   22  C   UNL     1      -7.038   7.679  65.924  1.00  0.00    -0.065 C  
HETATM   23  C   UNL     1      -7.316   6.362  65.834  1.00  0.00    -0.080 C  
HETATM   24  C   UNL     1      -8.391   5.771  66.655  1.00  0.00    -0.109 C  
ENDROOT
BRANCH   4  25
HETATM   25  C   UNL     1      -7.623  13.983  67.462  1.00  0.00    -0.180 C  
HETATM   26  O   UNL     1      -8.431  14.049  68.377  1.00  0.00    -0.160 OA 
BRANCH  25  27
HETATM   27  O   UNL     1      -6.772  15.032  67.184  1.00  0.00    -0.273 OA 
HETATM   28  C   UNL     1      -7.462  16.243  66.857  1.00  0.00    -0.236 C  
HETATM   29 CL   UNL     1      -7.352  16.488  65.099  1.00  0.00     3.608 Cl 
ENDBRANCH  25  27
ENDBRANCH   4  25
TORSDOF 2
ENDMDL
MODEL      126
REMARK 921   NORMALIZED FREE ENERGY PREDICTED BY IDOCK:   32.32 KCAL/MOL
REMARK 922        TOTAL FREE ENERGY PREDICTED BY IDOCK:   36.68 KCAL/MOL
REMARK 923 INTER-LIGAND FREE ENERGY PREDICTED BY IDOCK:   32.66 KCAL/MOL
REMARK 924 INTRA-LIGAND FREE ENERGY PREDICTED BY IDOCK:    4.01 KCAL/MOL
REMARK 927      BINDING AFFINITY PREDICTED BY RF-SCORE:    0.00 PKD
ROOT
HETATM    1  C   UNL     1      -9.866  11.342  66.012  1.00  0.00    -0.267 C  
HETATM    2  C   UNL     1      -9.624  10.213  66.832  1.00  0.00    -0.219 C  
HETATM    3  C   UNL     1     -10.912  10.901  67.156  1.00  0.00    -0.334 C  
HETATM    4  C   UNL     1     -11.565  12.340  65.832  1.00  0.00    -0.393 C  
HETATM    5  C   UNL     1     -10.331  15.782  68.540  1.00  0.00    -0.229 C  
HETATM    6  C   UNL     1     -11.765  11.000  65.851  1.00  0.00     0.938 C  
HETATM    7  O   UNL     1     -10.801  12.678  64.586  1.00  0.00    -0.290 OA 
HETATM    8  C   UNL     1     -12.132   9.956  64.823  1.00  0.00     7.966 C  
HETATM    9  C   UNL     1     -12.876  11.609  67.305  1.00  0.00     3.902 C  
HETATM   10  C   UNL     1      -9.993  14.423  69.168  1.00  0.00    -0.078 C  
HETATM   11  C   UNL     1     -10.670  14.314  70.546  1.00  0.00     0.667 C  
HETATM   12  H   UNL     1     -11.102  13.341  63.976  1.00  0.00     0.000 HD 
HETATM   13  C   UNL     1     -10.072  14.600  71.710  1.00  0.00     3.187 C  
HETATM   14  C   UNL     1     -12.144  13.042  68.071  1.00  0.00    -0.174 C  
HETATM   15  C   UNL     1     -10.471  13.172  68.312  1.00  0.00    -0.258 C  
HETATM   16  O   UNL     1      -8.299  15.894  72.560  1.00  0.00     9.442 OA 
HETATM   17  O   UNL     1     -12.608  14.183  67.335  1.00  0.00    -0.502 OA 
HETATM   18  H   UNL     1     -12.218  14.947  67.743  1.00  0.00     0.000 HD 
HETATM   19  C   UNL     1      -9.495  12.841  66.998  1.00  0.00    -0.233 C  
HETATM   20  C   UNL     1      -8.030  12.782  67.464  1.00  0.00    -0.177 C  
HETATM   21  C   UNL     1      -7.589  14.055  68.178  1.00  0.00    -0.141 C  
HETATM   22  C   UNL     1      -8.459  14.403  69.362  1.00  0.00     0.269 C  
HETATM   23  C   UNL     1      -7.880  14.755  70.528  1.00  0.00     1.189 C  
HETATM   24  C   UNL     1      -8.712  15.151  71.681  1.00  0.00     4.762 C  
ENDROOT
BRANCH   4  25
HETATM   25  C   UNL     1     -13.039  12.700  65.052  1.00  0.00     0.318 C  
HETATM   26  O   UNL     1     -14.181  12.633  65.484  1.00  0.00     2.806 OA 
BRANCH  25  27
HETATM   27  O   UNL     1     -12.793  12.964  63.721  1.00  0.00    -0.683 OA 
HETATM   28  C   UNL     1     -12.732  11.781  62.916  1.00  0.00     0.439 C  
HETATM   29 CL   UNL     1     -11.026  11.454  62.536  1.00  0.00     0.755 Cl 
ENDBRANCH  25  27
ENDBRANCH   4  25
TORSDOF 2
ENDMDL
MODEL      127
REMARK 921   NORMALIZED FREE ENERGY PREDICTED BY IDOCK:   40.05 KCAL/MOL
REMARK 922        TOTAL FREE ENERGY PREDICTED BY IDOCK:   45.30 KCAL/MOL
REMARK 923 INTER-LIGAND FREE ENERGY PREDICTED BY IDOCK:   41.74 KCAL/MOL
REMARK 924 INTRA-LIGAND FREE ENERGY PREDICTED BY IDOCK:    3.57 KCAL/MOL
REMARK 927      BINDING AFFINITY PREDICTED BY RF-SCORE:    0.00 PKD
ROOT
HETATM    1  C   UNL     1     -11.163  13.764  67.616  1.00  0.00    -0.316 C  
HETATM    2  C   UNL     1     -12.111  13.980  68.644  1.00  0.00    -0.332 C  
HETATM    3  C   UNL     1     -11.050  15.031  68.605  1.00  0.00    -0.272 C  
HETATM    4  C   UNL     1      -9.805  15.047  66.961  1.00  0.00    -0.238 C  
HETATM    5  C   UNL     1      -6.327  13.192  69.233  1.00  0.00    -0.106 C  
HETATM    6  C   UNL     1     -11.005  15.641  67.167  1.00  0.00    -0.270 C  
HETATM    7  O   UNL     1      -9.961  14.064  65.838  1.00  0.00    -0.300 OA 
HETATM    8  C   UNL     1     -12.107  16.171  66.279  1.00  0.00     1.706 C  
HETATM    9  C   UNL     1      -9.823  16.693  68.269  1.00  0.00    -0.253 C  
HETATM   10  C   UNL     1      -7.560  13.360  70.131  1.00  0.00     1.780 C  
HETATM   11  C   UNL     1      -7.185  14.210  71.359  1.00  0.00     2.692 C  
HETATM   12  H   UNL     1      -9.388  14.072  65.081  1.00  0.00     0.000 HD 
HETATM   13  C   UNL     1      -6.829  13.707  72.550  1.00  0.00     3.994 C  
HETATM   14  C   UNL     1      -8.511  15.669  68.905  1.00  0.00    -0.213 C  
HETATM   15  C   UNL     1      -8.789  14.080  69.424  1.00  0.00     0.604 C  
HETATM   16  O   UNL     1      -5.910  11.750  73.482  1.00  0.00     1.075 OA 
HETATM   17  O   UNL     1      -7.472  15.671  67.915  1.00  0.00    -0.119 OA 
HETATM   18  H   UNL     1      -6.773  15.124  68.254  1.00  0.00     0.000 HD 
HETATM   19  C   UNL     1      -9.644  13.089  68.387  1.00  0.00    -0.178 C  
HETATM   20  C   UNL     1      -9.995  11.782  69.118  1.00  0.00     0.152 C  
HETATM   21  C   UNL     1      -8.766  11.073  69.677  1.00  0.00     0.533 C  
HETATM   22  C   UNL     1      -7.952  11.941  70.605  1.00  0.00     5.121 C  
HETATM   23  C   UNL     1      -7.527  11.437  71.782  1.00  0.00     7.861 C  
HETATM   24  C   UNL     1      -6.684  12.252  72.679  1.00  0.00     6.926 C  
ENDROOT
BRANCH   4  25
HETATM   25  C   UNL     1      -9.237  16.232  65.873  1.00  0.00    -0.233 C  
HETATM   26  O   UNL     1      -9.724  17.316  65.585  1.00  0.00    -0.535 OA 
BRANCH  25  27
HETATM   27  O   UNL     1      -8.148  15.735  65.190  1.00  0.00     2.690 OA 
HETATM   28  C   UNL     1      -8.184  14.311  65.036  1.00  0.00     6.420 C  
HETATM   29 CL   UNL     1      -7.023  13.599  66.178  1.00  0.00     3.550 Cl 
ENDBRANCH  25  27
ENDBRANCH   4  25
TORSDOF 2
ENDMDL
MODEL      128
REMARK 921   NORMALIZED FREE ENERGY PREDICTED BY IDOCK:   52.83 KCAL/MOL
REMARK 922        TOTAL FREE ENERGY PREDICTED BY IDOCK:   59.58 KCAL/MOL
REMARK 923 INTER-LIGAND FREE ENERGY PREDICTED BY IDOCK:   49.94 KCAL/MOL
REMARK 924 INTRA-LIGAND FREE ENERGY PREDICTED BY IDOCK:    9.65 KCAL/MOL
REMARK 927      BINDING AFFINITY PREDICTED BY RF-SCORE:    0.00 PKD
ROOT
HETATM    1  C   UNL     1     -10.769  14.833  69.901  1.00  0.00    -0.139 C  
HETATM    2  C   UNL     1      -9.653  14.019  69.592  1.00  0.00     0.833 C  
HETATM    3  C   UNL     1      -9.659  14.479  71.015  1.00  0.00     2.955 C  
HETATM    4  C   UNL     1     -11.383  15.378  71.702  1.00  0.00    -0.385 C  
HETATM    5  C   UNL     1      -9.601  19.561  71.518  1.00  0.00     3.157 C  
HETATM    6  C   UNL     1     -11.021  14.073  71.663  1.00  0.00     2.552 C  
HETATM    7  O   UNL     1     -12.590  15.551  70.828  1.00  0.00    -0.409 OA 
HETATM    8  C   UNL     1     -11.759  12.754  71.681  1.00  0.00     2.021 C  
HETATM    9  C   UNL     1      -9.907  14.775  73.072  1.00  0.00     6.227 C  
HETATM   10  C   UNL     1      -8.598  18.500  71.046  1.00  0.00     6.013 C  
HETATM   11  C   UNL     1      -7.318  18.594  71.896  1.00  0.00     5.883 C  
HETATM   12  H   UNL     1     -13.385  15.965  71.145  1.00  0.00     0.000 HD 
HETATM   13  C   UNL     1      -6.220  19.277  71.542  1.00  0.00     0.507 C  
HETATM   14  C   UNL     1      -9.489  16.472  72.729  1.00  0.00    11.600 C  
HETATM   15  C   UNL     1      -9.125  17.005  71.161  1.00  0.00     6.511 C  
HETATM   16  O   UNL     1      -5.579  21.083  70.174  1.00  0.00    -0.543 OA 
HETATM   17  O   UNL     1     -10.550  17.274  73.268  1.00  0.00     3.578 OA 
HETATM   18  H   UNL     1     -10.328  18.179  73.085  1.00  0.00     0.000 HD 
HETATM   19  C   UNL     1     -10.195  16.573  69.954  1.00  0.00     0.016 C  
HETATM   20  C   UNL     1      -9.585  16.938  68.590  1.00  0.00    -0.265 C  
HETATM   21  C   UNL     1      -9.203  18.411  68.493  1.00  0.00    -0.348 C  
HETATM   22  C   UNL     1      -8.252  18.850  69.580  1.00  0.00     0.371 C  
HETATM   23  C   UNL     1      -7.173  19.592  69.256  1.00  0.00    -0.346 C  
HETATM   24  C   UNL     1      -6.260  20.076  70.311  1.00  0.00    -0.351 C  
ENDROOT
BRANCH   4  25
HETATM   25  C   UNL     1     -12.376  15.217  73.079  1.00  0.00    -0.417 C  
HETATM   26  O   UNL     1     -12.959  16.081  73.719  1.00  0.00    -0.544 OA 
BRANCH  25  27
HETATM   27  O   UNL     1     -12.336  13.910  73.516  1.00  0.00     0.082 OA 
HETATM   28  C   UNL     1     -12.764  12.973  72.521  1.00  0.00     0.289 C  
HETATM   29 CL   UNL     1     -14.401  12.422  72.942  1.00  0.00     1.087 Cl 
ENDBRANCH  25  27
ENDBRANCH   4  25
TORSDOF 2
ENDMDL
MODEL      129
REMARK 921   NORMALIZED FREE ENERGY PREDICTED BY IDOCK:   62.23 KCAL/MOL
REMARK 922        TOTAL FREE ENERGY PREDICTED BY IDOCK:   70.08 KCAL/MOL
REMARK 923 INTER-LIGAND FREE ENERGY PREDICTED BY IDOCK:   61.30 KCAL/MOL
REMARK 924 INTRA-LIGAND FREE ENERGY PREDICTED BY IDOCK:    8.78 KCAL/MOL
REMARK 927      BINDING AFFINITY PREDICTED BY RF-SCORE:    0.00 PKD
ROOT
HETATM    1  C   UNL     1     -10.511  11.098  65.160  1.00  0.00    -0.341 C  
HETATM    2  C   UNL     1     -11.739  11.637  64.705  1.00  0.00    -0.121 C  
HETATM    3  C   UNL     1     -10.696  12.683  64.936  1.00  0.00    -0.327 C  
HETATM    4  C   UNL     1      -8.768  12.030  65.263  1.00  0.00     0.687 C  
HETATM    5  C   UNL     1      -8.967  12.822  69.739  1.00  0.00     2.491 C  
HETATM    6  C   UNL     1      -9.424  12.309  64.110  1.00  0.00     0.223 C  
HETATM    7  O   UNL     1      -8.412  10.573  65.253  1.00  0.00    -0.168 OA 
HETATM    8  C   UNL     1      -9.261  11.914  62.661  1.00  0.00     0.626 C  
HETATM    9  C   UNL     1      -9.123  14.062  64.856  1.00  0.00     2.115 C  
HETATM   10  C   UNL     1     -10.289  13.177  69.045  1.00  0.00     0.025 C  
HETATM   11  C   UNL     1     -10.637  14.649  69.333  1.00  0.00    -0.209 C  
HETATM   12  H   UNL     1      -7.523  10.272  65.403  1.00  0.00     0.000 HD 
HETATM   13  C   UNL     1     -11.453  15.058  70.313  1.00  0.00    -0.308 C  
HETATM   14  C   UNL     1      -9.157  13.981  66.635  1.00  0.00    -0.200 C  
HETATM   15  C   UNL     1     -10.264  13.003  67.466  1.00  0.00    -0.221 C  
HETATM   16  O   UNL     1     -12.268  14.341  72.402  1.00  0.00    -0.162 OA 
HETATM   17  O   UNL     1      -7.825  13.653  67.056  1.00  0.00    -0.368 OA 
HETATM   18  H   UNL     1      -7.842  13.610  68.005  1.00  0.00     0.000 HD 
HETATM   19  C   UNL     1     -10.392  11.416  66.960  1.00  0.00    -0.258 C  
HETATM   20  C   UNL     1     -11.593  10.762  67.663  1.00  0.00    -0.087 C  
HETATM   21  C   UNL     1     -11.509  10.856  69.182  1.00  0.00    -0.373 C  
HETATM   22  C   UNL     1     -11.371  12.274  69.682  1.00  0.00    -0.207 C  
HETATM   23  C   UNL     1     -12.138  12.691  70.710  1.00  0.00    -0.239 C  
HETATM   24  C   UNL     1     -11.981  14.057  71.248  1.00  0.00    -0.115 C  
ENDROOT
BRANCH   4  25
HETATM   25  C   UNL     1      -7.225  12.434  64.658  1.00  0.00     6.348 C  
HETATM   26  O   UNL     1      -6.351  11.702  64.217  1.00  0.00     1.748 OA 
BRANCH  25  27
HETATM   27  O   UNL     1      -6.995  13.777  64.866  1.00  0.00    11.396 OA 
HETATM   28  C   UNL     1      -7.900  14.620  64.144  1.00  0.00    15.702 C  
HETATM   29 CL   UNL     1      -7.030  15.310  62.755  1.00  0.00    23.646 Cl 
ENDBRANCH  25  27
ENDBRANCH   4  25
TORSDOF 2
ENDMDL
MODEL      130
REMARK 921   NORMALIZED FREE ENERGY PREDICTED BY IDOCK:   66.23 KCAL/MOL
REMARK 922        TOTAL FREE ENERGY PREDICTED BY IDOCK:   74.55 KCAL/MOL
REMARK 923 INTER-LIGAND FREE ENERGY PREDICTED BY IDOCK:   64.27 KCAL/MOL
REMARK 924 INTRA-LIGAND FREE ENERGY PREDICTED BY IDOCK:   10.28 KCAL/MOL
REMARK 927      BINDING AFFINITY PREDICTED BY RF-SCORE:    0.00 PKD
ROOT
HETATM    1  C   UNL     1      -7.300  18.552  67.119  1.00  0.00    -0.219 C  
HETATM    2  C   UNL     1      -6.591  18.589  68.344  1.00  0.00    -0.235 C  
HETATM    3  C   UNL     1      -7.066  17.216  67.991  1.00  0.00    -0.179 C  
HETATM    4  C   UNL     1      -7.805  16.941  66.086  1.00  0.00    -0.242 C  
HETATM    5  C   UNL     1     -12.136  16.875  67.479  1.00  0.00     1.846 C  
HETATM    6  C   UNL     1      -6.540  16.859  66.564  1.00  0.00    -0.213 C  
HETATM    7  O   UNL     1      -7.851  18.056  65.084  1.00  0.00     0.468 OA 
HETATM    8  C   UNL     1      -5.157  16.957  65.962  1.00  0.00     0.529 C  
HETATM    9  C   UNL     1      -7.361  15.269  67.282  1.00  0.00    -0.230 C  
HETATM   10  C   UNL     1     -11.170  17.089  68.653  1.00  0.00    -0.003 C  
HETATM   11  C   UNL     1     -11.396  15.990  69.707  1.00  0.00    -0.331 C  
HETATM   12  H   UNL     1      -8.191  17.929  64.206  1.00  0.00     0.000 HD 
HETATM   13  C   UNL     1     -12.176  16.124  70.789  1.00  0.00    -0.066 C  
HETATM   14  C   UNL     1      -9.086  15.570  67.608  1.00  0.00    -0.182 C  
HETATM   15  C   UNL     1      -9.633  17.040  68.250  1.00  0.00    -0.273 C  
HETATM   16  O   UNL     1     -14.018  17.382  71.542  1.00  0.00     8.718 OA 
HETATM   17  O   UNL     1      -9.790  15.294  66.388  1.00  0.00    -0.246 OA 
HETATM   18  H   UNL     1     -10.710  15.455  66.562  1.00  0.00     0.000 HD 
HETATM   19  C   UNL     1      -9.086  18.434  67.508  1.00  0.00    -0.278 C  
HETATM   20  C   UNL     1      -9.492  19.648  68.362  1.00  0.00    -0.452 C  
HETATM   21  C   UNL     1     -10.993  19.708  68.621  1.00  0.00     0.744 C  
HETATM   22  C   UNL     1     -11.534  18.458  69.272  1.00  0.00     3.256 C  
HETATM   23  C   UNL     1     -12.371  18.568  70.324  1.00  0.00    13.371 C  
HETATM   24  C   UNL     1     -12.953  17.361  70.941  1.00  0.00     9.782 C  
ENDROOT
BRANCH   4  25
HETATM   25  C   UNL     1      -7.566  15.802  64.839  1.00  0.00     8.565 C  
HETATM   26  O   UNL     1      -6.840  15.868  63.858  1.00  0.00    14.031 OA 
BRANCH  25  27
HETATM   27  O   UNL     1      -8.463  14.766  64.994  1.00  0.00     3.184 OA 
HETATM   28  C   UNL     1      -8.283  14.046  66.220  1.00  0.00     1.109 C  
HETATM   29 CL   UNL     1      -7.493  12.498  65.845  1.00  0.00     1.821 Cl 
ENDBRANCH  25  27
ENDBRANCH   4  25
TORSDOF 2
ENDMDL
MODEL      131
REMARK 921   NORMALIZED FREE ENERGY PREDICTED BY IDOCK:   66.69 KCAL/MOL
REMARK 922        TOTAL FREE ENERGY PREDICTED BY IDOCK:   75.07 KCAL/MOL
REMARK 923 INTER-LIGAND FREE ENERGY PREDICTED BY IDOCK:   74.30 KCAL/MOL
REMARK 924 INTRA-LIGAND FREE ENERGY PREDICTED BY IDOCK:    0.77 KCAL/MOL
REMARK 927      BINDING AFFINITY PREDICTED BY RF-SCORE:    0.00 PKD
ROOT
HETATM    1  C   UNL     1      -7.954  12.735  68.866  1.00  0.00     0.182 C  
HETATM    2  C   UNL     1      -9.010  12.034  68.235  1.00  0.00    -0.186 C  
HETATM    3  C   UNL     1      -9.238  12.231  69.699  1.00  0.00     1.869 C  
HETATM    4  C   UNL     1      -7.966  13.523  70.681  1.00  0.00     4.157 C  
HETATM    5  C   UNL     1      -5.607  10.156  72.630  1.00  0.00     0.437 C  
HETATM    6  C   UNL     1      -9.126  13.756  70.020  1.00  0.00     2.350 C  
HETATM    7  O   UNL     1      -6.869  14.254  69.965  1.00  0.00    -0.333 OA 
HETATM    8  C   UNL     1      -9.765  14.958  69.365  1.00  0.00    -0.099 C  
HETATM    9  C   UNL     1      -9.730  12.878  71.628  1.00  0.00    13.955 C  
HETATM   10  C   UNL     1      -6.726   9.613  71.732  1.00  0.00     0.461 C  
HETATM   11  C   UNL     1      -7.647   8.699  72.560  1.00  0.00    -0.005 C  
HETATM   12  H   UNL     1      -6.284  14.850  70.418  1.00  0.00     0.000 HD 
HETATM   13  C   UNL     1      -7.536   7.364  72.623  1.00  0.00    -0.084 C  
HETATM   14  C   UNL     1      -8.508  11.702  72.174  1.00  0.00    17.129 C  
HETATM   15  C   UNL     1      -7.645  10.735  71.083  1.00  0.00     3.259 C  
HETATM   16  O   UNL     1      -5.925   5.671  72.338  1.00  0.00    -0.032 OA 
HETATM   17  O   UNL     1      -7.585  12.424  73.003  1.00  0.00    11.190 OA 
HETATM   18  H   UNL     1      -6.933  11.797  73.294  1.00  0.00     0.000 HD 
HETATM   19  C   UNL     1      -6.941  11.514  69.783  1.00  0.00     0.082 C  
HETATM   20  C   UNL     1      -6.412  10.461  68.795  1.00  0.00    -0.051 C  
HETATM   21  C   UNL     1      -5.445   9.478  69.445  1.00  0.00    -0.035 C  
HETATM   22  C   UNL     1      -6.035   8.767  70.638  1.00  0.00    -0.033 C  
HETATM   23  C   UNL     1      -5.882   7.432  70.755  1.00  0.00    -0.031 C  
HETATM   24  C   UNL     1      -6.404   6.725  71.941  1.00  0.00    -0.049 C  
ENDROOT
BRANCH   4  25
HETATM   25  C   UNL     1      -8.152  14.824  71.769  1.00  0.00     4.762 C  
HETATM   26  O   UNL     1      -9.124  15.140  72.440  1.00  0.00     4.829 OA 
BRANCH  25  27
HETATM   27  O   UNL     1      -7.037  15.633  71.703  1.00  0.00     2.591 OA 
HETATM   28  C   UNL     1      -6.162  15.475  72.825  1.00  0.00     2.181 C  
HETATM   29 CL   UNL     1      -6.367  16.883  73.892  1.00  0.00     5.805 Cl 
ENDBRANCH  25  27
ENDBRANCH   4  25
TORSDOF 2
ENDMDL
MODEL      132
REMARK 921   NORMALIZED FREE ENERGY PREDICTED BY IDOCK:   68.34 KCAL/MOL
REMARK 922        TOTAL FREE ENERGY PREDICTED BY IDOCK:   76.91 KCAL/MOL
REMARK 923 INTER-LIGAND FREE ENERGY PREDICTED BY IDOCK:   75.50 KCAL/MOL
REMARK 924 INTRA-LIGAND FREE ENERGY PREDICTED BY IDOCK:    1.41 KCAL/MOL
REMARK 927      BINDING AFFINITY PREDICTED BY RF-SCORE:    0.00 PKD
ROOT
HETATM    1  C   UNL     1     -10.139  14.462  68.810  1.00  0.00    -0.234 C  
HETATM    2  C   UNL     1     -10.257  15.304  67.678  1.00  0.00    -0.242 C  
HETATM    3  C   UNL     1     -11.582  14.897  68.238  1.00  0.00    -0.356 C  
HETATM    4  C   UNL     1     -11.576  13.963  70.077  1.00  0.00    -0.212 C  
HETATM    5  C   UNL     1     -12.313   9.843  68.292  1.00  0.00     2.960 C  
HETATM    6  C   UNL     1     -11.620  15.278  69.753  1.00  0.00    -0.335 C  
HETATM    7  O   UNL     1     -10.306  13.715  70.837  1.00  0.00     2.211 OA 
HETATM    8  C   UNL     1     -11.281  16.569  70.461  1.00  0.00    -0.105 C  
HETATM    9  C   UNL     1     -13.386  14.670  69.274  1.00  0.00     2.052 C  
HETATM   10  C   UNL     1     -12.224  10.921  67.203  1.00  0.00     2.068 C  
HETATM   11  C   UNL     1     -13.513  10.904  66.362  1.00  0.00    12.615 C  
HETATM   12  H   UNL     1     -10.303  13.285  71.684  1.00  0.00     0.000 HD 
HETATM   13  C   UNL     1     -13.654  10.248  65.202  1.00  0.00    13.738 C  
HETATM   14  C   UNL     1     -13.318  12.977  68.724  1.00  0.00     3.921 C  
HETATM   15  C   UNL     1     -12.049  12.399  67.760  1.00  0.00    -0.074 C  
HETATM   16  O   UNL     1     -12.739   8.417  64.039  1.00  0.00    19.457 OA 
HETATM   17  O   UNL     1     -13.434  12.158  69.897  1.00  0.00     1.606 OA 
HETATM   18  H   UNL     1     -13.397  11.255  69.604  1.00  0.00     0.000 HD 
HETATM   19  C   UNL     1     -10.498  12.748  68.272  1.00  0.00    -0.250 C  
HETATM   20  C   UNL     1      -9.505  12.353  67.166  1.00  0.00    -0.198 C  
HETATM   21  C   UNL     1      -9.638  10.893  66.750  1.00  0.00    -0.210 C  
HETATM   22  C   UNL     1     -11.032  10.529  66.299  1.00  0.00     0.031 C  
HETATM   23  C   UNL     1     -11.197   9.815  65.167  1.00  0.00     3.149 C  
HETATM   24  C   UNL     1     -12.547   9.403  64.737  1.00  0.00    15.192 C  
ENDROOT
BRANCH   4  25
HETATM   25  C   UNL     1     -12.440  14.140  71.537  1.00  0.00    -0.341 C  
HETATM   26  O   UNL     1     -13.525  13.674  71.856  1.00  0.00    -0.383 OA 
BRANCH  25  27
HETATM   27  O   UNL     1     -11.794  15.058  72.337  1.00  0.00    -0.370 OA 
HETATM   28  C   UNL     1     -12.435  15.247  73.604  1.00  0.00    -0.589 C  
HETATM   29 CL   UNL     1     -13.296  16.802  73.564  1.00  0.00     0.394 Cl 
ENDBRANCH  25  27
ENDBRANCH   4  25
TORSDOF 2
ENDMDL
