MODEL        1
REMARK 921   NORMALIZED FREE ENERGY PREDICTED BY IDOCK:   -7.37 KCAL/MOL
REMARK 922        TOTAL FREE ENERGY PREDICTED BY IDOCK:  -11.11 KCAL/MOL
REMARK 923 INTER-LIGAND FREE ENERGY PREDICTED BY IDOCK:   -9.52 KCAL/MOL
REMARK 924 INTRA-LIGAND FREE ENERGY PREDICTED BY IDOCK:   -1.58 KCAL/MOL
REMARK 927      BINDING AFFINITY PREDICTED BY RF-SCORE:    0.00 PKD
ROOT
HETATM    1  C   UNL     1     -11.124   9.379  69.945  1.00  0.00    -0.223 C  
HETATM    2  C   UNL     1     -10.437  10.134  68.755  1.00  0.00    -0.204 C  
HETATM    3  C   UNL     1      -8.916   9.958  68.623  1.00  0.00    -0.128 C  
HETATM    4  C   UNL     1     -11.853  10.229  71.081  1.00  0.00    -0.455 C  
HETATM    5  C   UNL     1      -8.469   8.508  68.695  1.00  0.00    -0.131 C  
HETATM    6  C   UNL     1     -13.761   8.610  71.845  1.00  0.00    -0.462 C  
HETATM    7  C   UNL     1     -12.414   9.260  72.191  1.00  0.00    -0.421 C  
HETATM    8  C   UNL     1      -9.003   7.928  69.965  1.00  0.00    -0.145 C  
HETATM    9  C   UNL     1     -11.470   8.176  72.593  1.00  0.00    -0.454 C  
HETATM   10  C   UNL     1      -6.937   8.439  68.641  1.00  0.00    -0.068 C  
HETATM   11  C   UNL     1     -10.144   8.339  70.554  1.00  0.00    -0.210 C  
HETATM   12  C   UNL     1     -10.447   7.767  71.845  1.00  0.00    -0.268 C  
ENDROOT
BRANCH   2  13
HETATM   13  O   UNL     1     -10.573  11.553  68.843  1.00  0.00    -0.209 OA 
BRANCH  13  14
HETATM   14  C   UNL     1     -11.119  12.193  67.783  1.00  0.00    -0.250 C  
HETATM   15  C   UNL     1     -10.788  13.201  64.931  1.00  0.00    -0.348 C  
HETATM   16  C   UNL     1     -10.304  13.427  67.423  1.00  0.00    -0.240 C  
HETATM   17  O   UNL     1     -12.161  11.860  67.233  1.00  0.00    -0.582 OA 
HETATM   18  C   UNL     1      -9.720  13.270  66.016  1.00  0.00    -0.230 C  
HETATM   19  C   UNL     1      -9.187  13.711  68.440  1.00  0.00    -0.169 C  
ENDBRANCH  13  14
ENDBRANCH   2  13
BRANCH   4  20
HETATM   20  C   UNL     1     -13.002  11.259  70.717  1.00  0.00    -0.171 C  
BRANCH  20  21
HETATM   21  C   UNL     1     -13.269  12.210  71.910  1.00  0.00    -0.474 C  
BRANCH  21  22
HETATM   22  C   UNL     1     -12.929  13.702  71.863  1.00  0.00    -0.341 C  
HETATM   23  C   UNL     1     -11.870  14.118  70.860  1.00  0.00    -0.294 C  
HETATM   24  C   UNL     1     -11.914  15.637  70.736  1.00  0.00    -0.398 C  
HETATM   25  O   UNL     1     -13.046  16.055  69.962  1.00  0.00    -0.606 OA 
HETATM   26  C   UNL     1     -11.890  16.327  72.091  1.00  0.00    -0.585 C  
HETATM   27  C   UNL     1     -12.653  15.619  73.196  1.00  0.00    -0.476 C  
HETATM   28  H   UNL     1     -13.075  17.001  69.885  1.00  0.00     0.000 HD 
HETATM   29  O   UNL     1     -13.134  16.219  74.146  1.00  0.00    -0.661 OA 
HETATM   30  O   UNL     1     -12.625  14.252  73.149  1.00  0.00    -0.320 OA 
ENDBRANCH  21  22
ENDBRANCH  20  21
ENDBRANCH   4  20
TORSDOF 5
ENDMDL
MODEL        2
REMARK 921   NORMALIZED FREE ENERGY PREDICTED BY IDOCK:   -7.15 KCAL/MOL
REMARK 922        TOTAL FREE ENERGY PREDICTED BY IDOCK:  -10.83 KCAL/MOL
REMARK 923 INTER-LIGAND FREE ENERGY PREDICTED BY IDOCK:   -9.55 KCAL/MOL
REMARK 924 INTRA-LIGAND FREE ENERGY PREDICTED BY IDOCK:   -1.28 KCAL/MOL
REMARK 927      BINDING AFFINITY PREDICTED BY RF-SCORE:    0.00 PKD
ROOT
HETATM    1  C   UNL     1      -9.828  14.086  66.730  1.00  0.00    -0.275 C  
HETATM    2  C   UNL     1      -9.930  12.529  66.887  1.00  0.00    -0.224 C  
HETATM    3  C   UNL     1     -10.818  11.799  65.867  1.00  0.00    -0.339 C  
HETATM    4  C   UNL     1     -10.364  15.017  67.910  1.00  0.00    -0.241 C  
HETATM    5  C   UNL     1     -10.536  12.197  64.428  1.00  0.00    -0.352 C  
HETATM    6  C   UNL     1      -8.800  17.106  67.719  1.00  0.00    -0.225 C  
HETATM    7  C   UNL     1     -10.208  16.532  67.503  1.00  0.00    -0.283 C  
HETATM    8  C   UNL     1     -10.661  13.683  64.333  1.00  0.00    -0.360 C  
HETATM    9  C   UNL     1     -10.617  16.835  66.099  1.00  0.00    -0.212 C  
HETATM   10  C   UNL     1     -11.523  11.485  63.494  1.00  0.00    -0.334 C  
HETATM   11  C   UNL     1     -10.403  14.523  65.356  1.00  0.00    -0.405 C  
HETATM   12  C   UNL     1     -10.702  15.919  65.137  1.00  0.00    -0.449 C  
ENDROOT
BRANCH   2  13
HETATM   13  O   UNL     1     -10.506  12.131  68.132  1.00  0.00    -0.198 OA 
BRANCH  13  14
HETATM   14  C   UNL     1      -9.820  11.232  68.876  1.00  0.00    -0.139 C  
HETATM   15  C   UNL     1      -9.352   8.317  69.611  1.00  0.00    -0.158 C  
HETATM   16  C   UNL     1     -10.767  10.431  69.758  1.00  0.00    -0.325 C  
HETATM   17  O   UNL     1      -8.601  11.126  68.884  1.00  0.00    -0.153 OA 
HETATM   18  C   UNL     1     -10.715   8.952  69.366  1.00  0.00    -0.192 C  
HETATM   19  C   UNL     1     -12.211  10.955  69.697  1.00  0.00    -0.354 C  
ENDBRANCH  13  14
ENDBRANCH   2  13
BRANCH   4  20
HETATM   20  C   UNL     1      -9.812  14.858  69.389  1.00  0.00    -0.127 C  
BRANCH  20  21
HETATM   21  C   UNL     1     -10.454  15.917  70.318  1.00  0.00    -0.186 C  
BRANCH  21  22
HETATM   22  C   UNL     1     -11.615  15.589  71.259  1.00  0.00    -0.404 C  
HETATM   23  C   UNL     1     -12.934  15.233  70.598  1.00  0.00    -0.442 C  
HETATM   24  C   UNL     1     -13.843  14.631  71.664  1.00  0.00    -0.440 C  
HETATM   25  O   UNL     1     -13.447  13.289  71.977  1.00  0.00    -0.451 OA 
HETATM   26  C   UNL     1     -13.910  15.490  72.917  1.00  0.00    -0.536 C  
HETATM   27  C   UNL     1     -12.613  16.177  73.305  1.00  0.00    -0.519 C  
HETATM   28  H   UNL     1     -14.014  12.914  72.641  1.00  0.00     0.000 HD 
HETATM   29  O   UNL     1     -12.354  16.478  74.461  1.00  0.00    -0.710 OA 
HETATM   30  O   UNL     1     -11.828  16.588  72.262  1.00  0.00    -0.519 OA 
ENDBRANCH  21  22
ENDBRANCH  20  21
ENDBRANCH   4  20
TORSDOF 5
ENDMDL
MODEL        3
REMARK 921   NORMALIZED FREE ENERGY PREDICTED BY IDOCK:   -7.06 KCAL/MOL
REMARK 922        TOTAL FREE ENERGY PREDICTED BY IDOCK:  -10.70 KCAL/MOL
REMARK 923 INTER-LIGAND FREE ENERGY PREDICTED BY IDOCK:   -9.33 KCAL/MOL
REMARK 924 INTRA-LIGAND FREE ENERGY PREDICTED BY IDOCK:   -1.37 KCAL/MOL
REMARK 927      BINDING AFFINITY PREDICTED BY RF-SCORE:    0.00 PKD
ROOT
HETATM    1  C   UNL     1      -9.970  10.082  69.214  1.00  0.00    -0.226 C  
HETATM    2  C   UNL     1      -9.660  11.066  68.032  1.00  0.00    -0.170 C  
HETATM    3  C   UNL     1      -8.192  11.492  67.868  1.00  0.00    -0.134 C  
HETATM    4  C   UNL     1     -10.938  10.565  70.386  1.00  0.00    -0.252 C  
HETATM    5  C   UNL     1      -7.220  10.325  67.891  1.00  0.00    -0.085 C  
HETATM    6  C   UNL     1     -12.055   8.322  71.139  1.00  0.00    -0.274 C  
HETATM    7  C   UNL     1     -11.053   9.434  71.479  1.00  0.00    -0.446 C  
HETATM    8  C   UNL     1      -7.454   9.560  69.153  1.00  0.00    -0.074 C  
HETATM    9  C   UNL     1      -9.753   8.789  71.833  1.00  0.00    -0.386 C  
HETATM   10  C   UNL     1      -5.782  10.852  67.808  1.00  0.00    -0.042 C  
HETATM   11  C   UNL     1      -8.649   9.489  69.775  1.00  0.00    -0.201 C  
HETATM   12  C   UNL     1      -8.673   8.820  71.055  1.00  0.00    -0.248 C  
ENDROOT
BRANCH   2  13
HETATM   13  O   UNL     1     -10.328  12.321  68.163  1.00  0.00    -0.203 OA 
BRANCH  13  14
HETATM   14  C   UNL     1     -11.171  12.684  67.168  1.00  0.00    -0.300 C  
HETATM   15  C   UNL     1     -11.527  13.459  64.247  1.00  0.00    -0.429 C  
HETATM   16  C   UNL     1     -10.791  14.050  66.614  1.00  0.00    -0.297 C  
HETATM   17  O   UNL     1     -12.142  12.032  66.810  1.00  0.00    -0.613 OA 
HETATM   18  C   UNL     1     -10.384  13.918  65.144  1.00  0.00    -0.403 C  
HETATM   19  C   UNL     1      -9.671  14.722  67.425  1.00  0.00    -0.214 C  
ENDBRANCH  13  14
ENDBRANCH   2  13
BRANCH   4  20
HETATM   20  C   UNL     1     -12.405  11.079  70.072  1.00  0.00    -0.377 C  
BRANCH  20  21
HETATM   21  C   UNL     1     -13.025  11.735  71.331  1.00  0.00    -0.408 C  
BRANCH  21  22
HETATM   22  C   UNL     1     -12.669  13.154  71.778  1.00  0.00    -0.168 C  
HETATM   23  C   UNL     1     -13.727  13.892  72.576  1.00  0.00    -0.665 C  
HETATM   24  C   UNL     1     -13.073  15.123  73.195  1.00  0.00    -0.516 C  
HETATM   25  O   UNL     1     -12.249  14.759  74.310  1.00  0.00    -0.632 OA 
HETATM   26  C   UNL     1     -12.288  15.933  72.174  1.00  0.00    -0.557 C  
HETATM   27  C   UNL     1     -11.564  15.121  71.116  1.00  0.00    -0.360 C  
HETATM   28  H   UNL     1     -11.841  15.525  74.696  1.00  0.00     0.000 HD 
HETATM   29  O   UNL     1     -10.555  15.528  70.558  1.00  0.00    -0.323 OA 
HETATM   30  O   UNL     1     -12.201  13.982  70.707  1.00  0.00    -0.329 OA 
ENDBRANCH  21  22
ENDBRANCH  20  21
ENDBRANCH   4  20
TORSDOF 5
ENDMDL
MODEL        4
REMARK 921   NORMALIZED FREE ENERGY PREDICTED BY IDOCK:   -6.99 KCAL/MOL
REMARK 922        TOTAL FREE ENERGY PREDICTED BY IDOCK:  -10.61 KCAL/MOL
REMARK 923 INTER-LIGAND FREE ENERGY PREDICTED BY IDOCK:   -9.33 KCAL/MOL
REMARK 924 INTRA-LIGAND FREE ENERGY PREDICTED BY IDOCK:   -1.29 KCAL/MOL
REMARK 927      BINDING AFFINITY PREDICTED BY RF-SCORE:    0.00 PKD
ROOT
HETATM    1  C   UNL     1     -10.958   8.690  69.976  1.00  0.00    -0.208 C  
HETATM    2  C   UNL     1     -10.196   9.481  68.856  1.00  0.00    -0.199 C  
HETATM    3  C   UNL     1      -8.671   9.293  68.807  1.00  0.00    -0.132 C  
HETATM    4  C   UNL     1     -11.744   9.507  71.098  1.00  0.00    -0.438 C  
HETATM    5  C   UNL     1      -8.241   7.837  68.851  1.00  0.00    -0.127 C  
HETATM    6  C   UNL     1     -13.708   7.882  71.690  1.00  0.00    -0.422 C  
HETATM    7  C   UNL     1     -12.378   8.505  72.138  1.00  0.00    -0.444 C  
HETATM    8  C   UNL     1      -8.854   7.218  70.066  1.00  0.00    -0.141 C  
HETATM    9  C   UNL     1     -11.468   7.397  72.554  1.00  0.00    -0.346 C  
HETATM   10  C   UNL     1      -6.710   7.754  68.885  1.00  0.00    -0.050 C  
HETATM   11  C   UNL     1     -10.023   7.619  70.602  1.00  0.00    -0.183 C  
HETATM   12  C   UNL     1     -10.407   7.005  71.852  1.00  0.00    -0.213 C  
ENDROOT
BRANCH   2  13
HETATM   13  O   UNL     1     -10.325  10.897  68.988  1.00  0.00    -0.198 OA 
BRANCH  13  14
HETATM   14  C   UNL     1     -10.990  11.555  68.010  1.00  0.00    -0.231 C  
HETATM   15  C   UNL     1     -11.044  12.502  65.118  1.00  0.00    -0.335 C  
HETATM   16  C   UNL     1     -10.168  12.731  67.500  1.00  0.00    -0.216 C  
HETATM   17  O   UNL     1     -12.121  11.281  67.635  1.00  0.00    -0.600 OA 
HETATM   18  C   UNL     1      -9.819  12.520  66.024  1.00  0.00    -0.266 C  
HETATM   19  C   UNL     1      -8.892  12.959  68.328  1.00  0.00    -0.168 C  
ENDBRANCH  13  14
ENDBRANCH   2  13
BRANCH   4  20
HETATM   20  C   UNL     1     -12.862  10.562  70.706  1.00  0.00    -0.454 C  
BRANCH  20  21
HETATM   21  C   UNL     1     -13.212  11.452  71.924  1.00  0.00    -0.485 C  
BRANCH  21  22
HETATM   22  C   UNL     1     -13.037  12.972  71.908  1.00  0.00    -0.384 C  
HETATM   23  C   UNL     1     -14.280  13.794  72.190  1.00  0.00    -0.544 C  
HETATM   24  C   UNL     1     -13.841  15.231  72.452  1.00  0.00    -0.540 C  
HETATM   25  O   UNL     1     -13.260  15.359  73.756  1.00  0.00    -0.611 OA 
HETATM   26  C   UNL     1     -12.899  15.751  71.377  1.00  0.00    -0.504 C  
HETATM   27  C   UNL     1     -11.921  14.733  70.821  1.00  0.00    -0.310 C  
HETATM   28  H   UNL     1     -12.986  16.253  73.920  1.00  0.00     0.000 HD 
HETATM   29  O   UNL     1     -10.839  15.055  70.353  1.00  0.00    -0.229 OA 
HETATM   30  O   UNL     1     -12.394  13.454  70.722  1.00  0.00    -0.353 OA 
ENDBRANCH  21  22
ENDBRANCH  20  21
ENDBRANCH   4  20
TORSDOF 5
ENDMDL
MODEL        5
REMARK 921   NORMALIZED FREE ENERGY PREDICTED BY IDOCK:   -6.96 KCAL/MOL
REMARK 922        TOTAL FREE ENERGY PREDICTED BY IDOCK:  -10.58 KCAL/MOL
REMARK 923 INTER-LIGAND FREE ENERGY PREDICTED BY IDOCK:  -10.15 KCAL/MOL
REMARK 924 INTRA-LIGAND FREE ENERGY PREDICTED BY IDOCK:   -0.43 KCAL/MOL
REMARK 927      BINDING AFFINITY PREDICTED BY RF-SCORE:    0.00 PKD
ROOT
HETATM    1  C   UNL     1     -11.424  14.892  67.811  1.00  0.00    -0.353 C  
HETATM    2  C   UNL     1     -11.664  15.841  69.037  1.00  0.00    -0.396 C  
HETATM    3  C   UNL     1     -10.741  17.065  69.142  1.00  0.00    -0.253 C  
HETATM    4  C   UNL     1     -10.979  13.384  68.079  1.00  0.00    -0.265 C  
HETATM    5  C   UNL     1     -10.629  17.848  67.845  1.00  0.00    -0.387 C  
HETATM    6  C   UNL     1     -12.026  12.128  66.036  1.00  0.00    -0.236 C  
HETATM    7  C   UNL     1     -10.745  12.648  66.704  1.00  0.00    -0.275 C  
HETATM    8  C   UNL     1     -10.198  16.899  66.775  1.00  0.00    -0.306 C  
HETATM    9  C   UNL     1      -9.996  13.456  65.695  1.00  0.00    -0.249 C  
HETATM   10  C   UNL     1      -9.626  18.995  68.022  1.00  0.00    -0.383 C  
HETATM   11  C   UNL     1     -10.497  15.584  66.775  1.00  0.00    -0.295 C  
HETATM   12  C   UNL     1      -9.891  14.782  65.738  1.00  0.00    -0.373 C  
ENDROOT
BRANCH   2  13
HETATM   13  O   UNL     1     -11.454  15.192  70.293  1.00  0.00    -0.247 OA 
BRANCH  13  14
HETATM   14  C   UNL     1     -11.864  15.845  71.406  1.00  0.00    -0.463 C  
HETATM   15  C   UNL     1     -12.527  15.713  74.372  1.00  0.00    -0.790 C  
HETATM   16  C   UNL     1     -13.145  15.228  71.948  1.00  0.00    -0.482 C  
HETATM   17  O   UNL     1     -11.314  16.834  71.871  1.00  0.00    -0.071 OA 
HETATM   18  C   UNL     1     -12.892  14.651  73.344  1.00  0.00    -0.526 C  
HETATM   19  C   UNL     1     -13.719  14.150  71.015  1.00  0.00    -0.101 C  
ENDBRANCH  13  14
ENDBRANCH   2  13
BRANCH   4  20
HETATM   20  C   UNL     1     -11.851  12.426  68.993  1.00  0.00    -0.349 C  
BRANCH  20  21
HETATM   21  C   UNL     1     -11.046  11.155  69.361  1.00  0.00    -0.314 C  
BRANCH  21  22
HETATM   22  C   UNL     1     -11.563  10.115  70.358  1.00  0.00    -0.316 C  
HETATM   23  C   UNL     1     -12.701  10.557  71.259  1.00  0.00    -0.532 C  
HETATM   24  C   UNL     1     -13.279   9.313  71.927  1.00  0.00    -0.423 C  
HETATM   25  O   UNL     1     -14.079   8.561  71.005  1.00  0.00    -0.608 OA 
HETATM   26  C   UNL     1     -12.200   8.443  72.554  1.00  0.00    -0.381 C  
HETATM   27  C   UNL     1     -10.892   8.373  71.788  1.00  0.00    -0.284 C  
HETATM   28  H   UNL     1     -14.438   7.787  71.420  1.00  0.00     0.000 HD 
HETATM   29  O   UNL     1     -10.145   7.409  71.859  1.00  0.00    -0.178 OA 
HETATM   30  O   UNL     1     -10.523   9.522  71.144  1.00  0.00    -0.313 OA 
ENDBRANCH  21  22
ENDBRANCH  20  21
ENDBRANCH   4  20
TORSDOF 5
ENDMDL
MODEL        6
REMARK 921   NORMALIZED FREE ENERGY PREDICTED BY IDOCK:   -6.93 KCAL/MOL
REMARK 922        TOTAL FREE ENERGY PREDICTED BY IDOCK:  -10.55 KCAL/MOL
REMARK 923 INTER-LIGAND FREE ENERGY PREDICTED BY IDOCK:   -9.03 KCAL/MOL
REMARK 924 INTRA-LIGAND FREE ENERGY PREDICTED BY IDOCK:   -1.51 KCAL/MOL
REMARK 927      BINDING AFFINITY PREDICTED BY RF-SCORE:    0.00 PKD
ROOT
HETATM    1  C   UNL     1      -9.903  11.016  67.453  1.00  0.00    -0.197 C  
HETATM    2  C   UNL     1      -9.947   9.947  68.600  1.00  0.00    -0.164 C  
HETATM    3  C   UNL     1     -10.442   8.546  68.206  1.00  0.00    -0.222 C  
HETATM    4  C   UNL     1     -10.824  12.313  67.573  1.00  0.00    -0.271 C  
HETATM    5  C   UNL     1      -9.770   7.998  66.958  1.00  0.00    -0.275 C  
HETATM    6  C   UNL     1      -9.413  14.113  66.302  1.00  0.00    -0.264 C  
HETATM    7  C   UNL     1     -10.652  13.207  66.285  1.00  0.00    -0.292 C  
HETATM    8  C   UNL     1      -9.956   8.998  65.863  1.00  0.00    -0.169 C  
HETATM    9  C   UNL     1     -10.644  12.440  65.003  1.00  0.00    -0.330 C  
HETATM   10  C   UNL     1     -10.387   6.641  66.596  1.00  0.00    -0.215 C  
HETATM   11  C   UNL     1     -10.070  10.325  66.073  1.00  0.00    -0.311 C  
HETATM   12  C   UNL     1     -10.379  11.138  64.919  1.00  0.00    -0.375 C  
ENDROOT
BRANCH   2  13
HETATM   13  O   UNL     1     -10.841  10.300  69.657  1.00  0.00    -0.234 OA 
BRANCH  13  14
HETATM   14  C   UNL     1     -10.577   9.801  70.887  1.00  0.00    -0.274 C  
HETATM   15  C   UNL     1     -11.070   7.608  72.939  1.00  0.00    -0.448 C  
HETATM   16  C   UNL     1     -11.854   9.699  71.710  1.00  0.00    -0.391 C  
HETATM   17  O   UNL     1      -9.457   9.531  71.300  1.00  0.00    -0.219 OA 
HETATM   18  C   UNL     1     -12.137   8.233  72.048  1.00  0.00    -0.402 C  
HETATM   19  C   UNL     1     -13.062  10.332  71.000  1.00  0.00    -0.458 C  
ENDBRANCH  13  14
ENDBRANCH   2  13
BRANCH   4  20
HETATM   20  C   UNL     1     -10.729  13.268  68.835  1.00  0.00    -0.215 C  
BRANCH  20  21
HETATM   21  C   UNL     1     -12.073  14.006  69.054  1.00  0.00    -0.358 C  
BRANCH  21  22
HETATM   22  C   UNL     1     -12.593  14.370  70.446  1.00  0.00    -0.345 C  
HETATM   23  C   UNL     1     -14.035  14.002  70.742  1.00  0.00     0.511 C  
HETATM   24  C   UNL     1     -14.254  14.140  72.244  1.00  0.00    -0.504 C  
HETATM   25  O   UNL     1     -13.656  13.046  72.952  1.00  0.00    -0.679 OA 
HETATM   26  C   UNL     1     -13.759  15.475  72.779  1.00  0.00    -0.642 C  
HETATM   27  C   UNL     1     -12.495  16.009  72.130  1.00  0.00    -0.454 C  
HETATM   28  H   UNL     1     -13.793  13.131  73.888  1.00  0.00     0.000 HD 
HETATM   29  O   UNL     1     -11.725  16.753  72.716  1.00  0.00    -0.427 OA 
HETATM   30  O   UNL     1     -12.359  15.739  70.796  1.00  0.00    -0.410 OA 
ENDBRANCH  21  22
ENDBRANCH  20  21
ENDBRANCH   4  20
TORSDOF 5
ENDMDL
MODEL        7
REMARK 921   NORMALIZED FREE ENERGY PREDICTED BY IDOCK:   -6.93 KCAL/MOL
REMARK 922        TOTAL FREE ENERGY PREDICTED BY IDOCK:  -10.53 KCAL/MOL
REMARK 923 INTER-LIGAND FREE ENERGY PREDICTED BY IDOCK:   -9.17 KCAL/MOL
REMARK 924 INTRA-LIGAND FREE ENERGY PREDICTED BY IDOCK:   -1.36 KCAL/MOL
REMARK 927      BINDING AFFINITY PREDICTED BY RF-SCORE:    0.00 PKD
ROOT
HETATM    1  C   UNL     1     -10.808  13.784  69.761  1.00  0.00     0.166 C  
HETATM    2  C   UNL     1     -10.767  15.301  70.160  1.00  0.00    -0.271 C  
HETATM    3  C   UNL     1     -12.037  15.867  70.815  1.00  0.00    -0.393 C  
HETATM    4  C   UNL     1     -10.669  13.387  68.223  1.00  0.00    -0.273 C  
HETATM    5  C   UNL     1     -12.565  15.007  71.950  1.00  0.00    -0.403 C  
HETATM    6  C   UNL     1      -9.502  11.049  68.358  1.00  0.00    -0.182 C  
HETATM    7  C   UNL     1     -10.795  11.823  68.065  1.00  0.00    -0.256 C  
HETATM    8  C   UNL     1     -12.765  13.624  71.419  1.00  0.00    -0.437 C  
HETATM    9  C   UNL     1     -11.890  11.211  68.875  1.00  0.00    -0.406 C  
HETATM   10  C   UNL     1     -13.875  15.604  72.481  1.00  0.00    -0.642 C  
HETATM   11  C   UNL     1     -12.032  13.092  70.420  1.00  0.00    -0.343 C  
HETATM   12  C   UNL     1     -12.442  11.794  69.937  1.00  0.00    -0.086 C  
ENDROOT
BRANCH   2  13
HETATM   13  O   UNL     1     -10.590  16.167  69.038  1.00  0.00    -0.236 OA 
BRANCH  13  14
HETATM   14  C   UNL     1      -9.371  16.732  68.875  1.00  0.00    -0.233 C  
HETATM   15  C   UNL     1      -7.658  19.244  68.997  1.00  0.00    -0.354 C  
HETATM   16  C   UNL     1      -9.427  17.832  67.824  1.00  0.00    -0.262 C  
HETATM   17  O   UNL     1      -8.354  16.364  69.446  1.00  0.00    -0.174 OA 
HETATM   18  C   UNL     1      -9.085  19.180  68.466  1.00  0.00    -0.416 C  
HETATM   19  C   UNL     1     -10.790  17.902  67.118  1.00  0.00    -0.149 C  
ENDBRANCH  13  14
ENDBRANCH   2  13
BRANCH   4  20
HETATM   20  C   UNL     1      -9.418  13.856  67.369  1.00  0.00    -0.226 C  
BRANCH  20  21
HETATM   21  C   UNL     1      -9.884  14.467  66.024  1.00  0.00    -0.342 C  
BRANCH  21  22
HETATM   22  C   UNL     1     -10.537  13.627  64.923  1.00  0.00    -0.408 C  
HETATM   23  C   UNL     1     -12.030  13.393  65.054  1.00  0.00    -0.405 C  
HETATM   24  C   UNL     1     -12.535  12.838  63.727  1.00  0.00    -0.383 C  
HETATM   25  O   UNL     1     -12.616  13.871  62.736  1.00  0.00    -0.846 OA 
HETATM   26  C   UNL     1     -11.694  11.669  63.234  1.00  0.00    -0.233 C  
HETATM   27  C   UNL     1     -10.206  11.775  63.513  1.00  0.00    -0.450 C  
HETATM   28  H   UNL     1     -12.930  13.525  61.909  1.00  0.00     0.000 HD 
HETATM   29  O   UNL     1      -9.370  11.226  62.811  1.00  0.00    -0.345 OA 
HETATM   30  O   UNL     1      -9.868  12.382  64.691  1.00  0.00    -0.189 OA 
ENDBRANCH  21  22
ENDBRANCH  20  21
ENDBRANCH   4  20
TORSDOF 5
ENDMDL
MODEL        8
REMARK 921   NORMALIZED FREE ENERGY PREDICTED BY IDOCK:   -6.91 KCAL/MOL
REMARK 922        TOTAL FREE ENERGY PREDICTED BY IDOCK:  -10.51 KCAL/MOL
REMARK 923 INTER-LIGAND FREE ENERGY PREDICTED BY IDOCK:   -8.67 KCAL/MOL
REMARK 924 INTRA-LIGAND FREE ENERGY PREDICTED BY IDOCK:   -1.84 KCAL/MOL
REMARK 927      BINDING AFFINITY PREDICTED BY RF-SCORE:    0.00 PKD
ROOT
HETATM    1  C   UNL     1     -10.261  12.076  66.081  1.00  0.00    -0.255 C  
HETATM    2  C   UNL     1      -9.397  10.768  66.103  1.00  0.00    -0.183 C  
HETATM    3  C   UNL     1      -9.438   9.904  64.833  1.00  0.00    -0.355 C  
HETATM    4  C   UNL     1     -11.458  12.228  67.125  1.00  0.00    -0.419 C  
HETATM    5  C   UNL     1      -9.215  10.697  63.557  1.00  0.00    -0.283 C  
HETATM    6  C   UNL     1     -11.533  14.816  67.507  1.00  0.00    -0.369 C  
HETATM    7  C   UNL     1     -12.210  13.591  66.874  1.00  0.00    -0.377 C  
HETATM    8  C   UNL     1     -10.219  11.804  63.526  1.00  0.00    -0.483 C  
HETATM    9  C   UNL     1     -12.462  13.897  65.435  1.00  0.00    -0.528 C  
HETATM   10  C   UNL     1      -9.358   9.769  62.343  1.00  0.00    -0.223 C  
HETATM   11  C   UNL     1     -10.727  12.384  64.632  1.00  0.00    -0.339 C  
HETATM   12  C   UNL     1     -11.786  13.346  64.429  1.00  0.00    -0.435 C  
ENDROOT
BRANCH   2  13
HETATM   13  O   UNL     1      -9.809   9.845  67.113  1.00  0.00    -0.171 OA 
BRANCH  13  14
HETATM   14  C   UNL     1      -8.845   9.104  67.709  1.00  0.00    -0.124 C  
HETATM   15  C   UNL     1      -6.944   6.734  67.542  1.00  0.00    -0.083 C  
HETATM   16  C   UNL     1      -9.298   7.658  67.860  1.00  0.00    -0.146 C  
HETATM   17  O   UNL     1      -7.786   9.551  68.126  1.00  0.00    -0.083 OA 
HETATM   18  C   UNL     1      -8.384   6.741  67.043  1.00  0.00    -0.114 C  
HETATM   19  C   UNL     1     -10.767   7.457  67.454  1.00  0.00    -0.348 C  
ENDBRANCH  13  14
ENDBRANCH   2  13
BRANCH   4  20
HETATM   20  C   UNL     1     -11.200  12.101  68.685  1.00  0.00    -0.318 C  
BRANCH  20  21
HETATM   21  C   UNL     1     -12.277  11.198  69.335  1.00  0.00    -0.329 C  
BRANCH  21  22
HETATM   22  C   UNL     1     -11.920  10.004  70.223  1.00  0.00    -0.187 C  
HETATM   23  C   UNL     1     -12.919   9.653  71.310  1.00  0.00    -0.446 C  
HETATM   24  C   UNL     1     -12.556   8.274  71.851  1.00  0.00    -0.344 C  
HETATM   25  O   UNL     1     -12.944   7.245  70.932  1.00  0.00    -0.588 OA 
HETATM   26  C   UNL     1     -11.081   8.165  72.207  1.00  0.00    -0.410 C  
HETATM   27  C   UNL     1     -10.132   8.908  71.286  1.00  0.00    -0.295 C  
HETATM   28  H   UNL     1     -12.719   6.386  71.269  1.00  0.00     0.000 HD 
HETATM   29  O   UNL     1      -8.973   8.558  71.122  1.00  0.00    -0.153 OA 
HETATM   30  O   UNL     1     -10.604  10.088  70.780  1.00  0.00    -0.287 OA 
ENDBRANCH  21  22
ENDBRANCH  20  21
ENDBRANCH   4  20
TORSDOF 5
ENDMDL
MODEL        9
REMARK 921   NORMALIZED FREE ENERGY PREDICTED BY IDOCK:   -6.85 KCAL/MOL
REMARK 922        TOTAL FREE ENERGY PREDICTED BY IDOCK:  -10.44 KCAL/MOL
REMARK 923 INTER-LIGAND FREE ENERGY PREDICTED BY IDOCK:   -9.05 KCAL/MOL
REMARK 924 INTRA-LIGAND FREE ENERGY PREDICTED BY IDOCK:   -1.38 KCAL/MOL
REMARK 927      BINDING AFFINITY PREDICTED BY RF-SCORE:    0.00 PKD
ROOT
HETATM    1  C   UNL     1     -12.538  12.965  69.895  1.00  0.00     0.129 C  
HETATM    2  C   UNL     1     -11.733  12.249  68.755  1.00  0.00    -0.340 C  
HETATM    3  C   UNL     1     -10.982  10.969  69.154  1.00  0.00    -0.289 C  
HETATM    4  C   UNL     1     -12.119  14.444  70.323  1.00  0.00    -0.396 C  
HETATM    5  C   UNL     1     -11.837   9.986  69.934  1.00  0.00    -0.141 C  
HETATM    6  C   UNL     1     -14.404  15.465  71.089  1.00  0.00    -0.284 C  
HETATM    7  C   UNL     1     -13.030  14.928  71.516  1.00  0.00    -0.419 C  
HETATM    8  C   UNL     1     -12.401  10.708  71.115  1.00  0.00    -0.505 C  
HETATM    9  C   UNL     1     -13.247  13.901  72.578  1.00  0.00    -0.601 C  
HETATM   10  C   UNL     1     -10.983   8.785  70.359  1.00  0.00    -0.262 C  
HETATM   11  C   UNL     1     -12.664  12.030  71.128  1.00  0.00    -0.365 C  
HETATM   12  C   UNL     1     -13.079  12.594  72.392  1.00  0.00    -0.241 C  
ENDROOT
BRANCH   2  13
HETATM   13  O   UNL     1     -10.688  13.060  68.217  1.00  0.00    -0.230 OA 
BRANCH  13  14
HETATM   14  C   UNL     1     -10.720  13.316  66.888  1.00  0.00    -0.271 C  
HETATM   15  C   UNL     1     -10.540  12.233  64.051  1.00  0.00    -0.434 C  
HETATM   16  C   UNL     1      -9.408  12.910  66.232  1.00  0.00    -0.148 C  
HETATM   17  O   UNL     1     -11.652  13.859  66.309  1.00  0.00    -0.337 OA 
HETATM   18  C   UNL     1      -9.661  11.793  65.215  1.00  0.00    -0.236 C  
HETATM   19  C   UNL     1      -8.348  12.476  67.257  1.00  0.00    -0.185 C  
ENDBRANCH  13  14
ENDBRANCH   2  13
BRANCH   4  20
HETATM   20  C   UNL     1     -12.062  15.616  69.256  1.00  0.00    -0.263 C  
BRANCH  20  21
HETATM   21  C   UNL     1     -10.692  16.336  69.324  1.00  0.00    -0.307 C  
BRANCH  21  22
HETATM   22  C   UNL     1     -10.215  17.298  68.233  1.00  0.00    -0.348 C  
HETATM   23  C   UNL     1      -9.734  18.658  68.700  1.00  0.00    -0.418 C  
HETATM   24  C   UNL     1      -9.010  19.324  67.535  1.00  0.00    -0.298 C  
HETATM   25  O   UNL     1      -7.712  18.747  67.342  1.00  0.00    -0.227 OA 
HETATM   26  C   UNL     1      -9.825  19.284  66.251  1.00  0.00    -0.456 C  
HETATM   27  C   UNL     1     -10.639  18.022  66.036  1.00  0.00    -0.251 C  
HETATM   28  H   UNL     1      -7.260  19.161  66.616  1.00  0.00     0.000 HD 
HETATM   29  O   UNL     1     -10.937  17.619  64.922  1.00  0.00    -0.886 OA 
HETATM   30  O   UNL     1     -11.159  17.455  67.167  1.00  0.00    -0.043 OA 
ENDBRANCH  21  22
ENDBRANCH  20  21
ENDBRANCH   4  20
TORSDOF 5
ENDMDL
MODEL       10
REMARK 921   NORMALIZED FREE ENERGY PREDICTED BY IDOCK:   -6.85 KCAL/MOL
REMARK 922        TOTAL FREE ENERGY PREDICTED BY IDOCK:  -10.43 KCAL/MOL
REMARK 923 INTER-LIGAND FREE ENERGY PREDICTED BY IDOCK:   -9.57 KCAL/MOL
REMARK 924 INTRA-LIGAND FREE ENERGY PREDICTED BY IDOCK:   -0.87 KCAL/MOL
REMARK 927      BINDING AFFINITY PREDICTED BY RF-SCORE:    0.00 PKD
ROOT
HETATM    1  C   UNL     1     -11.098  11.521  66.785  1.00  0.00    -0.361 C  
HETATM    2  C   UNL     1     -11.699  12.789  67.485  1.00  0.00    -0.364 C  
HETATM    3  C   UNL     1     -11.829  14.050  66.615  1.00  0.00    -0.443 C  
HETATM    4  C   UNL     1      -9.724  10.920  67.327  1.00  0.00    -0.189 C  
HETATM    5  C   UNL     1     -12.488  13.790  65.271  1.00  0.00    -0.512 C  
HETATM    6  C   UNL     1      -9.989   8.371  66.799  1.00  0.00    -0.354 C  
HETATM    7  C   UNL     1      -9.294   9.691  66.437  1.00  0.00    -0.224 C  
HETATM    8  C   UNL     1     -11.722  12.702  64.590  1.00  0.00    -0.411 C  
HETATM    9  C   UNL     1      -9.459   9.911  64.969  1.00  0.00    -0.343 C  
HETATM   10  C   UNL     1     -12.496  15.081  64.443  1.00  0.00    -0.159 C  
HETATM   11  C   UNL     1     -11.061  11.728  65.246  1.00  0.00    -0.333 C  
HETATM   12  C   UNL     1     -10.260  10.834  64.442  1.00  0.00    -0.432 C  
ENDROOT
BRANCH   2  13
HETATM   13  O   UNL     1     -10.904  13.253  68.577  1.00  0.00    -0.249 OA 
BRANCH  13  14
HETATM   14  C   UNL     1     -11.543  13.537  69.736  1.00  0.00    -0.244 C  
HETATM   15  C   UNL     1     -13.466  15.353  71.240  1.00  0.00    -0.598 C  
HETATM   16  C   UNL     1     -11.165  14.926  70.230  1.00  0.00    -0.270 C  
HETATM   17  O   UNL     1     -12.271  12.757  70.334  1.00  0.00    -0.350 OA 
HETATM   18  C   UNL     1     -12.406  15.824  70.252  1.00  0.00    -0.341 C  
HETATM   19  C   UNL     1     -10.051  15.568  69.386  1.00  0.00    -0.266 C  
ENDBRANCH  13  14
ENDBRANCH   2  13
BRANCH   4  20
HETATM   20  C   UNL     1      -9.564  10.491  68.846  1.00  0.00    -0.199 C  
BRANCH  20  21
HETATM   21  C   UNL     1     -10.891   9.895  69.378  1.00  0.00    -0.265 C  
BRANCH  21  22
HETATM   22  C   UNL     1     -10.928   8.756  70.399  1.00  0.00    -0.235 C  
HETATM   23  C   UNL     1     -10.442   9.091  71.797  1.00  0.00    -0.418 C  
HETATM   24  C   UNL     1     -10.860   7.954  72.723  1.00  0.00    -0.386 C  
HETATM   25  O   UNL     1     -12.263   8.021  73.015  1.00  0.00    -0.659 OA 
HETATM   26  C   UNL     1     -10.480   6.590  72.168  1.00  0.00    -0.229 C  
HETATM   27  C   UNL     1     -10.596   6.443  70.662  1.00  0.00    -0.237 C  
HETATM   28  H   UNL     1     -12.524   7.312  73.592  1.00  0.00     0.000 HD 
HETATM   29  O   UNL     1     -10.802   5.366  70.125  1.00  0.00    -0.281 OA 
HETATM   30  O   UNL     1     -10.290   7.561  69.936  1.00  0.00    -0.212 OA 
ENDBRANCH  21  22
ENDBRANCH  20  21
ENDBRANCH   4  20
TORSDOF 5
ENDMDL
MODEL       11
REMARK 921   NORMALIZED FREE ENERGY PREDICTED BY IDOCK:   -6.83 KCAL/MOL
REMARK 922        TOTAL FREE ENERGY PREDICTED BY IDOCK:  -10.41 KCAL/MOL
REMARK 923 INTER-LIGAND FREE ENERGY PREDICTED BY IDOCK:   -8.87 KCAL/MOL
REMARK 924 INTRA-LIGAND FREE ENERGY PREDICTED BY IDOCK:   -1.54 KCAL/MOL
REMARK 927      BINDING AFFINITY PREDICTED BY RF-SCORE:    0.00 PKD
ROOT
HETATM    1  C   UNL     1     -11.585  12.204  70.280  1.00  0.00    -0.105 C  
HETATM    2  C   UNL     1     -11.565  13.657  69.689  1.00  0.00    -0.278 C  
HETATM    3  C   UNL     1     -12.760  14.554  70.047  1.00  0.00    -0.187 C  
HETATM    4  C   UNL     1     -11.638  10.964  69.277  1.00  0.00    -0.388 C  
HETATM    5  C   UNL     1     -13.086  14.561  71.530  1.00  0.00    -0.413 C  
HETATM    6  C   UNL     1     -10.350   9.119  70.612  1.00  0.00    -0.306 C  
HETATM    7  C   UNL     1     -11.708   9.620  70.099  1.00  0.00    -0.143 C  
HETATM    8  C   UNL     1     -13.288  13.144  71.959  1.00  0.00    -0.587 C  
HETATM    9  C   UNL     1     -12.651   9.657  71.256  1.00  0.00    -0.443 C  
HETATM   10  C   UNL     1     -14.339  15.411  71.777  1.00  0.00    -0.639 C  
HETATM   11  C   UNL     1     -12.673  12.092  71.382  1.00  0.00    -0.380 C  
HETATM   12  C   UNL     1     -13.081  10.780  71.828  1.00  0.00    -0.573 C  
ENDROOT
BRANCH   2  13
HETATM   13  O   UNL     1     -11.584  13.678  68.261  1.00  0.00    -0.295 OA 
BRANCH  13  14
HETATM   14  C   UNL     1     -10.464  14.099  67.629  1.00  0.00    -0.245 C  
HETATM   15  C   UNL     1      -8.977  16.375  66.263  1.00  0.00    -0.368 C  
HETATM   16  C   UNL     1     -10.791  14.585  66.224  1.00  0.00    -0.317 C  
HETATM   17  O   UNL     1      -9.337  14.035  68.100  1.00  0.00    -0.189 OA 
HETATM   18  C   UNL     1     -10.462  16.076  66.103  1.00  0.00    -0.334 C  
HETATM   19  C   UNL     1     -12.256  14.323  65.838  1.00  0.00    -0.422 C  
ENDBRANCH  13  14
ENDBRANCH   2  13
BRANCH   4  20
HETATM   20  C   UNL     1     -10.539  10.780  68.149  1.00  0.00    -0.238 C  
BRANCH  20  21
HETATM   21  C   UNL     1     -11.211  10.664  66.759  1.00  0.00    -0.001 C  
BRANCH  21  22
HETATM   22  C   UNL     1     -10.416  10.739  65.453  1.00  0.00    -0.202 C  
HETATM   23  C   UNL     1     -11.199  11.119  64.211  1.00  0.00    -0.061 C  
HETATM   24  C   UNL     1     -10.198  11.456  63.111  1.00  0.00    -0.334 C  
HETATM   25  O   UNL     1      -9.606  12.743  63.334  1.00  0.00    -0.540 OA 
HETATM   26  C   UNL     1      -9.132  10.382  62.953  1.00  0.00    -0.287 C  
HETATM   27  C   UNL     1      -8.673   9.725  64.243  1.00  0.00    -0.206 C  
HETATM   28  H   UNL     1      -8.982  12.953  62.649  1.00  0.00     0.000 HD 
HETATM   29  O   UNL     1      -7.559   9.239  64.368  1.00  0.00    -0.108 OA 
HETATM   30  O   UNL     1      -9.639   9.563  65.198  1.00  0.00    -0.280 OA 
ENDBRANCH  21  22
ENDBRANCH  20  21
ENDBRANCH   4  20
TORSDOF 5
ENDMDL
MODEL       12
REMARK 921   NORMALIZED FREE ENERGY PREDICTED BY IDOCK:   -6.81 KCAL/MOL
REMARK 922        TOTAL FREE ENERGY PREDICTED BY IDOCK:  -10.39 KCAL/MOL
REMARK 923 INTER-LIGAND FREE ENERGY PREDICTED BY IDOCK:   -8.79 KCAL/MOL
REMARK 924 INTRA-LIGAND FREE ENERGY PREDICTED BY IDOCK:   -1.60 KCAL/MOL
REMARK 927      BINDING AFFINITY PREDICTED BY RF-SCORE:    0.00 PKD
ROOT
HETATM    1  C   UNL     1     -11.574  11.714  70.479  1.00  0.00    -0.028 C  
HETATM    2  C   UNL     1     -11.521  13.110  69.767  1.00  0.00    -0.145 C  
HETATM    3  C   UNL     1     -12.726  14.037  69.995  1.00  0.00    -0.136 C  
HETATM    4  C   UNL     1     -11.590  10.393  69.585  1.00  0.00    -0.307 C  
HETATM    5  C   UNL     1     -13.115  14.171  71.457  1.00  0.00    -0.424 C  
HETATM    6  C   UNL     1     -10.369   8.667  71.127  1.00  0.00    -0.294 C  
HETATM    7  C   UNL     1     -11.701   9.124  70.515  1.00  0.00    -0.193 C  
HETATM    8  C   UNL     1     -13.342  12.796  71.997  1.00  0.00    -0.565 C  
HETATM    9  C   UNL     1     -12.693   9.261  71.623  1.00  0.00    -0.442 C  
HETATM   10  C   UNL     1     -14.373  15.040  71.577  1.00  0.00    -0.651 C  
HETATM   11  C   UNL     1     -12.708  11.697  71.539  1.00  0.00    -0.423 C  
HETATM   12  C   UNL     1     -13.142  10.429  72.077  1.00  0.00    -0.521 C  
ENDROOT
BRANCH   2  13
HETATM   13  O   UNL     1     -11.480  13.009  68.343  1.00  0.00    -0.266 OA 
BRANCH  13  14
HETATM   14  C   UNL     1     -10.491  13.673  67.700  1.00  0.00    -0.238 C  
HETATM   15  C   UNL     1      -9.711  15.845  65.717  1.00  0.00    -0.360 C  
HETATM   16  C   UNL     1     -10.632  13.517  66.193  1.00  0.00    -0.290 C  
HETATM   17  O   UNL     1      -9.575  14.261  68.258  1.00  0.00    -0.208 OA 
HETATM   18  C   UNL     1     -10.882  14.884  65.551  1.00  0.00    -0.365 C  
HETATM   19  C   UNL     1     -11.744  12.528  65.806  1.00  0.00    -0.478 C  
ENDBRANCH  13  14
ENDBRANCH   2  13
BRANCH   4  20
HETATM   20  C   UNL     1     -10.445  10.111  68.524  1.00  0.00    -0.221 C  
BRANCH  20  21
HETATM   21  C   UNL     1     -10.991   9.249  67.360  1.00  0.00    -0.022 C  
BRANCH  21  22
HETATM   22  C   UNL     1     -10.396   7.886  66.997  1.00  0.00    -0.341 C  
HETATM   23  C   UNL     1     -11.027   6.679  67.664  1.00  0.00    -0.392 C  
HETATM   24  C   UNL     1     -10.531   5.432  66.940  1.00  0.00    -0.277 C  
HETATM   25  O   UNL     1     -11.184   5.282  65.672  1.00  0.00    -0.767 OA 
HETATM   26  C   UNL     1      -9.018   5.421  66.782  1.00  0.00    -0.112 C  
HETATM   27  C   UNL     1      -8.381   6.773  66.519  1.00  0.00    -0.121 C  
HETATM   28  H   UNL     1     -10.876   4.505  65.221  1.00  0.00     0.000 HD 
HETATM   29  O   UNL     1      -7.326   6.891  65.914  1.00  0.00    -0.075 OA 
HETATM   30  O   UNL     1      -8.972   7.835  67.145  1.00  0.00    -0.122 OA 
ENDBRANCH  21  22
ENDBRANCH  20  21
ENDBRANCH   4  20
TORSDOF 5
ENDMDL
MODEL       13
REMARK 921   NORMALIZED FREE ENERGY PREDICTED BY IDOCK:   -6.80 KCAL/MOL
REMARK 922        TOTAL FREE ENERGY PREDICTED BY IDOCK:  -10.37 KCAL/MOL
REMARK 923 INTER-LIGAND FREE ENERGY PREDICTED BY IDOCK:   -8.94 KCAL/MOL
REMARK 924 INTRA-LIGAND FREE ENERGY PREDICTED BY IDOCK:   -1.44 KCAL/MOL
REMARK 927      BINDING AFFINITY PREDICTED BY RF-SCORE:    0.00 PKD
ROOT
HETATM    1  C   UNL     1     -12.343  12.207  70.133  1.00  0.00    -0.219 C  
HETATM    2  C   UNL     1     -11.753  10.925  69.448  1.00  0.00    -0.325 C  
HETATM    3  C   UNL     1     -11.574   9.693  70.348  1.00  0.00    -0.299 C  
HETATM    4  C   UNL     1     -11.450  13.527  70.199  1.00  0.00    -0.083 C  
HETATM    5  C   UNL     1     -12.806   9.366  71.174  1.00  0.00    -0.322 C  
HETATM    6  C   UNL     1     -13.255  15.420  70.131  1.00  0.00     0.128 C  
HETATM    7  C   UNL     1     -12.228  14.656  70.978  1.00  0.00    -0.399 C  
HETATM    8  C   UNL     1     -13.174  10.590  71.949  1.00  0.00    -0.526 C  
HETATM    9  C   UNL     1     -12.914  14.184  72.218  1.00  0.00    -0.469 C  
HETATM   10  C   UNL     1     -12.504   8.180  72.100  1.00  0.00    -0.364 C  
HETATM   11  C   UNL     1     -12.928  11.846  71.526  1.00  0.00    -0.427 C  
HETATM   12  C   UNL     1     -13.225  12.911  72.455  1.00  0.00    -0.447 C  
ENDROOT
BRANCH   2  13
HETATM   13  O   UNL     1     -10.434  11.124  68.937  1.00  0.00    -0.195 OA 
BRANCH  13  14
HETATM   14  C   UNL     1     -10.098  10.458  67.808  1.00  0.00    -0.181 C  
HETATM   15  C   UNL     1      -9.184   7.852  66.529  1.00  0.00    -0.238 C  
HETATM   16  C   UNL     1      -8.669   9.940  67.896  1.00  0.00    -0.129 C  
HETATM   17  O   UNL     1     -10.821  10.345  66.827  1.00  0.00    -0.207 OA 
HETATM   18  C   UNL     1      -8.668   8.410  67.849  1.00  0.00    -0.138 C  
HETATM   19  C   UNL     1      -7.939  10.442  69.153  1.00  0.00    -0.141 C  
ENDBRANCH  13  14
ENDBRANCH   2  13
BRANCH   4  20
HETATM   20  C   UNL     1     -10.857  14.176  68.880  1.00  0.00    -0.276 C  
BRANCH  20  21
HETATM   21  C   UNL     1     -11.908  14.140  67.743  1.00  0.00    -0.414 C  
BRANCH  21  22
HETATM   22  C   UNL     1     -11.603  13.561  66.360  1.00  0.00    -0.350 C  
HETATM   23  C   UNL     1     -10.431  14.175  65.618  1.00  0.00    -0.333 C  
HETATM   24  C   UNL     1     -10.091  13.265  64.443  1.00  0.00    -0.163 C  
HETATM   25  O   UNL     1      -9.405  12.088  64.888  1.00  0.00    -0.433 OA 
HETATM   26  C   UNL     1     -11.318  12.908  63.618  1.00  0.00    -0.455 C  
HETATM   27  C   UNL     1     -12.598  12.705  64.409  1.00  0.00    -0.387 C  
HETATM   28  H   UNL     1      -9.194  11.520  64.157  1.00  0.00     0.000 HD 
HETATM   29  O   UNL     1     -13.500  11.980  64.016  1.00  0.00    -0.655 OA 
HETATM   30  O   UNL     1     -12.749  13.512  65.503  1.00  0.00    -0.491 OA 
ENDBRANCH  21  22
ENDBRANCH  20  21
ENDBRANCH   4  20
TORSDOF 5
ENDMDL
MODEL       14
REMARK 921   NORMALIZED FREE ENERGY PREDICTED BY IDOCK:   -6.78 KCAL/MOL
REMARK 922        TOTAL FREE ENERGY PREDICTED BY IDOCK:  -10.34 KCAL/MOL
REMARK 923 INTER-LIGAND FREE ENERGY PREDICTED BY IDOCK:   -9.01 KCAL/MOL
REMARK 924 INTRA-LIGAND FREE ENERGY PREDICTED BY IDOCK:   -1.33 KCAL/MOL
REMARK 927      BINDING AFFINITY PREDICTED BY RF-SCORE:    0.00 PKD
ROOT
HETATM    1  C   UNL     1     -12.531  12.807  70.104  1.00  0.00    -0.126 C  
HETATM    2  C   UNL     1     -11.650  11.989  69.097  1.00  0.00    -0.312 C  
HETATM    3  C   UNL     1     -11.020  10.696  69.638  1.00  0.00    -0.331 C  
HETATM    4  C   UNL     1     -12.077  14.283  70.504  1.00  0.00    -0.413 C  
HETATM    5  C   UNL     1     -12.009   9.802  70.365  1.00  0.00    -0.218 C  
HETATM    6  C   UNL     1     -14.369  15.460  70.962  1.00  0.00    -0.138 C  
HETATM    7  C   UNL     1     -13.082  14.878  71.564  1.00  0.00    -0.434 C  
HETATM    8  C   UNL     1     -12.654  10.616  71.441  1.00  0.00    -0.526 C  
HETATM    9  C   UNL     1     -13.470  13.923  72.644  1.00  0.00    -0.652 C  
HETATM   10  C   UNL     1     -11.275   8.584  70.941  1.00  0.00    -0.304 C  
HETATM   11  C   UNL     1     -12.842  11.948  71.360  1.00  0.00    -0.411 C  
HETATM   12  C   UNL     1     -13.357  12.601  72.541  1.00  0.00    -0.232 C  
ENDROOT
BRANCH   2  13
HETATM   13  O   UNL     1     -10.509  12.715  68.638  1.00  0.00    -0.237 OA 
BRANCH  13  14
HETATM   14  C   UNL     1     -10.365  12.868  67.301  1.00  0.00    -0.234 C  
HETATM   15  C   UNL     1      -9.845  11.567  64.600  1.00  0.00    -0.283 C  
HETATM   16  C   UNL     1      -8.989  12.397  66.853  1.00  0.00    -0.212 C  
HETATM   17  O   UNL     1     -11.202  13.376  66.567  1.00  0.00    -0.296 OA 
HETATM   18  C   UNL     1      -9.133  11.208  65.899  1.00  0.00    -0.218 C  
HETATM   19  C   UNL     1      -8.078  12.031  68.036  1.00  0.00    -0.153 C  
ENDBRANCH  13  14
ENDBRANCH   2  13
BRANCH   4  20
HETATM   20  C   UNL     1     -11.839  15.391  69.394  1.00  0.00    -0.372 C  
BRANCH  20  21
HETATM   21  C   UNL     1     -10.513  16.144  69.664  1.00  0.00    -0.291 C  
BRANCH  21  22
HETATM   22  C   UNL     1     -10.063  17.342  68.824  1.00  0.00    -0.346 C  
HETATM   23  C   UNL     1     -10.407  17.294  67.347  1.00  0.00    -0.338 C  
HETATM   24  C   UNL     1     -10.178  18.686  66.768  1.00  0.00    -0.393 C  
HETATM   25  O   UNL     1     -11.230  19.581  67.154  1.00  0.00    -0.353 OA 
HETATM   26  C   UNL     1      -8.815  19.248  67.140  1.00  0.00    -0.329 C  
HETATM   27  C   UNL     1      -8.326  18.900  68.535  1.00  0.00    -0.349 C  
HETATM   28  H   UNL     1     -11.087  20.448  66.793  1.00  0.00     0.000 HD 
HETATM   29  O   UNL     1      -7.549  19.614  69.151  1.00  0.00    -0.350 OA 
HETATM   30  O   UNL     1      -8.676  17.659  68.990  1.00  0.00    -0.160 OA 
ENDBRANCH  21  22
ENDBRANCH  20  21
ENDBRANCH   4  20
TORSDOF 5
ENDMDL
MODEL       15
REMARK 921   NORMALIZED FREE ENERGY PREDICTED BY IDOCK:   -6.77 KCAL/MOL
REMARK 922        TOTAL FREE ENERGY PREDICTED BY IDOCK:  -10.33 KCAL/MOL
REMARK 923 INTER-LIGAND FREE ENERGY PREDICTED BY IDOCK:   -8.82 KCAL/MOL
REMARK 924 INTRA-LIGAND FREE ENERGY PREDICTED BY IDOCK:   -1.51 KCAL/MOL
REMARK 927      BINDING AFFINITY PREDICTED BY RF-SCORE:    0.00 PKD
ROOT
HETATM    1  C   UNL     1     -11.923  13.808  68.313  1.00  0.00    -0.392 C  
HETATM    2  C   UNL     1     -12.150  13.032  69.657  1.00  0.00    -0.241 C  
HETATM    3  C   UNL     1     -11.772  13.778  70.946  1.00  0.00     0.018 C  
HETATM    4  C   UNL     1     -10.884  13.227  67.252  1.00  0.00    -0.275 C  
HETATM    5  C   UNL     1     -12.335  15.187  71.015  1.00  0.00    -0.408 C  
HETATM    6  C   UNL     1     -11.905  14.028  64.980  1.00  0.00    -0.383 C  
HETATM    7  C   UNL     1     -10.785  14.201  66.016  1.00  0.00    -0.299 C  
HETATM    8  C   UNL     1     -11.896  15.914  69.785  1.00  0.00    -0.303 C  
HETATM    9  C   UNL     1     -10.715  15.648  66.380  1.00  0.00    -0.291 C  
HETATM   10  C   UNL     1     -11.836  15.879  72.290  1.00  0.00    -0.617 C  
HETATM   11  C   UNL     1     -11.660  15.311  68.603  1.00  0.00    -0.370 C  
HETATM   12  C   UNL     1     -11.113  16.138  67.552  1.00  0.00    -0.175 C  
ENDROOT
BRANCH   2  13
HETATM   13  O   UNL     1     -11.366  11.842  69.752  1.00  0.00    -0.244 OA 
BRANCH  13  14
HETATM   14  C   UNL     1     -11.983  10.725  70.205  1.00  0.00    -0.349 C  
HETATM   15  C   UNL     1     -12.180   8.583  72.356  1.00  0.00    -0.432 C  
HETATM   16  C   UNL     1     -10.990   9.579  70.335  1.00  0.00    -0.333 C  
HETATM   17  O   UNL     1     -13.185  10.634  70.416  1.00  0.00    -0.204 OA 
HETATM   18  C   UNL     1     -10.880   9.153  71.801  1.00  0.00    -0.416 C  
HETATM   19  C   UNL     1      -9.604   9.936  69.773  1.00  0.00    -0.261 C  
ENDBRANCH  13  14
ENDBRANCH   2  13
BRANCH   4  20
HETATM   20  C   UNL     1     -11.032  11.751  66.689  1.00  0.00    -0.342 C  
BRANCH  20  21
HETATM   21  C   UNL     1      -9.637  11.135  66.423  1.00  0.00    -0.227 C  
BRANCH  21  22
HETATM   22  C   UNL     1      -9.214  10.623  65.044  1.00  0.00    -0.211 C  
HETATM   23  C   UNL     1     -10.052  11.090  63.869  1.00  0.00    -0.414 C  
HETATM   24  C   UNL     1      -9.293  10.753  62.590  1.00  0.00    -0.313 C  
HETATM   25  O   UNL     1      -8.202  11.661  62.387  1.00  0.00    -0.648 OA 
HETATM   26  C   UNL     1      -8.815   9.308  62.567  1.00  0.00    -0.226 C  
HETATM   27  C   UNL     1      -8.364   8.750  63.904  1.00  0.00    -0.141 C  
HETATM   28  H   UNL     1      -7.729  11.452  61.591  1.00  0.00     0.000 HD 
HETATM   29  O   UNL     1      -7.542   7.850  63.992  1.00  0.00    -0.105 OA 
HETATM   30  O   UNL     1      -9.056   9.200  64.995  1.00  0.00    -0.214 OA 
ENDBRANCH  21  22
ENDBRANCH  20  21
ENDBRANCH   4  20
TORSDOF 5
ENDMDL
MODEL       16
REMARK 921   NORMALIZED FREE ENERGY PREDICTED BY IDOCK:   -6.72 KCAL/MOL
REMARK 922        TOTAL FREE ENERGY PREDICTED BY IDOCK:  -10.27 KCAL/MOL
REMARK 923 INTER-LIGAND FREE ENERGY PREDICTED BY IDOCK:   -9.30 KCAL/MOL
REMARK 924 INTRA-LIGAND FREE ENERGY PREDICTED BY IDOCK:   -0.96 KCAL/MOL
REMARK 927      BINDING AFFINITY PREDICTED BY RF-SCORE:    0.00 PKD
ROOT
HETATM    1  C   UNL     1     -11.376  13.515  69.056  1.00  0.00    -0.336 C  
HETATM    2  C   UNL     1     -11.327  11.973  68.774  1.00  0.00    -0.278 C  
HETATM    3  C   UNL     1     -11.634  11.053  69.966  1.00  0.00    -0.427 C  
HETATM    4  C   UNL     1     -10.043  14.374  68.881  1.00  0.00    -0.202 C  
HETATM    5  C   UNL     1     -12.895  11.442  70.719  1.00  0.00    -0.255 C  
HETATM    6  C   UNL     1     -10.981  16.708  68.162  1.00  0.00    -0.327 C  
HETATM    7  C   UNL     1     -10.325  15.875  69.272  1.00  0.00    -0.249 C  
HETATM    8  C   UNL     1     -12.761  12.874  71.123  1.00  0.00    -0.366 C  
HETATM    9  C   UNL     1     -11.137  16.044  70.514  1.00  0.00    -0.370 C  
HETATM   10  C   UNL     1     -13.070  10.524  71.936  1.00  0.00    -0.567 C  
HETATM   11  C   UNL     1     -12.051  13.785  70.428  1.00  0.00    -0.421 C  
HETATM   12  C   UNL     1     -11.913  15.092  71.027  1.00  0.00    -0.386 C  
ENDROOT
BRANCH   2  13
HETATM   13  O   UNL     1     -10.035  11.522  68.365  1.00  0.00    -0.194 OA 
BRANCH  13  14
HETATM   14  C   UNL     1      -9.961  10.317  67.753  1.00  0.00    -0.173 C  
HETATM   15  C   UNL     1     -10.127   7.289  67.996  1.00  0.00    -0.207 C  
HETATM   16  C   UNL     1      -8.860   9.468  68.371  1.00  0.00    -0.124 C  
HETATM   17  O   UNL     1     -10.643   9.985  66.792  1.00  0.00    -0.218 OA 
HETATM   18  C   UNL     1      -9.468   8.216  69.010  1.00  0.00    -0.155 C  
HETATM   19  C   UNL     1      -8.025  10.247  69.401  1.00  0.00    -0.162 C  
ENDBRANCH  13  14
ENDBRANCH   2  13
BRANCH   4  20
HETATM   20  C   UNL     1      -9.249  14.376  67.508  1.00  0.00    -0.200 C  
BRANCH  20  21
HETATM   21  C   UNL     1     -10.162  14.875  66.360  1.00  0.00    -0.292 C  
BRANCH  21  22
HETATM   22  C   UNL     1     -10.682  13.946  65.261  1.00  0.00    -0.345 C  
HETATM   23  C   UNL     1     -12.168  13.643  65.286  1.00  0.00    -0.466 C  
HETATM   24  C   UNL     1     -12.536  12.992  63.957  1.00  0.00    -0.292 C  
HETATM   25  O   UNL     1     -12.583  13.966  62.906  1.00  0.00    -0.966 OA 
HETATM   26  C   UNL     1     -11.603  11.844  63.601  1.00  0.00    -0.559 C  
HETATM   27  C   UNL     1     -10.150  12.041  63.990  1.00  0.00    -0.335 C  
HETATM   28  H   UNL     1     -12.812  13.561  62.078  1.00  0.00     0.000 HD 
HETATM   29  O   UNL     1      -9.234  11.500  63.389  1.00  0.00    -0.181 OA 
HETATM   30  O   UNL     1      -9.939  12.727  65.155  1.00  0.00    -0.252 OA 
ENDBRANCH  21  22
ENDBRANCH  20  21
ENDBRANCH   4  20
TORSDOF 5
ENDMDL
MODEL       17
REMARK 921   NORMALIZED FREE ENERGY PREDICTED BY IDOCK:   -6.69 KCAL/MOL
REMARK 922        TOTAL FREE ENERGY PREDICTED BY IDOCK:  -10.23 KCAL/MOL
REMARK 923 INTER-LIGAND FREE ENERGY PREDICTED BY IDOCK:   -8.97 KCAL/MOL
REMARK 924 INTRA-LIGAND FREE ENERGY PREDICTED BY IDOCK:   -1.26 KCAL/MOL
REMARK 927      BINDING AFFINITY PREDICTED BY RF-SCORE:    0.00 PKD
ROOT
HETATM    1  C   UNL     1     -12.764  12.484  70.197  1.00  0.00     0.193 C  
HETATM    2  C   UNL     1     -12.035  11.439  69.282  1.00  0.00    -0.332 C  
HETATM    3  C   UNL     1     -11.504  10.177  69.980  1.00  0.00    -0.344 C  
HETATM    4  C   UNL     1     -12.141  13.945  70.347  1.00  0.00    -0.421 C  
HETATM    5  C   UNL     1     -12.529   9.510  70.880  1.00  0.00    -0.277 C  
HETATM    6  C   UNL     1     -14.270  15.416  70.734  1.00  0.00     0.165 C  
HETATM    7  C   UNL     1     -13.012  14.792  71.354  1.00  0.00    -0.413 C  
HETATM    8  C   UNL     1     -13.020  10.534  71.851  1.00  0.00    -0.553 C  
HETATM    9  C   UNL     1     -13.424  14.050  72.582  1.00  0.00    -0.650 C  
HETATM   10  C   UNL     1     -11.885   8.315  71.596  1.00  0.00    -0.345 C  
HETATM   11  C   UNL     1     -13.079  11.854  71.581  1.00  0.00    -0.433 C  
HETATM   12  C   UNL     1     -13.450  12.722  72.674  1.00  0.00    -0.128 C  
ENDROOT
BRANCH   2  13
HETATM   13  O   UNL     1     -10.859  11.964  68.665  1.00  0.00    -0.216 OA 
BRANCH  13  14
HETATM   14  C   UNL     1     -10.847  12.041  67.313  1.00  0.00    -0.246 C  
HETATM   15  C   UNL     1      -9.946  10.830  64.672  1.00  0.00    -0.386 C  
HETATM   16  C   UNL     1      -9.419  12.138  66.795  1.00  0.00    -0.213 C  
HETATM   17  O   UNL     1     -11.849  12.092  66.613  1.00  0.00    -0.583 OA 
HETATM   18  C   UNL     1      -9.096  10.913  65.934  1.00  0.00    -0.212 C  
HETATM   19  C   UNL     1      -8.391  12.286  67.928  1.00  0.00    -0.163 C  
ENDBRANCH  13  14
ENDBRANCH   2  13
BRANCH   4  20
HETATM   20  C   UNL     1     -11.865  14.849  69.074  1.00  0.00    -0.333 C  
BRANCH  20  21
HETATM   21  C   UNL     1     -10.974  16.057  69.456  1.00  0.00    -0.326 C  
BRANCH  21  22
HETATM   22  C   UNL     1     -10.521  17.100  68.432  1.00  0.00    -0.376 C  
HETATM   23  C   UNL     1      -9.478  16.647  67.428  1.00  0.00    -0.232 C  
HETATM   24  C   UNL     1      -9.409  17.692  66.320  1.00  0.00    -0.197 C  
HETATM   25  O   UNL     1     -10.539  17.587  65.444  1.00  0.00    -0.648 OA 
HETATM   26  C   UNL     1      -9.270  19.104  66.869  1.00  0.00    -0.348 C  
HETATM   27  C   UNL     1     -10.036  19.383  68.150  1.00  0.00    -0.413 C  
HETATM   28  H   UNL     1     -10.496  18.238  64.754  1.00  0.00     0.000 HD 
HETATM   29  O   UNL     1     -10.425  20.503  68.447  1.00  0.00    -0.161 OA 
HETATM   30  O   UNL     1     -10.117  18.338  69.028  1.00  0.00    -0.379 OA 
ENDBRANCH  21  22
ENDBRANCH  20  21
ENDBRANCH   4  20
TORSDOF 5
ENDMDL
MODEL       18
REMARK 921   NORMALIZED FREE ENERGY PREDICTED BY IDOCK:   -6.65 KCAL/MOL
REMARK 922        TOTAL FREE ENERGY PREDICTED BY IDOCK:  -10.18 KCAL/MOL
REMARK 923 INTER-LIGAND FREE ENERGY PREDICTED BY IDOCK:   -8.89 KCAL/MOL
REMARK 924 INTRA-LIGAND FREE ENERGY PREDICTED BY IDOCK:   -1.29 KCAL/MOL
REMARK 927      BINDING AFFINITY PREDICTED BY RF-SCORE:    0.00 PKD
ROOT
HETATM    1  C   UNL     1     -10.994   8.830  68.463  1.00  0.00     0.096 C  
HETATM    2  C   UNL     1     -10.476   8.583  67.003  1.00  0.00    -0.292 C  
HETATM    3  C   UNL     1      -9.824   7.218  66.733  1.00  0.00    -0.281 C  
HETATM    4  C   UNL     1     -10.342  10.002  69.326  1.00  0.00    -0.237 C  
HETATM    5  C   UNL     1     -10.650   6.046  67.236  1.00  0.00    -0.367 C  
HETATM    6  C   UNL     1     -12.334  10.739  70.852  1.00  0.00    -0.497 C  
HETATM    7  C   UNL     1     -10.981  10.019  70.767  1.00  0.00    -0.375 C  
HETATM    8  C   UNL     1     -10.923   6.271  68.688  1.00  0.00    -0.423 C  
HETATM    9  C   UNL     1     -11.140   8.668  71.383  1.00  0.00    -0.343 C  
HETATM   10  C   UNL     1      -9.883   4.738  67.000  1.00  0.00    -0.224 C  
HETATM   11  C   UNL     1     -11.025   7.492  69.250  1.00  0.00    -0.057 C  
HETATM   12  C   UNL     1     -11.158   7.532  70.688  1.00  0.00    -0.280 C  
ENDROOT
BRANCH   2  13
HETATM   13  O   UNL     1      -9.446   9.495  66.617  1.00  0.00    -0.152 OA 
BRANCH  13  14
HETATM   14  C   UNL     1      -9.337   9.788  65.300  1.00  0.00    -0.255 C  
HETATM   15  C   UNL     1      -8.482   8.890  62.521  1.00  0.00    -0.207 C  
HETATM   16  C   UNL     1      -7.883   9.722  64.854  1.00  0.00    -0.133 C  
HETATM   17  O   UNL     1     -10.271  10.124  64.585  1.00  0.00    -0.279 OA 
HETATM   18  C   UNL     1      -7.711   8.618  63.807  1.00  0.00    -0.136 C  
HETATM   19  C   UNL     1      -6.917   9.504  66.030  1.00  0.00    -0.091 C  
ENDBRANCH  13  14
ENDBRANCH   2  13
BRANCH   4  20
HETATM   20  C   UNL     1     -10.323  11.495  68.791  1.00  0.00    -0.213 C  
BRANCH  20  21
HETATM   21  C   UNL     1     -11.580  11.773  67.932  1.00  0.00    -0.377 C  
BRANCH  21  22
HETATM   22  C   UNL     1     -11.539  12.642  66.673  1.00  0.00    -0.381 C  
HETATM   23  C   UNL     1     -11.436  14.140  66.893  1.00  0.00    -0.373 C  
HETATM   24  C   UNL     1     -11.080  14.786  65.559  1.00  0.00    -0.346 C  
HETATM   25  O   UNL     1      -9.699  14.571  65.238  1.00  0.00    -0.520 OA 
HETATM   26  C   UNL     1     -11.986  14.316  64.431  1.00  0.00    -0.476 C  
HETATM   27  C   UNL     1     -12.405  12.859  64.498  1.00  0.00    -0.417 C  
HETATM   28  H   UNL     1      -9.477  14.973  64.406  1.00  0.00     0.000 HD 
HETATM   29  O   UNL     1     -12.694  12.216  63.499  1.00  0.00    -0.718 OA 
HETATM   30  O   UNL     1     -12.601  12.358  65.755  1.00  0.00    -0.532 OA 
ENDBRANCH  21  22
ENDBRANCH  20  21
ENDBRANCH   4  20
TORSDOF 5
ENDMDL
MODEL       19
REMARK 921   NORMALIZED FREE ENERGY PREDICTED BY IDOCK:   -6.64 KCAL/MOL
REMARK 922        TOTAL FREE ENERGY PREDICTED BY IDOCK:  -10.17 KCAL/MOL
REMARK 923 INTER-LIGAND FREE ENERGY PREDICTED BY IDOCK:  -10.09 KCAL/MOL
REMARK 924 INTRA-LIGAND FREE ENERGY PREDICTED BY IDOCK:   -0.08 KCAL/MOL
REMARK 927      BINDING AFFINITY PREDICTED BY RF-SCORE:    0.00 PKD
ROOT
HETATM    1  C   UNL     1     -11.179  13.192  68.051  1.00  0.00    -0.308 C  
HETATM    2  C   UNL     1     -12.072  14.250  68.788  1.00  0.00    -0.265 C  
HETATM    3  C   UNL     1     -11.437  15.629  69.026  1.00  0.00    -0.369 C  
HETATM    4  C   UNL     1     -10.777  11.853  68.819  1.00  0.00    -0.257 C  
HETATM    5  C   UNL     1     -10.786  16.216  67.786  1.00  0.00    -0.318 C  
HETATM    6  C   UNL     1     -10.579  10.130  66.860  1.00  0.00    -0.267 C  
HETATM    7  C   UNL     1      -9.837  10.978  67.904  1.00  0.00    -0.186 C  
HETATM    8  C   UNL     1      -9.802  15.217  67.270  1.00  0.00    -0.228 C  
HETATM    9  C   UNL     1      -8.775  11.753  67.196  1.00  0.00    -0.169 C  
HETATM   10  C   UNL     1     -10.109  17.546  68.140  1.00  0.00    -0.341 C  
HETATM   11  C   UNL     1      -9.937  13.884  67.426  1.00  0.00    -0.240 C  
HETATM   12  C   UNL     1      -8.830  13.066  66.986  1.00  0.00    -0.213 C  
ENDROOT
BRANCH   2  13
HETATM   13  O   UNL     1     -12.435  13.849  70.109  1.00  0.00    -0.333 OA 
BRANCH  13  14
HETATM   14  C   UNL     1     -13.041  14.770  70.895  1.00  0.00    -0.363 C  
HETATM   15  C   UNL     1     -13.131  16.215  73.571  1.00  0.00    -0.594 C  
HETATM   16  C   UNL     1     -13.559  14.127  72.173  1.00  0.00    -0.568 C  
HETATM   17  O   UNL     1     -13.205  15.943  70.587  1.00  0.00    -0.447 OA 
HETATM   18  C   UNL     1     -12.842  14.731  73.385  1.00  0.00    -0.597 C  
HETATM   19  C   UNL     1     -13.408  12.598  72.165  1.00  0.00    -0.570 C  
ENDBRANCH  13  14
ENDBRANCH   2  13
BRANCH   4  20
HETATM   20  C   UNL     1     -11.887  10.895  69.423  1.00  0.00    -0.400 C  
BRANCH  20  21
HETATM   21  C   UNL     1     -11.336  10.150  70.665  1.00  0.00    -0.433 C  
BRANCH  21  22
HETATM   22  C   UNL     1     -11.407   8.628  70.808  1.00  0.00    -0.263 C  
HETATM   23  C   UNL     1     -11.056   8.065  72.172  1.00  0.00    -0.372 C  
HETATM   24  C   UNL     1     -11.497   6.606  72.204  1.00  0.00    -0.287 C  
HETATM   25  O   UNL     1     -12.921   6.505  72.345  1.00  0.00    -0.533 OA 
HETATM   26  C   UNL     1     -11.010   5.830  70.991  1.00  0.00    -0.300 C  
HETATM   27  C   UNL     1     -10.993   6.604  69.685  1.00  0.00    -0.313 C  
HETATM   28  H   UNL     1     -13.196   5.596  72.365  1.00  0.00     0.000 HD 
HETATM   29  O   UNL     1     -11.104   6.056  68.599  1.00  0.00    -0.315 OA 
HETATM   30  O   UNL     1     -10.678   7.931  69.791  1.00  0.00    -0.244 OA 
ENDBRANCH  21  22
ENDBRANCH  20  21
ENDBRANCH   4  20
TORSDOF 5
ENDMDL
MODEL       20
REMARK 921   NORMALIZED FREE ENERGY PREDICTED BY IDOCK:   -6.59 KCAL/MOL
REMARK 922        TOTAL FREE ENERGY PREDICTED BY IDOCK:  -10.10 KCAL/MOL
REMARK 923 INTER-LIGAND FREE ENERGY PREDICTED BY IDOCK:   -9.28 KCAL/MOL
REMARK 924 INTRA-LIGAND FREE ENERGY PREDICTED BY IDOCK:   -0.82 KCAL/MOL
REMARK 927      BINDING AFFINITY PREDICTED BY RF-SCORE:    0.00 PKD
ROOT
HETATM    1  C   UNL     1     -11.399  11.443  67.369  1.00  0.00    -0.359 C  
HETATM    2  C   UNL     1     -11.999  12.789  67.904  1.00  0.00    -0.266 C  
HETATM    3  C   UNL     1     -11.890  14.004  66.968  1.00  0.00    -0.458 C  
HETATM    4  C   UNL     1     -10.180  10.777  68.151  1.00  0.00    -0.194 C  
HETATM    5  C   UNL     1     -12.349  13.714  65.550  1.00  0.00    -0.519 C  
HETATM    6  C   UNL     1     -10.562   8.227  67.704  1.00  0.00    -0.264 C  
HETATM    7  C   UNL     1      -9.716   9.471  67.398  1.00  0.00    -0.201 C  
HETATM    8  C   UNL     1     -11.575  12.537  65.051  1.00  0.00    -0.392 C  
HETATM    9  C   UNL     1      -9.631   9.617  65.914  1.00  0.00    -0.321 C  
HETATM   10  C   UNL     1     -12.123  14.953  64.673  1.00  0.00    -0.387 C  
HETATM   11  C   UNL     1     -11.106  11.557  65.848  1.00  0.00    -0.274 C  
HETATM   12  C   UNL     1     -10.263  10.563  65.224  1.00  0.00    -0.352 C  
ENDROOT
BRANCH   2  13
HETATM   13  O   UNL     1     -11.350  13.257  69.088  1.00  0.00    -0.266 OA 
BRANCH  13  14
HETATM   14  C   UNL     1     -12.097  13.349  70.212  1.00  0.00    -0.349 C  
HETATM   15  C   UNL     1     -14.327  14.772  71.716  1.00  0.00    -0.656 C  
HETATM   16  C   UNL     1     -11.927  14.716  70.859  1.00  0.00    -0.388 C  
HETATM   17  O   UNL     1     -12.764  12.435  70.678  1.00  0.00    -0.180 OA 
HETATM   18  C   UNL     1     -13.267  15.458  70.863  1.00  0.00    -0.512 C  
HETATM   19  C   UNL     1     -10.845  15.562  70.169  1.00  0.00    -0.346 C  
ENDBRANCH  13  14
ENDBRANCH   2  13
BRANCH   4  20
HETATM   20  C   UNL     1     -10.294  10.426  69.694  1.00  0.00    -0.261 C  
BRANCH  20  21
HETATM   21  C   UNL     1      -9.082   9.573  70.142  1.00  0.00    -0.276 C  
BRANCH  21  22
HETATM   22  C   UNL     1      -9.126   8.667  71.375  1.00  0.00    -0.229 C  
HETATM   23  C   UNL     1     -10.461   8.566  72.087  1.00  0.00    -0.412 C  
HETATM   24  C   UNL     1     -10.387   7.393  73.058  1.00  0.00    -0.306 C  
HETATM   25  O   UNL     1     -10.475   6.143  72.360  1.00  0.00    -0.190 OA 
HETATM   26  C   UNL     1      -9.142   7.446  73.931  1.00  0.00    -0.298 C  
HETATM   27  C   UNL     1      -7.890   7.967  73.249  1.00  0.00    -0.167 C  
HETATM   28  H   UNL     1     -10.429   5.412  72.965  1.00  0.00     0.000 HD 
HETATM   29  O   UNL     1      -6.768   7.640  73.606  1.00  0.00    -0.078 OA 
HETATM   30  O   UNL     1      -8.090   8.953  72.322  1.00  0.00    -0.376 OA 
ENDBRANCH  21  22
ENDBRANCH  20  21
ENDBRANCH   4  20
TORSDOF 5
ENDMDL
MODEL       21
REMARK 921   NORMALIZED FREE ENERGY PREDICTED BY IDOCK:   -6.59 KCAL/MOL
REMARK 922        TOTAL FREE ENERGY PREDICTED BY IDOCK:  -10.09 KCAL/MOL
REMARK 923 INTER-LIGAND FREE ENERGY PREDICTED BY IDOCK:   -8.42 KCAL/MOL
REMARK 924 INTRA-LIGAND FREE ENERGY PREDICTED BY IDOCK:   -1.68 KCAL/MOL
REMARK 927      BINDING AFFINITY PREDICTED BY RF-SCORE:    0.00 PKD
ROOT
HETATM    1  C   UNL     1     -11.758  13.629  67.770  1.00  0.00    -0.397 C  
HETATM    2  C   UNL     1     -12.031  12.996  69.179  1.00  0.00    -0.271 C  
HETATM    3  C   UNL     1     -11.666  13.861  70.395  1.00  0.00    -0.269 C  
HETATM    4  C   UNL     1     -10.708  12.923  66.798  1.00  0.00    -0.276 C  
HETATM    5  C   UNL     1     -12.200  15.280  70.309  1.00  0.00    -0.403 C  
HETATM    6  C   UNL     1     -11.661  13.511  64.433  1.00  0.00    -0.443 C  
HETATM    7  C   UNL     1     -10.561  13.766  65.474  1.00  0.00    -0.312 C  
HETATM    8  C   UNL     1     -11.719  15.871  69.023  1.00  0.00    -0.377 C  
HETATM    9  C   UNL     1     -10.469  15.241  65.692  1.00  0.00    -0.377 C  
HETATM   10  C   UNL     1     -11.715  16.088  71.519  1.00  0.00    -0.554 C  
HETATM   11  C   UNL     1     -11.470  15.148  67.913  1.00  0.00    -0.344 C  
HETATM   12  C   UNL     1     -10.882  15.854  66.798  1.00  0.00    -0.228 C  
ENDROOT
BRANCH   2  13
HETATM   13  O   UNL     1     -11.275  11.807  69.412  1.00  0.00    -0.253 OA 
BRANCH  13  14
HETATM   14  C   UNL     1     -11.947  10.720  69.859  1.00  0.00    -0.342 C  
HETATM   15  C   UNL     1     -12.464   8.766  72.133  1.00  0.00    -0.460 C  
HETATM   16  C   UNL     1     -10.977   9.612  70.244  1.00  0.00    -0.337 C  
HETATM   17  O   UNL     1     -13.166  10.622  69.886  1.00  0.00    -0.030 OA 
HETATM   18  C   UNL     1     -11.098   9.315  71.741  1.00  0.00    -0.398 C  
HETATM   19  C   UNL     1      -9.523   9.949  69.877  1.00  0.00    -0.256 C  
ENDBRANCH  13  14
ENDBRANCH   2  13
BRANCH   4  20
HETATM   20  C   UNL     1     -10.875  11.402  66.383  1.00  0.00    -0.323 C  
BRANCH  20  21
HETATM   21  C   UNL     1      -9.487  10.729  66.238  1.00  0.00    -0.213 C  
BRANCH  21  22
HETATM   22  C   UNL     1      -9.286   9.220  66.392  1.00  0.00    -0.192 C  
HETATM   23  C   UNL     1      -8.609   8.511  65.234  1.00  0.00    -0.192 C  
HETATM   24  C   UNL     1      -8.211   7.117  65.707  1.00  0.00    -0.132 C  
HETATM   25  O   UNL     1      -7.060   7.175  66.561  1.00  0.00    -0.073 OA 
HETATM   26  C   UNL     1      -9.361   6.388  66.385  1.00  0.00    -0.176 C  
HETATM   27  C   UNL     1     -10.278   7.258  67.226  1.00  0.00    -0.253 C  
HETATM   28  H   UNL     1      -6.812   6.308  66.856  1.00  0.00     0.000 HD 
HETATM   29  O   UNL     1     -10.907   6.816  68.176  1.00  0.00    -0.233 OA 
HETATM   30  O   UNL     1     -10.485   8.525  66.754  1.00  0.00    -0.303 OA 
ENDBRANCH  21  22
ENDBRANCH  20  21
ENDBRANCH   4  20
TORSDOF 5
ENDMDL
MODEL       22
REMARK 921   NORMALIZED FREE ENERGY PREDICTED BY IDOCK:   -6.52 KCAL/MOL
REMARK 922        TOTAL FREE ENERGY PREDICTED BY IDOCK:  -10.01 KCAL/MOL
REMARK 923 INTER-LIGAND FREE ENERGY PREDICTED BY IDOCK:   -8.69 KCAL/MOL
REMARK 924 INTRA-LIGAND FREE ENERGY PREDICTED BY IDOCK:   -1.33 KCAL/MOL
REMARK 927      BINDING AFFINITY PREDICTED BY RF-SCORE:    0.00 PKD
ROOT
HETATM    1  C   UNL     1     -10.016   9.361  68.434  1.00  0.00    -0.191 C  
HETATM    2  C   UNL     1      -9.936   7.948  69.109  1.00  0.00    -0.184 C  
HETATM    3  C   UNL     1     -10.192   6.741  68.193  1.00  0.00    -0.198 C  
HETATM    4  C   UNL     1     -11.131  10.390  68.927  1.00  0.00    -0.296 C  
HETATM    5  C   UNL     1      -9.396   6.786  66.900  1.00  0.00    -0.176 C  
HETATM    6  C   UNL     1      -9.969  12.700  68.527  1.00  0.00    -0.166 C  
HETATM    7  C   UNL     1     -11.051  11.711  68.069  1.00  0.00    -0.299 C  
HETATM    8  C   UNL     1      -9.693   8.087  66.226  1.00  0.00    -0.197 C  
HETATM    9  C   UNL     1     -10.874  11.481  66.605  1.00  0.00    -0.335 C  
HETATM   10  C   UNL     1      -9.779   5.591  66.017  1.00  0.00    -0.107 C  
HETATM   11  C   UNL     1     -10.019   9.215  66.888  1.00  0.00    -0.304 C  
HETATM   12  C   UNL     1     -10.407  10.349  66.082  1.00  0.00    -0.269 C  
ENDROOT
BRANCH   2  13
HETATM   13  O   UNL     1     -10.914   7.764  70.134  1.00  0.00    -0.256 OA 
BRANCH  13  14
HETATM   14  C   UNL     1     -10.463   7.527  71.388  1.00  0.00    -0.209 C  
HETATM   15  C   UNL     1     -10.165   5.561  73.691  1.00  0.00    -0.237 C  
HETATM   16  C   UNL     1     -11.613   7.137  72.307  1.00  0.00    -0.309 C  
HETATM   17  O   UNL     1      -9.302   7.672  71.747  1.00  0.00    -0.142 OA 
HETATM   18  C   UNL     1     -11.405   5.708  72.818  1.00  0.00    -0.350 C  
HETATM   19  C   UNL     1     -12.983   7.271  71.622  1.00  0.00    -0.417 C  
ENDBRANCH  13  14
ENDBRANCH   2  13
BRANCH   4  20
HETATM   20  C   UNL     1     -11.234  10.813  70.452  1.00  0.00    -0.270 C  
BRANCH  20  21
HETATM   21  C   UNL     1     -12.562  11.566  70.712  1.00  0.00    -0.390 C  
BRANCH  21  22
HETATM   22  C   UNL     1     -12.602  12.999  71.248  1.00  0.00    -0.279 C  
HETATM   23  C   UNL     1     -13.700  13.313  72.246  1.00  0.00    -0.686 C  
HETATM   24  C   UNL     1     -13.375  14.655  72.893  1.00  0.00    -0.487 C  
HETATM   25  O   UNL     1     -12.316  14.519  73.850  1.00  0.00    -0.403 OA 
HETATM   26  C   UNL     1     -13.052  15.727  71.865  1.00  0.00    -0.492 C  
HETATM   27  C   UNL     1     -12.283  15.250  70.646  1.00  0.00    -0.364 C  
HETATM   28  H   UNL     1     -12.113  15.354  74.253  1.00  0.00     0.000 HD 
HETATM   29  O   UNL     1     -11.552  15.989  70.005  1.00  0.00    -0.332 OA 
HETATM   30  O   UNL     1     -12.588  13.989  70.213  1.00  0.00    -0.342 OA 
ENDBRANCH  21  22
ENDBRANCH  20  21
ENDBRANCH   4  20
TORSDOF 5
ENDMDL
MODEL       23
REMARK 921   NORMALIZED FREE ENERGY PREDICTED BY IDOCK:   -6.48 KCAL/MOL
REMARK 922        TOTAL FREE ENERGY PREDICTED BY IDOCK:   -9.95 KCAL/MOL
REMARK 923 INTER-LIGAND FREE ENERGY PREDICTED BY IDOCK:   -8.48 KCAL/MOL
REMARK 924 INTRA-LIGAND FREE ENERGY PREDICTED BY IDOCK:   -1.48 KCAL/MOL
REMARK 927      BINDING AFFINITY PREDICTED BY RF-SCORE:    0.00 PKD
ROOT
HETATM    1  C   UNL     1     -11.773  12.985  67.653  1.00  0.00    -0.415 C  
HETATM    2  C   UNL     1     -11.996  12.668  69.173  1.00  0.00    -0.243 C  
HETATM    3  C   UNL     1     -11.547  13.751  70.167  1.00  0.00    -0.230 C  
HETATM    4  C   UNL     1     -10.792  12.054  66.807  1.00  0.00    -0.307 C  
HETATM    5  C   UNL     1     -12.043  15.141  69.809  1.00  0.00    -0.354 C  
HETATM    6  C   UNL     1     -11.841  12.177  64.413  1.00  0.00    -0.436 C  
HETATM    7  C   UNL     1     -10.685  12.599  65.331  1.00  0.00    -0.308 C  
HETATM    8  C   UNL     1     -11.607  15.435  68.410  1.00  0.00    -0.368 C  
HETATM    9  C   UNL     1     -10.539  14.082  65.234  1.00  0.00    -0.376 C  
HETATM   10  C   UNL     1     -11.476  16.161  70.805  1.00  0.00    -0.408 C  
HETATM   11  C   UNL     1     -11.433  14.488  67.466  1.00  0.00    -0.375 C  
HETATM   12  C   UNL     1     -10.880  14.926  66.205  1.00  0.00    -0.331 C  
ENDROOT
BRANCH   2  13
HETATM   13  O   UNL     1     -11.265  11.524  69.617  1.00  0.00    -0.251 OA 
BRANCH  13  14
HETATM   14  C   UNL     1     -11.979  10.467  70.070  1.00  0.00    -0.288 C  
HETATM   15  C   UNL     1     -12.565   8.543  72.353  1.00  0.00    -0.409 C  
HETATM   16  C   UNL     1     -11.053   9.321  70.455  1.00  0.00    -0.300 C  
HETATM   17  O   UNL     1     -13.200  10.419  70.104  1.00  0.00    -0.086 OA 
HETATM   18  C   UNL     1     -11.179   9.034  71.953  1.00  0.00    -0.438 C  
HETATM   19  C   UNL     1      -9.588   9.597  70.079  1.00  0.00    -0.281 C  
ENDBRANCH  13  14
ENDBRANCH   2  13
BRANCH   4  20
HETATM   20  C   UNL     1     -11.024  10.487  66.724  1.00  0.00    -0.150 C  
BRANCH  20  21
HETATM   21  C   UNL     1      -9.715   9.772  66.309  1.00  0.00    -0.295 C  
BRANCH  21  22
HETATM   22  C   UNL     1      -9.621   8.251  66.161  1.00  0.00    -0.147 C  
HETATM   23  C   UNL     1     -10.074   7.432  67.355  1.00  0.00    -0.274 C  
HETATM   24  C   UNL     1     -10.214   5.983  66.901  1.00  0.00    -0.210 C  
HETATM   25  O   UNL     1     -11.402   5.804  66.117  1.00  0.00    -0.711 OA 
HETATM   26  C   UNL     1      -8.984   5.491  66.153  1.00  0.00    -0.146 C  
HETATM   27  C   UNL     1      -8.310   6.518  65.263  1.00  0.00    -0.121 C  
HETATM   28  H   UNL     1     -11.490   4.902  65.835  1.00  0.00     0.000 HD 
HETATM   29  O   UNL     1      -7.662   6.203  64.276  1.00  0.00    -0.092 OA 
HETATM   30  O   UNL     1      -8.331   7.805  65.726  1.00  0.00    -0.124 OA 
ENDBRANCH  21  22
ENDBRANCH  20  21
ENDBRANCH   4  20
TORSDOF 5
ENDMDL
MODEL       24
REMARK 921   NORMALIZED FREE ENERGY PREDICTED BY IDOCK:   -6.42 KCAL/MOL
REMARK 922        TOTAL FREE ENERGY PREDICTED BY IDOCK:   -9.88 KCAL/MOL
REMARK 923 INTER-LIGAND FREE ENERGY PREDICTED BY IDOCK:   -8.40 KCAL/MOL
REMARK 924 INTRA-LIGAND FREE ENERGY PREDICTED BY IDOCK:   -1.49 KCAL/MOL
REMARK 927      BINDING AFFINITY PREDICTED BY RF-SCORE:    0.00 PKD
ROOT
HETATM    1  C   UNL     1      -9.127   9.589  67.494  1.00  0.00    -0.142 C  
HETATM    2  C   UNL     1      -8.943   8.503  68.611  1.00  0.00    -0.139 C  
HETATM    3  C   UNL     1      -9.117   7.040  68.172  1.00  0.00    -0.128 C  
HETATM    4  C   UNL     1     -10.310  10.650  67.637  1.00  0.00    -0.246 C  
HETATM    5  C   UNL     1      -8.334   6.689  66.919  1.00  0.00    -0.114 C  
HETATM    6  C   UNL     1      -9.318  12.750  66.433  1.00  0.00    -0.196 C  
HETATM    7  C   UNL     1     -10.329  11.596  66.376  1.00  0.00    -0.266 C  
HETATM    8  C   UNL     1      -8.727   7.656  65.850  1.00  0.00    -0.176 C  
HETATM    9  C   UNL     1     -10.145  10.888  65.075  1.00  0.00    -0.362 C  
HETATM   10  C   UNL     1      -8.636   5.241  66.513  1.00  0.00    -0.112 C  
HETATM   11  C   UNL     1      -9.129   8.919  66.093  1.00  0.00    -0.251 C  
HETATM   12  C   UNL     1      -9.602   9.678  64.959  1.00  0.00    -0.284 C  
ENDROOT
BRANCH   2  13
HETATM   13  O   UNL     1      -9.898   8.621  69.666  1.00  0.00    -0.180 OA 
BRANCH  13  14
HETATM   14  C   UNL     1      -9.425   8.866  70.910  1.00  0.00    -0.236 C  
HETATM   15  C   UNL     1      -9.131   7.921  73.787  1.00  0.00    -0.306 C  
HETATM   16  C   UNL     1     -10.563   8.899  71.920  1.00  0.00    -0.419 C  
HETATM   17  O   UNL     1      -8.252   9.093  71.173  1.00  0.00    -0.240 OA 
HETATM   18  C   UNL     1     -10.386   7.769  72.938  1.00  0.00    -0.396 C  
HETATM   19  C   UNL     1     -11.945   8.812  71.252  1.00  0.00    -0.353 C  
ENDBRANCH  13  14
ENDBRANCH   2  13
BRANCH   4  20
HETATM   20  C   UNL     1     -10.433  11.565  68.927  1.00  0.00    -0.212 C  
BRANCH  20  21
HETATM   21  C   UNL     1     -11.898  12.030  69.117  1.00  0.00    -0.369 C  
BRANCH  21  22
HETATM   22  C   UNL     1     -12.272  13.227  69.994  1.00  0.00    -0.275 C  
HETATM   23  C   UNL     1     -11.276  14.370  70.032  1.00  0.00    -0.193 C  
HETATM   24  C   UNL     1     -11.964  15.570  70.673  1.00  0.00    -0.378 C  
HETATM   25  O   UNL     1     -12.883  16.182  69.759  1.00  0.00    -0.516 OA 
HETATM   26  C   UNL     1     -12.650  15.210  71.982  1.00  0.00    -0.416 C  
HETATM   27  C   UNL     1     -13.293  13.836  72.023  1.00  0.00    -0.447 C  
HETATM   28  H   UNL     1     -13.312  16.930  70.158  1.00  0.00     0.000 HD 
HETATM   29  O   UNL     1     -14.246  13.582  72.745  1.00  0.00    -0.692 OA 
HETATM   30  O   UNL     1     -12.638  12.856  71.328  1.00  0.00    -0.350 OA 
ENDBRANCH  21  22
ENDBRANCH  20  21
ENDBRANCH   4  20
TORSDOF 5
ENDMDL
MODEL       25
REMARK 921   NORMALIZED FREE ENERGY PREDICTED BY IDOCK:   -6.38 KCAL/MOL
REMARK 922        TOTAL FREE ENERGY PREDICTED BY IDOCK:   -9.83 KCAL/MOL
REMARK 923 INTER-LIGAND FREE ENERGY PREDICTED BY IDOCK:   -8.64 KCAL/MOL
REMARK 924 INTRA-LIGAND FREE ENERGY PREDICTED BY IDOCK:   -1.19 KCAL/MOL
REMARK 927      BINDING AFFINITY PREDICTED BY RF-SCORE:    0.00 PKD
ROOT
HETATM    1  C   UNL     1      -9.863  11.758  65.421  1.00  0.00    -0.261 C  
HETATM    2  C   UNL     1      -8.640  10.821  65.716  1.00  0.00    -0.183 C  
HETATM    3  C   UNL     1      -8.482   9.598  64.799  1.00  0.00    -0.168 C  
HETATM    4  C   UNL     1     -10.991  11.927  66.536  1.00  0.00    -0.337 C  
HETATM    5  C   UNL     1      -8.581   9.936  63.321  1.00  0.00    -0.204 C  
HETATM    6  C   UNL     1     -11.835  14.366  66.102  1.00  0.00    -0.391 C  
HETATM    7  C   UNL     1     -12.137  12.864  65.992  1.00  0.00    -0.484 C  
HETATM    8  C   UNL     1      -9.875  10.650  63.102  1.00  0.00    -0.351 C  
HETATM    9  C   UNL     1     -12.547  12.579  64.585  1.00  0.00    -0.507 C  
HETATM   10  C   UNL     1      -8.498   8.648  62.492  1.00  0.00    -0.179 C  
HETATM   11  C   UNL     1     -10.477  11.413  64.037  1.00  0.00    -0.435 C  
HETATM   12  C   UNL     1     -11.789  11.922  63.710  1.00  0.00    -0.558 C  
ENDROOT
BRANCH   2  13
HETATM   13  O   UNL     1      -8.695  10.225  67.013  1.00  0.00    -0.129 OA 
BRANCH  13  14
HETATM   14  C   UNL     1      -7.909  10.759  67.977  1.00  0.00    -0.106 C  
HETATM   15  C   UNL     1      -5.677  10.347  70.003  1.00  0.00    -0.055 C  
HETATM   16  C   UNL     1      -8.104  10.022  69.295  1.00  0.00    -0.141 C  
HETATM   17  O   UNL     1      -7.193  11.738  67.824  1.00  0.00    -0.085 OA 
HETATM   18  C   UNL     1      -6.793   9.350  69.712  1.00  0.00    -0.055 C  
HETATM   19  C   UNL     1      -9.241   8.991  69.230  1.00  0.00    -0.145 C  
ENDBRANCH  13  14
ENDBRANCH   2  13
BRANCH   4  20
HETATM   20  C   UNL     1     -10.625  12.416  67.999  1.00  0.00    -0.238 C  
BRANCH  20  21
HETATM   21  C   UNL     1     -11.830  12.211  68.951  1.00  0.00    -0.358 C  
BRANCH  21  22
HETATM   22  C   UNL     1     -12.272  13.276  69.957  1.00  0.00    -0.275 C  
HETATM   23  C   UNL     1     -11.379  14.496  70.079  1.00  0.00    -0.274 C  
HETATM   24  C   UNL     1     -12.143  15.559  70.861  1.00  0.00    -0.385 C  
HETATM   25  O   UNL     1     -13.149  16.172  70.043  1.00  0.00    -0.497 OA 
HETATM   26  C   UNL     1     -12.741  15.010  72.147  1.00  0.00    -0.406 C  
HETATM   27  C   UNL     1     -13.260  13.586  72.068  1.00  0.00    -0.439 C  
HETATM   28  H   UNL     1     -13.625  16.834  70.529  1.00  0.00     0.000 HD 
HETATM   29  O   UNL     1     -14.157  13.176  72.790  1.00  0.00    -0.641 OA 
HETATM   30  O   UNL     1     -12.550  12.744  71.257  1.00  0.00    -0.353 OA 
ENDBRANCH  21  22
ENDBRANCH  20  21
ENDBRANCH   4  20
TORSDOF 5
ENDMDL
MODEL       26
REMARK 921   NORMALIZED FREE ENERGY PREDICTED BY IDOCK:   -6.30 KCAL/MOL
REMARK 922        TOTAL FREE ENERGY PREDICTED BY IDOCK:   -9.73 KCAL/MOL
REMARK 923 INTER-LIGAND FREE ENERGY PREDICTED BY IDOCK:   -8.62 KCAL/MOL
REMARK 924 INTRA-LIGAND FREE ENERGY PREDICTED BY IDOCK:   -1.11 KCAL/MOL
REMARK 927      BINDING AFFINITY PREDICTED BY RF-SCORE:    0.00 PKD
ROOT
HETATM    1  C   UNL     1      -9.875  11.860  65.378  1.00  0.00    -0.258 C  
HETATM    2  C   UNL     1      -8.707  10.849  65.651  1.00  0.00    -0.183 C  
HETATM    3  C   UNL     1      -8.629   9.630  64.718  1.00  0.00    -0.197 C  
HETATM    4  C   UNL     1     -10.982  12.082  66.504  1.00  0.00    -0.337 C  
HETATM    5  C   UNL     1      -8.719   9.992  63.245  1.00  0.00    -0.223 C  
HETATM    6  C   UNL     1     -11.683  14.571  66.107  1.00  0.00    -0.355 C  
HETATM    7  C   UNL     1     -12.075  13.092  65.982  1.00  0.00    -0.493 C  
HETATM    8  C   UNL     1      -9.971  10.784  63.046  1.00  0.00    -0.291 C  
HETATM    9  C   UNL     1     -12.512  12.849  64.575  1.00  0.00    -0.468 C  
HETATM   10  C   UNL     1      -8.719   8.711  62.400  1.00  0.00    -0.112 C  
HETATM   11  C   UNL     1     -10.519  11.569  63.995  1.00  0.00    -0.424 C  
HETATM   12  C   UNL     1     -11.801  12.159  63.686  1.00  0.00    -0.608 C  
ENDROOT
BRANCH   2  13
HETATM   13  O   UNL     1      -8.787  10.241  66.941  1.00  0.00    -0.132 OA 
BRANCH  13  14
HETATM   14  C   UNL     1      -7.953   9.205  67.193  1.00  0.00    -0.106 C  
HETATM   15  C   UNL     1      -7.202   6.308  66.641  1.00  0.00    -0.074 C  
HETATM   16  C   UNL     1      -8.725   8.020  67.757  1.00  0.00    -0.127 C  
HETATM   17  O   UNL     1      -6.739   9.241  67.048  1.00  0.00    -0.074 OA 
HETATM   18  C   UNL     1      -8.624   6.832  66.796  1.00  0.00    -0.119 C  
HETATM   19  C   UNL     1     -10.197   8.360  68.042  1.00  0.00    -0.263 C  
ENDBRANCH  13  14
ENDBRANCH   2  13
BRANCH   4  20
HETATM   20  C   UNL     1     -10.576  12.529  67.970  1.00  0.00    -0.237 C  
BRANCH  20  21
HETATM   21  C   UNL     1     -11.675  12.119  68.981  1.00  0.00    -0.377 C  
BRANCH  21  22
HETATM   22  C   UNL     1     -12.256  13.098  70.005  1.00  0.00    -0.253 C  
HETATM   23  C   UNL     1     -11.430  14.337  70.294  1.00  0.00    -0.226 C  
HETATM   24  C   UNL     1     -12.309  15.317  71.062  1.00  0.00    -0.367 C  
HETATM   25  O   UNL     1     -13.255  15.949  70.190  1.00  0.00    -0.665 OA 
HETATM   26  C   UNL     1     -13.005  14.661  72.245  1.00  0.00    -0.436 C  
HETATM   27  C   UNL     1     -13.455  13.229  72.023  1.00  0.00    -0.507 C  
HETATM   28  H   UNL     1     -13.803  16.560  70.668  1.00  0.00     0.000 HD 
HETATM   29  O   UNL     1     -14.400  12.740  72.625  1.00  0.00    -0.362 OA 
HETATM   30  O   UNL     1     -12.636  12.469  71.234  1.00  0.00    -0.345 OA 
ENDBRANCH  21  22
ENDBRANCH  20  21
ENDBRANCH   4  20
TORSDOF 5
ENDMDL
MODEL       27
REMARK 921   NORMALIZED FREE ENERGY PREDICTED BY IDOCK:   -6.28 KCAL/MOL
REMARK 922        TOTAL FREE ENERGY PREDICTED BY IDOCK:   -9.70 KCAL/MOL
REMARK 923 INTER-LIGAND FREE ENERGY PREDICTED BY IDOCK:   -8.48 KCAL/MOL
REMARK 924 INTRA-LIGAND FREE ENERGY PREDICTED BY IDOCK:   -1.22 KCAL/MOL
REMARK 927      BINDING AFFINITY PREDICTED BY RF-SCORE:    0.00 PKD
ROOT
HETATM    1  C   UNL     1     -12.240  13.653  69.337  1.00  0.00    -0.307 C  
HETATM    2  C   UNL     1     -12.644  12.743  70.549  1.00  0.00    -0.114 C  
HETATM    3  C   UNL     1     -12.555  13.385  71.943  1.00  0.00    -0.181 C  
HETATM    4  C   UNL     1     -10.990  13.233  68.441  1.00  0.00    -0.289 C  
HETATM    5  C   UNL     1     -13.222  14.747  72.022  1.00  0.00    -0.442 C  
HETATM    6  C   UNL     1     -11.648  14.184  66.094  1.00  0.00    -0.377 C  
HETATM    7  C   UNL     1     -10.745  14.323  67.328  1.00  0.00    -0.277 C  
HETATM    8  C   UNL     1     -12.627  15.610  70.957  1.00  0.00    -0.515 C  
HETATM    9  C   UNL     1     -10.846  15.730  67.815  1.00  0.00    -0.316 C  
HETATM   10  C   UNL     1     -13.008  15.344  73.419  1.00  0.00    -0.662 C  
HETATM   11  C   UNL     1     -12.142  15.134  69.792  1.00  0.00    -0.354 C  
HETATM   12  C   UNL     1     -11.480  16.086  68.931  1.00  0.00    -0.362 C  
ENDROOT
BRANCH   2  13
HETATM   13  O   UNL     1     -11.805  11.595  70.688  1.00  0.00    -0.321 OA 
BRANCH  13  14
HETATM   14  C   UNL     1     -12.412  10.390  70.791  1.00  0.00    -0.368 C  
HETATM   15  C   UNL     1     -12.692   7.767  72.308  1.00  0.00    -0.144 C  
HETATM   16  C   UNL     1     -11.388   9.266  70.711  1.00  0.00    -0.349 C  
HETATM   17  O   UNL     1     -13.622  10.227  70.871  1.00  0.00    -0.221 OA 
HETATM   18  C   UNL     1     -11.376   8.482  72.027  1.00  0.00    -0.425 C  
HETATM   19  C   UNL     1      -9.978   9.778  70.376  1.00  0.00    -0.294 C  
ENDBRANCH  13  14
ENDBRANCH   2  13
BRANCH   4  20
HETATM   20  C   UNL     1     -10.928  11.811  67.741  1.00  0.00    -0.277 C  
BRANCH  20  21
HETATM   21  C   UNL     1      -9.547  11.599  67.074  1.00  0.00    -0.196 C  
BRANCH  21  22
HETATM   22  C   UNL     1      -9.317  10.560  65.974  1.00  0.00    -0.178 C  
HETATM   23  C   UNL     1      -8.164   9.598  66.190  1.00  0.00    -0.115 C  
HETATM   24  C   UNL     1      -8.304   8.465  65.179  1.00  0.00    -0.167 C  
HETATM   25  O   UNL     1      -9.348   7.561  65.564  1.00  0.00    -0.373 OA 
HETATM   26  C   UNL     1      -8.518   8.979  63.763  1.00  0.00    -0.168 C  
HETATM   27  C   UNL     1      -9.369  10.230  63.646  1.00  0.00    -0.296 C  
HETATM   28  H   UNL     1      -9.436   6.855  64.935  1.00  0.00     0.000 HD 
HETATM   29  O   UNL     1     -10.019  10.486  62.644  1.00  0.00    -0.198 OA 
HETATM   30  O   UNL     1      -9.233  11.134  64.665  1.00  0.00    -0.191 OA 
ENDBRANCH  21  22
ENDBRANCH  20  21
ENDBRANCH   4  20
TORSDOF 5
ENDMDL
MODEL       28
REMARK 921   NORMALIZED FREE ENERGY PREDICTED BY IDOCK:   -6.17 KCAL/MOL
REMARK 922        TOTAL FREE ENERGY PREDICTED BY IDOCK:   -9.55 KCAL/MOL
REMARK 923 INTER-LIGAND FREE ENERGY PREDICTED BY IDOCK:   -8.97 KCAL/MOL
REMARK 924 INTRA-LIGAND FREE ENERGY PREDICTED BY IDOCK:   -0.59 KCAL/MOL
REMARK 927      BINDING AFFINITY PREDICTED BY RF-SCORE:    0.00 PKD
ROOT
HETATM    1  C   UNL     1     -11.087  11.975  66.558  1.00  0.00    -0.362 C  
HETATM    2  C   UNL     1     -11.533  13.352  67.160  1.00  0.00    -0.339 C  
HETATM    3  C   UNL     1     -11.438  14.567  66.223  1.00  0.00    -0.358 C  
HETATM    4  C   UNL     1      -9.841  11.217  67.206  1.00  0.00    -0.198 C  
HETATM    5  C   UNL     1     -12.061  14.327  64.859  1.00  0.00    -0.442 C  
HETATM    6  C   UNL     1     -10.444   8.705  66.788  1.00  0.00    -0.298 C  
HETATM    7  C   UNL     1      -9.550   9.892  66.402  1.00  0.00    -0.255 C  
HETATM    8  C   UNL     1     -11.426  13.106  64.276  1.00  0.00    -0.428 C  
HETATM    9  C   UNL     1      -9.609  10.050  64.918  1.00  0.00    -0.375 C  
HETATM   10  C   UNL     1     -11.842  15.559  63.970  1.00  0.00     0.031 C  
HETATM   11  C   UNL     1     -10.945  12.087  65.016  1.00  0.00    -0.355 C  
HETATM   12  C   UNL     1     -10.243  11.045  64.302  1.00  0.00    -0.414 C  
ENDROOT
BRANCH   2  13
HETATM   13  O   UNL     1     -10.734  13.760  68.271  1.00  0.00    -0.239 OA 
BRANCH  13  14
HETATM   14  C   UNL     1     -10.869  15.037  68.699  1.00  0.00    -0.249 C  
HETATM   15  C   UNL     1     -10.338  17.991  68.202  1.00  0.00    -0.398 C  
HETATM   16  C   UNL     1      -9.505  15.684  68.894  1.00  0.00    -0.228 C  
HETATM   17  O   UNL     1     -11.939  15.572  68.956  1.00  0.00    -0.354 OA 
HETATM   18  C   UNL     1      -9.349  16.864  67.931  1.00  0.00    -0.238 C  
HETATM   19  C   UNL     1      -8.350  14.686  68.716  1.00  0.00    -0.163 C  
ENDBRANCH  13  14
ENDBRANCH   2  13
BRANCH   4  20
HETATM   20  C   UNL     1      -9.820  10.856  68.750  1.00  0.00    -0.203 C  
BRANCH  20  21
HETATM   21  C   UNL     1     -11.258  10.862  69.323  1.00  0.00    -0.327 C  
BRANCH  21  22
HETATM   22  C   UNL     1     -11.773   9.769  70.262  1.00  0.00    -0.190 C  
HETATM   23  C   UNL     1     -12.691  10.223  71.382  1.00  0.00    -0.547 C  
HETATM   24  C   UNL     1     -13.343   8.983  71.984  1.00  0.00    -0.438 C  
HETATM   25  O   UNL     1     -14.371   8.475  71.123  1.00  0.00    -0.626 OA 
HETATM   26  C   UNL     1     -12.326   7.903  72.321  1.00  0.00    -0.299 C  
HETATM   27  C   UNL     1     -11.168   7.773  71.348  1.00  0.00    -0.246 C  
HETATM   28  H   UNL     1     -14.777   7.703  71.498  1.00  0.00     0.000 HD 
HETATM   29  O   UNL     1     -10.569   6.721  71.183  1.00  0.00    -0.220 OA 
HETATM   30  O   UNL     1     -10.730   8.944  70.793  1.00  0.00    -0.208 OA 
ENDBRANCH  21  22
ENDBRANCH  20  21
ENDBRANCH   4  20
TORSDOF 5
ENDMDL
MODEL       29
REMARK 921   NORMALIZED FREE ENERGY PREDICTED BY IDOCK:   -6.15 KCAL/MOL
REMARK 922        TOTAL FREE ENERGY PREDICTED BY IDOCK:   -9.53 KCAL/MOL
REMARK 923 INTER-LIGAND FREE ENERGY PREDICTED BY IDOCK:   -8.04 KCAL/MOL
REMARK 924 INTRA-LIGAND FREE ENERGY PREDICTED BY IDOCK:   -1.50 KCAL/MOL
REMARK 927      BINDING AFFINITY PREDICTED BY RF-SCORE:    0.00 PKD
ROOT
HETATM    1  C   UNL     1     -11.032   8.353  69.338  1.00  0.00    -0.016 C  
HETATM    2  C   UNL     1     -10.177   8.033  68.063  1.00  0.00    -0.210 C  
HETATM    3  C   UNL     1      -9.430   6.690  68.062  1.00  0.00    -0.118 C  
HETATM    4  C   UNL     1     -10.643   9.617  70.231  1.00  0.00    -0.333 C  
HETATM    5  C   UNL     1     -10.306   5.513  68.455  1.00  0.00    -0.243 C  
HETATM    6  C   UNL     1     -12.965  10.349  71.191  1.00  0.00    -0.506 C  
HETATM    7  C   UNL     1     -11.604   9.700  71.479  1.00  0.00    -0.451 C  
HETATM    8  C   UNL     1     -10.921   5.824  69.781  1.00  0.00    -0.397 C  
HETATM    9  C   UNL     1     -11.852   8.389  72.149  1.00  0.00    -0.441 C  
HETATM   10  C   UNL     1      -9.458   4.236  68.509  1.00  0.00    -0.216 C  
HETATM   11  C   UNL     1     -11.197   7.074  70.204  1.00  0.00    -0.325 C  
HETATM   12  C   UNL     1     -11.665   7.208  71.564  1.00  0.00    -0.324 C  
ENDROOT
BRANCH   2  13
HETATM   13  O   UNL     1      -9.119   8.970  67.852  1.00  0.00    -0.135 OA 
BRANCH  13  14
HETATM   14  C   UNL     1      -8.993   9.497  66.612  1.00  0.00    -0.146 C  
HETATM   15  C   UNL     1      -7.317   9.769  64.086  1.00  0.00    -0.128 C  
HETATM   16  C   UNL     1      -7.749  10.371  66.525  1.00  0.00    -0.121 C  
HETATM   17  O   UNL     1      -9.802   9.343  65.707  1.00  0.00    -0.297 OA 
HETATM   18  C   UNL     1      -6.769   9.779  65.508  1.00  0.00    -0.090 C  
HETATM   19  C   UNL     1      -7.065  10.557  67.889  1.00  0.00    -0.083 C  
ENDBRANCH  13  14
ENDBRANCH   2  13
BRANCH   4  20
HETATM   20  C   UNL     1     -10.555  11.067  69.596  1.00  0.00    -0.132 C  
BRANCH  20  21
HETATM   21  C   UNL     1     -11.553  11.200  68.419  1.00  0.00    -0.376 C  
BRANCH  21  22
HETATM   22  C   UNL     1     -11.376  12.233  67.304  1.00  0.00    -0.328 C  
HETATM   23  C   UNL     1     -10.079  13.020  67.318  1.00  0.00    -0.235 C  
HETATM   24  C   UNL     1      -9.951  13.736  65.978  1.00  0.00    -0.306 C  
HETATM   25  O   UNL     1      -9.576  12.820  64.941  1.00  0.00    -0.489 OA 
HETATM   26  C   UNL     1     -11.216  14.496  65.608  1.00  0.00    -0.335 C  
HETATM   27  C   UNL     1     -12.518  13.827  66.006  1.00  0.00    -0.445 C  
HETATM   28  H   UNL     1      -9.497  13.265  64.106  1.00  0.00     0.000 HD 
HETATM   29  O   UNL     1     -13.562  14.018  65.401  1.00  0.00    -0.593 OA 
HETATM   30  O   UNL     1     -12.487  13.128  67.182  1.00  0.00    -0.215 OA 
ENDBRANCH  21  22
ENDBRANCH  20  21
ENDBRANCH   4  20
TORSDOF 5
ENDMDL
MODEL       30
REMARK 921   NORMALIZED FREE ENERGY PREDICTED BY IDOCK:   -6.12 KCAL/MOL
REMARK 922        TOTAL FREE ENERGY PREDICTED BY IDOCK:   -9.49 KCAL/MOL
REMARK 923 INTER-LIGAND FREE ENERGY PREDICTED BY IDOCK:   -7.98 KCAL/MOL
REMARK 924 INTRA-LIGAND FREE ENERGY PREDICTED BY IDOCK:   -1.51 KCAL/MOL
REMARK 927      BINDING AFFINITY PREDICTED BY RF-SCORE:    0.00 PKD
ROOT
HETATM    1  C   UNL     1     -12.100  13.664  68.990  1.00  0.00    -0.348 C  
HETATM    2  C   UNL     1     -12.519  12.641  70.103  1.00  0.00    -0.029 C  
HETATM    3  C   UNL     1     -12.566  13.181  71.541  1.00  0.00    -0.292 C  
HETATM    4  C   UNL     1     -10.768  13.393  68.156  1.00  0.00    -0.267 C  
HETATM    5  C   UNL     1     -13.328  14.488  71.670  1.00  0.00    -0.441 C  
HETATM    6  C   UNL     1     -11.335  14.475  65.842  1.00  0.00    -0.341 C  
HETATM    7  C   UNL     1     -10.527  14.578  67.143  1.00  0.00    -0.267 C  
HETATM    8  C   UNL     1     -12.725  15.465  70.714  1.00  0.00    -0.516 C  
HETATM    9  C   UNL     1     -10.755  15.935  67.721  1.00  0.00    -0.320 C  
HETATM   10  C   UNL     1     -13.247  14.990  73.118  1.00  0.00    -0.587 C  
HETATM   11  C   UNL     1     -12.134  15.110  69.555  1.00  0.00    -0.316 C  
HETATM   12  C   UNL     1     -11.483  16.164  68.811  1.00  0.00    -0.340 C  
ENDROOT
BRANCH   2  13
HETATM   13  O   UNL     1     -11.614  11.542  70.219  1.00  0.00    -0.304 OA 
BRANCH  13  14
HETATM   14  C   UNL     1     -12.139  10.335  70.536  1.00  0.00    -0.310 C  
HETATM   15  C   UNL     1     -12.176   7.962  72.440  1.00  0.00    -0.295 C  
HETATM   16  C   UNL     1     -11.052   9.269  70.563  1.00  0.00    -0.317 C  
HETATM   17  O   UNL     1     -13.330  10.122  70.712  1.00  0.00    -0.361 OA 
HETATM   18  C   UNL     1     -10.924   8.696  71.977  1.00  0.00    -0.432 C  
HETATM   19  C   UNL     1      -9.696   9.800  70.071  1.00  0.00    -0.292 C  
ENDBRANCH  13  14
ENDBRANCH   2  13
BRANCH   4  20
HETATM   20  C   UNL     1     -10.564  12.035  67.364  1.00  0.00    -0.253 C  
BRANCH  20  21
HETATM   21  C   UNL     1      -9.059  11.794  67.088  1.00  0.00    -0.175 C  
BRANCH  21  22
HETATM   22  C   UNL     1      -7.962  12.277  68.040  1.00  0.00    -0.150 C  
HETATM   23  C   UNL     1      -7.010  13.323  67.492  1.00  0.00    -0.152 C  
HETATM   24  C   UNL     1      -6.224  13.901  68.664  1.00  0.00    -0.089 C  
HETATM   25  O   UNL     1      -7.034  14.801  69.430  1.00  0.00    -0.144 OA 
HETATM   26  C   UNL     1      -5.624  12.816  69.546  1.00  0.00    -0.090 C  
HETATM   27  C   UNL     1      -6.480  11.575  69.725  1.00  0.00    -0.125 C  
HETATM   28  H   UNL     1      -6.545  15.161  70.161  1.00  0.00     0.000 HD 
HETATM   29  O   UNL     1      -6.403  10.867  70.717  1.00  0.00    -0.346 OA 
HETATM   30  O   UNL     1      -7.220  11.207  68.635  1.00  0.00    -0.083 OA 
ENDBRANCH  21  22
ENDBRANCH  20  21
ENDBRANCH   4  20
TORSDOF 5
ENDMDL
MODEL       31
REMARK 921   NORMALIZED FREE ENERGY PREDICTED BY IDOCK:   -6.09 KCAL/MOL
REMARK 922        TOTAL FREE ENERGY PREDICTED BY IDOCK:   -9.45 KCAL/MOL
REMARK 923 INTER-LIGAND FREE ENERGY PREDICTED BY IDOCK:   -8.49 KCAL/MOL
REMARK 924 INTRA-LIGAND FREE ENERGY PREDICTED BY IDOCK:   -0.96 KCAL/MOL
REMARK 927      BINDING AFFINITY PREDICTED BY RF-SCORE:    0.00 PKD
ROOT
HETATM    1  C   UNL     1      -7.990  12.632  67.735  1.00  0.00    -0.158 C  
HETATM    2  C   UNL     1      -9.324  12.135  67.077  1.00  0.00    -0.201 C  
HETATM    3  C   UNL     1      -9.179  11.202  65.864  1.00  0.00    -0.225 C  
HETATM    4  C   UNL     1      -7.664  14.193  67.734  1.00  0.00    -0.175 C  
HETATM    5  C   UNL     1      -8.212  10.055  66.098  1.00  0.00    -0.121 C  
HETATM    6  C   UNL     1      -6.269  14.468  69.931  1.00  0.00    -0.150 C  
HETATM    7  C   UNL     1      -6.254  14.442  68.396  1.00  0.00    -0.103 C  
HETATM    8  C   UNL     1      -6.905  10.639  66.528  1.00  0.00    -0.124 C  
HETATM    9  C   UNL     1      -5.196  13.481  67.962  1.00  0.00    -0.110 C  
HETATM   10  C   UNL     1      -8.068   9.233  64.811  1.00  0.00    -0.133 C  
HETATM   11  C   UNL     1      -6.791  11.800  67.203  1.00  0.00    -0.148 C  
HETATM   12  C   UNL     1      -5.450  12.291  67.424  1.00  0.00    -0.127 C  
ENDROOT
BRANCH   2  13
HETATM   13  O   UNL     1     -10.116  13.200  66.549  1.00  0.00    -0.266 OA 
BRANCH  13  14
HETATM   14  C   UNL     1     -11.315  12.877  66.012  1.00  0.00    -0.317 C  
HETATM   15  C   UNL     1     -12.870  11.877  63.596  1.00  0.00    -0.429 C  
HETATM   16  C   UNL     1     -11.605  13.738  64.791  1.00  0.00    -0.377 C  
HETATM   17  O   UNL     1     -12.086  12.052  66.483  1.00  0.00    -0.617 OA 
HETATM   18  C   UNL     1     -11.703  12.854  63.544  1.00  0.00    -0.576 C  
HETATM   19  C   UNL     1     -10.554  14.842  64.587  1.00  0.00    -0.208 C  
ENDBRANCH  13  14
ENDBRANCH   2  13
BRANCH   4  20
HETATM   20  C   UNL     1      -8.679  15.238  68.361  1.00  0.00    -0.170 C  
BRANCH  20  21
HETATM   21  C   UNL     1      -8.097  16.671  68.276  1.00  0.00    -0.198 C  
BRANCH  21  22
HETATM   22  C   UNL     1      -8.856  17.829  67.626  1.00  0.00    -0.248 C  
HETATM   23  C   UNL     1      -9.191  19.003  68.526  1.00  0.00    -0.413 C  
HETATM   24  C   UNL     1      -9.637  20.161  67.640  1.00  0.00    -0.402 C  
HETATM   25  O   UNL     1      -8.514  20.768  66.987  1.00  0.00    -0.547 OA 
HETATM   26  C   UNL     1     -10.696  19.740  66.633  1.00  0.00    -0.518 C  
HETATM   27  C   UNL     1     -10.531  18.345  66.058  1.00  0.00    -0.374 C  
HETATM   28  H   UNL     1      -8.791  21.489  66.435  1.00  0.00     0.000 HD 
HETATM   29  O   UNL     1     -10.954  18.040  64.953  1.00  0.00    -0.776 OA 
HETATM   30  O   UNL     1     -10.029  17.408  66.919  1.00  0.00    -0.277 OA 
ENDBRANCH  21  22
ENDBRANCH  20  21
ENDBRANCH   4  20
TORSDOF 5
ENDMDL
MODEL       32
REMARK 921   NORMALIZED FREE ENERGY PREDICTED BY IDOCK:   -6.08 KCAL/MOL
REMARK 922        TOTAL FREE ENERGY PREDICTED BY IDOCK:   -9.44 KCAL/MOL
REMARK 923 INTER-LIGAND FREE ENERGY PREDICTED BY IDOCK:   -8.05 KCAL/MOL
REMARK 924 INTRA-LIGAND FREE ENERGY PREDICTED BY IDOCK:   -1.39 KCAL/MOL
REMARK 927      BINDING AFFINITY PREDICTED BY RF-SCORE:    0.00 PKD
ROOT
HETATM    1  C   UNL     1     -10.929   7.370  69.464  1.00  0.00    -0.155 C  
HETATM    2  C   UNL     1     -10.622   6.073  68.637  1.00  0.00    -0.266 C  
HETATM    3  C   UNL     1      -9.834   4.973  69.365  1.00  0.00    -0.273 C  
HETATM    4  C   UNL     1     -10.321   8.760  68.972  1.00  0.00    -0.227 C  
HETATM    5  C   UNL     1     -10.391   4.639  70.738  1.00  0.00    -0.126 C  
HETATM    6  C   UNL     1     -12.127  10.471  69.782  1.00  0.00    -0.285 C  
HETATM    7  C   UNL     1     -10.717   9.901  69.987  1.00  0.00    -0.338 C  
HETATM    8  C   UNL     1     -10.457   5.908  71.524  1.00  0.00    -0.287 C  
HETATM    9  C   UNL     1     -10.579   9.518  71.423  1.00  0.00    -0.307 C  
HETATM   10  C   UNL     1      -9.493   3.598  71.419  1.00  0.00    -0.227 C  
HETATM   11  C   UNL     1     -10.641   7.124  70.970  1.00  0.00    -0.239 C  
HETATM   12  C   UNL     1     -10.546   8.260  71.857  1.00  0.00    -0.350 C  
ENDROOT
BRANCH   2  13
HETATM   13  O   UNL     1      -9.809   6.323  67.490  1.00  0.00    -0.114 OA 
BRANCH  13  14
HETATM   14  C   UNL     1      -9.853   5.416  66.486  1.00  0.00    -0.176 C  
HETATM   15  C   UNL     1      -8.942   2.721  65.406  1.00  0.00    -0.137 C  
HETATM   16  C   UNL     1      -8.460   5.170  65.924  1.00  0.00    -0.121 C  
HETATM   17  O   UNL     1     -10.880   4.915  66.050  1.00  0.00    -0.301 OA 
HETATM   18  C   UNL     1      -8.059   3.710  66.156  1.00  0.00    -0.093 C  
HETATM   19  C   UNL     1      -7.409   6.119  66.521  1.00  0.00    -0.081 C  
ENDBRANCH  13  14
ENDBRANCH   2  13
BRANCH   4  20
HETATM   20  C   UNL     1     -10.602   9.301  67.508  1.00  0.00    -0.329 C  
BRANCH  20  21
HETATM   21  C   UNL     1      -9.724  10.543  67.216  1.00  0.00    -0.197 C  
BRANCH  21  22
HETATM   22  C   UNL     1     -10.310  11.862  66.708  1.00  0.00    -0.209 C  
HETATM   23  C   UNL     1      -9.928  13.109  67.483  1.00  0.00    -0.223 C  
HETATM   24  C   UNL     1     -10.327  14.320  66.647  1.00  0.00    -0.279 C  
HETATM   25  O   UNL     1      -9.414  14.515  65.559  1.00  0.00    -0.524 OA 
HETATM   26  C   UNL     1     -11.762  14.230  66.150  1.00  0.00    -0.397 C  
HETATM   27  C   UNL     1     -12.233  12.838  65.769  1.00  0.00    -0.408 C  
HETATM   28  H   UNL     1      -9.663  15.270  65.038  1.00  0.00     0.000 HD 
HETATM   29  O   UNL     1     -13.112  12.649  64.942  1.00  0.00    -0.850 OA 
HETATM   30  O   UNL     1     -11.730  11.817  66.529  1.00  0.00    -0.530 OA 
ENDBRANCH  21  22
ENDBRANCH  20  21
ENDBRANCH   4  20
TORSDOF 5
ENDMDL
MODEL       33
REMARK 921   NORMALIZED FREE ENERGY PREDICTED BY IDOCK:   -6.06 KCAL/MOL
REMARK 922        TOTAL FREE ENERGY PREDICTED BY IDOCK:   -9.41 KCAL/MOL
REMARK 923 INTER-LIGAND FREE ENERGY PREDICTED BY IDOCK:   -7.61 KCAL/MOL
REMARK 924 INTRA-LIGAND FREE ENERGY PREDICTED BY IDOCK:   -1.80 KCAL/MOL
REMARK 927      BINDING AFFINITY PREDICTED BY RF-SCORE:    0.00 PKD
ROOT
HETATM    1  C   UNL     1      -8.813  15.427  68.680  1.00  0.00    -0.186 C  
HETATM    2  C   UNL     1      -7.470  14.659  68.420  1.00  0.00    -0.117 C  
HETATM    3  C   UNL     1      -6.441  15.371  67.528  1.00  0.00    -0.174 C  
HETATM    4  C   UNL     1     -10.180  14.786  68.169  1.00  0.00    -0.228 C  
HETATM    5  C   UNL     1      -6.188  16.813  67.931  1.00  0.00    -0.148 C  
HETATM    6  C   UNL     1     -11.899  15.666  69.934  1.00  0.00    -0.374 C  
HETATM    7  C   UNL     1     -11.378  15.759  68.493  1.00  0.00    -0.374 C  
HETATM    8  C   UNL     1      -7.506  17.518  67.955  1.00  0.00    -0.214 C  
HETATM    9  C   UNL     1     -11.097  17.196  68.198  1.00  0.00    -0.118 C  
HETATM   10  C   UNL     1      -5.217  17.463  66.936  1.00  0.00    -0.184 C  
HETATM   11  C   UNL     1      -8.676  16.908  68.232  1.00  0.00    -0.235 C  
HETATM   12  C   UNL     1      -9.872  17.704  68.082  1.00  0.00    -0.318 C  
ENDROOT
BRANCH   2  13
HETATM   13  O   UNL     1      -7.661  13.420  67.736  1.00  0.00    -0.130 OA 
BRANCH  13  14
HETATM   14  C   UNL     1      -7.114  12.313  68.291  1.00  0.00    -0.093 C  
HETATM   15  C   UNL     1      -5.215   9.953  67.996  1.00  0.00    -0.039 C  
HETATM   16  C   UNL     1      -7.437  11.080  67.458  1.00  0.00    -0.102 C  
HETATM   17  O   UNL     1      -6.500  12.299  69.349  1.00  0.00    -0.105 OA 
HETATM   18  C   UNL     1      -6.144  10.474  66.906  1.00  0.00    -0.064 C  
HETATM   19  C   UNL     1      -8.420  11.384  66.316  1.00  0.00    -0.138 C  
ENDBRANCH  13  14
ENDBRANCH   2  13
BRANCH   4  20
HETATM   20  C   UNL     1     -10.614  13.327  68.615  1.00  0.00    -0.264 C  
BRANCH  20  21
HETATM   21  C   UNL     1     -11.694  12.770  67.655  1.00  0.00    -0.422 C  
BRANCH  21  22
HETATM   22  C   UNL     1     -11.681  13.053  66.151  1.00  0.00    -0.394 C  
HETATM   23  C   UNL     1     -12.725  14.029  65.642  1.00  0.00    -0.515 C  
HETATM   24  C   UNL     1     -12.344  14.423  64.219  1.00  0.00    -0.373 C  
HETATM   25  O   UNL     1     -11.243  15.342  64.219  1.00  0.00    -0.669 OA 
HETATM   26  C   UNL     1     -12.048  13.212  63.347  1.00  0.00    -0.558 C  
HETATM   27  C   UNL     1     -11.347  12.062  64.045  1.00  0.00    -0.403 C  
HETATM   28  H   UNL     1     -11.005  15.587  63.333  1.00  0.00     0.000 HD 
HETATM   29  O   UNL     1     -10.632  11.272  63.446  1.00  0.00    -0.375 OA 
HETATM   30  O   UNL     1     -11.697  11.864  65.353  1.00  0.00    -0.296 OA 
ENDBRANCH  21  22
ENDBRANCH  20  21
ENDBRANCH   4  20
TORSDOF 5
ENDMDL
MODEL       34
REMARK 921   NORMALIZED FREE ENERGY PREDICTED BY IDOCK:   -6.05 KCAL/MOL
REMARK 922        TOTAL FREE ENERGY PREDICTED BY IDOCK:   -9.40 KCAL/MOL
REMARK 923 INTER-LIGAND FREE ENERGY PREDICTED BY IDOCK:   -7.56 KCAL/MOL
REMARK 924 INTRA-LIGAND FREE ENERGY PREDICTED BY IDOCK:   -1.84 KCAL/MOL
REMARK 927      BINDING AFFINITY PREDICTED BY RF-SCORE:    0.00 PKD
ROOT
HETATM    1  C   UNL     1      -7.238  14.072  67.584  1.00  0.00    -0.190 C  
HETATM    2  C   UNL     1      -7.629  15.588  67.496  1.00  0.00    -0.175 C  
HETATM    3  C   UNL     1      -7.188  16.475  68.672  1.00  0.00    -0.186 C  
HETATM    4  C   UNL     1      -8.398  12.979  67.646  1.00  0.00    -0.181 C  
HETATM    5  C   UNL     1      -5.726  16.297  69.045  1.00  0.00    -0.125 C  
HETATM    6  C   UNL     1      -7.286  10.926  66.464  1.00  0.00    -0.142 C  
HETATM    7  C   UNL     1      -7.764  11.541  67.787  1.00  0.00    -0.124 C  
HETATM    8  C   UNL     1      -5.495  14.844  69.307  1.00  0.00    -0.093 C  
HETATM    9  C   UNL     1      -6.639  11.460  68.765  1.00  0.00    -0.064 C  
HETATM   10  C   UNL     1      -5.402  17.153  70.276  1.00  0.00    -0.230 C  
HETATM   11  C   UNL     1      -6.191  13.856  68.710  1.00  0.00    -0.088 C  
HETATM   12  C   UNL     1      -5.935  12.512  69.176  1.00  0.00    -0.085 C  
ENDROOT
BRANCH   2  13
HETATM   13  O   UNL     1      -9.042  15.799  67.469  1.00  0.00    -0.192 OA 
BRANCH  13  14
HETATM   14  C   UNL     1      -9.486  16.977  66.973  1.00  0.00    -0.250 C  
HETATM   15  C   UNL     1      -9.952  19.950  67.422  1.00  0.00    -0.558 C  
HETATM   16  C   UNL     1     -10.621  17.525  67.828  1.00  0.00    -0.375 C  
HETATM   17  O   UNL     1      -9.075  17.495  65.944  1.00  0.00    -0.512 OA 
HETATM   18  C   UNL     1     -10.201  18.858  68.454  1.00  0.00    -0.433 C  
HETATM   19  C   UNL     1     -11.068  16.535  68.915  1.00  0.00    -0.300 C  
ENDBRANCH  13  14
ENDBRANCH   2  13
BRANCH   4  20
HETATM   20  C   UNL     1      -9.510  12.905  66.518  1.00  0.00    -0.251 C  
BRANCH  20  21
HETATM   21  C   UNL     1     -10.922  12.983  67.150  1.00  0.00    -0.293 C  
BRANCH  21  22
HETATM   22  C   UNL     1     -11.236  12.406  68.532  1.00  0.00    -0.279 C  
HETATM   23  C   UNL     1     -11.566  10.927  68.583  1.00  0.00    -0.373 C  
HETATM   24  C   UNL     1     -11.521  10.487  70.042  1.00  0.00    -0.316 C  
HETATM   25  O   UNL     1     -10.167  10.370  70.501  1.00  0.00    -0.358 OA 
HETATM   26  C   UNL     1     -12.330  11.405  70.946  1.00  0.00    -0.483 C  
HETATM   27  C   UNL     1     -12.291  12.878  70.580  1.00  0.00    -0.302 C  
HETATM   28  H   UNL     1     -10.139  10.097  71.410  1.00  0.00     0.000 HD 
HETATM   29  O   UNL     1     -12.451  13.761  71.409  1.00  0.00    -0.351 OA 
HETATM   30  O   UNL     1     -12.233  13.152  69.241  1.00  0.00    -0.249 OA 
ENDBRANCH  21  22
ENDBRANCH  20  21
ENDBRANCH   4  20
TORSDOF 5
ENDMDL
MODEL       35
REMARK 921   NORMALIZED FREE ENERGY PREDICTED BY IDOCK:   -6.04 KCAL/MOL
REMARK 922        TOTAL FREE ENERGY PREDICTED BY IDOCK:   -9.39 KCAL/MOL
REMARK 923 INTER-LIGAND FREE ENERGY PREDICTED BY IDOCK:   -8.22 KCAL/MOL
REMARK 924 INTRA-LIGAND FREE ENERGY PREDICTED BY IDOCK:   -1.17 KCAL/MOL
REMARK 927      BINDING AFFINITY PREDICTED BY RF-SCORE:    0.00 PKD
ROOT
HETATM    1  C   UNL     1      -8.649  15.356  68.336  1.00  0.00    -0.162 C  
HETATM    2  C   UNL     1      -8.960  13.850  68.645  1.00  0.00    -0.079 C  
HETATM    3  C   UNL     1      -8.125  12.811  67.878  1.00  0.00    -0.159 C  
HETATM    4  C   UNL     1      -9.794  16.264  67.697  1.00  0.00    -0.238 C  
HETATM    5  C   UNL     1      -6.633  13.091  67.915  1.00  0.00    -0.131 C  
HETATM    6  C   UNL     1      -9.224  18.630  68.658  1.00  0.00    -0.361 C  
HETATM    7  C   UNL     1      -9.233  17.713  67.427  1.00  0.00    -0.247 C  
HETATM    8  C   UNL     1      -6.417  14.482  67.411  1.00  0.00     0.074 C  
HETATM    9  C   UNL     1      -7.867  17.739  66.824  1.00  0.00    -0.262 C  
HETATM   10  C   UNL     1      -5.894  12.057  67.056  1.00  0.00    -0.131 C  
HETATM   11  C   UNL     1      -7.319  15.475  67.544  1.00  0.00    -0.216 C  
HETATM   12  C   UNL     1      -7.010  16.722  66.883  1.00  0.00    -0.257 C  
ENDROOT
BRANCH   2  13
HETATM   13  O   UNL     1     -10.297  13.476  68.307  1.00  0.00    -0.239 OA 
BRANCH  13  14
HETATM   14  C   UNL     1     -10.584  12.154  68.279  1.00  0.00    -0.217 C  
HETATM   15  C   UNL     1     -10.268   9.478  66.865  1.00  0.00    -0.317 C  
HETATM   16  C   UNL     1     -11.324  11.794  66.998  1.00  0.00    -0.387 C  
HETATM   17  O   UNL     1     -10.341  11.372  69.187  1.00  0.00    -0.186 OA 
HETATM   18  C   UNL     1     -10.483  10.817  66.171  1.00  0.00    -0.278 C  
HETATM   19  C   UNL     1     -11.689  13.032  66.162  1.00  0.00    -0.445 C  
ENDBRANCH  13  14
ENDBRANCH   2  13
BRANCH   4  20
HETATM   20  C   UNL     1     -11.203  16.420  68.407  1.00  0.00    -0.324 C  
BRANCH  20  21
HETATM   21  C   UNL     1     -11.030  16.448  69.945  1.00  0.00    -0.339 C  
BRANCH  21  22
HETATM   22  C   UNL     1     -11.738  15.455  70.870  1.00  0.00    -0.354 C  
HETATM   23  C   UNL     1     -12.858  14.642  70.250  1.00  0.00    -0.254 C  
HETATM   24  C   UNL     1     -13.201  13.509  71.211  1.00  0.00    -0.216 C  
HETATM   25  O   UNL     1     -12.205  12.479  71.166  1.00  0.00    -0.347 OA 
HETATM   26  C   UNL     1     -13.414  14.005  72.634  1.00  0.00    -0.650 C  
HETATM   27  C   UNL     1     -12.507  15.141  73.069  1.00  0.00    -0.421 C  
HETATM   28  H   UNL     1     -12.418  11.773  71.765  1.00  0.00     0.000 HD 
HETATM   29  O   UNL     1     -12.205  15.323  74.239  1.00  0.00    -0.630 OA 
HETATM   30  O   UNL     1     -12.185  16.046  72.095  1.00  0.00    -0.451 OA 
ENDBRANCH  21  22
ENDBRANCH  20  21
ENDBRANCH   4  20
TORSDOF 5
ENDMDL
MODEL       36
REMARK 921   NORMALIZED FREE ENERGY PREDICTED BY IDOCK:   -6.01 KCAL/MOL
REMARK 922        TOTAL FREE ENERGY PREDICTED BY IDOCK:   -9.35 KCAL/MOL
REMARK 923 INTER-LIGAND FREE ENERGY PREDICTED BY IDOCK:   -8.56 KCAL/MOL
REMARK 924 INTRA-LIGAND FREE ENERGY PREDICTED BY IDOCK:   -0.79 KCAL/MOL
REMARK 927      BINDING AFFINITY PREDICTED BY RF-SCORE:    0.00 PKD
ROOT
HETATM    1  C   UNL     1     -10.368  11.749  65.815  1.00  0.00    -0.293 C  
HETATM    2  C   UNL     1      -9.676  10.945  66.970  1.00  0.00    -0.176 C  
HETATM    3  C   UNL     1      -9.337   9.477  66.669  1.00  0.00    -0.207 C  
HETATM    4  C   UNL     1     -11.839  12.321  66.047  1.00  0.00    -0.409 C  
HETATM    5  C   UNL     1      -8.616   9.284  65.346  1.00  0.00    -0.178 C  
HETATM    6  C   UNL     1     -11.835  14.477  64.564  1.00  0.00    -0.459 C  
HETATM    7  C   UNL     1     -12.342  13.038  64.736  1.00  0.00    -0.490 C  
HETATM    8  C   UNL     1      -9.451   9.907  64.276  1.00  0.00    -0.280 C  
HETATM    9  C   UNL     1     -12.045  12.292  63.476  1.00  0.00    -0.649 C  
HETATM   10  C   UNL     1      -8.397   7.786  65.094  1.00  0.00    -0.113 C  
HETATM   11  C   UNL     1     -10.267  10.960  64.481  1.00  0.00    -0.422 C  
HETATM   12  C   UNL     1     -11.106  11.355  63.373  1.00  0.00    -0.308 C  
ENDROOT
BRANCH   2  13
HETATM   13  O   UNL     1     -10.490  10.837  68.139  1.00  0.00    -0.169 OA 
BRANCH  13  14
HETATM   14  C   UNL     1      -9.861  10.615  69.317  1.00  0.00    -0.180 C  
HETATM   15  C   UNL     1      -9.461   8.795  71.722  1.00  0.00    -0.363 C  
HETATM   16  C   UNL     1     -10.871  10.495  70.449  1.00  0.00    -0.172 C  
HETATM   17  O   UNL     1      -8.646  10.582  69.459  1.00  0.00    -0.131 OA 
HETATM   18  C   UNL     1     -10.801   9.092  71.059  1.00  0.00    -0.362 C  
HETATM   19  C   UNL     1     -12.304  10.814  69.995  1.00  0.00    -0.371 C  
ENDBRANCH  13  14
ENDBRANCH   2  13
BRANCH   4  20
HETATM   20  C   UNL     1     -12.159  13.278  67.270  1.00  0.00    -0.341 C  
BRANCH  20  21
HETATM   21  C   UNL     1     -10.844  13.797  67.904  1.00  0.00    -0.257 C  
BRANCH  21  22
HETATM   22  C   UNL     1     -10.276  15.184  67.595  1.00  0.00    -0.241 C  
HETATM   23  C   UNL     1      -9.065  15.226  66.681  1.00  0.00    -0.312 C  
HETATM   24  C   UNL     1      -8.861  16.671  66.240  1.00  0.00    -0.312 C  
HETATM   25  O   UNL     1      -9.828  17.045  65.250  1.00  0.00    -0.385 OA 
HETATM   26  C   UNL     1      -8.874  17.639  67.413  1.00  0.00    -0.235 C  
HETATM   27  C   UNL     1      -9.848  17.301  68.526  1.00  0.00    -0.307 C  
HETATM   28  H   UNL     1      -9.702  17.946  64.974  1.00  0.00     0.000 HD 
HETATM   29  O   UNL     1     -10.327  18.155  69.257  1.00  0.00    -0.235 OA 
HETATM   30  O   UNL     1     -10.026  15.966  68.768  1.00  0.00    -0.205 OA 
ENDBRANCH  21  22
ENDBRANCH  20  21
ENDBRANCH   4  20
TORSDOF 5
ENDMDL
MODEL       37
REMARK 921   NORMALIZED FREE ENERGY PREDICTED BY IDOCK:   -6.00 KCAL/MOL
REMARK 922        TOTAL FREE ENERGY PREDICTED BY IDOCK:   -9.34 KCAL/MOL
REMARK 923 INTER-LIGAND FREE ENERGY PREDICTED BY IDOCK:   -7.84 KCAL/MOL
REMARK 924 INTRA-LIGAND FREE ENERGY PREDICTED BY IDOCK:   -1.50 KCAL/MOL
REMARK 927      BINDING AFFINITY PREDICTED BY RF-SCORE:    0.00 PKD
ROOT
HETATM    1  C   UNL     1      -9.796   9.631  68.387  1.00  0.00    -0.170 C  
HETATM    2  C   UNL     1     -10.203  11.015  69.003  1.00  0.00    -0.200 C  
HETATM    3  C   UNL     1     -11.443  11.018  69.911  1.00  0.00    -0.400 C  
HETATM    4  C   UNL     1      -9.821   9.455  66.802  1.00  0.00    -0.280 C  
HETATM    5  C   UNL     1     -11.421   9.924  70.965  1.00  0.00    -0.466 C  
HETATM    6  C   UNL     1      -7.920   7.700  66.411  1.00  0.00    -0.107 C  
HETATM    7  C   UNL     1      -9.431   7.973  66.427  1.00  0.00    -0.268 C  
HETATM    8  C   UNL     1     -11.230   8.618  70.263  1.00  0.00    -0.196 C  
HETATM    9  C   UNL     1     -10.077   6.934  67.282  1.00  0.00    -0.256 C  
HETATM   10  C   UNL     1     -12.731   9.952  71.762  1.00  0.00    -0.523 C  
HETATM   11  C   UNL     1     -10.562   8.484  69.100  1.00  0.00    -0.188 C  
HETATM   12  C   UNL     1     -10.585   7.175  68.488  1.00  0.00    -0.219 C  
ENDROOT
BRANCH   2  13
HETATM   13  O   UNL     1     -10.548  11.985  68.013  1.00  0.00    -0.196 OA 
BRANCH  13  14
HETATM   14  C   UNL     1      -9.795  13.108  67.954  1.00  0.00    -0.231 C  
HETATM   15  C   UNL     1      -8.812  15.628  69.348  1.00  0.00    -0.257 C  
HETATM   16  C   UNL     1     -10.661  14.345  68.151  1.00  0.00    -0.236 C  
HETATM   17  O   UNL     1      -8.597  13.128  67.710  1.00  0.00    -0.163 OA 
HETATM   18  C   UNL     1     -10.232  15.080  69.424  1.00  0.00    -0.229 C  
HETATM   19  C   UNL     1     -12.161  14.011  68.201  1.00  0.00    -0.307 C  
ENDBRANCH  13  14
ENDBRANCH   2  13
BRANCH   4  20
HETATM   20  C   UNL     1      -8.991  10.423  65.860  1.00  0.00    -0.182 C  
BRANCH  20  21
HETATM   21  C   UNL     1      -9.825  10.803  64.611  1.00  0.00    -0.366 C  
BRANCH  21  22
HETATM   22  C   UNL     1     -10.665  12.081  64.542  1.00  0.00    -0.312 C  
HETATM   23  C   UNL     1     -11.818  12.073  63.557  1.00  0.00    -0.587 C  
HETATM   24  C   UNL     1     -12.708  13.272  63.869  1.00  0.00     0.012 C  
HETATM   25  O   UNL     1     -13.493  13.035  65.045  1.00  0.00    -0.484 OA 
HETATM   26  C   UNL     1     -11.913  14.563  63.991  1.00  0.00    -0.238 C  
HETATM   27  C   UNL     1     -10.544  14.427  64.633  1.00  0.00    -0.306 C  
HETATM   28  H   UNL     1     -14.047  13.781  65.239  1.00  0.00     0.000 HD 
HETATM   29  O   UNL     1     -10.008  15.349  65.229  1.00  0.00    -0.331 OA 
HETATM   30  O   UNL     1      -9.878  13.264  64.362  1.00  0.00    -0.153 OA 
ENDBRANCH  21  22
ENDBRANCH  20  21
ENDBRANCH   4  20
TORSDOF 5
ENDMDL
MODEL       38
REMARK 921   NORMALIZED FREE ENERGY PREDICTED BY IDOCK:   -5.98 KCAL/MOL
REMARK 922        TOTAL FREE ENERGY PREDICTED BY IDOCK:   -9.32 KCAL/MOL
REMARK 923 INTER-LIGAND FREE ENERGY PREDICTED BY IDOCK:   -8.33 KCAL/MOL
REMARK 924 INTRA-LIGAND FREE ENERGY PREDICTED BY IDOCK:   -0.99 KCAL/MOL
REMARK 927      BINDING AFFINITY PREDICTED BY RF-SCORE:    0.00 PKD
ROOT
HETATM    1  C   UNL     1      -9.099   8.552  69.370  1.00  0.00    -0.150 C  
HETATM    2  C   UNL     1      -9.943   9.372  70.407  1.00  0.00    -0.252 C  
HETATM    3  C   UNL     1      -9.933   8.855  71.854  1.00  0.00    -0.384 C  
HETATM    4  C   UNL     1      -9.847   7.847  68.151  1.00  0.00    -0.193 C  
HETATM    5  C   UNL     1      -8.538   8.563  72.380  1.00  0.00    -0.222 C  
HETATM    6  C   UNL     1      -8.021   7.897  66.278  1.00  0.00    -0.103 C  
HETATM    7  C   UNL     1      -8.805   7.042  67.283  1.00  0.00    -0.119 C  
HETATM    8  C   UNL     1      -7.883   7.613  71.430  1.00  0.00    -0.089 C  
HETATM    9  C   UNL     1      -7.821   6.253  68.083  1.00  0.00    -0.104 C  
HETATM   10  C   UNL     1      -8.634   7.974  73.793  1.00  0.00    -0.328 C  
HETATM   11  C   UNL     1      -8.160   7.562  70.112  1.00  0.00    -0.119 C  
HETATM   12  C   UNL     1      -7.537   6.497  69.360  1.00  0.00    -0.096 C  
ENDROOT
BRANCH   2  13
HETATM   13  O   UNL     1     -11.338   9.390  70.099  1.00  0.00    -0.243 OA 
BRANCH  13  14
HETATM   14  C   UNL     1     -11.950  10.596  70.053  1.00  0.00    -0.329 C  
HETATM   15  C   UNL     1     -12.989  13.018  71.573  1.00  0.00    -0.398 C  
HETATM   16  C   UNL     1     -13.231  10.579  70.875  1.00  0.00    -0.281 C  
HETATM   17  O   UNL     1     -11.560  11.546  69.389  1.00  0.00    -0.265 OA 
HETATM   18  C   UNL     1     -13.115  11.572  72.035  1.00  0.00    -0.430 C  
HETATM   19  C   UNL     1     -13.575   9.176  71.399  1.00  0.00    -0.348 C  
ENDBRANCH  13  14
ENDBRANCH   2  13
BRANCH   4  20
HETATM   20  C   UNL     1     -10.754   8.685  67.156  1.00  0.00    -0.199 C  
BRANCH  20  21
HETATM   21  C   UNL     1     -10.080  10.039  66.826  1.00  0.00    -0.286 C  
BRANCH  21  22
HETATM   22  C   UNL     1     -10.514  10.905  65.641  1.00  0.00    -0.208 C  
HETATM   23  C   UNL     1      -9.435  11.251  64.632  1.00  0.00    -0.215 C  
HETATM   24  C   UNL     1     -10.119  11.819  63.393  1.00  0.00    -0.446 C  
HETATM   25  O   UNL     1     -10.736  10.777  62.625  1.00  0.00    -0.703 OA 
HETATM   26  C   UNL     1     -11.118  12.913  63.736  1.00  0.00    -0.424 C  
HETATM   27  C   UNL     1     -11.897  12.703  65.022  1.00  0.00    -0.395 C  
HETATM   28  H   UNL     1     -11.162  11.131  61.853  1.00  0.00     0.000 HD 
HETATM   29  O   UNL     1     -13.010  13.176  65.196  1.00  0.00    -0.695 OA 
HETATM   30  O   UNL     1     -11.210  12.093  66.035  1.00  0.00    -0.307 OA 
ENDBRANCH  21  22
ENDBRANCH  20  21
ENDBRANCH   4  20
TORSDOF 5
ENDMDL
MODEL       39
REMARK 921   NORMALIZED FREE ENERGY PREDICTED BY IDOCK:   -5.97 KCAL/MOL
REMARK 922        TOTAL FREE ENERGY PREDICTED BY IDOCK:   -9.29 KCAL/MOL
REMARK 923 INTER-LIGAND FREE ENERGY PREDICTED BY IDOCK:   -8.14 KCAL/MOL
REMARK 924 INTRA-LIGAND FREE ENERGY PREDICTED BY IDOCK:   -1.15 KCAL/MOL
REMARK 927      BINDING AFFINITY PREDICTED BY RF-SCORE:    0.00 PKD
ROOT
HETATM    1  C   UNL     1     -11.918  12.030  70.587  1.00  0.00    -0.257 C  
HETATM    2  C   UNL     1     -11.761  13.467  69.977  1.00  0.00    -0.227 C  
HETATM    3  C   UNL     1     -12.853  14.485  70.344  1.00  0.00    -0.315 C  
HETATM    4  C   UNL     1     -12.115  10.791  69.601  1.00  0.00    -0.361 C  
HETATM    5  C   UNL     1     -13.150  14.541  71.832  1.00  0.00    -0.427 C  
HETATM    6  C   UNL     1     -10.997   8.839  70.938  1.00  0.00    -0.315 C  
HETATM    7  C   UNL     1     -12.305   9.470  70.441  1.00  0.00     0.058 C  
HETATM    8  C   UNL     1     -13.487  13.156  72.282  1.00  0.00    -0.665 C  
HETATM    9  C   UNL     1     -13.219   9.615  71.613  1.00  0.00    -0.499 C  
HETATM   10  C   UNL     1     -14.305  15.516  72.090  1.00  0.00    -0.598 C  
HETATM   11  C   UNL     1     -12.992  12.041  71.708  1.00  0.00    -0.445 C  
HETATM   12  C   UNL     1     -13.523  10.782  72.177  1.00  0.00    -0.227 C  
ENDROOT
BRANCH   2  13
HETATM   13  O   UNL     1     -11.804  13.474  68.549  1.00  0.00    -0.329 OA 
BRANCH  13  14
HETATM   14  C   UNL     1     -10.714  13.939  67.896  1.00  0.00    -0.240 C  
HETATM   15  C   UNL     1      -9.571  15.867  65.839  1.00  0.00    -0.378 C  
HETATM   16  C   UNL     1     -10.864  13.743  66.394  1.00  0.00    -0.287 C  
HETATM   17  O   UNL     1      -9.719  14.394  68.444  1.00  0.00    -0.214 OA 
HETATM   18  C   UNL     1     -10.882  15.104  65.693  1.00  0.00    -0.367 C  
HETATM   19  C   UNL     1     -12.119  12.933  66.030  1.00  0.00    -0.484 C  
ENDBRANCH  13  14
ENDBRANCH   2  13
BRANCH   4  20
HETATM   20  C   UNL     1     -11.060  10.484  68.457  1.00  0.00    -0.329 C  
BRANCH  20  21
HETATM   21  C   UNL     1      -9.623  10.764  68.961  1.00  0.00    -0.193 C  
BRANCH  21  22
HETATM   22  C   UNL     1      -8.381  10.408  68.142  1.00  0.00    -0.117 C  
HETATM   23  C   UNL     1      -8.461  10.673  66.650  1.00  0.00    -0.137 C  
HETATM   24  C   UNL     1      -7.051  10.569  66.080  1.00  0.00    -0.137 C  
HETATM   25  O   UNL     1      -6.277  11.729  66.413  1.00  0.00    -0.387 OA 
HETATM   26  C   UNL     1      -6.345   9.294  66.517  1.00  0.00    -0.066 C  
HETATM   27  C   UNL     1      -6.642   8.838  67.933  1.00  0.00    -0.061 C  
HETATM   28  H   UNL     1      -5.398  11.664  66.058  1.00  0.00     0.000 HD 
HETATM   29  O   UNL     1      -5.850   8.174  68.586  1.00  0.00    -0.037 OA 
HETATM   30  O   UNL     1      -7.916   9.073  68.374  1.00  0.00    -0.102 OA 
ENDBRANCH  21  22
ENDBRANCH  20  21
ENDBRANCH   4  20
TORSDOF 5
ENDMDL
MODEL       40
REMARK 921   NORMALIZED FREE ENERGY PREDICTED BY IDOCK:   -5.94 KCAL/MOL
REMARK 922        TOTAL FREE ENERGY PREDICTED BY IDOCK:   -9.26 KCAL/MOL
REMARK 923 INTER-LIGAND FREE ENERGY PREDICTED BY IDOCK:   -8.67 KCAL/MOL
REMARK 924 INTRA-LIGAND FREE ENERGY PREDICTED BY IDOCK:   -0.59 KCAL/MOL
REMARK 927      BINDING AFFINITY PREDICTED BY RF-SCORE:    0.00 PKD
ROOT
HETATM    1  C   UNL     1     -11.900  12.018  69.719  1.00  0.00    -0.401 C  
HETATM    2  C   UNL     1     -11.646  10.478  69.570  1.00  0.00    -0.260 C  
HETATM    3  C   UNL     1     -11.947   9.616  70.807  1.00  0.00    -0.356 C  
HETATM    4  C   UNL     1     -10.666  13.021  69.579  1.00  0.00     0.253 C  
HETATM    5  C   UNL     1     -13.306   9.899  71.423  1.00  0.00    -0.447 C  
HETATM    6  C   UNL     1     -11.804  15.163  68.598  1.00  0.00    -0.329 C  
HETATM    7  C   UNL     1     -11.155  14.500  69.821  1.00  0.00    -0.239 C  
HETATM    8  C   UNL     1     -13.377  11.363  71.717  1.00  0.00    -0.368 C  
HETATM    9  C   UNL     1     -12.088  14.657  70.977  1.00  0.00    -0.393 C  
HETATM   10  C   UNL     1     -13.480   9.058  72.694  1.00  0.00    -0.400 C  
HETATM   11  C   UNL     1     -12.720  12.302  71.007  1.00  0.00    -0.319 C  
HETATM   12  C   UNL     1     -12.790  13.656  71.505  1.00  0.00    -0.445 C  
ENDROOT
BRANCH   2  13
HETATM   13  O   UNL     1     -10.278  10.162  69.304  1.00  0.00    -0.196 OA 
BRANCH  13  14
HETATM   14  C   UNL     1      -9.998   8.899  68.905  1.00  0.00    -0.190 C  
HETATM   15  C   UNL     1      -9.664   5.971  69.663  1.00  0.00    -0.188 C  
HETATM   16  C   UNL     1      -8.780   8.361  69.643  1.00  0.00    -0.133 C  
HETATM   17  O   UNL     1     -10.602   8.300  68.025  1.00  0.00    -0.201 OA 
HETATM   18  C   UNL     1      -9.181   7.153  70.494  1.00  0.00    -0.158 C  
HETATM   19  C   UNL     1      -8.100   9.431  70.512  1.00  0.00    -0.212 C  
ENDBRANCH  13  14
ENDBRANCH   2  13
BRANCH   4  20
HETATM   20  C   UNL     1      -9.760  13.021  68.278  1.00  0.00    -0.221 C  
BRANCH  20  21
HETATM   21  C   UNL     1     -10.292  11.991  67.252  1.00  0.00    -0.232 C  
BRANCH  21  22
HETATM   22  C   UNL     1     -10.760  12.393  65.851  1.00  0.00    -0.266 C  
HETATM   23  C   UNL     1     -12.187  12.896  65.739  1.00  0.00    -0.498 C  
HETATM   24  C   UNL     1     -12.349  13.542  64.367  1.00  0.00    -0.337 C  
HETATM   25  O   UNL     1     -11.716  14.828  64.328  1.00  0.00    -0.614 OA 
HETATM   26  C   UNL     1     -11.843  12.647  63.246  1.00  0.00    -0.504 C  
HETATM   27  C   UNL     1     -10.609  11.826  63.574  1.00  0.00    -0.440 C  
HETATM   28  H   UNL     1     -11.816  15.230  63.473  1.00  0.00     0.000 HD 
HETATM   29  O   UNL     1      -9.821  11.459  62.715  1.00  0.00    -0.303 OA 
HETATM   30  O   UNL     1     -10.522  11.382  64.865  1.00  0.00    -0.276 OA 
ENDBRANCH  21  22
ENDBRANCH  20  21
ENDBRANCH   4  20
TORSDOF 5
ENDMDL
MODEL       41
REMARK 921   NORMALIZED FREE ENERGY PREDICTED BY IDOCK:   -5.94 KCAL/MOL
REMARK 922        TOTAL FREE ENERGY PREDICTED BY IDOCK:   -9.26 KCAL/MOL
REMARK 923 INTER-LIGAND FREE ENERGY PREDICTED BY IDOCK:   -9.05 KCAL/MOL
REMARK 924 INTRA-LIGAND FREE ENERGY PREDICTED BY IDOCK:   -0.21 KCAL/MOL
REMARK 927      BINDING AFFINITY PREDICTED BY RF-SCORE:    0.00 PKD
ROOT
HETATM    1  C   UNL     1      -9.655  14.384  66.849  1.00  0.00    -0.263 C  
HETATM    2  C   UNL     1      -9.704  12.854  67.189  1.00  0.00    -0.221 C  
HETATM    3  C   UNL     1     -10.546  11.975  66.251  1.00  0.00    -0.287 C  
HETATM    4  C   UNL     1     -10.244  15.428  67.902  1.00  0.00    -0.239 C  
HETATM    5  C   UNL     1     -10.252  12.209  64.780  1.00  0.00    -0.310 C  
HETATM    6  C   UNL     1      -8.753  17.537  67.483  1.00  0.00    -0.225 C  
HETATM    7  C   UNL     1     -10.135  16.889  67.318  1.00  0.00    -0.286 C  
HETATM    8  C   UNL     1     -10.429  13.668  64.506  1.00  0.00    -0.411 C  
HETATM    9  C   UNL     1     -10.530  17.007  65.883  1.00  0.00    -0.282 C  
HETATM   10  C   UNL     1     -11.196  11.355  63.924  1.00  0.00    -0.364 C  
HETATM   11  C   UNL     1     -10.220  14.633  65.424  1.00  0.00    -0.415 C  
HETATM   12  C   UNL     1     -10.565  15.981  65.036  1.00  0.00    -0.342 C  
ENDROOT
BRANCH   2  13
HETATM   13  O   UNL     1     -10.287  12.585  68.465  1.00  0.00    -0.232 OA 
BRANCH  13  14
HETATM   14  C   UNL     1     -10.928  11.403  68.619  1.00  0.00    -0.220 C  
HETATM   15  C   UNL     1     -11.768   9.152  70.486  1.00  0.00    -0.193 C  
HETATM   16  C   UNL     1      -9.968  10.335  69.123  1.00  0.00    -0.235 C  
HETATM   17  O   UNL     1     -12.100  11.207  68.330  1.00  0.00    -0.605 OA 
HETATM   18  C   UNL     1     -10.413   9.849  70.506  1.00  0.00    -0.330 C  
HETATM   19  C   UNL     1      -8.512  10.827  69.168  1.00  0.00    -0.105 C  
ENDBRANCH  13  14
ENDBRANCH   2  13
BRANCH   4  20
HETATM   20  C   UNL     1      -9.714  15.467  69.396  1.00  0.00    -0.273 C  
BRANCH  20  21
HETATM   21  C   UNL     1     -10.715  16.226  70.302  1.00  0.00    -0.189 C  
BRANCH  21  22
HETATM   22  C   UNL     1     -11.784  15.506  71.127  1.00  0.00    -0.391 C  
HETATM   23  C   UNL     1     -11.918  15.939  72.575  1.00  0.00    -0.622 C  
HETATM   24  C   UNL     1     -13.220  15.360  73.118  1.00  0.00    -0.525 C  
HETATM   25  O   UNL     1     -14.351  16.088  72.622  1.00  0.00    -0.403 OA 
HETATM   26  C   UNL     1     -13.354  13.873  72.827  1.00  0.00    -0.567 C  
HETATM   27  C   UNL     1     -12.805  13.419  71.487  1.00  0.00    -0.337 C  
HETATM   28  H   UNL     1     -15.162  15.728  72.960  1.00  0.00     0.000 HD 
HETATM   29  O   UNL     1     -13.236  12.436  70.904  1.00  0.00     0.046 OA 
HETATM   30  O   UNL     1     -11.688  14.079  71.053  1.00  0.00    -0.219 OA 
ENDBRANCH  21  22
ENDBRANCH  20  21
ENDBRANCH   4  20
TORSDOF 5
ENDMDL
MODEL       42
REMARK 921   NORMALIZED FREE ENERGY PREDICTED BY IDOCK:   -5.94 KCAL/MOL
REMARK 922        TOTAL FREE ENERGY PREDICTED BY IDOCK:   -9.25 KCAL/MOL
REMARK 923 INTER-LIGAND FREE ENERGY PREDICTED BY IDOCK:   -7.76 KCAL/MOL
REMARK 924 INTRA-LIGAND FREE ENERGY PREDICTED BY IDOCK:   -1.49 KCAL/MOL
REMARK 927      BINDING AFFINITY PREDICTED BY RF-SCORE:    0.00 PKD
ROOT
HETATM    1  C   UNL     1      -8.142  15.932  67.300  1.00  0.00    -0.213 C  
HETATM    2  C   UNL     1      -9.449  16.039  66.441  1.00  0.00    -0.293 C  
HETATM    3  C   UNL     1     -10.384  17.214  66.768  1.00  0.00    -0.302 C  
HETATM    4  C   UNL     1      -7.928  14.647  68.222  1.00  0.00    -0.133 C  
HETATM    5  C   UNL     1      -9.666  18.549  66.858  1.00  0.00    -0.334 C  
HETATM    6  C   UNL     1      -5.323  14.404  68.235  1.00  0.00    -0.114 C  
HETATM    7  C   UNL     1      -6.580  14.791  69.027  1.00  0.00    -0.100 C  
HETATM    8  C   UNL     1      -8.560  18.406  67.853  1.00  0.00    -0.285 C  
HETATM    9  C   UNL     1      -6.356  16.147  69.611  1.00  0.00    -0.192 C  
HETATM   10  C   UNL     1     -10.661  19.642  67.271  1.00  0.00    -0.598 C  
HETATM   11  C   UNL     1      -7.917  17.247  68.095  1.00  0.00    -0.223 C  
HETATM   12  C   UNL     1      -6.966  17.250  69.183  1.00  0.00    -0.215 C  
ENDROOT
BRANCH   2  13
HETATM   13  O   UNL     1     -10.312  14.911  66.595  1.00  0.00    -0.273 OA 
BRANCH  13  14
HETATM   14  C   UNL     1     -10.439  14.076  65.537  1.00  0.00    -0.327 C  
HETATM   15  C   UNL     1     -12.281  12.732  63.523  1.00  0.00    -0.613 C  
HETATM   16  C   UNL     1     -11.343  12.903  65.886  1.00  0.00    -0.348 C  
HETATM   17  O   UNL     1      -9.854  14.214  64.471  1.00  0.00    -0.101 OA 
HETATM   18  C   UNL     1     -12.592  12.929  65.001  1.00  0.00    -0.538 C  
HETATM   19  C   UNL     1     -11.736  12.885  67.372  1.00  0.00    -0.428 C  
ENDBRANCH  13  14
ENDBRANCH   2  13
BRANCH   4  20
HETATM   20  C   UNL     1      -7.966  13.187  67.606  1.00  0.00    -0.174 C  
BRANCH  20  21
HETATM   21  C   UNL     1      -8.307  12.149  68.704  1.00  0.00    -0.016 C  
BRANCH  21  22
HETATM   22  C   UNL     1      -9.190  10.929  68.435  1.00  0.00    -0.168 C  
HETATM   23  C   UNL     1      -9.292   9.913  69.558  1.00  0.00    -0.236 C  
HETATM   24  C   UNL     1     -10.445   8.971  69.233  1.00  0.00    -0.228 C  
HETATM   25  O   UNL     1     -11.708   9.607  69.471  1.00  0.00    -0.450 OA 
HETATM   26  C   UNL     1     -10.363   8.426  67.815  1.00  0.00    -0.297 C  
HETATM   27  C   UNL     1      -9.842   9.399  66.773  1.00  0.00    -0.218 C  
HETATM   28  H   UNL     1     -12.428   9.020  69.268  1.00  0.00     0.000 HD 
HETATM   29  O   UNL     1     -10.152   9.320  65.594  1.00  0.00    -0.215 OA 
HETATM   30  O   UNL     1      -8.876  10.265  67.206  1.00  0.00    -0.132 OA 
ENDBRANCH  21  22
ENDBRANCH  20  21
ENDBRANCH   4  20
TORSDOF 5
ENDMDL
MODEL       43
REMARK 921   NORMALIZED FREE ENERGY PREDICTED BY IDOCK:   -5.89 KCAL/MOL
REMARK 922        TOTAL FREE ENERGY PREDICTED BY IDOCK:   -9.20 KCAL/MOL
REMARK 923 INTER-LIGAND FREE ENERGY PREDICTED BY IDOCK:   -8.14 KCAL/MOL
REMARK 924 INTRA-LIGAND FREE ENERGY PREDICTED BY IDOCK:   -1.06 KCAL/MOL
REMARK 927      BINDING AFFINITY PREDICTED BY RF-SCORE:    0.00 PKD
ROOT
HETATM    1  C   UNL     1     -11.800  13.536  67.764  1.00  0.00    -0.398 C  
HETATM    2  C   UNL     1     -12.045  12.871  69.163  1.00  0.00    -0.168 C  
HETATM    3  C   UNL     1     -11.670  13.714  70.392  1.00  0.00    -0.223 C  
HETATM    4  C   UNL     1     -10.757  12.863  66.762  1.00  0.00    -0.276 C  
HETATM    5  C   UNL     1     -12.221  15.128  70.344  1.00  0.00    -0.391 C  
HETATM    6  C   UNL     1     -11.753  13.490  64.425  1.00  0.00    -0.443 C  
HETATM    7  C   UNL     1     -10.640  13.736  65.453  1.00  0.00    -0.330 C  
HETATM    8  C   UNL     1     -11.766  15.752  69.064  1.00  0.00    -0.405 C  
HETATM    9  C   UNL     1     -10.561  15.206  65.702  1.00  0.00    -0.370 C  
HETATM   10  C   UNL     1     -11.726  15.915  71.565  1.00  0.00    -0.545 C  
HETATM   11  C   UNL     1     -11.526  15.055  67.936  1.00  0.00    -0.354 C  
HETATM   12  C   UNL     1     -10.964  15.791  66.828  1.00  0.00    -0.192 C  
ENDROOT
BRANCH   2  13
HETATM   13  O   UNL     1     -11.272  11.685  69.359  1.00  0.00    -0.250 OA 
BRANCH  13  14
HETATM   14  C   UNL     1     -11.901  10.614  69.897  1.00  0.00    -0.315 C  
HETATM   15  C   UNL     1     -12.151   8.675  72.228  1.00  0.00    -0.443 C  
HETATM   16  C   UNL     1     -10.913   9.485  70.152  1.00  0.00    -0.302 C  
HETATM   17  O   UNL     1     -13.108  10.543  70.088  1.00  0.00    -0.166 OA 
HETATM   18  C   UNL     1     -10.838   9.192  71.654  1.00  0.00    -0.442 C  
HETATM   19  C   UNL     1      -9.515   9.789  69.592  1.00  0.00    -0.237 C  
ENDBRANCH  13  14
ENDBRANCH   2  13
BRANCH   4  20
HETATM   20  C   UNL     1     -10.914  11.349  66.316  1.00  0.00    -0.303 C  
BRANCH  20  21
HETATM   21  C   UNL     1      -9.630  10.864  65.600  1.00  0.00    -0.268 C  
BRANCH  21  22
HETATM   22  C   UNL     1      -8.227  11.246  66.081  1.00  0.00    -0.088 C  
HETATM   23  C   UNL     1      -7.216  10.118  66.165  1.00  0.00    -0.115 C  
HETATM   24  C   UNL     1      -5.835  10.740  66.336  1.00  0.00    -0.109 C  
HETATM   25  O   UNL     1      -5.365  11.291  65.099  1.00  0.00    -0.502 OA 
HETATM   26  C   UNL     1      -5.804  11.778  67.447  1.00  0.00    -0.104 C  
HETATM   27  C   UNL     1      -7.056  12.626  67.581  1.00  0.00    -0.139 C  
HETATM   28  H   UNL     1      -4.504  11.679  65.205  1.00  0.00     0.000 HD 
HETATM   29  O   UNL     1      -7.032  13.756  68.045  1.00  0.00    -0.102 OA 
HETATM   30  O   UNL     1      -8.233  11.986  67.306  1.00  0.00    -0.157 OA 
ENDBRANCH  21  22
ENDBRANCH  20  21
ENDBRANCH   4  20
TORSDOF 5
ENDMDL
MODEL       44
REMARK 921   NORMALIZED FREE ENERGY PREDICTED BY IDOCK:   -5.87 KCAL/MOL
REMARK 922        TOTAL FREE ENERGY PREDICTED BY IDOCK:   -9.17 KCAL/MOL
REMARK 923 INTER-LIGAND FREE ENERGY PREDICTED BY IDOCK:   -8.19 KCAL/MOL
REMARK 924 INTRA-LIGAND FREE ENERGY PREDICTED BY IDOCK:   -0.98 KCAL/MOL
REMARK 927      BINDING AFFINITY PREDICTED BY RF-SCORE:    0.00 PKD
ROOT
HETATM    1  C   UNL     1     -10.163  12.058  65.596  1.00  0.00    -0.284 C  
HETATM    2  C   UNL     1      -9.179  11.338  66.583  1.00  0.00    -0.180 C  
HETATM    3  C   UNL     1      -8.817   9.884  66.243  1.00  0.00    -0.160 C  
HETATM    4  C   UNL     1     -11.581  12.546  66.140  1.00  0.00    -0.448 C  
HETATM    5  C   UNL     1      -8.397   9.690  64.796  1.00  0.00    -0.156 C  
HETATM    6  C   UNL     1     -12.052  14.645  64.651  1.00  0.00    -0.466 C  
HETATM    7  C   UNL     1     -12.410  13.185  64.961  1.00  0.00    -0.511 C  
HETATM    8  C   UNL     1      -9.490  10.223  63.928  1.00  0.00    -0.356 C  
HETATM    9  C   UNL     1     -12.351  12.416  63.682  1.00  0.00    -0.647 C  
HETATM   10  C   UNL     1      -8.139   8.201  64.531  1.00  0.00    -0.142 C  
HETATM   11  C   UNL     1     -10.309  11.231  64.290  1.00  0.00    -0.399 C  
HETATM   12  C   UNL     1     -11.397  11.535  63.389  1.00  0.00    -0.303 C  
ENDROOT
BRANCH   2  13
HETATM   13  O   UNL     1      -9.704  11.220  67.906  1.00  0.00    -0.170 OA 
BRANCH  13  14
HETATM   14  C   UNL     1      -8.856  10.810  68.877  1.00  0.00    -0.150 C  
HETATM   15  C   UNL     1      -7.387   8.503  70.210  1.00  0.00    -0.052 C  
HETATM   16  C   UNL     1      -9.538   9.805  69.796  1.00  0.00    -0.256 C  
HETATM   17  O   UNL     1      -7.720  11.239  69.033  1.00  0.00    -0.135 OA 
HETATM   18  C   UNL     1      -8.824   8.454  69.706  1.00  0.00    -0.134 C  
HETATM   19  C   UNL     1     -11.035   9.646  69.484  1.00  0.00    -0.233 C  
ENDBRANCH  13  14
ENDBRANCH   2  13
BRANCH   4  20
HETATM   20  C   UNL     1     -11.685  13.523  67.384  1.00  0.00    -0.419 C  
BRANCH  20  21
HETATM   21  C   UNL     1     -10.295  14.120  67.716  1.00  0.00    -0.242 C  
BRANCH  21  22
HETATM   22  C   UNL     1      -9.970  15.603  67.522  1.00  0.00    -0.231 C  
HETATM   23  C   UNL     1     -11.137  16.566  67.637  1.00  0.00    -0.127 C  
HETATM   24  C   UNL     1     -10.569  17.978  67.743  1.00  0.00    -0.394 C  
HETATM   25  O   UNL     1     -10.030  18.216  69.050  1.00  0.00    -0.358 OA 
HETATM   26  C   UNL     1      -9.539  18.268  66.662  1.00  0.00    -0.315 C  
HETATM   27  C   UNL     1      -8.644  17.101  66.286  1.00  0.00    -0.241 C  
HETATM   28  H   UNL     1      -9.676  19.095  69.117  1.00  0.00     0.000 HD 
HETATM   29  O   UNL     1      -7.518  17.259  65.839  1.00  0.00    -0.405 OA 
HETATM   30  O   UNL     1      -9.236  15.868  66.321  1.00  0.00    -0.278 OA 
ENDBRANCH  21  22
ENDBRANCH  20  21
ENDBRANCH   4  20
TORSDOF 5
ENDMDL
MODEL       45
REMARK 921   NORMALIZED FREE ENERGY PREDICTED BY IDOCK:   -5.87 KCAL/MOL
REMARK 922        TOTAL FREE ENERGY PREDICTED BY IDOCK:   -9.17 KCAL/MOL
REMARK 923 INTER-LIGAND FREE ENERGY PREDICTED BY IDOCK:   -8.88 KCAL/MOL
REMARK 924 INTRA-LIGAND FREE ENERGY PREDICTED BY IDOCK:   -0.29 KCAL/MOL
REMARK 927      BINDING AFFINITY PREDICTED BY RF-SCORE:    0.00 PKD
ROOT
HETATM    1  C   UNL     1     -11.108  14.009  68.970  1.00  0.00    -0.296 C  
HETATM    2  C   UNL     1     -11.950  12.914  69.713  1.00  0.00    -0.296 C  
HETATM    3  C   UNL     1     -12.589  13.334  71.046  1.00  0.00    -0.408 C  
HETATM    4  C   UNL     1      -9.549  13.760  68.740  1.00  0.00    -0.044 C  
HETATM    5  C   UNL     1     -13.338  14.653  70.966  1.00  0.00    -0.410 C  
HETATM    6  C   UNL     1      -9.107  15.049  66.506  1.00  0.00    -0.319 C  
HETATM    7  C   UNL     1      -8.911  15.014  68.029  1.00  0.00    -0.173 C  
HETATM    8  C   UNL     1     -12.393  15.683  70.436  1.00  0.00    -0.427 C  
HETATM    9  C   UNL     1      -9.361  16.327  68.580  1.00  0.00    -0.219 C  
HETATM   10  C   UNL     1     -13.865  15.030  72.356  1.00  0.00    -0.596 C  
HETATM   11  C   UNL     1     -11.375  15.404  69.598  1.00  0.00    -0.315 C  
HETATM   12  C   UNL     1     -10.475  16.492  69.289  1.00  0.00    -0.326 C  
ENDROOT
BRANCH   2  13
HETATM   13  O   UNL     1     -11.173  11.777  70.092  1.00  0.00    -0.067 OA 
BRANCH  13  14
HETATM   14  C   UNL     1     -11.833  10.612  70.293  1.00  0.00    -0.342 C  
HETATM   15  C   UNL     1     -12.399   8.255  72.131  1.00  0.00    -0.410 C  
HETATM   16  C   UNL     1     -10.850   9.470  70.514  1.00  0.00    -0.352 C  
HETATM   17  O   UNL     1     -13.048  10.485  70.237  1.00  0.00    -0.227 OA 
HETATM   18  C   UNL     1     -11.033   8.895  71.921  1.00  0.00    -0.439 C  
HETATM   19  C   UNL     1      -9.391   9.901  70.293  1.00  0.00    -0.142 C  
ENDBRANCH  13  14
ENDBRANCH   2  13
BRANCH   4  20
HETATM   20  C   UNL     1      -9.034  12.465  67.983  1.00  0.00    -0.194 C  
BRANCH  20  21
HETATM   21  C   UNL     1     -10.221  11.717  67.328  1.00  0.00    -0.226 C  
BRANCH  21  22
HETATM   22  C   UNL     1     -10.696  12.017  65.904  1.00  0.00    -0.275 C  
HETATM   23  C   UNL     1      -9.619  12.080  64.837  1.00  0.00    -0.040 C  
HETATM   24  C   UNL     1     -10.308  12.057  63.477  1.00  0.00    -0.461 C  
HETATM   25  O   UNL     1     -10.776  10.739  63.162  1.00  0.00    -0.671 OA 
HETATM   26  C   UNL     1     -11.433  13.076  63.383  1.00  0.00    -0.304 C  
HETATM   27  C   UNL     1     -12.238  13.276  64.654  1.00  0.00    -0.407 C  
HETATM   28  H   UNL     1     -11.205  10.724  62.315  1.00  0.00     0.000 HD 
HETATM   29  O   UNL     1     -13.402  13.648  64.638  1.00  0.00    -0.185 OA 
HETATM   30  O   UNL     1     -11.532  13.177  65.821  1.00  0.00    -0.308 OA 
ENDBRANCH  21  22
ENDBRANCH  20  21
ENDBRANCH   4  20
TORSDOF 5
ENDMDL
MODEL       46
REMARK 921   NORMALIZED FREE ENERGY PREDICTED BY IDOCK:   -5.83 KCAL/MOL
REMARK 922        TOTAL FREE ENERGY PREDICTED BY IDOCK:   -9.12 KCAL/MOL
REMARK 923 INTER-LIGAND FREE ENERGY PREDICTED BY IDOCK:   -7.97 KCAL/MOL
REMARK 924 INTRA-LIGAND FREE ENERGY PREDICTED BY IDOCK:   -1.15 KCAL/MOL
REMARK 927      BINDING AFFINITY PREDICTED BY RF-SCORE:    0.00 PKD
ROOT
HETATM    1  C   UNL     1     -11.462  11.330  69.047  1.00  0.00    -0.369 C  
HETATM    2  C   UNL     1     -10.972   9.843  69.133  1.00  0.00    -0.200 C  
HETATM    3  C   UNL     1     -11.086   9.167  70.509  1.00  0.00    -0.308 C  
HETATM    4  C   UNL     1     -10.409  12.468  68.670  1.00  0.00    -0.193 C  
HETATM    5  C   UNL     1     -12.449   9.343  71.155  1.00  0.00    -0.370 C  
HETATM    6  C   UNL     1     -11.908  14.217  67.428  1.00  0.00    -0.441 C  
HETATM    7  C   UNL     1     -11.118  13.877  68.700  1.00  0.00    -0.290 C  
HETATM    8  C   UNL     1     -12.742  10.808  71.213  1.00  0.00    -0.546 C  
HETATM    9  C   UNL     1     -12.021  14.084  69.871  1.00  0.00    -0.399 C  
HETATM   10  C   UNL     1     -12.441   8.713  72.554  1.00  0.00    -0.372 C  
HETATM   11  C   UNL     1     -12.269  11.701  70.320  1.00  0.00    -0.401 C  
HETATM   12  C   UNL     1     -12.535  13.094  70.597  1.00  0.00    -0.363 C  
ENDROOT
BRANCH   2  13
HETATM   13  O   UNL     1      -9.582   9.696  68.836  1.00  0.00    -0.153 OA 
BRANCH  13  14
HETATM   14  C   UNL     1      -9.128   8.445  68.589  1.00  0.00    -0.140 C  
HETATM   15  C   UNL     1      -8.398   5.704  69.689  1.00  0.00    -0.107 C  
HETATM   16  C   UNL     1      -7.852   8.173  69.373  1.00  0.00    -0.105 C  
HETATM   17  O   UNL     1      -9.638   7.667  67.794  1.00  0.00    -0.140 OA 
HETATM   18  C   UNL     1      -8.088   7.033  70.367  1.00  0.00    -0.119 C  
HETATM   19  C   UNL     1      -7.331   9.423  70.100  1.00  0.00    -0.110 C  
ENDBRANCH  13  14
ENDBRANCH   2  13
BRANCH   4  20
HETATM   20  C   UNL     1      -9.563  12.386  67.331  1.00  0.00    -0.184 C  
BRANCH  20  21
HETATM   21  C   UNL     1     -10.373  11.663  66.227  1.00  0.00    -0.273 C  
BRANCH  21  22
HETATM   22  C   UNL     1      -9.705  10.976  65.034  1.00  0.00    -0.254 C  
HETATM   23  C   UNL     1     -10.330  11.230  63.676  1.00  0.00    -0.464 C  
HETATM   24  C   UNL     1      -9.352  10.744  62.612  1.00  0.00    -0.313 C  
HETATM   25  O   UNL     1      -8.259  11.661  62.465  1.00  0.00    -0.638 OA 
HETATM   26  C   UNL     1      -8.852   9.335  62.889  1.00  0.00    -0.185 C  
HETATM   27  C   UNL     1      -8.634   8.997  64.352  1.00  0.00    -0.150 C  
HETATM   28  H   UNL     1      -7.649  11.359  61.802  1.00  0.00     0.000 HD 
HETATM   29  O   UNL     1      -7.824   8.156  64.714  1.00  0.00    -0.120 OA 
HETATM   30  O   UNL     1      -9.515   9.569  65.227  1.00  0.00    -0.259 OA 
ENDBRANCH  21  22
ENDBRANCH  20  21
ENDBRANCH   4  20
TORSDOF 5
ENDMDL
MODEL       47
REMARK 921   NORMALIZED FREE ENERGY PREDICTED BY IDOCK:   -5.79 KCAL/MOL
REMARK 922        TOTAL FREE ENERGY PREDICTED BY IDOCK:   -9.07 KCAL/MOL
REMARK 923 INTER-LIGAND FREE ENERGY PREDICTED BY IDOCK:   -7.69 KCAL/MOL
REMARK 924 INTRA-LIGAND FREE ENERGY PREDICTED BY IDOCK:   -1.39 KCAL/MOL
REMARK 927      BINDING AFFINITY PREDICTED BY RF-SCORE:    0.00 PKD
ROOT
HETATM    1  C   UNL     1      -9.597   8.892  65.428  1.00  0.00     0.010 C  
HETATM    2  C   UNL     1      -9.665  10.348  64.848  1.00  0.00    -0.309 C  
HETATM    3  C   UNL     1      -8.433  10.827  64.064  1.00  0.00     0.021 C  
HETATM    4  C   UNL     1      -9.654   8.688  67.009  1.00  0.00    -0.240 C  
HETATM    5  C   UNL     1      -7.960   9.833  63.018  1.00  0.00    -0.138 C  
HETATM    6  C   UNL     1     -10.816   6.353  67.222  1.00  0.00    -0.463 C  
HETATM    7  C   UNL     1      -9.513   7.155  67.351  1.00  0.00    -0.156 C  
HETATM    8  C   UNL     1      -7.727   8.525  63.704  1.00  0.00    -0.142 C  
HETATM    9  C   UNL     1      -8.458   6.446  66.567  1.00  0.00    -0.118 C  
HETATM   10  C   UNL     1      -6.682  10.357  62.350  1.00  0.00    -0.148 C  
HETATM   11  C   UNL     1      -8.405   8.122  64.797  1.00  0.00    -0.113 C  
HETATM   12  C   UNL     1      -7.964   6.893  65.415  1.00  0.00    -0.125 C  
ENDROOT
BRANCH   2  13
HETATM   13  O   UNL     1      -9.788  11.346  65.862  1.00  0.00    -0.209 OA 
BRANCH  13  14
HETATM   14  C   UNL     1     -10.835  12.199  65.771  1.00  0.00    -0.281 C  
HETATM   15  C   UNL     1     -12.010  14.714  64.524  1.00  0.00    -0.473 C  
HETATM   16  C   UNL     1     -10.418  13.606  66.178  1.00  0.00    -0.297 C  
HETATM   17  O   UNL     1     -11.974  11.870  65.468  1.00  0.00    -0.399 OA 
HETATM   18  C   UNL     1     -10.566  14.555  64.985  1.00  0.00    -0.458 C  
HETATM   19  C   UNL     1      -8.985  13.656  66.732  1.00  0.00    -0.196 C  
ENDBRANCH  13  14
ENDBRANCH   2  13
BRANCH   4  20
HETATM   20  C   UNL     1     -10.862   9.261  67.862  1.00  0.00    -0.181 C  
BRANCH  20  21
HETATM   21  C   UNL     1     -10.410   9.535  69.317  1.00  0.00    -0.219 C  
BRANCH  21  22
HETATM   22  C   UNL     1     -11.367   9.438  70.507  1.00  0.00    -0.274 C  
HETATM   23  C   UNL     1     -11.998   8.080  70.753  1.00  0.00    -0.132 C  
HETATM   24  C   UNL     1     -12.637   8.104  72.137  1.00  0.00    -0.310 C  
HETATM   25  O   UNL     1     -11.639   8.012  73.163  1.00  0.00    -0.542 OA 
HETATM   26  C   UNL     1     -13.523   9.324  72.341  1.00  0.00    -0.526 C  
HETATM   27  C   UNL     1     -13.027  10.605  71.696  1.00  0.00    -0.477 C  
HETATM   28  H   UNL     1     -12.037   8.027  74.025  1.00  0.00     0.000 HD 
HETATM   29  O   UNL     1     -13.313  11.709  72.133  1.00  0.00    -0.491 OA 
HETATM   30  O   UNL     1     -12.380  10.451  70.500  1.00  0.00    -0.298 OA 
ENDBRANCH  21  22
ENDBRANCH  20  21
ENDBRANCH   4  20
TORSDOF 5
ENDMDL
MODEL       48
REMARK 921   NORMALIZED FREE ENERGY PREDICTED BY IDOCK:   -5.77 KCAL/MOL
REMARK 922        TOTAL FREE ENERGY PREDICTED BY IDOCK:   -9.04 KCAL/MOL
REMARK 923 INTER-LIGAND FREE ENERGY PREDICTED BY IDOCK:   -8.09 KCAL/MOL
REMARK 924 INTRA-LIGAND FREE ENERGY PREDICTED BY IDOCK:   -0.95 KCAL/MOL
REMARK 927      BINDING AFFINITY PREDICTED BY RF-SCORE:    0.00 PKD
ROOT
HETATM    1  C   UNL     1      -8.120  12.422  67.915  1.00  0.00    -0.161 C  
HETATM    2  C   UNL     1      -9.577  12.069  67.453  1.00  0.00    -0.176 C  
HETATM    3  C   UNL     1      -9.710  10.933  66.427  1.00  0.00    -0.240 C  
HETATM    4  C   UNL     1      -7.542  13.875  67.602  1.00  0.00    -0.188 C  
HETATM    5  C   UNL     1      -8.929   9.686  66.805  1.00  0.00    -0.156 C  
HETATM    6  C   UNL     1      -5.909  14.264  69.609  1.00  0.00    -0.106 C  
HETATM    7  C   UNL     1      -6.051  13.973  68.108  1.00  0.00    -0.129 C  
HETATM    8  C   UNL     1      -7.507  10.089  67.029  1.00  0.00    -0.092 C  
HETATM    9  C   UNL     1      -5.216  12.777  67.791  1.00  0.00    -0.111 C  
HETATM   10  C   UNL     1      -9.052   8.643  65.686  1.00  0.00    -0.221 C  
HETATM   11  C   UNL     1      -7.135  11.308  67.467  1.00  0.00    -0.099 C  
HETATM   12  C   UNL     1      -5.716  11.578  67.502  1.00  0.00    -0.063 C  
ENDROOT
BRANCH   2  13
HETATM   13  O   UNL     1     -10.229  13.155  66.791  1.00  0.00    -0.245 OA 
BRANCH  13  14
HETATM   14  C   UNL     1     -11.386  12.883  66.143  1.00  0.00    -0.317 C  
HETATM   15  C   UNL     1     -12.753  11.983  63.578  1.00  0.00    -0.567 C  
HETATM   16  C   UNL     1     -11.538  13.777  64.920  1.00  0.00    -0.362 C  
HETATM   17  O   UNL     1     -12.223  12.077  66.527  1.00  0.00    -0.548 OA 
HETATM   18  C   UNL     1     -11.554  12.919  63.651  1.00  0.00    -0.547 C  
HETATM   19  C   UNL     1     -10.438  14.847  64.834  1.00  0.00    -0.389 C  
ENDBRANCH  13  14
ENDBRANCH   2  13
BRANCH   4  20
HETATM   20  C   UNL     1      -8.302  15.178  68.091  1.00  0.00    -0.147 C  
BRANCH  20  21
HETATM   21  C   UNL     1      -8.012  16.360  67.133  1.00  0.00    -0.215 C  
BRANCH  21  22
HETATM   22  C   UNL     1      -8.568  17.766  67.372  1.00  0.00    -0.231 C  
HETATM   23  C   UNL     1     -10.074  17.919  67.269  1.00  0.00    -0.344 C  
HETATM   24  C   UNL     1     -10.447  19.278  67.852  1.00  0.00    -0.410 C  
HETATM   25  O   UNL     1     -10.380  19.257  69.284  1.00  0.00    -0.552 OA 
HETATM   26  C   UNL     1      -9.598  20.403  67.279  1.00  0.00    -0.592 C  
HETATM   27  C   UNL     1      -8.147  20.050  67.006  1.00  0.00    -0.318 C  
HETATM   28  H   UNL     1     -10.612  20.103  69.647  1.00  0.00     0.000 HD 
HETATM   29  O   UNL     1      -7.258  20.888  67.019  1.00  0.00    -0.321 OA 
HETATM   30  O   UNL     1      -7.922  18.770  66.581  1.00  0.00    -0.247 OA 
ENDBRANCH  21  22
ENDBRANCH  20  21
ENDBRANCH   4  20
TORSDOF 5
ENDMDL
MODEL       49
REMARK 921   NORMALIZED FREE ENERGY PREDICTED BY IDOCK:   -5.76 KCAL/MOL
REMARK 922        TOTAL FREE ENERGY PREDICTED BY IDOCK:   -9.03 KCAL/MOL
REMARK 923 INTER-LIGAND FREE ENERGY PREDICTED BY IDOCK:   -7.68 KCAL/MOL
REMARK 924 INTRA-LIGAND FREE ENERGY PREDICTED BY IDOCK:   -1.35 KCAL/MOL
REMARK 927      BINDING AFFINITY PREDICTED BY RF-SCORE:    0.00 PKD
ROOT
HETATM    1  C   UNL     1      -8.422   8.707  68.439  1.00  0.00    -0.131 C  
HETATM    2  C   UNL     1      -8.400   8.301  69.954  1.00  0.00    -0.125 C  
HETATM    3  C   UNL     1      -8.460   6.795  70.256  1.00  0.00    -0.135 C  
HETATM    4  C   UNL     1      -9.639   9.581  67.892  1.00  0.00    -0.154 C  
HETATM    5  C   UNL     1      -7.469   5.977  69.446  1.00  0.00    -0.088 C  
HETATM    6  C   UNL     1      -8.513  10.955  65.971  1.00  0.00    -0.167 C  
HETATM    7  C   UNL     1      -9.470   9.813  66.341  1.00  0.00    -0.237 C  
HETATM    8  C   UNL     1      -7.702   6.279  68.000  1.00  0.00    -0.103 C  
HETATM    9  C   UNL     1      -9.052   8.598  65.581  1.00  0.00    -0.221 C  
HETATM   10  C   UNL     1      -7.661   4.486  69.751  1.00  0.00    -0.054 C  
HETATM   11  C   UNL     1      -8.171   7.459  67.548  1.00  0.00    -0.113 C  
HETATM   12  C   UNL     1      -8.466   7.540  66.136  1.00  0.00    -0.147 C  
ENDROOT
BRANCH   2  13
HETATM   13  O   UNL     1      -9.522   8.803  70.681  1.00  0.00    -0.170 OA 
BRANCH  13  14
HETATM   14  C   UNL     1      -9.545   8.586  72.017  1.00  0.00    -0.301 C  
HETATM   15  C   UNL     1      -9.994   6.628  74.302  1.00  0.00    -0.372 C  
HETATM   16  C   UNL     1     -10.926   8.124  72.462  1.00  0.00    -0.439 C  
HETATM   17  O   UNL     1      -8.603   8.796  72.770  1.00  0.00    -0.412 OA 
HETATM   18  C   UNL     1     -10.838   6.708  73.037  1.00  0.00    -0.297 C  
HETATM   19  C   UNL     1     -11.959   8.182  71.325  1.00  0.00    -0.318 C  
ENDBRANCH  13  14
ENDBRANCH   2  13
BRANCH   4  20
HETATM   20  C   UNL     1     -10.001  10.977  68.550  1.00  0.00    -0.198 C  
BRANCH  20  21
HETATM   21  C   UNL     1     -11.385  11.463  68.053  1.00  0.00    -0.372 C  
BRANCH  21  22
HETATM   22  C   UNL     1     -11.558  12.733  67.217  1.00  0.00    -0.360 C  
HETATM   23  C   UNL     1     -11.850  12.531  65.743  1.00  0.00    -0.494 C  
HETATM   24  C   UNL     1     -12.308  13.868  65.169  1.00  0.00    -0.449 C  
HETATM   25  O   UNL     1     -13.654  14.162  65.566  1.00  0.00    -0.685 OA 
HETATM   26  C   UNL     1     -11.366  15.005  65.536  1.00  0.00    -0.312 C  
HETATM   27  C   UNL     1     -10.761  14.926  66.926  1.00  0.00    -0.308 C  
HETATM   28  H   UNL     1     -13.939  14.995  65.209  1.00  0.00     0.000 HD 
HETATM   29  O   UNL     1     -10.407  15.920  67.542  1.00  0.00    -0.270 OA 
HETATM   30  O   UNL     1     -10.482  13.665  67.377  1.00  0.00    -0.249 OA 
ENDBRANCH  21  22
ENDBRANCH  20  21
ENDBRANCH   4  20
TORSDOF 5
ENDMDL
MODEL       50
REMARK 921   NORMALIZED FREE ENERGY PREDICTED BY IDOCK:   -5.73 KCAL/MOL
REMARK 922        TOTAL FREE ENERGY PREDICTED BY IDOCK:   -8.99 KCAL/MOL
REMARK 923 INTER-LIGAND FREE ENERGY PREDICTED BY IDOCK:   -7.52 KCAL/MOL
REMARK 924 INTRA-LIGAND FREE ENERGY PREDICTED BY IDOCK:   -1.46 KCAL/MOL
REMARK 927      BINDING AFFINITY PREDICTED BY RF-SCORE:    0.00 PKD
ROOT
HETATM    1  C   UNL     1     -10.778   8.365  69.855  1.00  0.00    -0.227 C  
HETATM    2  C   UNL     1      -9.744   8.303  68.678  1.00  0.00    -0.156 C  
HETATM    3  C   UNL     1      -8.351   7.753  69.024  1.00  0.00    -0.131 C  
HETATM    4  C   UNL     1     -11.342   9.785  70.313  1.00  0.00    -0.333 C  
HETATM    5  C   UNL     1      -8.393   6.447  69.797  1.00  0.00    -0.127 C  
HETATM    6  C   UNL     1     -13.743   9.180  71.160  1.00  0.00    -0.161 C  
HETATM    7  C   UNL     1     -12.315   9.599  71.540  1.00  0.00    -0.477 C  
HETATM    8  C   UNL     1      -9.239   6.662  71.010  1.00  0.00    -0.160 C  
HETATM    9  C   UNL     1     -11.818   8.649  72.579  1.00  0.00    -0.342 C  
HETATM   10  C   UNL     1      -6.967   6.023  70.170  1.00  0.00    -0.069 C  
HETATM   11  C   UNL     1     -10.259   7.542  71.065  1.00  0.00    -0.194 C  
HETATM   12  C   UNL     1     -10.888   7.723  72.353  1.00  0.00    -0.359 C  
ENDROOT
BRANCH   2  13
HETATM   13  O   UNL     1      -9.438   9.589  68.137  1.00  0.00    -0.133 OA 
BRANCH  13  14
HETATM   14  C   UNL     1      -9.527   9.736  66.794  1.00  0.00    -0.163 C  
HETATM   15  C   UNL     1      -8.082   9.971  64.127  1.00  0.00    -0.153 C  
HETATM   16  C   UNL     1      -8.805  10.999  66.344  1.00  0.00    -0.182 C  
HETATM   17  O   UNL     1     -10.156   8.992  66.055  1.00  0.00    -0.278 OA 
HETATM   18  C   UNL     1      -7.636  10.628  65.427  1.00  0.00    -0.038 C  
HETATM   19  C   UNL     1      -8.314  11.848  67.528  1.00  0.00    -0.158 C  
ENDBRANCH  13  14
ENDBRANCH   2  13
BRANCH   4  20
HETATM   20  C   UNL     1     -12.055  10.752  69.277  1.00  0.00    -0.278 C  
BRANCH  20  21
HETATM   21  C   UNL     1     -11.388  12.149  69.300  1.00  0.00    -0.327 C  
BRANCH  21  22
HETATM   22  C   UNL     1     -11.979  13.329  70.076  1.00  0.00    -0.329 C  
HETATM   23  C   UNL     1     -11.192  14.625  70.029  1.00  0.00    -0.252 C  
HETATM   24  C   UNL     1     -12.087  15.736  70.567  1.00  0.00    -0.374 C  
HETATM   25  O   UNL     1     -13.078  16.109  69.599  1.00  0.00    -0.321 OA 
HETATM   26  C   UNL     1     -12.729  15.366  71.895  1.00  0.00    -0.462 C  
HETATM   27  C   UNL     1     -13.131  13.910  72.041  1.00  0.00    -0.393 C  
HETATM   28  H   UNL     1     -13.636  16.801  69.934  1.00  0.00     0.000 HD 
HETATM   29  O   UNL     1     -14.042  13.554  72.774  1.00  0.00    -0.719 OA 
HETATM   30  O   UNL     1     -12.304  13.006  71.432  1.00  0.00    -0.227 OA 
ENDBRANCH  21  22
ENDBRANCH  20  21
ENDBRANCH   4  20
TORSDOF 5
ENDMDL
MODEL       51
REMARK 921   NORMALIZED FREE ENERGY PREDICTED BY IDOCK:   -5.73 KCAL/MOL
REMARK 922        TOTAL FREE ENERGY PREDICTED BY IDOCK:   -8.98 KCAL/MOL
REMARK 923 INTER-LIGAND FREE ENERGY PREDICTED BY IDOCK:   -7.37 KCAL/MOL
REMARK 924 INTRA-LIGAND FREE ENERGY PREDICTED BY IDOCK:   -1.61 KCAL/MOL
REMARK 927      BINDING AFFINITY PREDICTED BY RF-SCORE:    0.00 PKD
ROOT
HETATM    1  C   UNL     1     -11.404  11.382  68.935  1.00  0.00    -0.334 C  
HETATM    2  C   UNL     1     -10.860   9.918  68.792  1.00  0.00    -0.208 C  
HETATM    3  C   UNL     1     -10.781   9.092  70.086  1.00  0.00    -0.258 C  
HETATM    4  C   UNL     1     -10.444  12.602  68.568  1.00  0.00    -0.249 C  
HETATM    5  C   UNL     1     -12.059   9.134  70.906  1.00  0.00    -0.270 C  
HETATM    6  C   UNL     1     -12.140  14.406  67.722  1.00  0.00    -0.304 C  
HETATM    7  C   UNL     1     -11.188  13.965  68.843  1.00  0.00    -0.304 C  
HETATM    8  C   UNL     1     -12.388  10.568  71.165  1.00  0.00    -0.510 C  
HETATM    9  C   UNL     1     -11.944  14.001  70.130  1.00  0.00    -0.399 C  
HETATM   10  C   UNL     1     -11.856   8.355  72.213  1.00  0.00    -0.456 C  
HETATM   11  C   UNL     1     -12.059  11.574  70.330  1.00  0.00    -0.471 C  
HETATM   12  C   UNL     1     -12.332  12.915  70.794  1.00  0.00    -0.385 C  
ENDROOT
BRANCH   2  13
HETATM   13  O   UNL     1      -9.514   9.868  68.316  1.00  0.00    -0.138 OA 
BRANCH  13  14
HETATM   14  C   UNL     1      -9.279   9.153  67.192  1.00  0.00    -0.133 C  
HETATM   15  C   UNL     1      -8.219   6.588  65.944  1.00  0.00    -0.131 C  
HETATM   16  C   UNL     1      -7.795   8.842  67.055  1.00  0.00    -0.095 C  
HETATM   17  O   UNL     1     -10.132   8.856  66.367  1.00  0.00    -0.288 OA 
HETATM   18  C   UNL     1      -7.575   7.327  67.111  1.00  0.00    -0.103 C  
HETATM   19  C   UNL     1      -6.945   9.549  68.124  1.00  0.00    -0.078 C  
ENDBRANCH  13  14
ENDBRANCH   2  13
BRANCH   4  20
HETATM   20  C   UNL     1      -9.768  12.704  67.137  1.00  0.00    -0.211 C  
BRANCH  20  21
HETATM   21  C   UNL     1      -8.304  13.193  67.268  1.00  0.00    -0.182 C  
BRANCH  21  22
HETATM   22  C   UNL     1      -7.948  14.657  67.536  1.00  0.00    -0.190 C  
HETATM   23  C   UNL     1      -7.692  15.031  68.984  1.00  0.00    -0.170 C  
HETATM   24  C   UNL     1      -7.044  16.412  69.003  1.00  0.00    -0.208 C  
HETATM   25  O   UNL     1      -5.669  16.338  68.606  1.00  0.00    -0.103 OA 
HETATM   26  C   UNL     1      -7.808  17.418  68.155  1.00  0.00    -0.234 C  
HETATM   27  C   UNL     1      -8.415  16.866  66.878  1.00  0.00    -0.214 C  
HETATM   28  H   UNL     1      -5.265  17.197  68.617  1.00  0.00     0.000 HD 
HETATM   29  O   UNL     1      -8.617  17.564  65.896  1.00  0.00    -0.528 OA 
HETATM   30  O   UNL     1      -8.875  15.580  66.952  1.00  0.00    -0.216 OA 
ENDBRANCH  21  22
ENDBRANCH  20  21
ENDBRANCH   4  20
TORSDOF 5
ENDMDL
MODEL       52
REMARK 921   NORMALIZED FREE ENERGY PREDICTED BY IDOCK:   -5.70 KCAL/MOL
REMARK 922        TOTAL FREE ENERGY PREDICTED BY IDOCK:   -8.95 KCAL/MOL
REMARK 923 INTER-LIGAND FREE ENERGY PREDICTED BY IDOCK:   -7.67 KCAL/MOL
REMARK 924 INTRA-LIGAND FREE ENERGY PREDICTED BY IDOCK:   -1.29 KCAL/MOL
REMARK 927      BINDING AFFINITY PREDICTED BY RF-SCORE:    0.00 PKD
ROOT
HETATM    1  C   UNL     1     -11.018   6.467  70.577  1.00  0.00    -0.364 C  
HETATM    2  C   UNL     1     -10.530   5.760  69.265  1.00  0.00    -0.287 C  
HETATM    3  C   UNL     1      -9.433   4.696  69.432  1.00  0.00    -0.239 C  
HETATM    4  C   UNL     1     -10.800   8.039  70.734  1.00  0.00    -0.244 C  
HETATM    5  C   UNL     1      -9.734   3.689  70.528  1.00  0.00    -0.210 C  
HETATM    6  C   UNL     1     -12.834   8.733  72.227  1.00  0.00    -0.465 C  
HETATM    7  C   UNL     1     -11.317   8.508  72.148  1.00  0.00    -0.442 C  
HETATM    8  C   UNL     1      -9.988   4.449  71.789  1.00  0.00    -0.257 C  
HETATM    9  C   UNL     1     -10.927   7.607  73.273  1.00  0.00    -0.331 C  
HETATM   10  C   UNL     1      -8.550   2.724  70.678  1.00  0.00    -0.107 C  
HETATM   11  C   UNL     1     -10.504   5.694  71.822  1.00  0.00    -0.284 C  
HETATM   12  C   UNL     1     -10.561   6.337  73.114  1.00  0.00    -0.273 C  
ENDROOT
BRANCH   2  13
HETATM   13  O   UNL     1      -9.936   6.666  68.333  1.00  0.00    -0.139 OA 
BRANCH  13  14
HETATM   14  C   UNL     1     -10.025   6.353  67.019  1.00  0.00    -0.163 C  
HETATM   15  C   UNL     1      -8.864   4.843  64.646  1.00  0.00    -0.139 C  
HETATM   16  C   UNL     1      -8.774   6.800  66.275  1.00  0.00    -0.152 C  
HETATM   17  O   UNL     1     -11.003   5.840  66.493  1.00  0.00    -0.253 OA 
HETATM   18  C   UNL     1      -8.049   5.580  65.700  1.00  0.00    -0.118 C  
HETATM   19  C   UNL     1      -7.826   7.622  67.163  1.00  0.00    -0.117 C  
ENDBRANCH  13  14
ENDBRANCH   2  13
BRANCH   4  20
HETATM   20  C   UNL     1     -11.368   9.053  69.655  1.00  0.00     0.106 C  
BRANCH  20  21
HETATM   21  C   UNL     1     -10.765  10.462  69.871  1.00  0.00    -0.331 C  
BRANCH  21  22
HETATM   22  C   UNL     1     -11.040  11.629  68.920  1.00  0.00    -0.232 C  
HETATM   23  C   UNL     1     -11.777  12.817  69.510  1.00  0.00    -0.383 C  
HETATM   24  C   UNL     1     -11.662  13.975  68.525  1.00  0.00    -0.352 C  
HETATM   25  O   UNL     1     -10.352  14.556  68.569  1.00  0.00    -0.229 OA 
HETATM   26  C   UNL     1     -12.034  13.566  67.108  1.00  0.00    -0.426 C  
HETATM   27  C   UNL     1     -11.618  12.164  66.704  1.00  0.00    -0.350 C  
HETATM   28  H   UNL     1     -10.280  15.278  67.955  1.00  0.00     0.000 HD 
HETATM   29  O   UNL     1     -11.397  11.857  65.542  1.00  0.00    -0.322 OA 
HETATM   30  O   UNL     1     -11.667  11.225  67.698  1.00  0.00    -0.564 OA 
ENDBRANCH  21  22
ENDBRANCH  20  21
ENDBRANCH   4  20
TORSDOF 5
ENDMDL
MODEL       53
REMARK 921   NORMALIZED FREE ENERGY PREDICTED BY IDOCK:   -5.68 KCAL/MOL
REMARK 922        TOTAL FREE ENERGY PREDICTED BY IDOCK:   -8.93 KCAL/MOL
REMARK 923 INTER-LIGAND FREE ENERGY PREDICTED BY IDOCK:   -7.66 KCAL/MOL
REMARK 924 INTRA-LIGAND FREE ENERGY PREDICTED BY IDOCK:   -1.27 KCAL/MOL
REMARK 927      BINDING AFFINITY PREDICTED BY RF-SCORE:    0.00 PKD
ROOT
HETATM    1  C   UNL     1      -9.768   8.895  66.153  1.00  0.00    -0.338 C  
HETATM    2  C   UNL     1     -10.075  10.264  65.451  1.00  0.00    -0.284 C  
HETATM    3  C   UNL     1      -9.045  10.744  64.416  1.00  0.00    -0.217 C  
HETATM    4  C   UNL     1      -9.537   8.872  67.731  1.00  0.00    -0.176 C  
HETATM    5  C   UNL     1      -8.661   9.675  63.407  1.00  0.00    -0.237 C  
HETATM    6  C   UNL     1     -10.414   6.494  68.382  1.00  0.00    -0.258 C  
HETATM    7  C   UNL     1      -9.192   7.404  68.195  1.00  0.00    -0.133 C  
HETATM    8  C   UNL     1      -8.190   8.478  64.168  1.00  0.00    -0.141 C  
HETATM    9  C   UNL     1      -8.221   6.694  67.310  1.00  0.00    -0.121 C  
HETATM   10  C   UNL     1      -7.572  10.217  62.473  1.00  0.00    -0.144 C  
HETATM   11  C   UNL     1      -8.630   8.153  65.400  1.00  0.00    -0.154 C  
HETATM   12  C   UNL     1      -7.974   7.041  66.049  1.00  0.00    -0.109 C  
ENDROOT
BRANCH   2  13
HETATM   13  O   UNL     1     -10.121  11.360  66.366  1.00  0.00    -0.206 OA 
BRANCH  13  14
HETATM   14  C   UNL     1     -11.039  12.327  66.132  1.00  0.00    -0.311 C  
HETATM   15  C   UNL     1     -11.900  14.709  64.445  1.00  0.00    -0.405 C  
HETATM   16  C   UNL     1     -10.407  13.707  66.251  1.00  0.00    -0.293 C  
HETATM   17  O   UNL     1     -12.226  12.120  65.918  1.00  0.00    -0.604 OA 
HETATM   18  C   UNL     1     -10.474  14.426  64.901  1.00  0.00    -0.448 C  
HETATM   19  C   UNL     1      -8.957  13.647  66.759  1.00  0.00    -0.196 C  
ENDBRANCH  13  14
ENDBRANCH   2  13
BRANCH   4  20
HETATM   20  C   UNL     1     -10.634   9.443  68.724  1.00  0.00    -0.234 C  
BRANCH  20  21
HETATM   21  C   UNL     1     -10.007   9.723  70.113  1.00  0.00    -0.315 C  
BRANCH  21  22
HETATM   22  C   UNL     1     -10.104   8.729  71.272  1.00  0.00    -0.266 C  
HETATM   23  C   UNL     1     -11.462   8.599  71.934  1.00  0.00    -0.419 C  
HETATM   24  C   UNL     1     -11.436   7.356  72.817  1.00  0.00    -0.265 C  
HETATM   25  O   UNL     1     -11.524   6.164  72.025  1.00  0.00    -0.290 OA 
HETATM   26  C   UNL     1     -10.219   7.322  73.728  1.00  0.00    -0.370 C  
HETATM   27  C   UNL     1      -8.938   7.869  73.125  1.00  0.00    -0.243 C  
HETATM   28  H   UNL     1     -11.508   5.390  72.575  1.00  0.00     0.000 HD 
HETATM   29  O   UNL     1      -7.833   7.495  73.488  1.00  0.00    -0.104 OA 
HETATM   30  O   UNL     1      -9.093   8.924  72.268  1.00  0.00    -0.381 OA 
ENDBRANCH  21  22
ENDBRANCH  20  21
ENDBRANCH   4  20
TORSDOF 5
ENDMDL
MODEL       54
REMARK 921   NORMALIZED FREE ENERGY PREDICTED BY IDOCK:   -5.68 KCAL/MOL
REMARK 922        TOTAL FREE ENERGY PREDICTED BY IDOCK:   -8.92 KCAL/MOL
REMARK 923 INTER-LIGAND FREE ENERGY PREDICTED BY IDOCK:   -7.28 KCAL/MOL
REMARK 924 INTRA-LIGAND FREE ENERGY PREDICTED BY IDOCK:   -1.64 KCAL/MOL
REMARK 927      BINDING AFFINITY PREDICTED BY RF-SCORE:    0.00 PKD
ROOT
HETATM    1  C   UNL     1     -10.828   9.929  70.472  1.00  0.00    -0.391 C  
HETATM    2  C   UNL     1     -10.079  10.552  69.243  1.00  0.00    -0.224 C  
HETATM    3  C   UNL     1     -10.802  11.696  68.513  1.00  0.00    -0.257 C  
HETATM    4  C   UNL     1     -11.255   8.393  70.418  1.00  0.00    -0.220 C  
HETATM    5  C   UNL     1     -11.328  12.771  69.448  1.00  0.00    -0.267 C  
HETATM    6  C   UNL     1     -11.139   7.698  72.938  1.00  0.00    -0.448 C  
HETATM    7  C   UNL     1     -12.038   8.014  71.733  1.00  0.00    -0.344 C  
HETATM    8  C   UNL     1     -12.196  12.105  70.467  1.00  0.00    -0.392 C  
HETATM    9  C   UNL     1     -13.044   9.030  72.163  1.00  0.00    -0.496 C  
HETATM   10  C   UNL     1     -12.104  13.820  68.641  1.00  0.00    -0.333 C  
HETATM   11  C   UNL     1     -12.019  10.837  70.887  1.00  0.00    -0.438 C  
HETATM   12  C   UNL     1     -13.026  10.303  71.775  1.00  0.00    -0.574 C  
ENDROOT
BRANCH   2  13
HETATM   13  O   UNL     1      -9.856   9.612  68.191  1.00  0.00    -0.144 OA 
BRANCH  13  14
HETATM   14  C   UNL     1      -8.576   9.396  67.811  1.00  0.00    -0.116 C  
HETATM   15  C   UNL     1      -6.169  10.343  66.209  1.00  0.00    -0.092 C  
HETATM   16  C   UNL     1      -8.479   9.272  66.297  1.00  0.00    -0.133 C  
HETATM   17  O   UNL     1      -7.637   9.254  68.583  1.00  0.00    -0.079 OA 
HETATM   18  C   UNL     1      -7.616  10.407  65.738  1.00  0.00    -0.147 C  
HETATM   19  C   UNL     1      -9.859   9.261  65.619  1.00  0.00    -0.237 C  
ENDBRANCH  13  14
ENDBRANCH   2  13
BRANCH   4  20
HETATM   20  C   UNL     1     -10.181   7.257  70.154  1.00  0.00    -0.209 C  
BRANCH  20  21
HETATM   21  C   UNL     1     -10.810   6.104  69.334  1.00  0.00    -0.420 C  
BRANCH  21  22
HETATM   22  C   UNL     1     -10.146   5.531  68.079  1.00  0.00    -0.175 C  
HETATM   23  C   UNL     1      -8.707   5.942  67.834  1.00  0.00    -0.104 C  
HETATM   24  C   UNL     1      -8.137   5.030  66.753  1.00  0.00    -0.108 C  
HETATM   25  O   UNL     1      -7.849   3.728  67.280  1.00  0.00    -0.079 OA 
HETATM   26  C   UNL     1      -9.046   4.941  65.536  1.00  0.00    -0.153 C  
HETATM   27  C   UNL     1     -10.535   4.952  65.833  1.00  0.00    -0.239 C  
HETATM   28  H   UNL     1      -7.495   3.160  66.607  1.00  0.00     0.000 HD 
HETATM   29  O   UNL     1     -11.352   4.425  65.094  1.00  0.00    -0.176 OA 
HETATM   30  O   UNL     1     -10.919   5.731  66.890  1.00  0.00    -0.279 OA 
ENDBRANCH  21  22
ENDBRANCH  20  21
ENDBRANCH   4  20
TORSDOF 5
ENDMDL
MODEL       55
REMARK 921   NORMALIZED FREE ENERGY PREDICTED BY IDOCK:   -5.65 KCAL/MOL
REMARK 922        TOTAL FREE ENERGY PREDICTED BY IDOCK:   -8.89 KCAL/MOL
REMARK 923 INTER-LIGAND FREE ENERGY PREDICTED BY IDOCK:   -7.28 KCAL/MOL
REMARK 924 INTRA-LIGAND FREE ENERGY PREDICTED BY IDOCK:   -1.61 KCAL/MOL
REMARK 927      BINDING AFFINITY PREDICTED BY RF-SCORE:    0.00 PKD
ROOT
HETATM    1  C   UNL     1      -8.150  15.920  67.050  1.00  0.00    -0.265 C  
HETATM    2  C   UNL     1      -9.524  15.928  66.295  1.00  0.00    -0.318 C  
HETATM    3  C   UNL     1     -10.468  17.099  66.611  1.00  0.00    -0.259 C  
HETATM    4  C   UNL     1      -7.822  14.715  68.043  1.00  0.00    -0.136 C  
HETATM    5  C   UNL     1      -9.787  18.456  66.543  1.00  0.00    -0.368 C  
HETATM    6  C   UNL     1      -5.217  14.541  67.860  1.00  0.00    -0.068 C  
HETATM    7  C   UNL     1      -6.419  14.954  68.722  1.00  0.00    -0.086 C  
HETATM    8  C   UNL     1      -8.602  18.417  67.452  1.00  0.00    -0.261 C  
HETATM    9  C   UNL     1      -6.192  16.356  69.185  1.00  0.00    -0.169 C  
HETATM   10  C   UNL     1     -10.781  19.550  66.955  1.00  0.00    -0.592 C  
HETATM   11  C   UNL     1      -7.904  17.296  67.725  1.00  0.00    -0.194 C  
HETATM   12  C   UNL     1      -6.869  17.407  68.728  1.00  0.00    -0.228 C  
ENDROOT
BRANCH   2  13
HETATM   13  O   UNL     1     -10.335  14.792  66.602  1.00  0.00    -0.265 OA 
BRANCH  13  14
HETATM   14  C   UNL     1     -10.511  13.871  65.626  1.00  0.00    -0.312 C  
HETATM   15  C   UNL     1     -12.390  12.578  63.612  1.00  0.00    -0.618 C  
HETATM   16  C   UNL     1     -11.597  12.878  66.016  1.00  0.00    -0.424 C  
HETATM   17  O   UNL     1      -9.843  13.809  64.603  1.00  0.00    -0.156 OA 
HETATM   18  C   UNL     1     -12.767  12.978  65.033  1.00  0.00    -0.475 C  
HETATM   19  C   UNL     1     -12.087  13.079  67.459  1.00  0.00    -0.279 C  
ENDBRANCH  13  14
ENDBRANCH   2  13
BRANCH   4  20
HETATM   20  C   UNL     1      -7.862  13.211  67.541  1.00  0.00    -0.173 C  
BRANCH  20  21
HETATM   21  C   UNL     1      -8.591  12.319  68.576  1.00  0.00    -0.068 C  
BRANCH  21  22
HETATM   22  C   UNL     1      -9.033  10.888  68.261  1.00  0.00    -0.150 C  
HETATM   23  C   UNL     1      -9.191  10.543  66.792  1.00  0.00    -0.175 C  
HETATM   24  C   UNL     1      -9.308   9.027  66.678  1.00  0.00    -0.177 C  
HETATM   25  O   UNL     1      -8.031   8.400  66.858  1.00  0.00    -0.097 OA 
HETATM   26  C   UNL     1     -10.340   8.454  67.637  1.00  0.00    -0.317 C  
HETATM   27  C   UNL     1     -10.421   9.136  68.990  1.00  0.00    -0.221 C  
HETATM   28  H   UNL     1      -8.102   7.456  66.787  1.00  0.00     0.000 HD 
HETATM   29  O   UNL     1     -10.801   8.552  69.994  1.00  0.00    -0.237 OA 
HETATM   30  O   UNL     1     -10.201  10.486  68.984  1.00  0.00    -0.194 OA 
ENDBRANCH  21  22
ENDBRANCH  20  21
ENDBRANCH   4  20
TORSDOF 5
ENDMDL
MODEL       56
REMARK 921   NORMALIZED FREE ENERGY PREDICTED BY IDOCK:   -5.64 KCAL/MOL
REMARK 922        TOTAL FREE ENERGY PREDICTED BY IDOCK:   -8.88 KCAL/MOL
REMARK 923 INTER-LIGAND FREE ENERGY PREDICTED BY IDOCK:   -7.46 KCAL/MOL
REMARK 924 INTRA-LIGAND FREE ENERGY PREDICTED BY IDOCK:   -1.42 KCAL/MOL
REMARK 927      BINDING AFFINITY PREDICTED BY RF-SCORE:    0.00 PKD
ROOT
HETATM    1  C   UNL     1      -7.975  18.502  67.405  1.00  0.00    -0.246 C  
HETATM    2  C   UNL     1      -6.841  17.490  67.020  1.00  0.00    -0.176 C  
HETATM    3  C   UNL     1      -6.216  17.666  65.627  1.00  0.00    -0.044 C  
HETATM    4  C   UNL     1      -9.444  17.945  67.687  1.00  0.00    -0.260 C  
HETATM    5  C   UNL     1      -5.811  19.098  65.325  1.00  0.00    -0.258 C  
HETATM    6  C   UNL     1     -10.355  19.655  69.445  1.00  0.00     0.030 C  
HETATM    7  C   UNL     1     -10.416  19.147  67.998  1.00  0.00    -0.461 C  
HETATM    8  C   UNL     1      -7.012  19.965  65.525  1.00  0.00    -0.336 C  
HETATM    9  C   UNL     1     -10.249  20.322  67.091  1.00  0.00    -0.500 C  
HETATM   10  C   UNL     1      -5.279  19.190  63.889  1.00  0.00    -0.287 C  
HETATM   11  C   UNL     1      -7.999  19.686  66.400  1.00  0.00    -0.332 C  
HETATM   12  C   UNL     1      -9.152  20.555  66.374  1.00  0.00    -0.129 C  
ENDROOT
BRANCH   2  13
HETATM   13  O   UNL     1      -7.293  16.135  66.982  1.00  0.00    -0.195 OA 
BRANCH  13  14
HETATM   14  C   UNL     1      -6.686  15.254  67.811  1.00  0.00    -0.167 C  
HETATM   15  C   UNL     1      -5.232  12.600  68.132  1.00  0.00    -0.073 C  
HETATM   16  C   UNL     1      -7.391  13.905  67.767  1.00  0.00    -0.170 C  
HETATM   17  O   UNL     1      -5.743  15.525  68.541  1.00  0.00    -0.092 OA 
HETATM   18  C   UNL     1      -6.435  12.838  67.227  1.00  0.00    -0.073 C  
HETATM   19  C   UNL     1      -8.682  13.943  66.934  1.00  0.00    -0.177 C  
ENDBRANCH  13  14
ENDBRANCH   2  13
BRANCH   4  20
HETATM   20  C   UNL     1      -9.696  16.828  68.784  1.00  0.00    -0.261 C  
BRANCH  20  21
HETATM   21  C   UNL     1     -10.998  16.052  68.470  1.00  0.00    -0.326 C  
BRANCH  21  22
HETATM   22  C   UNL     1     -11.746  15.239  69.530  1.00  0.00    -0.339 C  
HETATM   23  C   UNL     1     -12.061  15.958  70.828  1.00  0.00    -0.393 C  
HETATM   24  C   UNL     1     -13.070  15.113  71.598  1.00  0.00    -0.388 C  
HETATM   25  O   UNL     1     -14.379  15.228  71.023  1.00  0.00    -0.737 OA 
HETATM   26  C   UNL     1     -12.643  13.656  71.701  1.00  0.00    -0.343 C  
HETATM   27  C   UNL     1     -11.937  13.097  70.480  1.00  0.00    -0.222 C  
HETATM   28  H   UNL     1     -15.008  14.702  71.502  1.00  0.00     0.000 HD 
HETATM   29  O   UNL     1     -11.964  11.908  70.197  1.00  0.00    -0.330 OA 
HETATM   30  O   UNL     1     -11.132  13.976  69.809  1.00  0.00    -0.174 OA 
ENDBRANCH  21  22
ENDBRANCH  20  21
ENDBRANCH   4  20
TORSDOF 5
ENDMDL
MODEL       57
REMARK 921   NORMALIZED FREE ENERGY PREDICTED BY IDOCK:   -5.63 KCAL/MOL
REMARK 922        TOTAL FREE ENERGY PREDICTED BY IDOCK:   -8.86 KCAL/MOL
REMARK 923 INTER-LIGAND FREE ENERGY PREDICTED BY IDOCK:   -7.49 KCAL/MOL
REMARK 924 INTRA-LIGAND FREE ENERGY PREDICTED BY IDOCK:   -1.37 KCAL/MOL
REMARK 927      BINDING AFFINITY PREDICTED BY RF-SCORE:    0.00 PKD
ROOT
HETATM    1  C   UNL     1      -8.145  10.316  69.499  1.00  0.00    -0.170 C  
HETATM    2  C   UNL     1      -8.723   9.180  70.414  1.00  0.00    -0.215 C  
HETATM    3  C   UNL     1      -8.035   7.810  70.314  1.00  0.00    -0.100 C  
HETATM    4  C   UNL     1      -9.082  10.954  68.377  1.00  0.00    -0.164 C  
HETATM    5  C   UNL     1      -6.521   7.887  70.412  1.00  0.00    -0.037 C  
HETATM    6  C   UNL     1      -8.174  13.404  68.228  1.00  0.00    -0.160 C  
HETATM    7  C   UNL     1      -8.269  12.027  67.555  1.00  0.00    -0.159 C  
HETATM    8  C   UNL     1      -6.045   8.842  69.366  1.00  0.00    -0.041 C  
HETATM    9  C   UNL     1      -6.886  11.599  67.187  1.00  0.00    -0.143 C  
HETATM   10  C   UNL     1      -5.921   6.488  70.217  1.00  0.00    -0.023 C  
HETATM   11  C   UNL     1      -6.772   9.885  68.917  1.00  0.00    -0.053 C  
HETATM   12  C   UNL     1      -6.219  10.629  67.809  1.00  0.00    -0.054 C  
ENDROOT
BRANCH   2  13
HETATM   13  O   UNL     1     -10.083   8.861  70.114  1.00  0.00    -0.179 OA 
BRANCH  13  14
HETATM   14  C   UNL     1     -10.818   8.287  71.094  1.00  0.00    -0.233 C  
HETATM   15  C   UNL     1     -11.307   5.859  72.862  1.00  0.00    -0.266 C  
HETATM   16  C   UNL     1     -11.473   7.007  70.593  1.00  0.00    -0.367 C  
HETATM   17  O   UNL     1     -10.984   8.766  72.207  1.00  0.00    -0.359 OA 
HETATM   18  C   UNL     1     -10.942   5.808  71.383  1.00  0.00    -0.304 C  
HETATM   19  C   UNL     1     -11.266   6.793  69.085  1.00  0.00    -0.236 C  
ENDBRANCH  13  14
ENDBRANCH   2  13
BRANCH   4  20
HETATM   20  C   UNL     1     -10.482  11.597  68.752  1.00  0.00    -0.226 C  
BRANCH  20  21
HETATM   21  C   UNL     1     -11.468  11.467  67.565  1.00  0.00    -0.355 C  
BRANCH  21  22
HETATM   22  C   UNL     1     -11.499  12.470  66.409  1.00  0.00    -0.365 C  
HETATM   23  C   UNL     1     -11.476  13.937  66.792  1.00  0.00    -0.369 C  
HETATM   24  C   UNL     1     -11.182  14.745  65.533  1.00  0.00    -0.346 C  
HETATM   25  O   UNL     1      -9.798  14.646  65.172  1.00  0.00    -0.480 OA 
HETATM   26  C   UNL     1     -12.082  14.349  64.372  1.00  0.00    -0.491 C  
HETATM   27  C   UNL     1     -12.417  12.872  64.282  1.00  0.00    -0.349 C  
HETATM   28  H   UNL     1      -9.615  15.149  64.388  1.00  0.00     0.000 HD 
HETATM   29  O   UNL     1     -12.688  12.327  63.223  1.00  0.00    -0.699 OA 
HETATM   30  O   UNL     1     -12.561  12.226  65.480  1.00  0.00    -0.548 OA 
ENDBRANCH  21  22
ENDBRANCH  20  21
ENDBRANCH   4  20
TORSDOF 5
ENDMDL
MODEL       58
REMARK 921   NORMALIZED FREE ENERGY PREDICTED BY IDOCK:   -5.60 KCAL/MOL
REMARK 922        TOTAL FREE ENERGY PREDICTED BY IDOCK:   -8.82 KCAL/MOL
REMARK 923 INTER-LIGAND FREE ENERGY PREDICTED BY IDOCK:   -7.27 KCAL/MOL
REMARK 924 INTRA-LIGAND FREE ENERGY PREDICTED BY IDOCK:   -1.54 KCAL/MOL
REMARK 927      BINDING AFFINITY PREDICTED BY RF-SCORE:    0.00 PKD
ROOT
HETATM    1  C   UNL     1     -10.780   8.575  69.780  1.00  0.00    -0.213 C  
HETATM    2  C   UNL     1      -9.792   8.727  68.571  1.00  0.00    -0.168 C  
HETATM    3  C   UNL     1      -8.355   8.233  68.799  1.00  0.00    -0.124 C  
HETATM    4  C   UNL     1     -11.411   9.887  70.430  1.00  0.00    -0.372 C  
HETATM    5  C   UNL     1      -8.284   6.842  69.404  1.00  0.00    -0.128 C  
HETATM    6  C   UNL     1     -13.733   9.024  71.273  1.00  0.00    -0.246 C  
HETATM    7  C   UNL     1     -12.320   9.488  71.655  1.00  0.00    -0.480 C  
HETATM    8  C   UNL     1      -9.092   6.849  70.662  1.00  0.00    -0.155 C  
HETATM    9  C   UNL     1     -11.722   8.452  72.550  1.00  0.00    -0.429 C  
HETATM   10  C   UNL     1      -6.820   6.471  69.673  1.00  0.00    -0.065 C  
HETATM   11  C   UNL     1     -10.161   7.646  70.860  1.00  0.00    -0.202 C  
HETATM   12  C   UNL     1     -10.747   7.625  72.180  1.00  0.00    -0.289 C  
ENDROOT
BRANCH   2  13
HETATM   13  O   UNL     1      -9.590  10.087  68.185  1.00  0.00    -0.138 OA 
BRANCH  13  14
HETATM   14  C   UNL     1      -9.153  10.318  66.925  1.00  0.00    -0.143 C  
HETATM   15  C   UNL     1      -6.828  10.310  64.962  1.00  0.00    -0.111 C  
HETATM   16  C   UNL     1      -8.059  11.377  66.922  1.00  0.00    -0.158 C  
HETATM   17  O   UNL     1      -9.620   9.795  65.923  1.00  0.00    -0.209 OA 
HETATM   18  C   UNL     1      -6.749  10.767  66.413  1.00  0.00    -0.131 C  
HETATM   19  C   UNL     1      -7.854  12.014  68.306  1.00  0.00    -0.145 C  
ENDBRANCH  13  14
ENDBRANCH   2  13
BRANCH   4  20
HETATM   20  C   UNL     1     -12.224  10.924  69.548  1.00  0.00    -0.331 C  
BRANCH  20  21
HETATM   21  C   UNL     1     -11.707  12.363  69.796  1.00  0.00    -0.361 C  
BRANCH  21  22
HETATM   22  C   UNL     1     -11.638  13.413  68.685  1.00  0.00    -0.327 C  
HETATM   23  C   UNL     1     -11.259  12.909  67.306  1.00  0.00    -0.329 C  
HETATM   24  C   UNL     1     -11.563  14.016  66.303  1.00  0.00    -0.369 C  
HETATM   25  O   UNL     1     -12.972  14.115  66.061  1.00  0.00    -0.487 OA 
HETATM   26  C   UNL     1     -10.984  15.356  66.730  1.00  0.00    -0.282 C  
HETATM   27  C   UNL     1     -11.017  15.634  68.222  1.00  0.00    -0.315 C  
HETATM   28  H   UNL     1     -13.162  14.805  65.436  1.00  0.00     0.000 HD 
HETATM   29  O   UNL     1     -11.058  16.768  68.675  1.00  0.00    -0.326 OA 
HETATM   30  O   UNL     1     -10.830  14.545  69.029  1.00  0.00    -0.240 OA 
ENDBRANCH  21  22
ENDBRANCH  20  21
ENDBRANCH   4  20
TORSDOF 5
ENDMDL
MODEL       59
REMARK 921   NORMALIZED FREE ENERGY PREDICTED BY IDOCK:   -5.59 KCAL/MOL
REMARK 922        TOTAL FREE ENERGY PREDICTED BY IDOCK:   -8.81 KCAL/MOL
REMARK 923 INTER-LIGAND FREE ENERGY PREDICTED BY IDOCK:   -7.46 KCAL/MOL
REMARK 924 INTRA-LIGAND FREE ENERGY PREDICTED BY IDOCK:   -1.35 KCAL/MOL
REMARK 927      BINDING AFFINITY PREDICTED BY RF-SCORE:    0.00 PKD
ROOT
HETATM    1  C   UNL     1     -12.143  12.442  69.799  1.00  0.00    -0.292 C  
HETATM    2  C   UNL     1     -11.811  10.987  69.316  1.00  0.00    -0.340 C  
HETATM    3  C   UNL     1     -11.805   9.895  70.397  1.00  0.00    -0.310 C  
HETATM    4  C   UNL     1     -11.037  13.580  69.640  1.00  0.00    -0.043 C  
HETATM    5  C   UNL     1     -13.037   9.919  71.285  1.00  0.00    -0.487 C  
HETATM    6  C   UNL     1     -12.495  15.726  69.302  1.00  0.00     0.165 C  
HETATM    7  C   UNL     1     -11.577  14.933  70.243  1.00  0.00    -0.332 C  
HETATM    8  C   UNL     1     -13.157  11.293  71.862  1.00  0.00    -0.510 C  
HETATM    9  C   UNL     1     -12.279  14.784  71.553  1.00  0.00    -0.407 C  
HETATM   10  C   UNL     1     -12.902   8.855  72.381  1.00  0.00    -0.446 C  
HETATM   11  C   UNL     1     -12.720  12.406  71.241  1.00  0.00    -0.347 C  
HETATM   12  C   UNL     1     -12.791  13.637  71.994  1.00  0.00    -0.367 C  
ENDROOT
BRANCH   2  13
HETATM   13  O   UNL     1     -10.501  10.872  68.758  1.00  0.00    -0.181 OA 
BRANCH  13  14
HETATM   14  C   UNL     1     -10.182   9.701  68.158  1.00  0.00    -0.190 C  
HETATM   15  C   UNL     1      -9.475   6.758  68.462  1.00  0.00    -0.131 C  
HETATM   16  C   UNL     1      -8.817   9.214  68.624  1.00  0.00    -0.133 C  
HETATM   17  O   UNL     1     -10.868   9.148  67.309  1.00  0.00    -0.233 OA 
HETATM   18  C   UNL     1      -8.967   7.879  69.359  1.00  0.00    -0.145 C  
HETATM   19  C   UNL     1      -8.099  10.242  69.513  1.00  0.00    -0.170 C  
ENDBRANCH  13  14
ENDBRANCH   2  13
BRANCH   4  20
HETATM   20  C   UNL     1     -10.400  13.906  68.225  1.00  0.00    -0.249 C  
BRANCH  20  21
HETATM   21  C   UNL     1      -9.107  14.740  68.397  1.00  0.00    -0.188 C  
BRANCH  21  22
HETATM   22  C   UNL     1      -8.996  16.191  67.922  1.00  0.00    -0.183 C  
HETATM   23  C   UNL     1      -9.801  16.557  66.689  1.00  0.00    -0.279 C  
HETATM   24  C   UNL     1      -9.820  18.077  66.577  1.00  0.00    -0.353 C  
HETATM   25  O   UNL     1     -10.718  18.650  67.537  1.00  0.00    -0.432 OA 
HETATM   26  C   UNL     1      -8.430  18.682  66.697  1.00  0.00    -0.301 C  
HETATM   27  C   UNL     1      -7.502  17.990  67.679  1.00  0.00    -0.213 C  
HETATM   28  H   UNL     1     -10.730  19.597  67.468  1.00  0.00     0.000 HD 
HETATM   29  O   UNL     1      -6.591  18.579  68.243  1.00  0.00    -0.209 OA 
HETATM   30  O   UNL     1      -7.642  16.632  67.767  1.00  0.00    -0.153 OA 
ENDBRANCH  21  22
ENDBRANCH  20  21
ENDBRANCH   4  20
TORSDOF 5
ENDMDL
MODEL       60
REMARK 921   NORMALIZED FREE ENERGY PREDICTED BY IDOCK:   -5.59 KCAL/MOL
REMARK 922        TOTAL FREE ENERGY PREDICTED BY IDOCK:   -8.81 KCAL/MOL
REMARK 923 INTER-LIGAND FREE ENERGY PREDICTED BY IDOCK:   -7.33 KCAL/MOL
REMARK 924 INTRA-LIGAND FREE ENERGY PREDICTED BY IDOCK:   -1.48 KCAL/MOL
REMARK 927      BINDING AFFINITY PREDICTED BY RF-SCORE:    0.00 PKD
ROOT
HETATM    1  C   UNL     1      -7.275  12.114  68.167  1.00  0.00    -0.096 C  
HETATM    2  C   UNL     1      -8.433  12.798  67.360  1.00  0.00    -0.191 C  
HETATM    3  C   UNL     1      -8.482  14.333  67.409  1.00  0.00    -0.216 C  
HETATM    4  C   UNL     1      -7.648  11.145  69.379  1.00  0.00    -0.013 C  
HETATM    5  C   UNL     1      -7.142  14.989  67.125  1.00  0.00     0.010 C  
HETATM    6  C   UNL     1      -5.664   9.440  69.353  1.00  0.00    -0.034 C  
HETATM    7  C   UNL     1      -6.327  10.626  70.067  1.00  0.00    -0.126 C  
HETATM    8  C   UNL     1      -6.144  14.419  68.081  1.00  0.00    -0.139 C  
HETATM    9  C   UNL     1      -5.289  11.678  70.274  1.00  0.00    -0.111 C  
HETATM   10  C   UNL     1      -7.270  16.510  67.281  1.00  0.00    -0.202 C  
HETATM   11  C   UNL     1      -6.220  13.172  68.588  1.00  0.00    -0.083 C  
HETATM   12  C   UNL     1      -5.250  12.825  69.600  1.00  0.00    -0.076 C  
ENDROOT
BRANCH   2  13
HETATM   13  O   UNL     1      -9.731  12.436  67.833  1.00  0.00    -0.191 OA 
BRANCH  13  14
HETATM   14  C   UNL     1     -10.618  11.970  66.921  1.00  0.00    -0.229 C  
HETATM   15  C   UNL     1     -12.362  12.546  64.496  1.00  0.00    -0.545 C  
HETATM   16  C   UNL     1     -11.924  12.748  66.998  1.00  0.00    -0.364 C  
HETATM   17  O   UNL     1     -10.417  11.014  66.185  1.00  0.00    -0.246 OA 
HETATM   18  C   UNL     1     -12.166  13.486  65.679  1.00  0.00    -0.500 C  
HETATM   19  C   UNL     1     -11.954  13.731  68.180  1.00  0.00    -0.394 C  
ENDBRANCH  13  14
ENDBRANCH   2  13
BRANCH   4  20
HETATM   20  C   UNL     1      -8.600   9.896  69.162  1.00  0.00    -0.157 C  
BRANCH  20  21
HETATM   21  C   UNL     1      -9.055   9.324  70.527  1.00  0.00    -0.307 C  
BRANCH  21  22
HETATM   22  C   UNL     1     -10.508   9.395  71.004  1.00  0.00    -0.322 C  
HETATM   23  C   UNL     1     -11.313   8.114  70.896  1.00  0.00    -0.286 C  
HETATM   24  C   UNL     1     -12.592   8.295  71.707  1.00  0.00    -0.333 C  
HETATM   25  O   UNL     1     -12.324   8.205  73.113  1.00  0.00    -0.652 OA 
HETATM   26  C   UNL     1     -13.310   9.592  71.367  1.00  0.00    -0.435 C  
HETATM   27  C   UNL     1     -12.410  10.776  71.067  1.00  0.00    -0.404 C  
HETATM   28  H   UNL     1     -13.120   8.318  73.618  1.00  0.00     0.000 HD 
HETATM   29  O   UNL     1     -12.765  11.930  71.252  1.00  0.00    -0.382 OA 
HETATM   30  O   UNL     1     -11.240  10.480  70.422  1.00  0.00    -0.304 OA 
ENDBRANCH  21  22
ENDBRANCH  20  21
ENDBRANCH   4  20
TORSDOF 5
ENDMDL
MODEL       61
REMARK 921   NORMALIZED FREE ENERGY PREDICTED BY IDOCK:   -5.58 KCAL/MOL
REMARK 922        TOTAL FREE ENERGY PREDICTED BY IDOCK:   -8.79 KCAL/MOL
REMARK 923 INTER-LIGAND FREE ENERGY PREDICTED BY IDOCK:   -8.24 KCAL/MOL
REMARK 924 INTRA-LIGAND FREE ENERGY PREDICTED BY IDOCK:   -0.55 KCAL/MOL
REMARK 927      BINDING AFFINITY PREDICTED BY RF-SCORE:    0.00 PKD
ROOT
HETATM    1  C   UNL     1     -11.055  11.284  66.906  1.00  0.00    -0.339 C  
HETATM    2  C   UNL     1     -11.612  12.619  67.514  1.00  0.00    -0.359 C  
HETATM    3  C   UNL     1     -11.623  13.840  66.580  1.00  0.00    -0.392 C  
HETATM    4  C   UNL     1      -9.748  10.632  67.547  1.00  0.00    -0.189 C  
HETATM    5  C   UNL     1     -12.229  13.552  65.218  1.00  0.00    -0.474 C  
HETATM    6  C   UNL     1     -10.141   8.080  67.124  1.00  0.00    -0.334 C  
HETATM    7  C   UNL     1      -9.350   9.338  66.738  1.00  0.00    -0.202 C  
HETATM    8  C   UNL     1     -11.498  12.389  64.629  1.00  0.00    -0.384 C  
HETATM    9  C   UNL     1      -9.430   9.493  65.255  1.00  0.00    -0.326 C  
HETATM   10  C   UNL     1     -12.118  14.799  64.331  1.00  0.00    -0.457 C  
HETATM   11  C   UNL     1     -10.930  11.412  65.363  1.00  0.00    -0.249 C  
HETATM   12  C   UNL     1     -10.146  10.434  64.644  1.00  0.00    -0.378 C  
ENDROOT
BRANCH   2  13
HETATM   13  O   UNL     1     -10.845  13.089  68.623  1.00  0.00    -0.247 OA 
BRANCH  13  14
HETATM   14  C   UNL     1     -10.976  14.393  68.962  1.00  0.00    -0.256 C  
HETATM   15  C   UNL     1     -10.656  17.310  68.157  1.00  0.00    -0.386 C  
HETATM   16  C   UNL     1      -9.629  15.100  68.905  1.00  0.00    -0.223 C  
HETATM   17  O   UNL     1     -12.022  14.912  69.327  1.00  0.00    -0.306 OA 
HETATM   18  C   UNL     1      -9.665  16.197  67.837  1.00  0.00    -0.225 C  
HETATM   19  C   UNL     1      -8.467  14.129  68.642  1.00  0.00    -0.120 C  
ENDBRANCH  13  14
ENDBRANCH   2  13
BRANCH   4  20
HETATM   20  C   UNL     1      -9.689  10.270  69.089  1.00  0.00    -0.229 C  
BRANCH  20  21
HETATM   21  C   UNL     1     -11.063   9.741  69.570  1.00  0.00    -0.226 C  
BRANCH  21  22
HETATM   22  C   UNL     1     -11.198   8.672  70.657  1.00  0.00    -0.252 C  
HETATM   23  C   UNL     1      -9.974   7.812  70.908  1.00  0.00    -0.190 C  
HETATM   24  C   UNL     1     -10.192   7.057  72.215  1.00  0.00    -0.186 C  
HETATM   25  O   UNL     1     -10.017   7.925  73.342  1.00  0.00    -0.314 OA 
HETATM   26  C   UNL     1     -11.545   6.363  72.261  1.00  0.00    -0.341 C  
HETATM   27  C   UNL     1     -12.686   7.117  71.603  1.00  0.00    -0.379 C  
HETATM   28  H   UNL     1     -10.153   7.456  74.157  1.00  0.00     0.000 HD 
HETATM   29  O   UNL     1     -13.849   6.972  71.949  1.00  0.00    -0.297 OA 
HETATM   30  O   UNL     1     -12.352   7.841  70.491  1.00  0.00     0.016 OA 
ENDBRANCH  21  22
ENDBRANCH  20  21
ENDBRANCH   4  20
TORSDOF 5
ENDMDL
MODEL       62
REMARK 921   NORMALIZED FREE ENERGY PREDICTED BY IDOCK:   -5.58 KCAL/MOL
REMARK 922        TOTAL FREE ENERGY PREDICTED BY IDOCK:   -8.79 KCAL/MOL
REMARK 923 INTER-LIGAND FREE ENERGY PREDICTED BY IDOCK:   -7.37 KCAL/MOL
REMARK 924 INTRA-LIGAND FREE ENERGY PREDICTED BY IDOCK:   -1.42 KCAL/MOL
REMARK 927      BINDING AFFINITY PREDICTED BY RF-SCORE:    0.00 PKD
ROOT
HETATM    1  C   UNL     1      -9.895  12.020  65.845  1.00  0.00    -0.259 C  
HETATM    2  C   UNL     1      -8.712  11.137  66.374  1.00  0.00    -0.177 C  
HETATM    3  C   UNL     1      -8.540   9.761  65.711  1.00  0.00    -0.147 C  
HETATM    4  C   UNL     1     -11.071  12.414  66.847  1.00  0.00    -0.335 C  
HETATM    5  C   UNL     1      -8.559   9.816  64.193  1.00  0.00    -0.207 C  
HETATM    6  C   UNL     1     -11.831  14.741  65.921  1.00  0.00    -0.204 C  
HETATM    7  C   UNL     1     -12.165  13.251  66.078  1.00  0.00    -0.483 C  
HETATM    8  C   UNL     1      -9.823  10.496  63.777  1.00  0.00    -0.363 C  
HETATM    9  C   UNL     1     -12.513  12.712  64.730  1.00  0.00    -0.555 C  
HETATM   10  C   UNL     1      -8.468   8.394  63.626  1.00  0.00     0.012 C  
HETATM   11  C   UNL     1     -10.450  11.431  64.519  1.00  0.00    -0.381 C  
HETATM   12  C   UNL     1     -11.730  11.890  64.034  1.00  0.00    -0.469 C  
ENDROOT
BRANCH   2  13
HETATM   13  O   UNL     1      -8.845  10.796  67.754  1.00  0.00    -0.129 OA 
BRANCH  13  14
HETATM   14  C   UNL     1      -7.752  10.941  68.539  1.00  0.00    -0.119 C  
HETATM   15  C   UNL     1      -5.408   9.621  69.961  1.00  0.00    -0.032 C  
HETATM   16  C   UNL     1      -7.901  10.132  69.820  1.00  0.00    -0.175 C  
HETATM   17  O   UNL     1      -6.806  11.672  68.282  1.00  0.00    -0.061 OA 
HETATM   18  C   UNL     1      -6.818   9.050  69.879  1.00  0.00    -0.047 C  
HETATM   19  C   UNL     1      -9.297   9.505  69.960  1.00  0.00    -0.265 C  
ENDBRANCH  13  14
ENDBRANCH   2  13
BRANCH   4  20
HETATM   20  C   UNL     1     -10.764  13.164  68.210  1.00  0.00    -0.261 C  
BRANCH  20  21
HETATM   21  C   UNL     1     -11.687  12.633  69.335  1.00  0.00    -0.387 C  
BRANCH  21  22
HETATM   22  C   UNL     1     -12.224  13.532  70.451  1.00  0.00    -0.356 C  
HETATM   23  C   UNL     1     -13.647  13.264  70.903  1.00  0.00     0.463 C  
HETATM   24  C   UNL     1     -13.873  14.018  72.208  1.00  0.00    -0.557 C  
HETATM   25  O   UNL     1     -13.225  13.355  73.302  1.00  0.00    -0.290 OA 
HETATM   26  C   UNL     1     -13.441  15.474  72.116  1.00  0.00    -0.587 C  
HETATM   27  C   UNL     1     -12.203  15.734  71.277  1.00  0.00    -0.438 C  
HETATM   28  H   UNL     1     -13.365  13.825  74.116  1.00  0.00     0.000 HD 
HETATM   29  O   UNL     1     -11.468  16.689  71.476  1.00  0.00    -0.267 OA 
HETATM   30  O   UNL     1     -12.054  14.928  70.181  1.00  0.00    -0.289 OA 
ENDBRANCH  21  22
ENDBRANCH  20  21
ENDBRANCH   4  20
TORSDOF 5
ENDMDL
MODEL       63
REMARK 921   NORMALIZED FREE ENERGY PREDICTED BY IDOCK:   -5.57 KCAL/MOL
REMARK 922        TOTAL FREE ENERGY PREDICTED BY IDOCK:   -8.79 KCAL/MOL
REMARK 923 INTER-LIGAND FREE ENERGY PREDICTED BY IDOCK:   -7.63 KCAL/MOL
REMARK 924 INTRA-LIGAND FREE ENERGY PREDICTED BY IDOCK:   -1.16 KCAL/MOL
REMARK 927      BINDING AFFINITY PREDICTED BY RF-SCORE:    0.00 PKD
ROOT
HETATM    1  C   UNL     1     -10.086  11.449  65.410  1.00  0.00    -0.308 C  
HETATM    2  C   UNL     1      -9.074  10.396  65.982  1.00  0.00    -0.162 C  
HETATM    3  C   UNL     1      -8.708   9.228  65.053  1.00  0.00    -0.221 C  
HETATM    4  C   UNL     1     -11.495  11.637  66.135  1.00  0.00    -0.198 C  
HETATM    5  C   UNL     1      -8.320   9.670  63.653  1.00  0.00    -0.172 C  
HETATM    6  C   UNL     1     -12.016  14.161  65.681  1.00  0.00    -0.401 C  
HETATM    7  C   UNL     1     -12.356  12.700  65.351  1.00  0.00    -0.499 C  
HETATM    8  C   UNL     1      -9.437  10.502  63.111  1.00  0.00    -0.367 C  
HETATM    9  C   UNL     1     -12.321  12.544  63.866  1.00  0.00    -0.576 C  
HETATM   10  C   UNL     1      -8.057   8.437  62.778  1.00  0.00    -0.170 C  
HETATM   11  C   UNL     1     -10.256  11.249  63.880  1.00  0.00    -0.420 C  
HETATM   12  C   UNL     1     -11.367  11.886  63.212  1.00  0.00    -0.373 C  
ENDROOT
BRANCH   2  13
HETATM   13  O   UNL     1      -9.567   9.722  67.141  1.00  0.00    -0.159 OA 
BRANCH  13  14
HETATM   14  C   UNL     1      -8.754   9.668  68.222  1.00  0.00    -0.120 C  
HETATM   15  C   UNL     1      -7.061   7.964  70.090  1.00  0.00    -0.050 C  
HETATM   16  C   UNL     1      -9.346   8.762  69.293  1.00  0.00    -0.149 C  
HETATM   17  O   UNL     1      -7.720  10.310  68.345  1.00  0.00    -0.089 OA 
HETATM   18  C   UNL     1      -8.421   7.566  69.530  1.00  0.00    -0.132 C  
HETATM   19  C   UNL     1     -10.764   8.285  68.941  1.00  0.00    -0.089 C  
ENDBRANCH  13  14
ENDBRANCH   2  13
BRANCH   4  20
HETATM   20  C   UNL     1     -11.577  11.995  67.677  1.00  0.00    -0.392 C  
BRANCH  20  21
HETATM   21  C   UNL     1     -10.331  12.809  68.107  1.00  0.00    -0.243 C  
BRANCH  21  22
HETATM   22  C   UNL     1     -10.436  14.115  68.898  1.00  0.00    -0.222 C  
HETATM   23  C   UNL     1     -11.794  14.433  69.493  1.00  0.00    -0.376 C  
HETATM   24  C   UNL     1     -11.613  15.570  70.492  1.00  0.00    -0.346 C  
HETATM   25  O   UNL     1     -11.009  15.096  71.703  1.00  0.00    -0.542 OA 
HETATM   26  C   UNL     1     -10.827  16.733  69.906  1.00  0.00    -0.106 C  
HETATM   27  C   UNL     1      -9.705  16.349  68.959  1.00  0.00    -0.262 C  
HETATM   28  H   UNL     1     -10.895  15.804  72.326  1.00  0.00     0.000 HD 
HETATM   29  O   UNL     1      -8.720  17.054  68.793  1.00  0.00    -0.263 OA 
HETATM   30  O   UNL     1      -9.942  15.251  68.179  1.00  0.00    -0.218 OA 
ENDBRANCH  21  22
ENDBRANCH  20  21
ENDBRANCH   4  20
TORSDOF 5
ENDMDL
MODEL       64
REMARK 921   NORMALIZED FREE ENERGY PREDICTED BY IDOCK:   -5.56 KCAL/MOL
REMARK 922        TOTAL FREE ENERGY PREDICTED BY IDOCK:   -8.77 KCAL/MOL
REMARK 923 INTER-LIGAND FREE ENERGY PREDICTED BY IDOCK:   -7.19 KCAL/MOL
REMARK 924 INTRA-LIGAND FREE ENERGY PREDICTED BY IDOCK:   -1.57 KCAL/MOL
REMARK 927      BINDING AFFINITY PREDICTED BY RF-SCORE:    0.00 PKD
ROOT
HETATM    1  C   UNL     1      -9.963   8.791  69.294  1.00  0.00    -0.194 C  
HETATM    2  C   UNL     1     -10.093  10.352  69.233  1.00  0.00    -0.230 C  
HETATM    3  C   UNL     1     -11.390  10.951  69.800  1.00  0.00    -0.374 C  
HETATM    4  C   UNL     1      -9.852   7.972  67.930  1.00  0.00    -0.204 C  
HETATM    5  C   UNL     1     -11.749  10.415  71.176  1.00  0.00    -0.387 C  
HETATM    6  C   UNL     1      -8.395   5.916  68.637  1.00  0.00    -0.109 C  
HETATM    7  C   UNL     1      -9.788   6.427  68.242  1.00  0.00    -0.130 C  
HETATM    8  C   UNL     1     -11.800   8.924  71.086  1.00  0.00    -0.353 C  
HETATM    9  C   UNL     1     -10.757   5.972  69.283  1.00  0.00    -0.401 C  
HETATM   10  C   UNL     1     -13.096  11.002  71.620  1.00  0.00    -0.543 C  
HETATM   11  C   UNL     1     -11.057   8.200  70.225  1.00  0.00    -0.221 C  
HETATM   12  C   UNL     1     -11.325   6.782  70.174  1.00  0.00    -0.404 C  
ENDROOT
BRANCH   2  13
HETATM   13  O   UNL     1     -10.081  10.860  67.898  1.00  0.00    -0.171 OA 
BRANCH  13  14
HETATM   14  C   UNL     1      -9.650  12.131  67.720  1.00  0.00    -0.195 C  
HETATM   15  C   UNL     1     -10.308  15.102  67.735  1.00  0.00    -0.243 C  
HETATM   16  C   UNL     1     -10.442  12.816  66.615  1.00  0.00    -0.270 C  
HETATM   17  O   UNL     1      -8.710  12.635  68.319  1.00  0.00    -0.183 OA 
HETATM   18  C   UNL     1     -11.216  14.004  67.193  1.00  0.00    -0.327 C  
HETATM   19  C   UNL     1     -11.396  11.852  65.892  1.00  0.00    -0.365 C  
ENDBRANCH  13  14
ENDBRANCH   2  13
BRANCH   4  20
HETATM   20  C   UNL     1      -8.713   8.295  66.875  1.00  0.00    -0.141 C  
BRANCH  20  21
HETATM   21  C   UNL     1      -9.337   8.718  65.523  1.00  0.00    -0.165 C  
BRANCH  21  22
HETATM   22  C   UNL     1      -8.563   9.523  64.476  1.00  0.00    -0.187 C  
HETATM   23  C   UNL     1      -9.209   9.644  63.109  1.00  0.00    -0.139 C  
HETATM   24  C   UNL     1      -8.469  10.729  62.336  1.00  0.00    -0.266 C  
HETATM   25  O   UNL     1      -8.833  12.033  62.806  1.00  0.00    -0.514 OA 
HETATM   26  C   UNL     1      -6.960  10.534  62.371  1.00  0.00    -0.153 C  
HETATM   27  C   UNL     1      -6.404   9.998  63.677  1.00  0.00    -0.131 C  
HETATM   28  H   UNL     1      -8.372  12.710  62.325  1.00  0.00     0.000 HD 
HETATM   29  O   UNL     1      -5.262  10.231  64.045  1.00  0.00    -0.098 OA 
HETATM   30  O   UNL     1      -7.201   9.103  64.336  1.00  0.00    -0.096 OA 
ENDBRANCH  21  22
ENDBRANCH  20  21
ENDBRANCH   4  20
TORSDOF 5
ENDMDL
MODEL       65
REMARK 921   NORMALIZED FREE ENERGY PREDICTED BY IDOCK:   -5.53 KCAL/MOL
REMARK 922        TOTAL FREE ENERGY PREDICTED BY IDOCK:   -8.73 KCAL/MOL
REMARK 923 INTER-LIGAND FREE ENERGY PREDICTED BY IDOCK:   -8.44 KCAL/MOL
REMARK 924 INTRA-LIGAND FREE ENERGY PREDICTED BY IDOCK:   -0.28 KCAL/MOL
REMARK 927      BINDING AFFINITY PREDICTED BY RF-SCORE:    0.00 PKD
ROOT
HETATM    1  C   UNL     1     -11.451  15.054  67.559  1.00  0.00    -0.339 C  
HETATM    2  C   UNL     1     -11.647  15.923  68.850  1.00  0.00    -0.388 C  
HETATM    3  C   UNL     1     -10.713  17.134  69.003  1.00  0.00    -0.219 C  
HETATM    4  C   UNL     1     -11.007  13.530  67.715  1.00  0.00    -0.284 C  
HETATM    5  C   UNL     1     -10.637  17.998  67.757  1.00  0.00    -0.409 C  
HETATM    6  C   UNL     1     -12.127  12.413  65.631  1.00  0.00    -0.396 C  
HETATM    7  C   UNL     1     -10.822  12.883  66.289  1.00  0.00    -0.295 C  
HETATM    8  C   UNL     1     -10.246  17.118  66.614  1.00  0.00    -0.319 C  
HETATM    9  C   UNL     1     -10.101  13.751  65.311  1.00  0.00    -0.312 C  
HETATM   10  C   UNL     1      -9.621  19.127  67.974  1.00  0.00    -0.397 C  
HETATM   11  C   UNL     1     -10.553  15.807  66.540  1.00  0.00    -0.306 C  
HETATM   12  C   UNL     1      -9.985  15.071  65.435  1.00  0.00    -0.365 C  
ENDROOT
BRANCH   2  13
HETATM   13  O   UNL     1     -11.401  15.195  70.054  1.00  0.00    -0.245 OA 
BRANCH  13  14
HETATM   14  C   UNL     1     -11.755  15.784  71.220  1.00  0.00    -0.440 C  
HETATM   15  C   UNL     1     -12.232  15.496  74.212  1.00  0.00    -0.755 C  
HETATM   16  C   UNL     1     -12.988  15.112  71.808  1.00  0.00    -0.449 C  
HETATM   17  O   UNL     1     -11.198  16.762  71.700  1.00  0.00     0.055 OA 
HETATM   18  C   UNL     1     -12.638  14.475  73.156  1.00  0.00    -0.435 C  
HETATM   19  C   UNL     1     -13.596  14.067  70.859  1.00  0.00    -0.002 C  
ENDBRANCH  13  14
ENDBRANCH   2  13
BRANCH   4  20
HETATM   20  C   UNL     1     -11.857  12.519  68.594  1.00  0.00    -0.340 C  
BRANCH  20  21
HETATM   21  C   UNL     1     -10.954  11.375  69.119  1.00  0.00    -0.289 C  
BRANCH  21  22
HETATM   22  C   UNL     1     -10.097  10.513  68.191  1.00  0.00    -0.158 C  
HETATM   23  C   UNL     1     -10.774   9.295  67.591  1.00  0.00    -0.276 C  
HETATM   24  C   UNL     1      -9.886   8.771  66.467  1.00  0.00    -0.279 C  
HETATM   25  O   UNL     1      -9.985   9.605  65.305  1.00  0.00    -0.396 OA 
HETATM   26  C   UNL     1      -8.438   8.610  66.905  1.00  0.00    -0.113 C  
HETATM   27  C   UNL     1      -7.927   9.667  67.867  1.00  0.00    -0.098 C  
HETATM   28  H   UNL     1      -9.431   9.280  64.605  1.00  0.00     0.000 HD 
HETATM   29  O   UNL     1      -6.746   9.974  67.934  1.00  0.00    -0.066 OA 
HETATM   30  O   UNL     1      -8.842  10.136  68.769  1.00  0.00    -0.131 OA 
ENDBRANCH  21  22
ENDBRANCH  20  21
ENDBRANCH   4  20
TORSDOF 5
ENDMDL
MODEL       66
REMARK 921   NORMALIZED FREE ENERGY PREDICTED BY IDOCK:   -5.49 KCAL/MOL
REMARK 922        TOTAL FREE ENERGY PREDICTED BY IDOCK:   -8.68 KCAL/MOL
REMARK 923 INTER-LIGAND FREE ENERGY PREDICTED BY IDOCK:   -7.61 KCAL/MOL
REMARK 924 INTRA-LIGAND FREE ENERGY PREDICTED BY IDOCK:   -1.07 KCAL/MOL
REMARK 927      BINDING AFFINITY PREDICTED BY RF-SCORE:    0.00 PKD
ROOT
HETATM    1  C   UNL     1      -9.009   8.432  67.684  1.00  0.00    -0.141 C  
HETATM    2  C   UNL     1      -9.458   7.602  68.937  1.00  0.00    -0.149 C  
HETATM    3  C   UNL     1      -9.951   6.171  68.665  1.00  0.00    -0.176 C  
HETATM    4  C   UNL     1      -9.807   9.762  67.313  1.00  0.00    -0.228 C  
HETATM    5  C   UNL     1      -9.018   5.372  67.772  1.00  0.00    -0.108 C  
HETATM    6  C   UNL     1      -7.947  11.232  66.206  1.00  0.00    -0.086 C  
HETATM    7  C   UNL     1      -9.212  10.387  65.994  1.00  0.00    -0.200 C  
HETATM    8  C   UNL     1      -8.809   6.152  66.515  1.00  0.00    -0.134 C  
HETATM    9  C   UNL     1      -8.924   9.392  64.919  1.00  0.00    -0.256 C  
HETATM   10  C   UNL     1      -9.632   3.995  67.488  1.00  0.00    -0.216 C  
HETATM   11  C   UNL     1      -8.855   7.498  66.453  1.00  0.00    -0.178 C  
HETATM   12  C   UNL     1      -8.765   8.089  65.137  1.00  0.00    -0.015 C  
ENDROOT
BRANCH   2  13
HETATM   13  O   UNL     1     -10.570   8.182  69.620  1.00  0.00    -0.227 OA 
BRANCH  13  14
HETATM   14  C   UNL     1     -10.422   8.442  70.940  1.00  0.00    -0.196 C  
HETATM   15  C   UNL     1      -9.921   7.358  73.739  1.00  0.00    -0.333 C  
HETATM   16  C   UNL     1     -11.479   7.708  71.753  1.00  0.00    -0.302 C  
HETATM   17  O   UNL     1      -9.594   9.212  71.407  1.00  0.00    -0.286 OA 
HETATM   18  C   UNL     1     -10.806   6.699  72.689  1.00  0.00    -0.279 C  
HETATM   19  C   UNL     1     -12.521   7.007  70.865  1.00  0.00    -0.319 C  
ENDBRANCH  13  14
ENDBRANCH   2  13
BRANCH   4  20
HETATM   20  C   UNL     1      -9.973  10.935  68.368  1.00  0.00    -0.188 C  
BRANCH  20  21
HETATM   21  C   UNL     1     -11.260  11.743  68.075  1.00  0.00    -0.324 C  
BRANCH  21  22
HETATM   22  C   UNL     1     -11.424  12.600  66.817  1.00  0.00    -0.351 C  
HETATM   23  C   UNL     1     -11.771  14.060  67.039  1.00  0.00    -0.425 C  
HETATM   24  C   UNL     1     -11.566  14.795  65.719  1.00  0.00    -0.290 C  
HETATM   25  O   UNL     1     -10.171  14.995  65.455  1.00  0.00    -0.324 OA 
HETATM   26  C   UNL     1     -12.250  14.093  64.556  1.00  0.00    -0.468 C  
HETATM   27  C   UNL     1     -12.228  12.576  64.608  1.00  0.00    -0.453 C  
HETATM   28  H   UNL     1     -10.043  15.453  64.633  1.00  0.00     0.000 HD 
HETATM   29  O   UNL     1     -12.277  11.888  63.599  1.00  0.00    -0.494 OA 
HETATM   30  O   UNL     1     -12.319  12.027  65.857  1.00  0.00    -0.463 OA 
ENDBRANCH  21  22
ENDBRANCH  20  21
ENDBRANCH   4  20
TORSDOF 5
ENDMDL
MODEL       67
REMARK 921   NORMALIZED FREE ENERGY PREDICTED BY IDOCK:   -5.48 KCAL/MOL
REMARK 922        TOTAL FREE ENERGY PREDICTED BY IDOCK:   -8.67 KCAL/MOL
REMARK 923 INTER-LIGAND FREE ENERGY PREDICTED BY IDOCK:   -7.01 KCAL/MOL
REMARK 924 INTRA-LIGAND FREE ENERGY PREDICTED BY IDOCK:   -1.66 KCAL/MOL
REMARK 927      BINDING AFFINITY PREDICTED BY RF-SCORE:    0.00 PKD
ROOT
HETATM    1  C   UNL     1     -10.914   6.282  70.686  1.00  0.00    -0.370 C  
HETATM    2  C   UNL     1     -10.465   5.519  69.392  1.00  0.00    -0.290 C  
HETATM    3  C   UNL     1      -9.396   4.431  69.579  1.00  0.00    -0.226 C  
HETATM    4  C   UNL     1     -10.651   7.852  70.787  1.00  0.00    -0.222 C  
HETATM    5  C   UNL     1      -9.707   3.470  70.713  1.00  0.00    -0.207 C  
HETATM    6  C   UNL     1     -12.642   8.652  72.284  1.00  0.00    -0.457 C  
HETATM    7  C   UNL     1     -11.134   8.382  72.192  1.00  0.00    -0.415 C  
HETATM    8  C   UNL     1      -9.922   4.278  71.951  1.00  0.00    -0.255 C  
HETATM    9  C   UNL     1     -10.751   7.509  73.341  1.00  0.00    -0.387 C  
HETATM   10  C   UNL     1      -8.548   2.478  70.878  1.00  0.00    -0.104 C  
HETATM   11  C   UNL     1     -10.403   5.537  71.949  1.00  0.00    -0.270 C  
HETATM   12  C   UNL     1     -10.423   6.225  73.220  1.00  0.00    -0.267 C  
ENDROOT
BRANCH   2  13
HETATM   13  O   UNL     1      -9.861   6.376  68.421  1.00  0.00    -0.132 OA 
BRANCH  13  14
HETATM   14  C   UNL     1     -10.105   6.109  67.117  1.00  0.00    -0.170 C  
HETATM   15  C   UNL     1      -9.596   4.309  64.717  1.00  0.00    -0.169 C  
HETATM   16  C   UNL     1      -8.812   6.134  66.314  1.00  0.00    -0.150 C  
HETATM   17  O   UNL     1     -11.219   5.935  66.642  1.00  0.00    -0.172 OA 
HETATM   18  C   UNL     1      -8.540   4.747  65.725  1.00  0.00    -0.124 C  
HETATM   19  C   UNL     1      -7.612   6.611  67.147  1.00  0.00    -0.096 C  
ENDBRANCH  13  14
ENDBRANCH   2  13
BRANCH   4  20
HETATM   20  C   UNL     1     -11.208   8.845  69.682  1.00  0.00     0.035 C  
BRANCH  20  21
HETATM   21  C   UNL     1     -10.045   9.643  69.043  1.00  0.00    -0.193 C  
BRANCH  21  22
HETATM   22  C   UNL     1     -10.096  10.155  67.601  1.00  0.00    -0.190 C  
HETATM   23  C   UNL     1      -8.769  10.235  66.870  1.00  0.00    -0.131 C  
HETATM   24  C   UNL     1      -9.063  10.442  65.388  1.00  0.00    -0.189 C  
HETATM   25  O   UNL     1      -9.515   9.224  64.780  1.00  0.00    -0.447 OA 
HETATM   26  C   UNL     1     -10.051  11.574  65.149  1.00  0.00    -0.313 C  
HETATM   27  C   UNL     1     -11.155  11.703  66.183  1.00  0.00    -0.280 C  
HETATM   28  H   UNL     1      -9.699   9.353  63.857  1.00  0.00     0.000 HD 
HETATM   29  O   UNL     1     -12.244  12.189  65.918  1.00  0.00    -0.604 OA 
HETATM   30  O   UNL     1     -10.800  11.395  67.468  1.00  0.00    -0.214 OA 
ENDBRANCH  21  22
ENDBRANCH  20  21
ENDBRANCH   4  20
TORSDOF 5
ENDMDL
MODEL       68
REMARK 921   NORMALIZED FREE ENERGY PREDICTED BY IDOCK:   -5.47 KCAL/MOL
REMARK 922        TOTAL FREE ENERGY PREDICTED BY IDOCK:   -8.65 KCAL/MOL
REMARK 923 INTER-LIGAND FREE ENERGY PREDICTED BY IDOCK:   -6.93 KCAL/MOL
REMARK 924 INTRA-LIGAND FREE ENERGY PREDICTED BY IDOCK:   -1.71 KCAL/MOL
REMARK 927      BINDING AFFINITY PREDICTED BY RF-SCORE:    0.00 PKD
ROOT
HETATM    1  C   UNL     1     -11.667  12.239  66.436  1.00  0.00    -0.431 C  
HETATM    2  C   UNL     1     -11.201  11.632  67.805  1.00  0.00    -0.268 C  
HETATM    3  C   UNL     1     -10.897  12.637  68.927  1.00  0.00    -0.238 C  
HETATM    4  C   UNL     1     -10.763  12.009  65.142  1.00  0.00    -0.332 C  
HETATM    5  C   UNL     1     -11.990  13.673  69.121  1.00  0.00    -0.394 C  
HETATM    6  C   UNL     1     -12.540  11.986  63.223  1.00  0.00    -0.512 C  
HETATM    7  C   UNL     1     -11.402  12.754  63.909  1.00  0.00    -0.498 C  
HETATM    8  C   UNL     1     -12.224  14.341  67.805  1.00  0.00    -0.199 C  
HETATM    9  C   UNL     1     -11.895  14.131  64.213  1.00  0.00    -0.420 C  
HETATM   10  C   UNL     1     -11.561  14.679  70.197  1.00  0.00    -0.336 C  
HETATM   11  C   UNL     1     -12.035  13.737  66.615  1.00  0.00    -0.469 C  
HETATM   12  C   UNL     1     -12.177  14.564  65.439  1.00  0.00    -0.294 C  
ENDROOT
BRANCH   2  13
HETATM   13  O   UNL     1      -9.974  10.907  67.704  1.00  0.00    -0.169 OA 
BRANCH  13  14
HETATM   14  C   UNL     1      -9.945   9.657  68.222  1.00  0.00    -0.155 C  
HETATM   15  C   UNL     1     -10.011   7.892  70.700  1.00  0.00    -0.188 C  
HETATM   16  C   UNL     1      -8.759   9.493  69.162  1.00  0.00    -0.146 C  
HETATM   17  O   UNL     1     -10.728   8.765  67.924  1.00  0.00    -0.203 OA 
HETATM   18  C   UNL     1      -9.258   9.211  70.582  1.00  0.00    -0.310 C  
HETATM   19  C   UNL     1      -7.827  10.715  69.150  1.00  0.00    -0.142 C  
ENDBRANCH  13  14
ENDBRANCH   2  13
BRANCH   4  20
HETATM   20  C   UNL     1     -10.373  10.546  64.670  1.00  0.00    -0.290 C  
BRANCH  20  21
HETATM   21  C   UNL     1      -9.079  10.583  63.819  1.00  0.00    -0.258 C  
BRANCH  21  22
HETATM   22  C   UNL     1      -7.799   9.857  64.238  1.00  0.00    -0.139 C  
HETATM   23  C   UNL     1      -7.146  10.334  65.521  1.00  0.00    -0.142 C  
HETATM   24  C   UNL     1      -6.105   9.297  65.930  1.00  0.00    -0.055 C  
HETATM   25  O   UNL     1      -6.733   8.133  66.486  1.00  0.00    -0.060 OA 
HETATM   26  C   UNL     1      -5.180   8.925  64.781  1.00  0.00    -0.038 C  
HETATM   27  C   UNL     1      -5.831   8.869  63.412  1.00  0.00    -0.077 C  
HETATM   28  H   UNL     1      -6.085   7.487  66.740  1.00  0.00     0.000 HD 
HETATM   29  O   UNL     1      -5.405   8.158  62.514  1.00  0.00    -0.062 OA 
HETATM   30  O   UNL     1      -6.823   9.786  63.192  1.00  0.00    -0.106 OA 
ENDBRANCH  21  22
ENDBRANCH  20  21
ENDBRANCH   4  20
TORSDOF 5
ENDMDL
MODEL       69
REMARK 921   NORMALIZED FREE ENERGY PREDICTED BY IDOCK:   -5.45 KCAL/MOL
REMARK 922        TOTAL FREE ENERGY PREDICTED BY IDOCK:   -8.62 KCAL/MOL
REMARK 923 INTER-LIGAND FREE ENERGY PREDICTED BY IDOCK:   -8.09 KCAL/MOL
REMARK 924 INTRA-LIGAND FREE ENERGY PREDICTED BY IDOCK:   -0.53 KCAL/MOL
REMARK 927      BINDING AFFINITY PREDICTED BY RF-SCORE:    0.00 PKD
ROOT
HETATM    1  C   UNL     1     -10.248  11.538  65.913  1.00  0.00    -0.286 C  
HETATM    2  C   UNL     1      -9.581  10.595  66.974  1.00  0.00    -0.169 C  
HETATM    3  C   UNL     1      -9.194   9.190  66.488  1.00  0.00    -0.221 C  
HETATM    4  C   UNL     1     -11.741  12.043  66.159  1.00  0.00    -0.313 C  
HETATM    5  C   UNL     1      -8.418   9.196  65.182  1.00  0.00    -0.182 C  
HETATM    6  C   UNL     1     -11.733  14.384  64.989  1.00  0.00    -0.389 C  
HETATM    7  C   UNL     1     -12.211  12.926  64.939  1.00  0.00    -0.504 C  
HETATM    8  C   UNL     1      -9.227   9.946  64.174  1.00  0.00    -0.312 C  
HETATM    9  C   UNL     1     -11.847  12.368  63.603  1.00  0.00    -0.610 C  
HETATM   10  C   UNL     1      -8.152   7.753  64.735  1.00  0.00    -0.131 C  
HETATM   11  C   UNL     1     -10.076  10.944  64.488  1.00  0.00    -0.404 C  
HETATM   12  C   UNL     1     -10.880  11.473  63.411  1.00  0.00    -0.423 C  
ENDROOT
BRANCH   2  13
HETATM   13  O   UNL     1     -10.437  10.310  68.081  1.00  0.00    -0.167 OA 
BRANCH  13  14
HETATM   14  C   UNL     1      -9.878  10.303  69.314  1.00  0.00    -0.228 C  
HETATM   15  C   UNL     1      -9.426   8.815  71.929  1.00  0.00    -0.362 C  
HETATM   16  C   UNL     1     -10.948  10.156  70.387  1.00  0.00    -0.386 C  
HETATM   17  O   UNL     1      -8.685  10.459  69.535  1.00  0.00    -0.157 OA 
HETATM   18  C   UNL     1     -10.737   8.847  71.154  1.00  0.00    -0.333 C  
HETATM   19  C   UNL     1     -12.372  10.218  69.810  1.00  0.00    -0.030 C  
ENDBRANCH  13  14
ENDBRANCH   2  13
BRANCH   4  20
HETATM   20  C   UNL     1     -12.132  12.815  67.488  1.00  0.00    -0.213 C  
BRANCH  20  21
HETATM   21  C   UNL     1     -11.191  14.027  67.702  1.00  0.00    -0.317 C  
BRANCH  21  22
HETATM   22  C   UNL     1     -11.371  15.012  68.859  1.00  0.00    -0.297 C  
HETATM   23  C   UNL     1     -10.099  15.555  69.483  1.00  0.00    -0.278 C  
HETATM   24  C   UNL     1     -10.479  16.738  70.366  1.00  0.00     0.498 C  
HETATM   25  O   UNL     1     -10.781  17.894  69.573  1.00  0.00    -0.275 OA 
HETATM   26  C   UNL     1     -11.624  16.408  71.311  1.00  0.00    -0.282 C  
HETATM   27  C   UNL     1     -12.693  15.491  70.744  1.00  0.00    -0.457 C  
HETATM   28  H   UNL     1     -11.018  18.631  70.123  1.00  0.00     0.000 HD 
HETATM   29  O   UNL     1     -13.849  15.513  71.139  1.00  0.00    -0.549 OA 
HETATM   30  O   UNL     1     -12.246  14.526  69.883  1.00  0.00    -0.312 OA 
ENDBRANCH  21  22
ENDBRANCH  20  21
ENDBRANCH   4  20
TORSDOF 5
ENDMDL
MODEL       70
REMARK 921   NORMALIZED FREE ENERGY PREDICTED BY IDOCK:   -5.41 KCAL/MOL
REMARK 922        TOTAL FREE ENERGY PREDICTED BY IDOCK:   -8.58 KCAL/MOL
REMARK 923 INTER-LIGAND FREE ENERGY PREDICTED BY IDOCK:   -6.84 KCAL/MOL
REMARK 924 INTRA-LIGAND FREE ENERGY PREDICTED BY IDOCK:   -1.74 KCAL/MOL
REMARK 927      BINDING AFFINITY PREDICTED BY RF-SCORE:    0.00 PKD
ROOT
HETATM    1  C   UNL     1      -8.699   8.427  66.608  1.00  0.00    -0.144 C  
HETATM    2  C   UNL     1      -9.266   9.886  66.705  1.00  0.00    -0.153 C  
HETATM    3  C   UNL     1      -8.274  10.973  67.148  1.00  0.00    -0.133 C  
HETATM    4  C   UNL     1      -9.306   7.298  67.558  1.00  0.00    -0.144 C  
HETATM    5  C   UNL     1      -6.959  10.936  66.389  1.00  0.00    -0.134 C  
HETATM    6  C   UNL     1      -9.030   5.142  66.101  1.00  0.00    -0.135 C  
HETATM    7  C   UNL     1      -8.544   5.938  67.320  1.00  0.00    -0.106 C  
HETATM    8  C   UNL     1      -6.394   9.559  66.523  1.00  0.00    -0.066 C  
HETATM    9  C   UNL     1      -7.060   6.076  67.216  1.00  0.00    -0.070 C  
HETATM   10  C   UNL     1      -6.008  11.997  66.957  1.00  0.00    -0.135 C  
HETATM   11  C   UNL     1      -7.147   8.452  66.673  1.00  0.00    -0.073 C  
HETATM   12  C   UNL     1      -6.440   7.217  66.924  1.00  0.00    -0.055 C  
ENDROOT
BRANCH   2  13
HETATM   13  O   UNL     1     -10.311  10.014  67.670  1.00  0.00    -0.193 OA 
BRANCH  13  14
HETATM   14  C   UNL     1     -11.200  11.019  67.494  1.00  0.00    -0.302 C  
HETATM   15  C   UNL     1     -11.961  13.913  68.048  1.00  0.00    -0.390 C  
HETATM   16  C   UNL     1     -11.739  11.499  68.835  1.00  0.00    -0.403 C  
HETATM   17  O   UNL     1     -11.567  11.438  66.405  1.00  0.00    -0.369 OA 
HETATM   18  C   UNL     1     -11.339  12.959  69.061  1.00  0.00    -0.341 C  
HETATM   19  C   UNL     1     -11.266  10.622  70.006  1.00  0.00    -0.382 C  
ENDBRANCH  13  14
ENDBRANCH   2  13
BRANCH   4  20
HETATM   20  C   UNL     1     -10.860   6.983  67.560  1.00  0.00    -0.338 C  
BRANCH  20  21
HETATM   21  C   UNL     1     -11.265   6.286  68.882  1.00  0.00    -0.387 C  
BRANCH  21  22
HETATM   22  C   UNL     1     -11.102   6.957  70.248  1.00  0.00    -0.297 C  
HETATM   23  C   UNL     1     -10.050   6.364  71.166  1.00  0.00    -0.213 C  
HETATM   24  C   UNL     1      -9.815   7.348  72.306  1.00  0.00    -0.167 C  
HETATM   25  O   UNL     1      -9.036   8.467  71.864  1.00  0.00    -0.192 OA 
HETATM   26  C   UNL     1     -11.115   7.804  72.951  1.00  0.00    -0.457 C  
HETATM   27  C   UNL     1     -12.284   7.987  72.000  1.00  0.00    -0.331 C  
HETATM   28  H   UNL     1      -8.889   9.081  72.575  1.00  0.00     0.000 HD 
HETATM   29  O   UNL     1     -13.196   8.766  72.229  1.00  0.00    -0.378 OA 
HETATM   30  O   UNL     1     -12.338   7.105  70.955  1.00  0.00    -0.352 OA 
ENDBRANCH  21  22
ENDBRANCH  20  21
ENDBRANCH   4  20
TORSDOF 5
ENDMDL
MODEL       71
REMARK 921   NORMALIZED FREE ENERGY PREDICTED BY IDOCK:   -5.39 KCAL/MOL
REMARK 922        TOTAL FREE ENERGY PREDICTED BY IDOCK:   -8.54 KCAL/MOL
REMARK 923 INTER-LIGAND FREE ENERGY PREDICTED BY IDOCK:   -7.36 KCAL/MOL
REMARK 924 INTRA-LIGAND FREE ENERGY PREDICTED BY IDOCK:   -1.18 KCAL/MOL
REMARK 927      BINDING AFFINITY PREDICTED BY RF-SCORE:    0.00 PKD
ROOT
HETATM    1  C   UNL     1      -9.828   4.195  69.729  1.00  0.00    -0.220 C  
HETATM    2  C   UNL     1      -9.877   5.006  68.388  1.00  0.00    -0.147 C  
HETATM    3  C   UNL     1      -9.037   4.452  67.226  1.00  0.00    -0.145 C  
HETATM    4  C   UNL     1      -9.237   4.896  71.034  1.00  0.00    -0.192 C  
HETATM    5  C   UNL     1      -9.245   2.967  66.987  1.00  0.00    -0.176 C  
HETATM    6  C   UNL     1     -10.593   3.736  72.948  1.00  0.00    -0.229 C  
HETATM    7  C   UNL     1      -9.241   3.873  72.234  1.00  0.00    -0.161 C  
HETATM    8  C   UNL     1      -8.980   2.255  68.274  1.00  0.00    -0.186 C  
HETATM    9  C   UNL     1      -8.770   2.502  71.873  1.00  0.00    -0.105 C  
HETATM   10  C   UNL     1      -8.307   2.489  65.871  1.00  0.00    -0.093 C  
HETATM   11  C   UNL     1      -9.182   2.804  69.488  1.00  0.00    -0.204 C  
HETATM   12  C   UNL     1      -8.748   2.030  70.629  1.00  0.00    -0.109 C  
ENDROOT
BRANCH   2  13
HETATM   13  O   UNL     1      -9.371   6.336  68.523  1.00  0.00    -0.123 OA 
BRANCH  13  14
HETATM   14  C   UNL     1     -10.018   7.318  67.853  1.00  0.00    -0.158 C  
HETATM   15  C   UNL     1      -9.886   9.542  65.781  1.00  0.00    -0.363 C  
HETATM   16  C   UNL     1      -9.363   8.667  68.116  1.00  0.00    -0.145 C  
HETATM   17  O   UNL     1     -11.027   7.151  67.182  1.00  0.00    -0.342 OA 
HETATM   18  C   UNL     1      -8.805   9.236  66.809  1.00  0.00    -0.142 C  
HETATM   19  C   UNL     1      -8.261   8.587  69.184  1.00  0.00    -0.119 C  
ENDBRANCH  13  14
ENDBRANCH   2  13
BRANCH   4  20
HETATM   20  C   UNL     1      -9.837   6.264  71.568  1.00  0.00    -0.193 C  
BRANCH  20  21
HETATM   21  C   UNL     1     -11.366   6.310  71.326  1.00  0.00    -0.356 C  
BRANCH  21  22
HETATM   22  C   UNL     1     -12.185   7.593  71.492  1.00  0.00    -0.324 C  
HETATM   23  C   UNL     1     -13.693   7.432  71.478  1.00  0.00    -0.467 C  
HETATM   24  C   UNL     1     -14.307   8.735  71.977  1.00  0.00    -0.377 C  
HETATM   25  O   UNL     1     -14.167   8.856  73.399  1.00  0.00    -1.241 OA 
HETATM   26  C   UNL     1     -13.737   9.952  71.264  1.00  0.00    -0.174 C  
HETATM   27  C   UNL     1     -12.260   9.873  70.923  1.00  0.00    -0.328 C  
HETATM   28  H   UNL     1     -14.549   9.668  73.711  1.00  0.00     0.000 HD 
HETATM   29  O   UNL     1     -11.561  10.869  70.812  1.00  0.00    -0.312 OA 
HETATM   30  O   UNL     1     -11.798   8.631  70.584  1.00  0.00    -0.229 OA 
ENDBRANCH  21  22
ENDBRANCH  20  21
ENDBRANCH   4  20
TORSDOF 5
ENDMDL
MODEL       72
REMARK 921   NORMALIZED FREE ENERGY PREDICTED BY IDOCK:   -5.36 KCAL/MOL
REMARK 922        TOTAL FREE ENERGY PREDICTED BY IDOCK:   -8.51 KCAL/MOL
REMARK 923 INTER-LIGAND FREE ENERGY PREDICTED BY IDOCK:   -7.28 KCAL/MOL
REMARK 924 INTRA-LIGAND FREE ENERGY PREDICTED BY IDOCK:   -1.23 KCAL/MOL
REMARK 927      BINDING AFFINITY PREDICTED BY RF-SCORE:    0.00 PKD
ROOT
HETATM    1  C   UNL     1      -7.917  12.124  67.828  1.00  0.00    -0.151 C  
HETATM    2  C   UNL     1      -8.828  13.001  66.900  1.00  0.00    -0.180 C  
HETATM    3  C   UNL     1      -8.724  14.523  67.085  1.00  0.00    -0.237 C  
HETATM    4  C   UNL     1      -8.605  11.121  68.860  1.00  0.00    -0.092 C  
HETATM    5  C   UNL     1      -7.292  15.031  67.101  1.00  0.00    -0.104 C  
HETATM    6  C   UNL     1      -6.841   9.195  69.018  1.00  0.00    -0.055 C  
HETATM    7  C   UNL     1      -7.495  10.396  69.715  1.00  0.00    -0.155 C  
HETATM    8  C   UNL     1      -6.552  14.276  68.157  1.00  0.00    -0.132 C  
HETATM    9  C   UNL     1      -6.407  11.297  70.197  1.00  0.00    -0.120 C  
HETATM   10  C   UNL     1      -7.285  16.541  67.375  1.00  0.00    -0.178 C  
HETATM   11  C   UNL     1      -6.851  13.013  68.523  1.00  0.00    -0.095 C  
HETATM   12  C   UNL     1      -6.124  12.478  69.651  1.00  0.00    -0.133 C  
ENDROOT
BRANCH   2  13
HETATM   13  O   UNL     1     -10.222  12.764  67.104  1.00  0.00    -0.231 OA 
BRANCH  13  14
HETATM   14  C   UNL     1     -10.918  12.224  66.077  1.00  0.00    -0.292 C  
HETATM   15  C   UNL     1     -11.905  12.489  63.211  1.00  0.00    -0.498 C  
HETATM   16  C   UNL     1     -12.069  13.135  65.671  1.00  0.00    -0.501 C  
HETATM   17  O   UNL     1     -10.692  11.125  65.588  1.00  0.00    -0.250 OA 
HETATM   18  C   UNL     1     -11.863  13.619  64.233  1.00  0.00    -0.464 C  
HETATM   19  C   UNL     1     -12.236  14.330  66.623  1.00  0.00    -0.411 C  
ENDBRANCH  13  14
ENDBRANCH   2  13
BRANCH   4  20
HETATM   20  C   UNL     1      -9.628  10.015  68.364  1.00  0.00    -0.153 C  
BRANCH  20  21
HETATM   21  C   UNL     1     -10.809   9.892  69.357  1.00  0.00    -0.265 C  
BRANCH  21  22
HETATM   22  C   UNL     1     -10.895   8.772  70.397  1.00  0.00    -0.228 C  
HETATM   23  C   UNL     1     -10.424   9.119  71.797  1.00  0.00    -0.361 C  
HETATM   24  C   UNL     1     -10.889   8.010  72.735  1.00  0.00    -0.369 C  
HETATM   25  O   UNL     1     -12.293   8.118  73.001  1.00  0.00    -0.666 OA 
HETATM   26  C   UNL     1     -10.534   6.626  72.211  1.00  0.00    -0.229 C  
HETATM   27  C   UNL     1     -10.628   6.457  70.706  1.00  0.00    -0.238 C  
HETATM   28  H   UNL     1     -12.583   7.428  73.585  1.00  0.00     0.000 HD 
HETATM   29  O   UNL     1     -10.854   5.375  70.183  1.00  0.00    -0.281 OA 
HETATM   30  O   UNL     1     -10.280   7.553  69.965  1.00  0.00    -0.206 OA 
ENDBRANCH  21  22
ENDBRANCH  20  21
ENDBRANCH   4  20
TORSDOF 5
ENDMDL
MODEL       73
REMARK 921   NORMALIZED FREE ENERGY PREDICTED BY IDOCK:   -5.35 KCAL/MOL
REMARK 922        TOTAL FREE ENERGY PREDICTED BY IDOCK:   -8.49 KCAL/MOL
REMARK 923 INTER-LIGAND FREE ENERGY PREDICTED BY IDOCK:   -6.80 KCAL/MOL
REMARK 924 INTRA-LIGAND FREE ENERGY PREDICTED BY IDOCK:   -1.70 KCAL/MOL
REMARK 927      BINDING AFFINITY PREDICTED BY RF-SCORE:    0.00 PKD
ROOT
HETATM    1  C   UNL     1      -9.954  14.169  66.657  1.00  0.00    -0.280 C  
HETATM    2  C   UNL     1      -8.679  13.704  67.442  1.00  0.00    -0.213 C  
HETATM    3  C   UNL     1      -7.398  14.521  67.208  1.00  0.00    -0.098 C  
HETATM    4  C   UNL     1     -10.613  13.176  65.598  1.00  0.00    -0.289 C  
HETATM    5  C   UNL     1      -7.610  16.020  67.329  1.00  0.00    -0.227 C  
HETATM    6  C   UNL     1     -13.141  13.843  65.714  1.00  0.00    -0.139 C  
HETATM    7  C   UNL     1     -11.839  13.882  64.900  1.00  0.00    -0.401 C  
HETATM    8  C   UNL     1      -8.710  16.403  66.393  1.00  0.00    -0.355 C  
HETATM    9  C   UNL     1     -11.587  15.299  64.505  1.00  0.00    -0.312 C  
HETATM   10  C   UNL     1      -6.304  16.752  66.996  1.00  0.00    -0.222 C  
HETATM   11  C   UNL     1      -9.720  15.578  66.048  1.00  0.00    -0.378 C  
HETATM   12  C   UNL     1     -10.626  16.057  65.029  1.00  0.00    -0.342 C  
ENDROOT
BRANCH   2  13
HETATM   13  O   UNL     1      -8.264  12.381  67.096  1.00  0.00    -0.178 OA 
BRANCH  13  14
HETATM   14  C   UNL     1      -7.952  11.541  68.111  1.00  0.00    -0.136 C  
HETATM   15  C   UNL     1      -6.032  10.812  70.355  1.00  0.00    -0.128 C  
HETATM   16  C   UNL     1      -6.597  10.890  67.871  1.00  0.00    -0.063 C  
HETATM   17  O   UNL     1      -8.689  11.292  69.055  1.00  0.00    -0.092 OA 
HETATM   18  C   UNL     1      -5.620  11.307  68.974  1.00  0.00    -0.040 C  
HETATM   19  C   UNL     1      -6.021  11.225  66.486  1.00  0.00    -0.144 C  
ENDBRANCH  13  14
ENDBRANCH   2  13
BRANCH   4  20
HETATM   20  C   UNL     1     -11.076  11.720  66.023  1.00  0.00    -0.363 C  
BRANCH  20  21
HETATM   21  C   UNL     1     -10.262  10.651  65.252  1.00  0.00    -0.351 C  
BRANCH  21  22
HETATM   22  C   UNL     1      -9.974   9.264  65.830  1.00  0.00    -0.219 C  
HETATM   23  C   UNL     1     -10.507   8.993  67.224  1.00  0.00    -0.343 C  
HETATM   24  C   UNL     1     -10.411   7.493  67.479  1.00  0.00    -0.271 C  
HETATM   25  O   UNL     1     -11.437   6.786  66.769  1.00  0.00    -0.733 OA 
HETATM   26  C   UNL     1      -9.034   6.939  67.148  1.00  0.00    -0.121 C  
HETATM   27  C   UNL     1      -8.353   7.565  65.944  1.00  0.00    -0.139 C  
HETATM   28  H   UNL     1     -11.378   5.851  66.928  1.00  0.00     0.000 HD 
HETATM   29  O   UNL     1      -7.531   6.961  65.271  1.00  0.00    -0.079 OA 
HETATM   30  O   UNL     1      -8.591   8.899  65.759  1.00  0.00    -0.141 OA 
ENDBRANCH  21  22
ENDBRANCH  20  21
ENDBRANCH   4  20
TORSDOF 5
ENDMDL
MODEL       74
REMARK 921   NORMALIZED FREE ENERGY PREDICTED BY IDOCK:   -5.34 KCAL/MOL
REMARK 922        TOTAL FREE ENERGY PREDICTED BY IDOCK:   -8.49 KCAL/MOL
REMARK 923 INTER-LIGAND FREE ENERGY PREDICTED BY IDOCK:   -7.78 KCAL/MOL
REMARK 924 INTRA-LIGAND FREE ENERGY PREDICTED BY IDOCK:   -0.70 KCAL/MOL
REMARK 927      BINDING AFFINITY PREDICTED BY RF-SCORE:    0.00 PKD
ROOT
HETATM    1  C   UNL     1     -11.362  12.738  69.188  1.00  0.00    -0.337 C  
HETATM    2  C   UNL     1     -10.788  11.281  69.092  1.00  0.00    -0.222 C  
HETATM    3  C   UNL     1     -11.050  10.365  70.297  1.00  0.00    -0.379 C  
HETATM    4  C   UNL     1     -10.348  13.969  69.177  1.00  0.00    -0.064 C  
HETATM    5  C   UNL     1     -12.500  10.363  70.749  1.00  0.00    -0.461 C  
HETATM    6  C   UNL     1     -11.771  15.847  68.040  1.00  0.00    -0.065 C  
HETATM    7  C   UNL     1     -11.149  15.317  69.340  1.00  0.00    -0.283 C  
HETATM    8  C   UNL     1     -12.898  11.780  71.011  1.00  0.00    -0.309 C  
HETATM    9  C   UNL     1     -12.221  15.272  70.378  1.00  0.00    -0.404 C  
HETATM   10  C   UNL     1     -12.648   9.492  72.003  1.00  0.00    -0.456 C  
HETATM   11  C   UNL     1     -12.366  12.838  70.368  1.00  0.00    -0.324 C  
HETATM   12  C   UNL     1     -12.764  14.146  70.836  1.00  0.00    -0.432 C  
ENDROOT
BRANCH   2  13
HETATM   13  O   UNL     1      -9.363  11.250  68.989  1.00  0.00    -0.126 OA 
BRANCH  13  14
HETATM   14  C   UNL     1      -8.813  10.234  68.284  1.00  0.00    -0.126 C  
HETATM   15  C   UNL     1      -7.019   7.776  68.279  1.00  0.00    -0.079 C  
HETATM   16  C   UNL     1      -7.293  10.309  68.333  1.00  0.00    -0.084 C  
HETATM   17  O   UNL     1      -9.450   9.409  67.643  1.00  0.00    -0.131 OA 
HETATM   18  C   UNL     1      -6.735   9.068  69.035  1.00  0.00    -0.051 C  
HETATM   19  C   UNL     1      -6.790  11.589  69.020  1.00  0.00    -0.107 C  
ENDBRANCH  13  14
ENDBRANCH   2  13
BRANCH   4  20
HETATM   20  C   UNL     1      -9.315  14.164  67.989  1.00  0.00    -0.203 C  
BRANCH  20  21
HETATM   21  C   UNL     1      -9.616  13.164  66.846  1.00  0.00    -0.248 C  
BRANCH  21  22
HETATM   22  C   UNL     1     -10.673  13.436  65.773  1.00  0.00    -0.274 C  
HETATM   23  C   UNL     1     -11.050  12.262  64.889  1.00  0.00    -0.356 C  
HETATM   24  C   UNL     1     -12.319  12.636  64.130  1.00  0.00    -0.436 C  
HETATM   25  O   UNL     1     -13.466  12.574  64.988  1.00  0.00    -0.436 OA 
HETATM   26  C   UNL     1     -12.209  13.997  63.459  1.00  0.00    -0.021 C  
HETATM   27  C   UNL     1     -11.435  15.046  64.237  1.00  0.00    -0.128 C  
HETATM   28  H   UNL     1     -14.256  12.807  64.515  1.00  0.00     0.000 HD 
HETATM   29  O   UNL     1     -11.648  16.242  64.111  1.00  0.00    -0.838 OA 
HETATM   30  O   UNL     1     -10.373  14.578  64.963  1.00  0.00    -0.404 OA 
ENDBRANCH  21  22
ENDBRANCH  20  21
ENDBRANCH   4  20
TORSDOF 5
ENDMDL
MODEL       75
REMARK 921   NORMALIZED FREE ENERGY PREDICTED BY IDOCK:   -5.33 KCAL/MOL
REMARK 922        TOTAL FREE ENERGY PREDICTED BY IDOCK:   -8.47 KCAL/MOL
REMARK 923 INTER-LIGAND FREE ENERGY PREDICTED BY IDOCK:   -7.45 KCAL/MOL
REMARK 924 INTRA-LIGAND FREE ENERGY PREDICTED BY IDOCK:   -1.02 KCAL/MOL
REMARK 927      BINDING AFFINITY PREDICTED BY RF-SCORE:    0.00 PKD
ROOT
HETATM    1  C   UNL     1     -11.092  10.430  68.611  1.00  0.00    -0.313 C  
HETATM    2  C   UNL     1     -11.410   9.650  69.933  1.00  0.00    -0.159 C  
HETATM    3  C   UNL     1     -11.738  10.506  71.167  1.00  0.00    -0.323 C  
HETATM    4  C   UNL     1      -9.644  10.282  67.957  1.00  0.00    -0.159 C  
HETATM    5  C   UNL     1     -12.771  11.585  70.895  1.00  0.00    -0.372 C  
HETATM    6  C   UNL     1     -10.156  10.584  65.408  1.00  0.00    -0.358 C  
HETATM    7  C   UNL     1      -9.545  11.197  66.676  1.00  0.00    -0.215 C  
HETATM    8  C   UNL     1     -12.283  12.405  69.744  1.00  0.00    -0.198 C  
HETATM    9  C   UNL     1     -10.124  12.562  66.851  1.00  0.00    -0.232 C  
HETATM   10  C   UNL     1     -12.968  12.438  72.154  1.00  0.00    -0.308 C  
HETATM   11  C   UNL     1     -11.499  11.921  68.760  1.00  0.00    -0.347 C  
HETATM   12  C   UNL     1     -11.006  12.879  67.797  1.00  0.00    -0.269 C  
ENDROOT
BRANCH   2  13
HETATM   13  O   UNL     1     -10.311   8.861  70.393  1.00  0.00    -0.188 OA 
BRANCH  13  14
HETATM   14  C   UNL     1     -10.567   7.576  70.733  1.00  0.00    -0.220 C  
HETATM   15  C   UNL     1     -11.501   5.612  72.861  1.00  0.00    -0.297 C  
HETATM   16  C   UNL     1      -9.706   7.153  71.915  1.00  0.00    -0.169 C  
HETATM   17  O   UNL     1     -11.337   6.840  70.132  1.00  0.00    -0.311 OA 
HETATM   18  C   UNL     1     -10.598   6.813  73.112  1.00  0.00    -0.315 C  
HETATM   19  C   UNL     1      -8.671   8.223  72.300  1.00  0.00    -0.264 C  
ENDBRANCH  13  14
ENDBRANCH   2  13
BRANCH   4  20
HETATM   20  C   UNL     1      -9.065   8.856  67.574  1.00  0.00    -0.146 C  
BRANCH  20  21
HETATM   21  C   UNL     1     -10.213   7.903  67.159  1.00  0.00    -0.360 C  
BRANCH  21  22
HETATM   22  C   UNL     1      -9.975   6.652  66.311  1.00  0.00     0.088 C  
HETATM   23  C   UNL     1     -10.424   5.335  66.916  1.00  0.00    -0.313 C  
HETATM   24  C   UNL     1     -10.408   4.283  65.812  1.00  0.00    -0.153 C  
HETATM   25  O   UNL     1     -11.525   4.449  64.930  1.00  0.00    -1.070 OA 
HETATM   26  C   UNL     1      -9.096   4.276  65.042  1.00  0.00    -0.146 C  
HETATM   27  C   UNL     1      -8.463   5.638  64.822  1.00  0.00    -0.102 C  
HETATM   28  H   UNL     1     -11.516   3.794  64.242  1.00  0.00     0.000 HD 
HETATM   29  O   UNL     1      -7.732   5.873  63.871  1.00  0.00    -0.082 OA 
HETATM   30  O   UNL     1      -8.627   6.537  65.840  1.00  0.00    -0.143 OA 
ENDBRANCH  21  22
ENDBRANCH  20  21
ENDBRANCH   4  20
TORSDOF 5
ENDMDL
MODEL       76
REMARK 921   NORMALIZED FREE ENERGY PREDICTED BY IDOCK:   -5.32 KCAL/MOL
REMARK 922        TOTAL FREE ENERGY PREDICTED BY IDOCK:   -8.46 KCAL/MOL
REMARK 923 INTER-LIGAND FREE ENERGY PREDICTED BY IDOCK:   -8.60 KCAL/MOL
REMARK 924 INTRA-LIGAND FREE ENERGY PREDICTED BY IDOCK:    0.14 KCAL/MOL
REMARK 927      BINDING AFFINITY PREDICTED BY RF-SCORE:    0.00 PKD
ROOT
HETATM    1  C   UNL     1     -10.308  10.784  66.635  1.00  0.00    -0.294 C  
HETATM    2  C   UNL     1     -11.405  11.832  67.032  1.00  0.00    -0.321 C  
HETATM    3  C   UNL     1     -11.725  12.911  65.985  1.00  0.00    -0.456 C  
HETATM    4  C   UNL     1      -8.965  10.710  67.494  1.00  0.00    -0.136 C  
HETATM    5  C   UNL     1     -11.968  12.350  64.595  1.00  0.00    -0.462 C  
HETATM    6  C   UNL     1      -8.316   8.184  67.287  1.00  0.00    -0.121 C  
HETATM    7  C   UNL     1      -7.999   9.629  66.875  1.00  0.00    -0.105 C  
HETATM    8  C   UNL     1     -10.777  11.527  64.221  1.00  0.00    -0.416 C  
HETATM    9  C   UNL     1      -7.904   9.671  65.385  1.00  0.00    -0.117 C  
HETATM   10  C   UNL     1     -12.193  13.501  63.607  1.00  0.00    -0.438 C  
HETATM   11  C   UNL     1     -10.007  10.876  65.115  1.00  0.00    -0.341 C  
HETATM   12  C   UNL     1      -8.817  10.238  64.600  1.00  0.00    -0.220 C  
ENDROOT
BRANCH   2  13
HETATM   13  O   UNL     1     -11.044  12.612  68.173  1.00  0.00    -0.223 OA 
BRANCH  13  14
HETATM   14  C   UNL     1     -10.500  13.831  67.947  1.00  0.00    -0.246 C  
HETATM   15  C   UNL     1      -9.025  16.243  69.071  1.00  0.00    -0.254 C  
HETATM   16  C   UNL     1     -11.167  14.886  68.818  1.00  0.00    -0.288 C  
HETATM   17  O   UNL     1      -9.637  14.061  67.110  1.00  0.00    -0.230 OA 
HETATM   18  C   UNL     1     -10.140  15.487  69.782  1.00  0.00    -0.291 C  
HETATM   19  C   UNL     1     -12.373  14.331  69.593  1.00  0.00    -0.312 C  
ENDBRANCH  13  14
ENDBRANCH   2  13
BRANCH   4  20
HETATM   20  C   UNL     1      -9.011  10.472  69.061  1.00  0.00    -0.183 C  
BRANCH  20  21
HETATM   21  C   UNL     1      -9.842   9.207  69.388  1.00  0.00    -0.173 C  
BRANCH  21  22
HETATM   22  C   UNL     1     -10.972   9.210  70.420  1.00  0.00    -0.248 C  
HETATM   23  C   UNL     1     -11.733   7.908  70.586  1.00  0.00    -0.169 C  
HETATM   24  C   UNL     1     -12.569   8.013  71.857  1.00  0.00    -0.328 C  
HETATM   25  O   UNL     1     -11.747   7.873  73.023  1.00  0.00    -0.604 OA 
HETATM   26  C   UNL     1     -13.380   9.299  71.908  1.00  0.00    -0.498 C  
HETATM   27  C   UNL     1     -12.697  10.524  71.328  1.00  0.00    -0.428 C  
HETATM   28  H   UNL     1     -12.267   7.939  73.815  1.00  0.00     0.000 HD 
HETATM   29  O   UNL     1     -12.961  11.657  71.702  1.00  0.00    -0.432 OA 
HETATM   30  O   UNL     1     -11.892  10.293  70.247  1.00  0.00    -0.265 OA 
ENDBRANCH  21  22
ENDBRANCH  20  21
ENDBRANCH   4  20
TORSDOF 5
ENDMDL
MODEL       77
REMARK 921   NORMALIZED FREE ENERGY PREDICTED BY IDOCK:   -5.28 KCAL/MOL
REMARK 922        TOTAL FREE ENERGY PREDICTED BY IDOCK:   -8.41 KCAL/MOL
REMARK 923 INTER-LIGAND FREE ENERGY PREDICTED BY IDOCK:   -6.95 KCAL/MOL
REMARK 924 INTRA-LIGAND FREE ENERGY PREDICTED BY IDOCK:   -1.45 KCAL/MOL
REMARK 927      BINDING AFFINITY PREDICTED BY RF-SCORE:    0.00 PKD
ROOT
HETATM    1  C   UNL     1     -11.154   9.118  70.573  1.00  0.00    -0.308 C  
HETATM    2  C   UNL     1     -10.865  10.584  70.096  1.00  0.00    -0.227 C  
HETATM    3  C   UNL     1     -11.962  11.622  70.384  1.00  0.00    -0.448 C  
HETATM    4  C   UNL     1     -11.255   7.958  69.483  1.00  0.00     0.123 C  
HETATM    5  C   UNL     1     -12.459  11.591  71.819  1.00  0.00    -0.072 C  
HETATM    6  C   UNL     1     -10.399   5.874  70.814  1.00  0.00    -0.292 C  
HETATM    7  C   UNL     1     -11.604   6.593  70.192  1.00  0.00    -0.446 C  
HETATM    8  C   UNL     1     -12.902  10.196  72.118  1.00  0.00    -0.381 C  
HETATM    9  C   UNL     1     -12.666   6.699  71.237  1.00  0.00    -0.178 C  
HETATM   10  C   UNL     1     -13.605  12.597  71.988  1.00  0.00    -0.426 C  
HETATM   11  C   UNL     1     -12.371   9.101  71.537  1.00  0.00    -0.421 C  
HETATM   12  C   UNL     1     -13.004   7.838  71.838  1.00  0.00    -0.309 C  
ENDROOT
BRANCH   2  13
HETATM   13  O   UNL     1     -10.711  10.689  68.679  1.00  0.00    -0.180 OA 
BRANCH  13  14
HETATM   14  C   UNL     1      -9.720  11.487  68.219  1.00  0.00    -0.198 C  
HETATM   15  C   UNL     1      -8.698  14.313  67.742  1.00  0.00    -0.179 C  
HETATM   16  C   UNL     1     -10.228  12.380  67.096  1.00  0.00    -0.226 C  
HETATM   17  O   UNL     1      -8.561  11.447  68.608  1.00  0.00    -0.157 OA 
HETATM   18  C   UNL     1     -10.132  13.848  67.517  1.00  0.00    -0.244 C  
HETATM   19  C   UNL     1     -11.665  12.033  66.674  1.00  0.00    -0.331 C  
ENDBRANCH  13  14
ENDBRANCH   2  13
BRANCH   4  20
HETATM   20  C   UNL     1     -10.064   7.682  68.472  1.00  0.00    -0.205 C  
BRANCH  20  21
HETATM   21  C   UNL     1     -10.615   7.445  67.045  1.00  0.00    -0.414 C  
BRANCH  21  22
HETATM   22  C   UNL     1     -10.111   6.312  66.148  1.00  0.00     0.167 C  
HETATM   23  C   UNL     1     -10.480   4.904  66.573  1.00  0.00    -0.299 C  
HETATM   24  C   UNL     1     -10.181   3.969  65.406  1.00  0.00    -0.112 C  
HETATM   25  O   UNL     1     -11.174   4.097  64.380  1.00  0.00    -0.708 OA 
HETATM   26  C   UNL     1      -8.782   4.176  64.846  1.00  0.00    -0.125 C  
HETATM   27  C   UNL     1      -8.293   5.612  64.832  1.00  0.00    -0.139 C  
HETATM   28  H   UNL     1     -10.988   3.515  63.652  1.00  0.00     0.000 HD 
HETATM   29  O   UNL     1      -7.467   6.012  64.024  1.00  0.00    -0.067 OA 
HETATM   30  O   UNL     1      -8.706   6.387  65.880  1.00  0.00    -0.149 OA 
ENDBRANCH  21  22
ENDBRANCH  20  21
ENDBRANCH   4  20
TORSDOF 5
ENDMDL
MODEL       78
REMARK 921   NORMALIZED FREE ENERGY PREDICTED BY IDOCK:   -5.28 KCAL/MOL
REMARK 922        TOTAL FREE ENERGY PREDICTED BY IDOCK:   -8.41 KCAL/MOL
REMARK 923 INTER-LIGAND FREE ENERGY PREDICTED BY IDOCK:   -7.27 KCAL/MOL
REMARK 924 INTRA-LIGAND FREE ENERGY PREDICTED BY IDOCK:   -1.14 KCAL/MOL
REMARK 927      BINDING AFFINITY PREDICTED BY RF-SCORE:    0.00 PKD
ROOT
HETATM    1  C   UNL     1     -11.398  12.389  68.786  1.00  0.00    -0.339 C  
HETATM    2  C   UNL     1     -11.814  11.400  69.930  1.00  0.00    -0.359 C  
HETATM    3  C   UNL     1     -12.301  12.040  71.240  1.00  0.00    -0.195 C  
HETATM    4  C   UNL     1      -9.888  12.385  68.274  1.00  0.00    -0.224 C  
HETATM    5  C   UNL     1     -13.347  13.121  71.031  1.00  0.00     0.094 C  
HETATM    6  C   UNL     1     -10.153  13.076  65.765  1.00  0.00    -0.294 C  
HETATM    7  C   UNL     1      -9.699  13.495  67.170  1.00  0.00    -0.244 C  
HETATM    8  C   UNL     1     -12.780  14.126  70.081  1.00  0.00    -0.227 C  
HETATM    9  C   UNL     1     -10.350  14.799  67.494  1.00  0.00    -0.238 C  
HETATM   10  C   UNL     1     -13.706  13.757  72.380  1.00  0.00    -0.692 C  
HETATM   11  C   UNL     1     -11.882  13.827  69.122  1.00  0.00    -0.398 C  
HETATM   12  C   UNL     1     -11.335  14.938  68.378  1.00  0.00    -0.320 C  
ENDROOT
BRANCH   2  13
HETATM   13  O   UNL     1     -10.735  10.577  70.375  1.00  0.00    -0.217 OA 
BRANCH  13  14
HETATM   14  C   UNL     1     -11.051   9.394  70.950  1.00  0.00    -0.319 C  
HETATM   15  C   UNL     1     -10.741   7.520  73.327  1.00  0.00    -0.437 C  
HETATM   16  C   UNL     1      -9.797   8.570  71.206  1.00  0.00    -0.279 C  
HETATM   17  O   UNL     1     -12.192   9.013  71.172  1.00  0.00    -0.298 OA 
HETATM   18  C   UNL     1      -9.621   8.348  72.711  1.00  0.00    -0.308 C  
HETATM   19  C   UNL     1      -8.537   9.215  70.606  1.00  0.00    -0.266 C  
ENDBRANCH  13  14
ENDBRANCH   2  13
BRANCH   4  20
HETATM   20  C   UNL     1      -9.212  11.055  67.738  1.00  0.00    -0.155 C  
BRANCH  20  21
HETATM   21  C   UNL     1     -10.296  10.054  67.266  1.00  0.00    -0.293 C  
BRANCH  21  22
HETATM   22  C   UNL     1     -10.084   8.539  67.297  1.00  0.00    -0.251 C  
HETATM   23  C   UNL     1      -9.643   7.896  65.996  1.00  0.00    -0.037 C  
HETATM   24  C   UNL     1      -9.177   6.478  66.309  1.00  0.00    -0.133 C  
HETATM   25  O   UNL     1      -7.886   6.490  66.933  1.00  0.00    -0.104 OA 
HETATM   26  C   UNL     1     -10.187   5.712  67.149  1.00  0.00    -0.255 C  
HETATM   27  C   UNL     1     -10.921   6.533  68.193  1.00  0.00    -0.281 C  
HETATM   28  H   UNL     1      -7.596   5.607  67.128  1.00  0.00     0.000 HD 
HETATM   29  O   UNL     1     -11.366   6.039  69.219  1.00  0.00    -0.384 OA 
HETATM   30  O   UNL     1     -11.200   7.824  67.839  1.00  0.00     0.183 OA 
ENDBRANCH  21  22
ENDBRANCH  20  21
ENDBRANCH   4  20
TORSDOF 5
ENDMDL
MODEL       79
REMARK 921   NORMALIZED FREE ENERGY PREDICTED BY IDOCK:   -5.27 KCAL/MOL
REMARK 922        TOTAL FREE ENERGY PREDICTED BY IDOCK:   -8.40 KCAL/MOL
REMARK 923 INTER-LIGAND FREE ENERGY PREDICTED BY IDOCK:   -6.98 KCAL/MOL
REMARK 924 INTRA-LIGAND FREE ENERGY PREDICTED BY IDOCK:   -1.41 KCAL/MOL
REMARK 927      BINDING AFFINITY PREDICTED BY RF-SCORE:    0.00 PKD
ROOT
HETATM    1  C   UNL     1     -10.970   7.539  69.324  1.00  0.00    -0.057 C  
HETATM    2  C   UNL     1     -10.680   6.196  68.568  1.00  0.00    -0.300 C  
HETATM    3  C   UNL     1      -9.935   5.113  69.364  1.00  0.00    -0.292 C  
HETATM    4  C   UNL     1     -10.316   8.888  68.781  1.00  0.00    -0.232 C  
HETATM    5  C   UNL     1     -10.530   4.860  70.739  1.00  0.00    -0.166 C  
HETATM    6  C   UNL     1     -12.094  10.680  69.468  1.00  0.00    -0.285 C  
HETATM    7  C   UNL     1     -10.703  10.086  69.731  1.00  0.00    -0.304 C  
HETATM    8  C   UNL     1     -10.580   6.167  71.462  1.00  0.00    -0.288 C  
HETATM    9  C   UNL     1     -10.606   9.769  71.187  1.00  0.00    -0.215 C  
HETATM   10  C   UNL     1      -9.674   3.831  71.488  1.00  0.00    -0.241 C  
HETATM   11  C   UNL     1     -10.720   7.358  70.846  1.00  0.00    -0.248 C  
HETATM   12  C   UNL     1     -10.614   8.533  71.680  1.00  0.00    -0.353 C  
ENDROOT
BRANCH   2  13
HETATM   13  O   UNL     1      -9.836   6.370  67.428  1.00  0.00    -0.122 OA 
BRANCH  13  14
HETATM   14  C   UNL     1      -9.914   5.440  66.448  1.00  0.00    -0.191 C  
HETATM   15  C   UNL     1      -9.018   2.731  65.391  1.00  0.00    -0.137 C  
HETATM   16  C   UNL     1      -8.544   5.196  65.830  1.00  0.00    -0.128 C  
HETATM   17  O   UNL     1     -10.953   4.916  66.070  1.00  0.00    -0.245 OA 
HETATM   18  C   UNL     1      -8.114   3.748  66.077  1.00  0.00    -0.100 C  
HETATM   19  C   UNL     1      -7.480   6.172  66.358  1.00  0.00    -0.086 C  
ENDBRANCH  13  14
ENDBRANCH   2  13
BRANCH   4  20
HETATM   20  C   UNL     1     -10.552   9.365  67.287  1.00  0.00    -0.314 C  
BRANCH  20  21
HETATM   21  C   UNL     1      -9.253   9.973  66.705  1.00  0.00    -0.173 C  
BRANCH  21  22
HETATM   22  C   UNL     1      -9.171  10.529  65.281  1.00  0.00    -0.200 C  
HETATM   23  C   UNL     1     -10.492  10.860  64.613  1.00  0.00    -0.384 C  
HETATM   24  C   UNL     1     -10.193  11.688  63.369  1.00  0.00    -0.433 C  
HETATM   25  O   UNL     1      -9.843  13.034  63.720  1.00  0.00    -0.730 OA 
HETATM   26  C   UNL     1      -9.120  11.052  62.498  1.00  0.00    -0.362 C  
HETATM   27  C   UNL     1      -8.002  10.352  63.249  1.00  0.00    -0.117 C  
HETATM   28  H   UNL     1      -9.656  13.550  62.945  1.00  0.00     0.000 HD 
HETATM   29  O   UNL     1      -6.879  10.228  62.782  1.00  0.00    -0.133 OA 
HETATM   30  O   UNL     1      -8.372   9.724  64.407  1.00  0.00    -0.144 OA 
ENDBRANCH  21  22
ENDBRANCH  20  21
ENDBRANCH   4  20
TORSDOF 5
ENDMDL
MODEL       80
REMARK 921   NORMALIZED FREE ENERGY PREDICTED BY IDOCK:   -5.26 KCAL/MOL
REMARK 922        TOTAL FREE ENERGY PREDICTED BY IDOCK:   -8.38 KCAL/MOL
REMARK 923 INTER-LIGAND FREE ENERGY PREDICTED BY IDOCK:   -6.83 KCAL/MOL
REMARK 924 INTRA-LIGAND FREE ENERGY PREDICTED BY IDOCK:   -1.55 KCAL/MOL
REMARK 927      BINDING AFFINITY PREDICTED BY RF-SCORE:    0.00 PKD
ROOT
HETATM    1  C   UNL     1      -8.707  12.772  67.278  1.00  0.00    -0.200 C  
HETATM    2  C   UNL     1      -9.492  13.869  68.080  1.00  0.00    -0.208 C  
HETATM    3  C   UNL     1      -8.663  14.727  69.049  1.00  0.00    -0.139 C  
HETATM    4  C   UNL     1      -9.080  11.238  67.504  1.00  0.00    -0.151 C  
HETATM    5  C   UNL     1      -7.399  15.291  68.424  1.00  0.00    -0.114 C  
HETATM    6  C   UNL     1      -8.542  10.190  65.167  1.00  0.00    -0.175 C  
HETATM    7  C   UNL     1      -8.126  10.328  66.638  1.00  0.00    -0.119 C  
HETATM    8  C   UNL     1      -6.617  14.147  67.864  1.00  0.00    -0.174 C  
HETATM    9  C   UNL     1      -6.690  10.736  66.674  1.00  0.00    -0.120 C  
HETATM   10  C   UNL     1      -6.599  16.058  69.485  1.00  0.00    -0.201 C  
HETATM   11  C   UNL     1      -7.178  13.011  67.405  1.00  0.00    -0.123 C  
HETATM   12  C   UNL     1      -6.273  11.952  67.022  1.00  0.00    -0.145 C  
ENDROOT
BRANCH   2  13
HETATM   13  O   UNL     1     -10.494  13.322  68.938  1.00  0.00    -0.201 OA 
BRANCH  13  14
HETATM   14  C   UNL     1     -11.588  14.081  69.179  1.00  0.00    -0.313 C  
HETATM   15  C   UNL     1     -13.341  15.498  71.223  1.00  0.00    -0.588 C  
HETATM   16  C   UNL     1     -12.555  13.349  70.100  1.00  0.00    -0.144 C  
HETATM   17  O   UNL     1     -11.798  15.175  68.674  1.00  0.00    -0.339 OA 
HETATM   18  C   UNL     1     -12.709  14.125  71.411  1.00  0.00    -0.439 C  
HETATM   19  C   UNL     1     -12.121  11.901  70.377  1.00  0.00    -0.421 C  
ENDBRANCH  13  14
ENDBRANCH   2  13
BRANCH   4  20
HETATM   20  C   UNL     1     -10.563  10.719  67.289  1.00  0.00    -0.304 C  
BRANCH  20  21
HETATM   21  C   UNL     1     -10.758   9.346  67.980  1.00  0.00    -0.246 C  
BRANCH  21  22
HETATM   22  C   UNL     1     -10.301   9.078  69.415  1.00  0.00    -0.213 C  
HETATM   23  C   UNL     1      -9.039   8.252  69.575  1.00  0.00    -0.154 C  
HETATM   24  C   UNL     1      -8.579   8.375  71.024  1.00  0.00    -0.155 C  
HETATM   25  O   UNL     1      -7.972   9.652  71.262  1.00  0.00    -0.281 OA 
HETATM   26  C   UNL     1      -9.706   8.111  72.011  1.00  0.00    -0.292 C  
HETATM   27  C   UNL     1     -11.074   8.615  71.587  1.00  0.00    -0.305 C  
HETATM   28  H   UNL     1      -7.686   9.730  72.164  1.00  0.00     0.000 HD 
HETATM   29  O   UNL     1     -11.936   8.921  72.397  1.00  0.00    -0.341 OA 
HETATM   30  O   UNL     1     -11.339   8.546  70.247  1.00  0.00    -0.232 OA 
ENDBRANCH  21  22
ENDBRANCH  20  21
ENDBRANCH   4  20
TORSDOF 5
ENDMDL
MODEL       81
REMARK 921   NORMALIZED FREE ENERGY PREDICTED BY IDOCK:   -5.23 KCAL/MOL
REMARK 922        TOTAL FREE ENERGY PREDICTED BY IDOCK:   -8.34 KCAL/MOL
REMARK 923 INTER-LIGAND FREE ENERGY PREDICTED BY IDOCK:   -6.95 KCAL/MOL
REMARK 924 INTRA-LIGAND FREE ENERGY PREDICTED BY IDOCK:   -1.39 KCAL/MOL
REMARK 927      BINDING AFFINITY PREDICTED BY RF-SCORE:    0.00 PKD
ROOT
HETATM    1  C   UNL     1     -10.684  10.951  67.933  1.00  0.00    -0.274 C  
HETATM    2  C   UNL     1     -10.894   9.901  69.079  1.00  0.00    -0.215 C  
HETATM    3  C   UNL     1     -11.317  10.461  70.446  1.00  0.00    -0.417 C  
HETATM    4  C   UNL     1      -9.234  11.109  67.287  1.00  0.00    -0.166 C  
HETATM    5  C   UNL     1     -12.479  11.435  70.364  1.00  0.00    -0.345 C  
HETATM    6  C   UNL     1      -9.796  11.822  64.833  1.00  0.00    -0.251 C  
HETATM    7  C   UNL     1      -9.258  12.255  66.204  1.00  0.00    -0.132 C  
HETATM    8  C   UNL     1     -12.105  12.512  69.398  1.00  0.00    -0.237 C  
HETATM    9  C   UNL     1     -10.002  13.480  66.624  1.00  0.00    -0.282 C  
HETATM   10  C   UNL     1     -12.773  12.003  71.759  1.00  0.00    -0.273 C  
HETATM   11  C   UNL     1     -11.273  12.324  68.354  1.00  0.00    -0.311 C  
HETATM   12  C   UNL     1     -10.910  13.500  67.597  1.00  0.00    -0.273 C  
ENDROOT
BRANCH   2  13
HETATM   13  O   UNL     1      -9.702   9.181  69.400  1.00  0.00    -0.163 OA 
BRANCH  13  14
HETATM   14  C   UNL     1      -9.815   8.142  70.260  1.00  0.00    -0.184 C  
HETATM   15  C   UNL     1     -10.077   7.199  73.141  1.00  0.00    -0.292 C  
HETATM   16  C   UNL     1      -8.654   8.132  71.244  1.00  0.00    -0.162 C  
HETATM   17  O   UNL     1     -10.694   7.293  70.210  1.00  0.00    -0.224 OA 
HETATM   18  C   UNL     1      -9.179   8.335  72.668  1.00  0.00    -0.345 C  
HETATM   19  C   UNL     1      -7.588   9.188  70.907  1.00  0.00    -0.146 C  
ENDBRANCH  13  14
ENDBRANCH   2  13
BRANCH   4  20
HETATM   20  C   UNL     1      -8.483   9.865  66.653  1.00  0.00    -0.126 C  
BRANCH  20  21
HETATM   21  C   UNL     1      -9.501   8.903  65.991  1.00  0.00    -0.320 C  
BRANCH  21  22
HETATM   22  C   UNL     1      -9.571   7.415  66.339  1.00  0.00    -0.114 C  
HETATM   23  C   UNL     1     -10.878   6.924  66.932  1.00  0.00    -0.380 C  
HETATM   24  C   UNL     1     -10.865   5.400  66.898  1.00  0.00    -0.065 C  
HETATM   25  O   UNL     1     -11.094   4.915  65.569  1.00  0.00    -0.769 OA 
HETATM   26  C   UNL     1      -9.583   4.822  67.480  1.00  0.00    -0.190 C  
HETATM   27  C   UNL     1      -8.321   5.613  67.189  1.00  0.00    -0.104 C  
HETATM   28  H   UNL     1     -11.086   3.966  65.547  1.00  0.00     0.000 HD 
HETATM   29  O   UNL     1      -7.218   5.090  67.144  1.00  0.00    -0.074 OA 
HETATM   30  O   UNL     1      -8.474   6.972  67.146  1.00  0.00    -0.119 OA 
ENDBRANCH  21  22
ENDBRANCH  20  21
ENDBRANCH   4  20
TORSDOF 5
ENDMDL
MODEL       82
REMARK 921   NORMALIZED FREE ENERGY PREDICTED BY IDOCK:   -5.22 KCAL/MOL
REMARK 922        TOTAL FREE ENERGY PREDICTED BY IDOCK:   -8.34 KCAL/MOL
REMARK 923 INTER-LIGAND FREE ENERGY PREDICTED BY IDOCK:   -7.75 KCAL/MOL
REMARK 924 INTRA-LIGAND FREE ENERGY PREDICTED BY IDOCK:   -0.59 KCAL/MOL
REMARK 927      BINDING AFFINITY PREDICTED BY RF-SCORE:    0.00 PKD
ROOT
HETATM    1  C   UNL     1      -8.474   7.153  68.479  1.00  0.00    -0.125 C  
HETATM    2  C   UNL     1      -9.419   6.807  69.682  1.00  0.00    -0.146 C  
HETATM    3  C   UNL     1      -9.932   5.360  69.750  1.00  0.00    -0.294 C  
HETATM    4  C   UNL     1      -8.947   8.244  67.415  1.00  0.00    -0.142 C  
HETATM    5  C   UNL     1      -8.834   4.323  69.587  1.00  0.00    -0.134 C  
HETATM    6  C   UNL     1      -6.674   9.280  66.637  1.00  0.00    -0.076 C  
HETATM    7  C   UNL     1      -7.864   8.380  66.277  1.00  0.00    -0.098 C  
HETATM    8  C   UNL     1      -8.117   4.614  68.309  1.00  0.00    -0.084 C  
HETATM    9  C   UNL     1      -7.324   7.077  65.786  1.00  0.00    -0.079 C  
HETATM   10  C   UNL     1      -9.450   2.918  69.582  1.00  0.00    -0.164 C  
HETATM   11  C   UNL     1      -7.996   5.850  67.783  1.00  0.00    -0.098 C  
HETATM   12  C   UNL     1      -7.389   5.940  66.475  1.00  0.00    -0.078 C  
ENDROOT
BRANCH   2  13
HETATM   13  O   UNL     1     -10.632   7.561  69.672  1.00  0.00    -0.233 OA 
BRANCH  13  14
HETATM   14  C   UNL     1     -11.419   7.487  70.771  1.00  0.00    -0.284 C  
HETATM   15  C   UNL     1     -13.732   8.654  72.367  1.00  0.00    -0.410 C  
HETATM   16  C   UNL     1     -11.304   8.758  71.599  1.00  0.00    -0.390 C  
HETATM   17  O   UNL     1     -12.080   6.506  71.085  1.00  0.00    -0.350 OA 
HETATM   18  C   UNL     1     -12.660   9.467  71.652  1.00  0.00    -0.476 C  
HETATM   19  C   UNL     1     -10.219   9.709  71.068  1.00  0.00    -0.252 C  
ENDBRANCH  13  14
ENDBRANCH   2  13
BRANCH   4  20
HETATM   20  C   UNL     1      -9.348   9.709  67.873  1.00  0.00    -0.141 C  
BRANCH  20  21
HETATM   21  C   UNL     1     -10.742  10.084  67.312  1.00  0.00    -0.309 C  
BRANCH  21  22
HETATM   22  C   UNL     1     -10.918  10.921  66.043  1.00  0.00    -0.004 C  
HETATM   23  C   UNL     1      -9.646  11.322  65.321  1.00  0.00    -0.265 C  
HETATM   24  C   UNL     1     -10.035  11.848  63.943  1.00  0.00    -0.329 C  
HETATM   25  O   UNL     1     -10.390  10.771  63.066  1.00  0.00    -0.684 OA 
HETATM   26  C   UNL     1     -11.145  12.886  64.015  1.00  0.00    -0.455 C  
HETATM   27  C   UNL     1     -12.202  12.637  65.075  1.00  0.00    -0.476 C  
HETATM   28  H   UNL     1     -10.633  11.098  62.208  1.00  0.00     0.000 HD 
HETATM   29  O   UNL     1     -13.347  13.048  64.964  1.00  0.00    -0.671 OA 
HETATM   30  O   UNL     1     -11.752  12.069  66.235  1.00  0.00    -0.504 OA 
ENDBRANCH  21  22
ENDBRANCH  20  21
ENDBRANCH   4  20
TORSDOF 5
ENDMDL
MODEL       83
REMARK 921   NORMALIZED FREE ENERGY PREDICTED BY IDOCK:   -5.22 KCAL/MOL
REMARK 922        TOTAL FREE ENERGY PREDICTED BY IDOCK:   -8.33 KCAL/MOL
REMARK 923 INTER-LIGAND FREE ENERGY PREDICTED BY IDOCK:   -7.22 KCAL/MOL
REMARK 924 INTRA-LIGAND FREE ENERGY PREDICTED BY IDOCK:   -1.11 KCAL/MOL
REMARK 927      BINDING AFFINITY PREDICTED BY RF-SCORE:    0.00 PKD
ROOT
HETATM    1  C   UNL     1     -10.678   8.082  69.720  1.00  0.00    -0.231 C  
HETATM    2  C   UNL     1      -9.589   7.192  69.027  1.00  0.00    -0.146 C  
HETATM    3  C   UNL     1      -9.104   5.968  69.821  1.00  0.00    -0.145 C  
HETATM    4  C   UNL     1     -10.327   9.599  70.068  1.00  0.00    -0.298 C  
HETATM    5  C   UNL     1     -10.237   5.127  70.384  1.00  0.00    -0.334 C  
HETATM    6  C   UNL     1     -12.660  10.766  69.869  1.00  0.00    -0.199 C  
HETATM    7  C   UNL     1     -11.549  10.271  70.805  1.00  0.00    -0.446 C  
HETATM    8  C   UNL     1     -11.112   6.025  71.197  1.00  0.00    -0.336 C  
HETATM    9  C   UNL     1     -12.179   9.414  71.853  1.00  0.00    -0.440 C  
HETATM   10  C   UNL     1      -9.658   3.984  71.228  1.00  0.00    -0.245 C  
HETATM   11  C   UNL     1     -11.274   7.340  70.947  1.00  0.00    -0.298 C  
HETATM   12  C   UNL     1     -12.048   8.091  71.908  1.00  0.00    -0.359 C  
ENDROOT
BRANCH   2  13
HETATM   13  O   UNL     1      -8.371   7.895  68.776  1.00  0.00    -0.125 OA 
BRANCH  13  14
HETATM   14  C   UNL     1      -7.745   7.655  67.601  1.00  0.00    -0.122 C  
HETATM   15  C   UNL     1      -5.431   6.327  66.138  1.00  0.00    -0.013 C  
HETATM   16  C   UNL     1      -6.320   8.190  67.633  1.00  0.00    -0.053 C  
HETATM   17  O   UNL     1      -8.274   7.138  66.626  1.00  0.00    -0.107 OA 
HETATM   18  C   UNL     1      -5.329   7.032  67.485  1.00  0.00    -0.016 C  
HETATM   19  C   UNL     1      -6.023   8.993  68.909  1.00  0.00    -0.044 C  
ENDBRANCH  13  14
ENDBRANCH   2  13
BRANCH   4  20
HETATM   20  C   UNL     1      -9.836  10.602  68.942  1.00  0.00    -0.210 C  
BRANCH  20  21
HETATM   21  C   UNL     1     -10.334  10.134  67.552  1.00  0.00    -0.279 C  
BRANCH  21  22
HETATM   22  C   UNL     1     -10.225  11.012  66.303  1.00  0.00    -0.245 C  
HETATM   23  C   UNL     1     -11.183  12.185  66.221  1.00  0.00    -0.382 C  
HETATM   24  C   UNL     1     -10.706  13.101  65.100  1.00  0.00    -0.315 C  
HETATM   25  O   UNL     1      -9.556  13.855  65.509  1.00  0.00    -0.517 OA 
HETATM   26  C   UNL     1     -10.433  12.341  63.810  1.00  0.00    -0.476 C  
HETATM   27  C   UNL     1      -9.837  10.957  63.984  1.00  0.00    -0.322 C  
HETATM   28  H   UNL     1      -9.258  14.426  64.810  1.00  0.00     0.000 HD 
HETATM   29  O   UNL     1      -9.138  10.435  63.129  1.00  0.00    -0.204 OA 
HETATM   30  O   UNL     1     -10.266  10.263  65.083  1.00  0.00    -0.314 OA 
ENDBRANCH  21  22
ENDBRANCH  20  21
ENDBRANCH   4  20
TORSDOF 5
ENDMDL
MODEL       84
REMARK 921   NORMALIZED FREE ENERGY PREDICTED BY IDOCK:   -5.22 KCAL/MOL
REMARK 922        TOTAL FREE ENERGY PREDICTED BY IDOCK:   -8.33 KCAL/MOL
REMARK 923 INTER-LIGAND FREE ENERGY PREDICTED BY IDOCK:   -7.43 KCAL/MOL
REMARK 924 INTRA-LIGAND FREE ENERGY PREDICTED BY IDOCK:   -0.90 KCAL/MOL
REMARK 927      BINDING AFFINITY PREDICTED BY RF-SCORE:    0.00 PKD
ROOT
HETATM    1  C   UNL     1      -8.106  18.456  67.454  1.00  0.00    -0.243 C  
HETATM    2  C   UNL     1      -6.987  17.375  67.251  1.00  0.00    -0.168 C  
HETATM    3  C   UNL     1      -6.255  17.399  65.900  1.00  0.00    -0.013 C  
HETATM    4  C   UNL     1      -9.611  17.975  67.672  1.00  0.00    -0.271 C  
HETATM    5  C   UNL     1      -5.772  18.782  65.500  1.00  0.00    -0.228 C  
HETATM    6  C   UNL     1     -10.582  19.872  69.190  1.00  0.00     0.212 C  
HETATM    7  C   UNL     1     -10.556  19.232  67.795  1.00  0.00    -0.516 C  
HETATM    8  C   UNL     1      -6.950  19.702  65.527  1.00  0.00    -0.317 C  
HETATM    9  C   UNL     1     -10.277  20.310  66.800  1.00  0.00    -0.497 C  
HETATM   10  C   UNL     1      -5.133  18.721  64.106  1.00  0.00    -0.207 C  
HETATM   11  C   UNL     1      -8.009  19.539  66.346  1.00  0.00    -0.323 C  
HETATM   12  C   UNL     1      -9.122  20.439  66.150  1.00  0.00    -0.122 C  
ENDROOT
BRANCH   2  13
HETATM   13  O   UNL     1      -7.487  16.038  67.303  1.00  0.00    -0.161 OA 
BRANCH  13  14
HETATM   14  C   UNL     1      -7.107  15.272  68.352  1.00  0.00    -0.111 C  
HETATM   15  C   UNL     1      -5.440  12.938  69.368  1.00  0.00    -0.080 C  
HETATM   16  C   UNL     1      -7.478  13.815  68.114  1.00  0.00    -0.124 C  
HETATM   17  O   UNL     1      -6.596  15.704  69.376  1.00  0.00    -0.144 OA 
HETATM   18  C   UNL     1      -6.209  12.961  68.053  1.00  0.00    -0.110 C  
HETATM   19  C   UNL     1      -8.319  13.623  66.842  1.00  0.00    -0.017 C  
ENDBRANCH  13  14
ENDBRANCH   2  13
BRANCH   4  20
HETATM   20  C   UNL     1      -9.987  16.975  68.844  1.00  0.00    -0.285 C  
BRANCH  20  21
HETATM   21  C   UNL     1     -11.300  16.225  68.510  1.00  0.00    -0.330 C  
BRANCH  21  22
HETATM   22  C   UNL     1     -11.579  15.634  67.126  1.00  0.00     0.117 C  
HETATM   23  C   UNL     1     -11.556  14.121  67.025  1.00  0.00    -0.404 C  
HETATM   24  C   UNL     1     -12.169  13.732  65.684  1.00  0.00    -0.454 C  
HETATM   25  O   UNL     1     -13.595  13.874  65.713  1.00  0.00    -0.515 OA 
HETATM   26  C   UNL     1     -11.563  14.510  64.526  1.00  0.00    -0.385 C  
HETATM   27  C   UNL     1     -11.212  15.956  64.826  1.00  0.00    -0.355 C  
HETATM   28  H   UNL     1     -13.978  13.631  64.878  1.00  0.00     0.000 HD 
HETATM   29  O   UNL     1     -11.187  16.815  63.957  1.00  0.00    -1.089 OA 
HETATM   30  O   UNL     1     -10.765  16.204  66.095  1.00  0.00    -0.296 OA 
ENDBRANCH  21  22
ENDBRANCH  20  21
ENDBRANCH   4  20
TORSDOF 5
ENDMDL
MODEL       85
REMARK 921   NORMALIZED FREE ENERGY PREDICTED BY IDOCK:   -5.22 KCAL/MOL
REMARK 922        TOTAL FREE ENERGY PREDICTED BY IDOCK:   -8.33 KCAL/MOL
REMARK 923 INTER-LIGAND FREE ENERGY PREDICTED BY IDOCK:   -7.90 KCAL/MOL
REMARK 924 INTRA-LIGAND FREE ENERGY PREDICTED BY IDOCK:   -0.43 KCAL/MOL
REMARK 927      BINDING AFFINITY PREDICTED BY RF-SCORE:    0.00 PKD
ROOT
HETATM    1  C   UNL     1     -10.416  11.570  69.218  1.00  0.00    -0.066 C  
HETATM    2  C   UNL     1     -10.250  12.897  68.398  1.00  0.00    -0.237 C  
HETATM    3  C   UNL     1     -11.418  13.893  68.471  1.00  0.00    -0.346 C  
HETATM    4  C   UNL     1     -10.446  10.179  68.437  1.00  0.00    -0.237 C  
HETATM    5  C   UNL     1     -11.886  14.170  69.889  1.00  0.00    -0.387 C  
HETATM    6  C   UNL     1      -9.409   8.538  70.191  1.00  0.00    -0.164 C  
HETATM    7  C   UNL     1     -10.677   9.002  69.460  1.00  0.00    -0.215 C  
HETATM    8  C   UNL     1     -12.215  12.858  70.525  1.00  0.00    -0.395 C  
HETATM    9  C   UNL     1     -11.725   9.278  70.487  1.00  0.00    -0.225 C  
HETATM   10  C   UNL     1     -13.103  15.103  69.856  1.00  0.00     0.198 C  
HETATM   11  C   UNL     1     -11.612  11.697  70.201  1.00  0.00    -0.303 C  
HETATM   12  C   UNL     1     -12.140  10.500  70.814  1.00  0.00    -0.470 C  
ENDROOT
BRANCH   2  13
HETATM   13  O   UNL     1     -10.129  12.672  66.993  1.00  0.00    -0.221 OA 
BRANCH  13  14
HETATM   14  C   UNL     1     -11.273  12.589  66.275  1.00  0.00    -0.315 C  
HETATM   15  C   UNL     1     -12.616  11.878  63.639  1.00  0.00    -0.555 C  
HETATM   16  C   UNL     1     -11.192  13.466  65.034  1.00  0.00    -0.332 C  
HETATM   17  O   UNL     1     -12.259  11.948  66.614  1.00  0.00    -0.493 OA 
HETATM   18  C   UNL     1     -11.279  12.596  63.777  1.00  0.00    -0.519 C  
HETATM   19  C   UNL     1      -9.920  14.329  65.005  1.00  0.00    -0.208 C  
ENDBRANCH  13  14
ENDBRANCH   2  13
BRANCH   4  20
HETATM   20  C   UNL     1      -9.255   9.756  67.479  1.00  0.00    -0.145 C  
BRANCH  20  21
HETATM   21  C   UNL     1      -9.790   8.902  66.303  1.00  0.00    -0.355 C  
BRANCH  21  22
HETATM   22  C   UNL     1      -9.649   7.378  66.264  1.00  0.00    -0.051 C  
HETATM   23  C   UNL     1     -10.616   6.592  67.128  1.00  0.00    -0.401 C  
HETATM   24  C   UNL     1     -10.538   5.129  66.707  1.00  0.00    -0.200 C  
HETATM   25  O   UNL     1     -11.218   4.917  65.463  1.00  0.00    -0.850 OA 
HETATM   26  C   UNL     1      -9.104   4.624  66.642  1.00  0.00    -0.119 C  
HETATM   27  C   UNL     1      -8.082   5.629  66.143  1.00  0.00    -0.108 C  
HETATM   28  H   UNL     1     -11.169   4.006  65.200  1.00  0.00     0.000 HD 
HETATM   29  O   UNL     1      -7.049   5.288  65.587  1.00  0.00    -0.064 OA 
HETATM   30  O   UNL     1      -8.310   6.929  66.501  1.00  0.00    -0.113 OA 
ENDBRANCH  21  22
ENDBRANCH  20  21
ENDBRANCH   4  20
TORSDOF 5
ENDMDL
MODEL       86
REMARK 921   NORMALIZED FREE ENERGY PREDICTED BY IDOCK:   -5.20 KCAL/MOL
REMARK 922        TOTAL FREE ENERGY PREDICTED BY IDOCK:   -8.30 KCAL/MOL
REMARK 923 INTER-LIGAND FREE ENERGY PREDICTED BY IDOCK:   -6.70 KCAL/MOL
REMARK 924 INTRA-LIGAND FREE ENERGY PREDICTED BY IDOCK:   -1.60 KCAL/MOL
REMARK 927      BINDING AFFINITY PREDICTED BY RF-SCORE:    0.00 PKD
ROOT
HETATM    1  C   UNL     1      -9.696   7.334  71.321  1.00  0.00    -0.168 C  
HETATM    2  C   UNL     1      -9.702   8.707  70.563  1.00  0.00    -0.180 C  
HETATM    3  C   UNL     1     -11.054   9.432  70.478  1.00  0.00    -0.330 C  
HETATM    4  C   UNL     1      -9.314   6.010  70.517  1.00  0.00    -0.177 C  
HETATM    5  C   UNL     1     -11.770   9.531  71.813  1.00  0.00    -0.411 C  
HETATM    6  C   UNL     1      -8.214   4.533  72.376  1.00  0.00    -0.109 C  
HETATM    7  C   UNL     1      -9.433   4.759  71.470  1.00  0.00    -0.209 C  
HETATM    8  C   UNL     1     -11.898   8.148  72.366  1.00  0.00    -0.448 C  
HETATM    9  C   UNL     1     -10.652   4.757  72.331  1.00  0.00    -0.246 C  
HETATM   10  C   UNL     1     -13.141  10.190  71.614  1.00  0.00    -0.550 C  
HETATM   11  C   UNL     1     -11.020   7.157  72.114  1.00  0.00    -0.274 C  
HETATM   12  C   UNL     1     -11.362   5.846  72.615  1.00  0.00    -0.337 C  
ENDROOT
BRANCH   2  13
HETATM   13  O   UNL     1      -9.334   8.585  69.188  1.00  0.00    -0.152 OA 
BRANCH  13  14
HETATM   14  C   UNL     1      -8.915   9.706  68.555  1.00  0.00    -0.124 C  
HETATM   15  C   UNL     1      -9.645  12.362  67.262  1.00  0.00    -0.199 C  
HETATM   16  C   UNL     1      -9.557   9.816  67.179  1.00  0.00    -0.211 C  
HETATM   17  O   UNL     1      -8.085  10.486  69.002  1.00  0.00    -0.124 OA 
HETATM   18  C   UNL     1     -10.436  11.068  67.116  1.00  0.00    -0.274 C  
HETATM   19  C   UNL     1     -10.371   8.566  66.808  1.00  0.00    -0.346 C  
ENDBRANCH  13  14
ENDBRANCH   2  13
BRANCH   4  20
HETATM   20  C   UNL     1      -7.935   5.896  69.743  1.00  0.00    -0.101 C  
BRANCH  20  21
HETATM   21  C   UNL     1      -7.974   4.708  68.750  1.00  0.00    -0.079 C  
BRANCH  21  22
HETATM   22  C   UNL     1      -8.504   4.849  67.321  1.00  0.00    -0.105 C  
HETATM   23  C   UNL     1      -9.114   3.604  66.705  1.00  0.00    -0.178 C  
HETATM   24  C   UNL     1      -9.863   4.024  65.445  1.00  0.00    -0.192 C  
HETATM   25  O   UNL     1     -11.100   4.668  65.775  1.00  0.00    -0.765 OA 
HETATM   26  C   UNL     1      -9.014   4.899  64.535  1.00  0.00    -0.096 C  
HETATM   27  C   UNL     1      -8.088   5.870  65.244  1.00  0.00    -0.133 C  
HETATM   28  H   UNL     1     -11.567   4.930  64.991  1.00  0.00     0.000 HD 
HETATM   29  O   UNL     1      -7.727   6.919  64.733  1.00  0.00    -0.100 OA 
HETATM   30  O   UNL     1      -7.550   5.421  66.419  1.00  0.00    -0.086 OA 
ENDBRANCH  21  22
ENDBRANCH  20  21
ENDBRANCH   4  20
TORSDOF 5
ENDMDL
MODEL       87
REMARK 921   NORMALIZED FREE ENERGY PREDICTED BY IDOCK:   -5.19 KCAL/MOL
REMARK 922        TOTAL FREE ENERGY PREDICTED BY IDOCK:   -8.29 KCAL/MOL
REMARK 923 INTER-LIGAND FREE ENERGY PREDICTED BY IDOCK:   -6.91 KCAL/MOL
REMARK 924 INTRA-LIGAND FREE ENERGY PREDICTED BY IDOCK:   -1.38 KCAL/MOL
REMARK 927      BINDING AFFINITY PREDICTED BY RF-SCORE:    0.00 PKD
ROOT
HETATM    1  C   UNL     1      -9.981   5.213  69.747  1.00  0.00    -0.313 C  
HETATM    2  C   UNL     1      -9.915   5.947  68.363  1.00  0.00    -0.150 C  
HETATM    3  C   UNL     1      -9.196   5.199  67.229  1.00  0.00    -0.119 C  
HETATM    4  C   UNL     1      -9.262   5.875  71.008  1.00  0.00    -0.163 C  
HETATM    5  C   UNL     1      -9.651   3.759  67.074  1.00  0.00    -0.213 C  
HETATM    6  C   UNL     1     -10.762   5.060  72.991  1.00  0.00    -0.307 C  
HETATM    7  C   UNL     1      -9.416   4.933  72.263  1.00  0.00    -0.173 C  
HETATM    8  C   UNL     1      -9.487   3.083  68.397  1.00  0.00    -0.211 C  
HETATM    9  C   UNL     1      -9.185   3.486  71.975  1.00  0.00    -0.171 C  
HETATM   10  C   UNL     1      -8.821   3.072  65.981  1.00  0.00    -0.142 C  
HETATM   11  C   UNL     1      -9.577   3.722  69.580  1.00  0.00    -0.242 C  
HETATM   12  C   UNL     1      -9.260   2.950  70.759  1.00  0.00    -0.205 C  
ENDROOT
BRANCH   2  13
HETATM   13  O   UNL     1      -9.195   7.179  68.421  1.00  0.00    -0.135 OA 
BRANCH  13  14
HETATM   14  C   UNL     1      -9.554   8.151  67.550  1.00  0.00    -0.157 C  
HETATM   15  C   UNL     1      -9.147   9.454  64.831  1.00  0.00    -0.258 C  
HETATM   16  C   UNL     1      -8.366   9.044  67.221  1.00  0.00    -0.111 C  
HETATM   17  O   UNL     1     -10.693   8.326  67.137  1.00  0.00    -0.302 OA 
HETATM   18  C   UNL     1      -8.033   8.935  65.731  1.00  0.00    -0.101 C  
HETATM   19  C   UNL     1      -7.130   8.714  68.075  1.00  0.00    -0.082 C  
ENDBRANCH  13  14
ENDBRANCH   2  13
BRANCH   4  20
HETATM   20  C   UNL     1      -9.620   7.350  71.469  1.00  0.00    -0.163 C  
BRANCH  20  21
HETATM   21  C   UNL     1     -11.093   7.679  71.122  1.00  0.00    -0.269 C  
BRANCH  21  22
HETATM   22  C   UNL     1     -11.566   9.100  70.810  1.00  0.00    -0.276 C  
HETATM   23  C   UNL     1     -10.567  10.003  70.112  1.00  0.00    -0.350 C  
HETATM   24  C   UNL     1     -11.318  11.229  69.605  1.00  0.00    -0.287 C  
HETATM   25  O   UNL     1     -12.094  10.910  68.442  1.00  0.00    -0.776 OA 
HETATM   26  C   UNL     1     -12.183  11.862  70.684  1.00  0.00    -0.424 C  
HETATM   27  C   UNL     1     -12.847  10.889  71.641  1.00  0.00    -0.449 C  
HETATM   28  H   UNL     1     -12.562  11.673  68.126  1.00  0.00     0.000 HD 
HETATM   29  O   UNL     1     -13.893  11.150  72.215  1.00  0.00     0.014 OA 
HETATM   30  O   UNL     1     -12.117   9.773  71.948  1.00  0.00    -0.375 OA 
ENDBRANCH  21  22
ENDBRANCH  20  21
ENDBRANCH   4  20
TORSDOF 5
ENDMDL
MODEL       88
REMARK 921   NORMALIZED FREE ENERGY PREDICTED BY IDOCK:   -5.18 KCAL/MOL
REMARK 922        TOTAL FREE ENERGY PREDICTED BY IDOCK:   -8.27 KCAL/MOL
REMARK 923 INTER-LIGAND FREE ENERGY PREDICTED BY IDOCK:   -7.76 KCAL/MOL
REMARK 924 INTRA-LIGAND FREE ENERGY PREDICTED BY IDOCK:   -0.51 KCAL/MOL
REMARK 927      BINDING AFFINITY PREDICTED BY RF-SCORE:    0.00 PKD
ROOT
HETATM    1  C   UNL     1     -11.599  12.962  70.289  1.00  0.00    -0.051 C  
HETATM    2  C   UNL     1     -11.530  14.514  70.074  1.00  0.00    -0.258 C  
HETATM    3  C   UNL     1     -12.700  15.334  70.640  1.00  0.00    -0.470 C  
HETATM    4  C   UNL     1     -11.682  12.009  69.013  1.00  0.00    -0.382 C  
HETATM    5  C   UNL     1     -13.038  14.986  72.080  1.00  0.00    -0.440 C  
HETATM    6  C   UNL     1     -10.462   9.853  69.854  1.00  0.00    -0.309 C  
HETATM    7  C   UNL     1     -11.799  10.507  69.479  1.00  0.00    -0.287 C  
HETATM    8  C   UNL     1     -13.287  13.514  72.147  1.00  0.00    -0.593 C  
HETATM    9  C   UNL     1     -12.751  10.289  70.609  1.00  0.00    -0.382 C  
HETATM   10  C   UNL     1     -14.266  15.789  72.528  1.00  0.00    -0.406 C  
HETATM   11  C   UNL     1     -12.700  12.617  71.329  1.00  0.00    -0.354 C  
HETATM   12  C   UNL     1     -13.151  11.249  71.439  1.00  0.00    -0.395 C  
ENDROOT
BRANCH   2  13
HETATM   13  O   UNL     1     -11.537  14.886  68.694  1.00  0.00    -0.290 OA 
BRANCH  13  14
HETATM   14  C   UNL     1     -10.574  15.739  68.275  1.00  0.00    -0.271 C  
HETATM   15  C   UNL     1      -9.860  18.260  66.728  1.00  0.00    -0.344 C  
HETATM   16  C   UNL     1     -10.540  15.804  66.754  1.00  0.00    -0.309 C  
HETATM   17  O   UNL     1      -9.796  16.325  69.015  1.00  0.00    -0.234 OA 
HETATM   18  C   UNL     1     -10.885  17.222  66.288  1.00  0.00     0.051 C  
HETATM   19  C   UNL     1     -11.481  14.779  66.101  1.00  0.00    -0.311 C  
ENDBRANCH  13  14
ENDBRANCH   2  13
BRANCH   4  20
HETATM   20  C   UNL     1     -10.580  12.074  67.874  1.00  0.00    -0.227 C  
BRANCH  20  21
HETATM   21  C   UNL     1      -9.196  11.674  68.443  1.00  0.00    -0.182 C  
BRANCH  21  22
HETATM   22  C   UNL     1      -7.901  12.370  68.018  1.00  0.00    -0.141 C  
HETATM   23  C   UNL     1      -6.610  11.648  68.354  1.00  0.00    -0.061 C  
HETATM   24  C   UNL     1      -5.483  12.319  67.576  1.00  0.00    -0.118 C  
HETATM   25  O   UNL     1      -5.525  11.948  66.192  1.00  0.00    -0.494 OA 
HETATM   26  C   UNL     1      -5.491  13.832  67.739  1.00  0.00    -0.047 C  
HETATM   27  C   UNL     1      -6.865  14.471  67.817  1.00  0.00    -0.177 C  
HETATM   28  H   UNL     1      -4.823  12.366  65.707  1.00  0.00     0.000 HD 
HETATM   29  O   UNL     1      -7.069  15.625  67.470  1.00  0.00    -0.151 OA 
HETATM   30  O   UNL     1      -7.824  13.732  68.453  1.00  0.00    -0.131 OA 
ENDBRANCH  21  22
ENDBRANCH  20  21
ENDBRANCH   4  20
TORSDOF 5
ENDMDL
MODEL       89
REMARK 921   NORMALIZED FREE ENERGY PREDICTED BY IDOCK:   -5.17 KCAL/MOL
REMARK 922        TOTAL FREE ENERGY PREDICTED BY IDOCK:   -8.27 KCAL/MOL
REMARK 923 INTER-LIGAND FREE ENERGY PREDICTED BY IDOCK:   -7.35 KCAL/MOL
REMARK 924 INTRA-LIGAND FREE ENERGY PREDICTED BY IDOCK:   -0.92 KCAL/MOL
REMARK 927      BINDING AFFINITY PREDICTED BY RF-SCORE:    0.00 PKD
ROOT
HETATM    1  C   UNL     1      -9.538   6.376  69.831  1.00  0.00    -0.166 C  
HETATM    2  C   UNL     1      -9.997   7.324  68.669  1.00  0.00    -0.166 C  
HETATM    3  C   UNL     1      -9.757   6.814  67.239  1.00  0.00    -0.175 C  
HETATM    4  C   UNL     1      -8.398   6.876  70.829  1.00  0.00    -0.127 C  
HETATM    5  C   UNL     1     -10.237   5.390  67.019  1.00  0.00    -0.274 C  
HETATM    6  C   UNL     1      -9.042   5.661  73.055  1.00  0.00    -0.121 C  
HETATM    7  C   UNL     1      -8.069   5.738  71.870  1.00  0.00    -0.112 C  
HETATM    8  C   UNL     1      -9.587   4.525  68.050  1.00  0.00    -0.209 C  
HETATM    9  C   UNL     1      -7.963   4.373  71.274  1.00  0.00    -0.082 C  
HETATM   10  C   UNL     1      -9.879   4.940  65.596  1.00  0.00    -0.153 C  
HETATM   11  C   UNL     1      -9.226   4.961  69.274  1.00  0.00    -0.160 C  
HETATM   12  C   UNL     1      -8.489   4.033  70.100  1.00  0.00    -0.093 C  
ENDROOT
BRANCH   2  13
HETATM   13  O   UNL     1      -9.308   8.575  68.665  1.00  0.00    -0.142 OA 
BRANCH  13  14
HETATM   14  C   UNL     1      -9.761   9.533  67.823  1.00  0.00    -0.147 C  
HETATM   15  C   UNL     1      -9.951  10.575  64.970  1.00  0.00    -0.388 C  
HETATM   16  C   UNL     1      -8.601  10.203  67.100  1.00  0.00    -0.125 C  
HETATM   17  O   UNL     1     -10.935   9.857  67.709  1.00  0.00    -0.282 OA 
HETATM   18  C   UNL     1      -8.711   9.947  65.594  1.00  0.00    -0.168 C  
HETATM   19  C   UNL     1      -7.233   9.740  67.627  1.00  0.00    -0.089 C  
ENDBRANCH  13  14
ENDBRANCH   2  13
BRANCH   4  20
HETATM   20  C   UNL     1      -8.556   8.232  71.635  1.00  0.00    -0.202 C  
BRANCH  20  21
HETATM   21  C   UNL     1      -9.798   8.167  72.558  1.00  0.00    -0.363 C  
BRANCH  21  22
HETATM   22  C   UNL     1     -11.128   8.831  72.194  1.00  0.00    -0.336 C  
HETATM   23  C   UNL     1     -12.287   7.896  71.902  1.00  0.00    -0.350 C  
HETATM   24  C   UNL     1     -13.566   8.727  71.890  1.00  0.00    -0.424 C  
HETATM   25  O   UNL     1     -13.964   9.073  73.223  1.00  0.00    -1.205 OA 
HETATM   26  C   UNL     1     -13.441   9.965  71.016  1.00  0.00    -0.257 C  
HETATM   27  C   UNL     1     -12.081  10.639  71.032  1.00  0.00    -0.368 C  
HETATM   28  H   UNL     1     -14.761   9.590  73.216  1.00  0.00     0.000 HD 
HETATM   29  O   UNL     1     -11.941  11.832  70.810  1.00  0.00    -0.319 OA 
HETATM   30  O   UNL     1     -11.007   9.799  71.146  1.00  0.00    -0.348 OA 
ENDBRANCH  21  22
ENDBRANCH  20  21
ENDBRANCH   4  20
TORSDOF 5
ENDMDL
MODEL       90
REMARK 921   NORMALIZED FREE ENERGY PREDICTED BY IDOCK:   -5.17 KCAL/MOL
REMARK 922        TOTAL FREE ENERGY PREDICTED BY IDOCK:   -8.26 KCAL/MOL
REMARK 923 INTER-LIGAND FREE ENERGY PREDICTED BY IDOCK:   -6.93 KCAL/MOL
REMARK 924 INTRA-LIGAND FREE ENERGY PREDICTED BY IDOCK:   -1.34 KCAL/MOL
REMARK 927      BINDING AFFINITY PREDICTED BY RF-SCORE:    0.00 PKD
ROOT
HETATM    1  C   UNL     1     -11.038   6.604  70.463  1.00  0.00    -0.359 C  
HETATM    2  C   UNL     1     -10.594   5.729  69.239  1.00  0.00    -0.306 C  
HETATM    3  C   UNL     1      -9.597   4.598  69.537  1.00  0.00    -0.258 C  
HETATM    4  C   UNL     1     -10.686   8.160  70.467  1.00  0.00    -0.233 C  
HETATM    5  C   UNL     1     -10.000   3.736  70.721  1.00  0.00    -0.070 C  
HETATM    6  C   UNL     1     -12.672   9.173  71.836  1.00  0.00    -0.464 C  
HETATM    7  C   UNL     1     -11.180   8.812  71.815  1.00  0.00    -0.410 C  
HETATM    8  C   UNL     1     -10.205   4.639  71.894  1.00  0.00    -0.254 C  
HETATM    9  C   UNL     1     -10.886   8.000  73.033  1.00  0.00    -0.317 C  
HETATM   10  C   UNL     1      -8.908   2.694  70.994  1.00  0.00    -0.134 C  
HETATM   11  C   UNL     1     -10.611   5.921  71.790  1.00  0.00    -0.286 C  
HETATM   12  C   UNL     1     -10.630   6.694  73.010  1.00  0.00    -0.283 C  
ENDROOT
BRANCH   2  13
HETATM   13  O   UNL     1      -9.910   6.481  68.236  1.00  0.00    -0.129 OA 
BRANCH  13  14
HETATM   14  C   UNL     1     -10.078   6.097  66.949  1.00  0.00    -0.183 C  
HETATM   15  C   UNL     1      -9.206   4.285  64.666  1.00  0.00    -0.156 C  
HETATM   16  C   UNL     1      -8.798   6.314  66.153  1.00  0.00    -0.160 C  
HETATM   17  O   UNL     1     -11.133   5.695  66.477  1.00  0.00    -0.194 OA 
HETATM   18  C   UNL     1      -8.266   4.968  65.652  1.00  0.00    -0.117 C  
HETATM   19  C   UNL     1      -7.720   7.051  66.964  1.00  0.00    -0.107 C  
ENDBRANCH  13  14
ENDBRANCH   2  13
BRANCH   4  20
HETATM   20  C   UNL     1     -11.148   9.104  69.279  1.00  0.00     0.001 C  
BRANCH  20  21
HETATM   21  C   UNL     1     -10.312  10.407  69.273  1.00  0.00    -0.250 C  
BRANCH  21  22
HETATM   22  C   UNL     1     -10.430  11.453  68.162  1.00  0.00    -0.187 C  
HETATM   23  C   UNL     1     -10.657  10.921  66.760  1.00  0.00    -0.313 C  
HETATM   24  C   UNL     1     -11.070  12.093  65.876  1.00  0.00    -0.318 C  
HETATM   25  O   UNL     1     -12.429  12.473  66.130  1.00  0.00    -0.522 OA 
HETATM   26  C   UNL     1     -10.132  13.282  66.019  1.00  0.00    -0.301 C  
HETATM   27  C   UNL     1      -9.592  13.520  67.417  1.00  0.00    -0.227 C  
HETATM   28  H   UNL     1     -12.687  13.203  65.580  1.00  0.00     0.000 HD 
HETATM   29  O   UNL     1      -9.254  14.628  67.806  1.00  0.00    -0.189 OA 
HETATM   30  O   UNL     1      -9.351  12.395  68.156  1.00  0.00    -0.200 OA 
ENDBRANCH  21  22
ENDBRANCH  20  21
ENDBRANCH   4  20
TORSDOF 5
ENDMDL
MODEL       91
REMARK 921   NORMALIZED FREE ENERGY PREDICTED BY IDOCK:   -5.16 KCAL/MOL
REMARK 922        TOTAL FREE ENERGY PREDICTED BY IDOCK:   -8.25 KCAL/MOL
REMARK 923 INTER-LIGAND FREE ENERGY PREDICTED BY IDOCK:   -7.19 KCAL/MOL
REMARK 924 INTRA-LIGAND FREE ENERGY PREDICTED BY IDOCK:   -1.05 KCAL/MOL
REMARK 927      BINDING AFFINITY PREDICTED BY RF-SCORE:    0.00 PKD
ROOT
HETATM    1  C   UNL     1      -8.152   9.127  68.091  1.00  0.00    -0.104 C  
HETATM    2  C   UNL     1      -9.021   8.685  69.319  1.00  0.00    -0.145 C  
HETATM    3  C   UNL     1      -9.825   7.385  69.151  1.00  0.00    -0.168 C  
HETATM    4  C   UNL     1      -8.484  10.510  67.368  1.00  0.00    -0.122 C  
HETATM    5  C   UNL     1      -8.999   6.232  68.609  1.00  0.00    -0.127 C  
HETATM    6  C   UNL     1      -6.133  11.259  66.500  1.00  0.00    -0.139 C  
HETATM    7  C   UNL     1      -7.520  10.710  66.137  1.00  0.00    -0.138 C  
HETATM    8  C   UNL     1      -8.370   6.683  67.330  1.00  0.00    -0.121 C  
HETATM    9  C   UNL     1      -7.326   9.486  65.304  1.00  0.00    -0.104 C  
HETATM   10  C   UNL     1      -9.901   5.009  68.395  1.00  0.00    -0.209 C  
HETATM   11  C   UNL     1      -8.040   7.963  67.069  1.00  0.00    -0.116 C  
HETATM   12  C   UNL     1      -7.565   8.250  65.735  1.00  0.00    -0.082 C  
ENDROOT
BRANCH   2  13
HETATM   13  O   UNL     1     -10.038   9.631  69.652  1.00  0.00    -0.196 OA 
BRANCH  13  14
HETATM   14  C   UNL     1     -10.588   9.546  70.886  1.00  0.00    -0.325 C  
HETATM   15  C   UNL     1     -12.900   8.589  72.616  1.00  0.00    -0.224 C  
HETATM   16  C   UNL     1     -11.947  10.231  70.915  1.00  0.00    -0.473 C  
HETATM   17  O   UNL     1     -10.037   9.045  71.857  1.00  0.00    -0.339 OA 
HETATM   18  C   UNL     1     -13.038   9.203  71.228  1.00  0.00    -0.297 C  
HETATM   19  C   UNL     1     -12.262  10.969  69.605  1.00  0.00    -0.370 C  
ENDBRANCH  13  14
ENDBRANCH   2  13
BRANCH   4  20
HETATM   20  C   UNL     1      -8.511  11.870  68.183  1.00  0.00    -0.163 C  
BRANCH  20  21
HETATM   21  C   UNL     1      -9.918  12.513  68.109  1.00  0.00    -0.224 C  
BRANCH  21  22
HETATM   22  C   UNL     1     -10.528  13.003  66.793  1.00  0.00    -0.259 C  
HETATM   23  C   UNL     1     -11.013  11.930  65.837  1.00  0.00    -0.354 C  
HETATM   24  C   UNL     1     -11.866  12.605  64.769  1.00  0.00    -0.380 C  
HETATM   25  O   UNL     1     -13.154  12.958  65.289  1.00  0.00    -0.682 OA 
HETATM   26  C   UNL     1     -11.172  13.813  64.156  1.00  0.00    -0.238 C  
HETATM   27  C   UNL     1     -10.336  14.640  65.116  1.00  0.00    -0.403 C  
HETATM   28  H   UNL     1     -13.686  13.379  64.623  1.00  0.00     0.000 HD 
HETATM   29  O   UNL     1     -10.128  15.831  64.941  1.00  0.00    -0.399 OA 
HETATM   30  O   UNL     1      -9.693  13.935  66.096  1.00  0.00    -0.291 OA 
ENDBRANCH  21  22
ENDBRANCH  20  21
ENDBRANCH   4  20
TORSDOF 5
ENDMDL
MODEL       92
REMARK 921   NORMALIZED FREE ENERGY PREDICTED BY IDOCK:   -5.14 KCAL/MOL
REMARK 922        TOTAL FREE ENERGY PREDICTED BY IDOCK:   -8.23 KCAL/MOL
REMARK 923 INTER-LIGAND FREE ENERGY PREDICTED BY IDOCK:   -7.54 KCAL/MOL
REMARK 924 INTRA-LIGAND FREE ENERGY PREDICTED BY IDOCK:   -0.68 KCAL/MOL
REMARK 927      BINDING AFFINITY PREDICTED BY RF-SCORE:    0.00 PKD
ROOT
HETATM    1  C   UNL     1      -9.673  13.825  68.162  1.00  0.00    -0.227 C  
HETATM    2  C   UNL     1     -11.129  13.436  67.729  1.00  0.00    -0.268 C  
HETATM    3  C   UNL     1     -11.279  12.117  66.955  1.00  0.00    -0.375 C  
HETATM    4  C   UNL     1      -9.025  15.161  67.578  1.00  0.00    -0.187 C  
HETATM    5  C   UNL     1     -10.562  10.949  67.609  1.00  0.00    -0.263 C  
HETATM    6  C   UNL     1      -7.436  15.900  69.521  1.00  0.00    -0.157 C  
HETATM    7  C   UNL     1      -7.547  15.310  68.108  1.00  0.00    -0.118 C  
HETATM    8  C   UNL     1      -9.132  11.340  67.798  1.00  0.00    -0.152 C  
HETATM    9  C   UNL     1      -6.753  14.046  68.074  1.00  0.00    -0.148 C  
HETATM   10  C   UNL     1     -10.696   9.703  66.725  1.00  0.00    -0.149 C  
HETATM   11  C   UNL     1      -8.722  12.610  67.989  1.00  0.00    -0.190 C  
HETATM   12  C   UNL     1      -7.295  12.831  68.020  1.00  0.00    -0.117 C  
ENDROOT
BRANCH   2  13
HETATM   13  O   UNL     1     -11.716  14.383  66.834  1.00  0.00    -0.372 OA 
BRANCH  13  14
HETATM   14  C   UNL     1     -12.533  13.903  65.868  1.00  0.00    -0.481 C  
HETATM   15  C   UNL     1     -12.829  12.251  63.330  1.00  0.00    -0.353 C  
HETATM   16  C   UNL     1     -12.088  14.392  64.497  1.00  0.00    -0.498 C  
HETATM   17  O   UNL     1     -13.529  13.224  66.077  1.00  0.00     0.283 OA 
HETATM   18  C   UNL     1     -11.675  13.199  63.630  1.00  0.00    -0.505 C  
HETATM   19  C   UNL     1     -10.946  15.418  64.581  1.00  0.00    -0.333 C  
ENDBRANCH  13  14
ENDBRANCH   2  13
BRANCH   4  20
HETATM   20  C   UNL     1      -9.744  16.563  67.760  1.00  0.00    -0.235 C  
BRANCH  20  21
HETATM   21  C   UNL     1      -9.349  17.523  66.610  1.00  0.00    -0.275 C  
BRANCH  21  22
HETATM   22  C   UNL     1      -8.197  18.523  66.734  1.00  0.00    -0.257 C  
HETATM   23  C   UNL     1      -8.111  19.290  68.040  1.00  0.00    -0.341 C  
HETATM   24  C   UNL     1      -6.747  19.968  68.096  1.00  0.00    -0.291 C  
HETATM   25  O   UNL     1      -5.715  19.018  68.395  1.00  0.00    -0.199 OA 
HETATM   26  C   UNL     1      -6.433  20.737  66.822  1.00  0.00    -0.338 C  
HETATM   27  C   UNL     1      -6.927  20.099  65.537  1.00  0.00    -0.304 C  
HETATM   28  H   UNL     1      -4.865  19.440  68.429  1.00  0.00     0.000 HD 
HETATM   29  O   UNL     1      -6.381  20.290  64.461  1.00  0.00    -0.280 OA 
HETATM   30  O   UNL     1      -8.118  19.431  65.630  1.00  0.00    -0.414 OA 
ENDBRANCH  21  22
ENDBRANCH  20  21
ENDBRANCH   4  20
TORSDOF 5
ENDMDL
MODEL       93
REMARK 921   NORMALIZED FREE ENERGY PREDICTED BY IDOCK:   -5.10 KCAL/MOL
REMARK 922        TOTAL FREE ENERGY PREDICTED BY IDOCK:   -8.17 KCAL/MOL
REMARK 923 INTER-LIGAND FREE ENERGY PREDICTED BY IDOCK:   -6.80 KCAL/MOL
REMARK 924 INTRA-LIGAND FREE ENERGY PREDICTED BY IDOCK:   -1.37 KCAL/MOL
REMARK 927      BINDING AFFINITY PREDICTED BY RF-SCORE:    0.00 PKD
ROOT
HETATM    1  C   UNL     1     -10.492   9.918  70.228  1.00  0.00    -0.348 C  
HETATM    2  C   UNL     1      -9.834  10.471  68.916  1.00  0.00    -0.201 C  
HETATM    3  C   UNL     1     -10.676  11.464  68.099  1.00  0.00    -0.241 C  
HETATM    4  C   UNL     1     -10.780   8.354  70.346  1.00  0.00    -0.244 C  
HETATM    5  C   UNL     1     -11.271  12.582  68.938  1.00  0.00    -0.330 C  
HETATM    6  C   UNL     1     -10.535   7.939  72.918  1.00  0.00    -0.422 C  
HETATM    7  C   UNL     1     -11.490   8.048  71.721  1.00  0.00    -0.324 C  
HETATM    8  C   UNL     1     -12.048  11.955  70.049  1.00  0.00    -0.366 C  
HETATM    9  C   UNL     1     -12.571   9.013  72.081  1.00  0.00    -0.461 C  
HETATM   10  C   UNL     1     -12.159  13.470  68.056  1.00  0.00    -0.298 C  
HETATM   11  C   UNL     1     -11.747  10.757  70.591  1.00  0.00    -0.442 C  
HETATM   12  C   UNL     1     -12.678  10.235  71.564  1.00  0.00    -0.557 C  
ENDROOT
BRANCH   2  13
HETATM   13  O   UNL     1      -9.556   9.448  67.958  1.00  0.00    -0.136 OA 
BRANCH  13  14
HETATM   14  C   UNL     1      -8.317   9.424  67.416  1.00  0.00    -0.125 C  
HETATM   15  C   UNL     1      -6.597   9.570  64.910  1.00  0.00    -0.086 C  
HETATM   16  C   UNL     1      -8.187   8.276  66.424  1.00  0.00    -0.107 C  
HETATM   17  O   UNL     1      -7.408  10.180  67.730  1.00  0.00    -0.087 OA 
HETATM   18  C   UNL     1      -7.925   8.831  65.021  1.00  0.00    -0.132 C  
HETATM   19  C   UNL     1      -9.423   7.362  66.420  1.00  0.00    -0.194 C  
ENDBRANCH  13  14
ENDBRANCH   2  13
BRANCH   4  20
HETATM   20  C   UNL     1      -9.616   7.293  70.161  1.00  0.00    -0.168 C  
BRANCH  20  21
HETATM   21  C   UNL     1     -10.198   5.859  70.118  1.00  0.00    -0.281 C  
BRANCH  21  22
HETATM   22  C   UNL     1      -9.813   4.785  71.137  1.00  0.00    -0.190 C  
HETATM   23  C   UNL     1      -9.438   3.427  70.574  1.00  0.00    -0.247 C  
HETATM   24  C   UNL     1      -8.783   2.621  71.691  1.00  0.00    -0.073 C  
HETATM   25  O   UNL     1      -7.444   3.075  71.933  1.00  0.00    -0.045 OA 
HETATM   26  C   UNL     1      -9.607   2.634  72.969  1.00  0.00    -0.142 C  
HETATM   27  C   UNL     1     -10.319   3.939  73.273  1.00  0.00    -0.166 C  
HETATM   28  H   UNL     1      -7.036   2.574  72.629  1.00  0.00     0.000 HD 
HETATM   29  O   UNL     1     -10.596   4.283  74.412  1.00  0.00    -0.239 OA 
HETATM   30  O   UNL     1     -10.778   4.627  72.183  1.00  0.00    -0.151 OA 
ENDBRANCH  21  22
ENDBRANCH  20  21
ENDBRANCH   4  20
TORSDOF 5
ENDMDL
MODEL       94
REMARK 921   NORMALIZED FREE ENERGY PREDICTED BY IDOCK:   -5.07 KCAL/MOL
REMARK 922        TOTAL FREE ENERGY PREDICTED BY IDOCK:   -8.13 KCAL/MOL
REMARK 923 INTER-LIGAND FREE ENERGY PREDICTED BY IDOCK:   -6.75 KCAL/MOL
REMARK 924 INTRA-LIGAND FREE ENERGY PREDICTED BY IDOCK:   -1.38 KCAL/MOL
REMARK 927      BINDING AFFINITY PREDICTED BY RF-SCORE:    0.00 PKD
ROOT
HETATM    1  C   UNL     1     -10.165  14.170  67.142  1.00  0.00    -0.258 C  
HETATM    2  C   UNL     1      -9.246  13.549  68.251  1.00  0.00    -0.195 C  
HETATM    3  C   UNL     1      -8.011  14.372  68.652  1.00  0.00    -0.145 C  
HETATM    4  C   UNL     1     -10.339  13.392  65.760  1.00  0.00    -0.296 C  
HETATM    5  C   UNL     1      -8.326  15.829  68.941  1.00  0.00    -0.213 C  
HETATM    6  C   UNL     1     -12.762  14.074  65.045  1.00  0.00    -0.359 C  
HETATM    7  C   UNL     1     -11.257  14.233  64.791  1.00  0.00    -0.387 C  
HETATM    8  C   UNL     1      -9.023  16.392  67.744  1.00  0.00    -0.198 C  
HETATM    9  C   UNL     1     -10.946  15.693  64.766  1.00  0.00    -0.418 C  
HETATM   10  C   UNL     1      -7.026  16.585  69.246  1.00  0.00    -0.227 C  
HETATM   11  C   UNL     1      -9.793  15.660  66.914  1.00  0.00    -0.245 C  
HETATM   12  C   UNL     1     -10.284  16.328  65.731  1.00  0.00    -0.390 C  
ENDROOT
BRANCH   2  13
HETATM   13  O   UNL     1      -8.668  12.302  67.862  1.00  0.00    -0.160 OA 
BRANCH  13  14
HETATM   14  C   UNL     1      -9.077  11.194  68.524  1.00  0.00    -0.175 C  
HETATM   15  C   UNL     1      -8.605   9.232  70.801  1.00  0.00    -0.254 C  
HETATM   16  C   UNL     1      -7.996  10.122  68.492  1.00  0.00    -0.104 C  
HETATM   17  O   UNL     1     -10.186  11.052  69.021  1.00  0.00    -0.210 OA 
HETATM   18  C   UNL     1      -7.517   9.827  69.916  1.00  0.00    -0.142 C  
HETATM   19  C   UNL     1      -6.811  10.509  67.593  1.00  0.00    -0.074 C  
ENDBRANCH  13  14
ENDBRANCH   2  13
BRANCH   4  20
HETATM   20  C   UNL     1     -10.854  11.893  65.728  1.00  0.00    -0.341 C  
BRANCH  20  21
HETATM   21  C   UNL     1     -10.631  11.279  64.323  1.00  0.00    -0.422 C  
BRANCH  21  22
HETATM   22  C   UNL     1      -9.333  10.566  63.936  1.00  0.00    -0.275 C  
HETATM   23  C   UNL     1      -8.958  10.606  62.466  1.00  0.00    -0.319 C  
HETATM   24  C   UNL     1      -7.511  10.144  62.340  1.00  0.00    -0.130 C  
HETATM   25  O   UNL     1      -6.606  11.170  62.769  1.00  0.00    -0.345 OA 
HETATM   26  C   UNL     1      -7.255   8.841  63.081  1.00  0.00    -0.094 C  
HETATM   27  C   UNL     1      -8.008   8.677  64.389  1.00  0.00    -0.146 C  
HETATM   28  H   UNL     1      -5.704  10.883  62.691  1.00  0.00     0.000 HD 
HETATM   29  O   UNL     1      -7.587   7.983  65.302  1.00  0.00    -0.076 OA 
HETATM   30  O   UNL     1      -9.263   9.220  64.419  1.00  0.00    -0.154 OA 
ENDBRANCH  21  22
ENDBRANCH  20  21
ENDBRANCH   4  20
TORSDOF 5
ENDMDL
MODEL       95
REMARK 921   NORMALIZED FREE ENERGY PREDICTED BY IDOCK:   -5.06 KCAL/MOL
REMARK 922        TOTAL FREE ENERGY PREDICTED BY IDOCK:   -8.12 KCAL/MOL
REMARK 923 INTER-LIGAND FREE ENERGY PREDICTED BY IDOCK:   -6.95 KCAL/MOL
REMARK 924 INTRA-LIGAND FREE ENERGY PREDICTED BY IDOCK:   -1.17 KCAL/MOL
REMARK 927      BINDING AFFINITY PREDICTED BY RF-SCORE:    0.00 PKD
ROOT
HETATM    1  C   UNL     1     -10.316  15.535  66.676  1.00  0.00    -0.287 C  
HETATM    2  C   UNL     1      -9.149  16.028  67.599  1.00  0.00    -0.199 C  
HETATM    3  C   UNL     1      -8.417  17.303  67.150  1.00  0.00    -0.223 C  
HETATM    4  C   UNL     1     -10.192  14.110  65.970  1.00  0.00    -0.318 C  
HETATM    5  C   UNL     1      -9.355  18.439  66.784  1.00  0.00    -0.296 C  
HETATM    6  C   UNL     1     -12.692  13.355  65.805  1.00  0.00    -0.383 C  
HETATM    7  C   UNL     1     -11.451  13.860  65.054  1.00  0.00    -0.343 C  
HETATM    8  C   UNL     1     -10.305  17.931  65.747  1.00  0.00    -0.182 C  
HETATM    9  C   UNL     1     -11.858  15.041  64.235  1.00  0.00    -0.289 C  
HETATM   10  C   UNL     1      -8.540  19.633  66.268  1.00  0.00    -0.393 C  
HETATM   11  C   UNL     1     -10.695  16.644  65.656  1.00  0.00    -0.222 C  
HETATM   12  C   UNL     1     -11.511  16.294  64.516  1.00  0.00    -0.171 C  
ENDROOT
BRANCH   2  13
HETATM   13  O   UNL     1      -8.082  15.084  67.701  1.00  0.00    -0.145 OA 
BRANCH  13  14
HETATM   14  C   UNL     1      -7.624  14.793  68.941  1.00  0.00    -0.144 C  
HETATM   15  C   UNL     1      -5.270  14.716  70.867  1.00  0.00    -0.132 C  
HETATM   16  C   UNL     1      -6.526  13.741  68.875  1.00  0.00    -0.100 C  
HETATM   17  O   UNL     1      -8.078  15.264  69.975  1.00  0.00    -0.033 OA 
HETATM   18  C   UNL     1      -5.211  14.332  69.393  1.00  0.00    -0.086 C  
HETATM   19  C   UNL     1      -6.340  13.174  67.458  1.00  0.00    -0.142 C  
ENDBRANCH  13  14
ENDBRANCH   2  13
BRANCH   4  20
HETATM   20  C   UNL     1      -9.951  12.795  66.823  1.00  0.00    -0.237 C  
BRANCH  20  21
HETATM   21  C   UNL     1     -10.571  12.949  68.234  1.00  0.00    -0.259 C  
BRANCH  21  22
HETATM   22  C   UNL     1     -10.727  11.769  69.196  1.00  0.00    -0.124 C  
HETATM   23  C   UNL     1     -10.161  10.442  68.728  1.00  0.00    -0.198 C  
HETATM   24  C   UNL     1     -10.118   9.502  69.928  1.00  0.00    -0.232 C  
HETATM   25  O   UNL     1      -9.038   9.843  70.807  1.00  0.00    -0.340 OA 
HETATM   26  C   UNL     1     -11.443   9.462  70.676  1.00  0.00    -0.344 C  
HETATM   27  C   UNL     1     -12.187  10.783  70.753  1.00  0.00    -0.381 C  
HETATM   28  H   UNL     1      -9.011   9.258  71.555  1.00  0.00     0.000 HD 
HETATM   29  O   UNL     1     -12.956  11.046  71.665  1.00  0.00    -0.441 OA 
HETATM   30  O   UNL     1     -12.072  11.590  69.655  1.00  0.00    -0.309 OA 
ENDBRANCH  21  22
ENDBRANCH  20  21
ENDBRANCH   4  20
TORSDOF 5
ENDMDL
MODEL       96
REMARK 921   NORMALIZED FREE ENERGY PREDICTED BY IDOCK:   -5.04 KCAL/MOL
REMARK 922        TOTAL FREE ENERGY PREDICTED BY IDOCK:   -8.09 KCAL/MOL
REMARK 923 INTER-LIGAND FREE ENERGY PREDICTED BY IDOCK:   -7.78 KCAL/MOL
REMARK 924 INTRA-LIGAND FREE ENERGY PREDICTED BY IDOCK:   -0.31 KCAL/MOL
REMARK 927      BINDING AFFINITY PREDICTED BY RF-SCORE:    0.00 PKD
ROOT
HETATM    1  C   UNL     1     -11.939  12.127  69.506  1.00  0.00    -0.338 C  
HETATM    2  C   UNL     1     -11.393  10.723  69.070  1.00  0.00    -0.284 C  
HETATM    3  C   UNL     1     -11.166   9.701  70.195  1.00  0.00    -0.302 C  
HETATM    4  C   UNL     1     -11.040  13.419  69.247  1.00  0.00    -0.216 C  
HETATM    5  C   UNL     1     -12.350   9.570  71.138  1.00  0.00    -0.410 C  
HETATM    6  C   UNL     1     -12.841  15.283  68.888  1.00  0.00     0.822 C  
HETATM    7  C   UNL     1     -11.769  14.696  69.817  1.00  0.00    -0.361 C  
HETATM    8  C   UNL     1     -12.669  10.933  71.661  1.00  0.00    -0.498 C  
HETATM    9  C   UNL     1     -12.384  14.500  71.164  1.00  0.00    -0.415 C  
HETATM   10  C   UNL     1     -11.999   8.597  72.271  1.00  0.00    -0.438 C  
HETATM   11  C   UNL     1     -12.444  12.070  70.974  1.00  0.00    -0.376 C  
HETATM   12  C   UNL     1     -12.685  13.310  71.676  1.00  0.00    -0.327 C  
ENDROOT
BRANCH   2  13
HETATM   13  O   UNL     1     -10.105  10.792  68.457  1.00  0.00    -0.162 OA 
BRANCH  13  14
HETATM   14  C   UNL     1      -9.761   9.788  67.617  1.00  0.00    -0.156 C  
HETATM   15  C   UNL     1      -8.172   8.897  65.180  1.00  0.00    -0.143 C  
HETATM   16  C   UNL     1     -10.167  10.120  66.188  1.00  0.00    -0.285 C  
HETATM   17  O   UNL     1      -9.253   8.732  67.970  1.00  0.00    -0.139 OA 
HETATM   18  C   UNL     1      -8.921  10.218  65.304  1.00  0.00    -0.214 C  
HETATM   19  C   UNL     1     -10.994  11.413  66.098  1.00  0.00    -0.294 C  
ENDBRANCH  13  14
ENDBRANCH   2  13
BRANCH   4  20
HETATM   20  C   UNL     1     -10.521  13.773  67.791  1.00  0.00    -0.240 C  
BRANCH  20  21
HETATM   21  C   UNL     1      -9.337  14.768  67.870  1.00  0.00    -0.193 C  
BRANCH  21  22
HETATM   22  C   UNL     1      -9.464  16.231  67.439  1.00  0.00    -0.227 C  
HETATM   23  C   UNL     1      -9.299  17.269  68.533  1.00  0.00    -0.276 C  
HETATM   24  C   UNL     1      -9.131  18.630  67.865  1.00  0.00    -0.294 C  
HETATM   25  O   UNL     1      -7.817  18.768  67.307  1.00  0.00    -0.230 OA 
HETATM   26  C   UNL     1     -10.202  18.894  66.819  1.00  0.00    -0.451 C  
HETATM   27  C   UNL     1     -10.637  17.685  66.011  1.00  0.00    -0.220 C  
HETATM   28  H   UNL     1      -7.712  19.615  66.891  1.00  0.00     0.000 HD 
HETATM   29  O   UNL     1     -11.082  17.782  64.878  1.00  0.00    -0.821 OA 
HETATM   30  O   UNL     1     -10.655  16.498  66.691  1.00  0.00    -0.291 OA 
ENDBRANCH  21  22
ENDBRANCH  20  21
ENDBRANCH   4  20
TORSDOF 5
ENDMDL
MODEL       97
REMARK 921   NORMALIZED FREE ENERGY PREDICTED BY IDOCK:   -5.02 KCAL/MOL
REMARK 922        TOTAL FREE ENERGY PREDICTED BY IDOCK:   -8.07 KCAL/MOL
REMARK 923 INTER-LIGAND FREE ENERGY PREDICTED BY IDOCK:   -6.77 KCAL/MOL
REMARK 924 INTRA-LIGAND FREE ENERGY PREDICTED BY IDOCK:   -1.30 KCAL/MOL
REMARK 927      BINDING AFFINITY PREDICTED BY RF-SCORE:    0.00 PKD
ROOT
HETATM    1  C   UNL     1     -10.530   7.854  68.997  1.00  0.00    -0.210 C  
HETATM    2  C   UNL     1     -10.372   8.182  67.472  1.00  0.00    -0.261 C  
HETATM    3  C   UNL     1      -9.996   7.005  66.557  1.00  0.00    -0.163 C  
HETATM    4  C   UNL     1      -9.548   8.552  70.043  1.00  0.00    -0.170 C  
HETATM    5  C   UNL     1     -10.858   5.774  66.775  1.00  0.00    -0.327 C  
HETATM    6  C   UNL     1     -11.047   8.722  72.181  1.00  0.00    -0.406 C  
HETATM    7  C   UNL     1      -9.861   8.027  71.496  1.00  0.00    -0.217 C  
HETATM    8  C   UNL     1     -10.785   5.416  68.225  1.00  0.00    -0.069 C  
HETATM    9  C   UNL     1     -10.081   6.552  71.582  1.00  0.00    -0.202 C  
HETATM   10  C   UNL     1     -10.356   4.630  65.884  1.00  0.00    -0.315 C  
HETATM   11  C   UNL     1     -10.588   6.317  69.209  1.00  0.00    -0.332 C  
HETATM   12  C   UNL     1     -10.409   5.789  70.542  1.00  0.00    -0.312 C  
ENDROOT
BRANCH   2  13
HETATM   13  O   UNL     1      -9.325   9.118  67.209  1.00  0.00    -0.131 OA 
BRANCH  13  14
HETATM   14  C   UNL     1      -9.336   9.742  66.008  1.00  0.00    -0.196 C  
HETATM   15  C   UNL     1      -8.648   9.642  63.046  1.00  0.00    -0.207 C  
HETATM   16  C   UNL     1      -7.919   9.901  65.474  1.00  0.00    -0.128 C  
HETATM   17  O   UNL     1     -10.340  10.176  65.461  1.00  0.00    -0.248 OA 
HETATM   18  C   UNL     1      -7.766   9.113  64.170  1.00  0.00    -0.121 C  
HETATM   19  C   UNL     1      -6.854   9.467  66.495  1.00  0.00    -0.083 C  
ENDBRANCH  13  14
ENDBRANCH   2  13
BRANCH   4  20
HETATM   20  C   UNL     1      -9.426  10.131  70.118  1.00  0.00     0.006 C  
BRANCH  20  21
HETATM   21  C   UNL     1     -10.699  10.796  69.540  1.00  0.00    -0.268 C  
BRANCH  21  22
HETATM   22  C   UNL     1     -10.664  12.143  68.814  1.00  0.00    -0.219 C  
HETATM   23  C   UNL     1     -11.752  12.379  67.783  1.00  0.00    -0.413 C  
HETATM   24  C   UNL     1     -11.744  13.861  67.424  1.00  0.00    -0.389 C  
HETATM   25  O   UNL     1     -12.334  14.644  68.470  1.00  0.00    -0.585 OA 
HETATM   26  C   UNL     1     -10.349  14.363  67.083  1.00  0.00    -0.262 C  
HETATM   27  C   UNL     1      -9.221  13.759  67.899  1.00  0.00    -0.200 C  
HETATM   28  H   UNL     1     -12.329  15.567  68.247  1.00  0.00     0.000 HD 
HETATM   29  O   UNL     1      -8.173  14.352  68.104  1.00  0.00    -0.133 OA 
HETATM   30  O   UNL     1      -9.384  12.446  68.248  1.00  0.00    -0.207 OA 
ENDBRANCH  21  22
ENDBRANCH  20  21
ENDBRANCH   4  20
TORSDOF 5
ENDMDL
MODEL       98
REMARK 921   NORMALIZED FREE ENERGY PREDICTED BY IDOCK:   -5.01 KCAL/MOL
REMARK 922        TOTAL FREE ENERGY PREDICTED BY IDOCK:   -8.06 KCAL/MOL
REMARK 923 INTER-LIGAND FREE ENERGY PREDICTED BY IDOCK:   -6.71 KCAL/MOL
REMARK 924 INTRA-LIGAND FREE ENERGY PREDICTED BY IDOCK:   -1.35 KCAL/MOL
REMARK 927      BINDING AFFINITY PREDICTED BY RF-SCORE:    0.00 PKD
ROOT
HETATM    1  C   UNL     1      -9.944  10.482  67.161  1.00  0.00    -0.234 C  
HETATM    2  C   UNL     1      -9.198   9.135  66.864  1.00  0.00    -0.148 C  
HETATM    3  C   UNL     1      -9.148   8.694  65.393  1.00  0.00    -0.150 C  
HETATM    4  C   UNL     1     -11.247  10.457  68.081  1.00  0.00    -0.333 C  
HETATM    5  C   UNL     1      -8.703   9.796  64.448  1.00  0.00    -0.228 C  
HETATM    6  C   UNL     1     -11.161  12.808  69.226  1.00  0.00    -0.252 C  
HETATM    7  C   UNL     1     -11.849  11.910  68.188  1.00  0.00    -0.338 C  
HETATM    8  C   UNL     1      -9.603  10.970  64.661  1.00  0.00    -0.297 C  
HETATM    9  C   UNL     1     -11.892  12.653  66.893  1.00  0.00    -0.425 C  
HETATM   10  C   UNL     1      -8.767   9.290  63.001  1.00  0.00    -0.203 C  
HETATM   11  C   UNL     1     -10.198  11.254  65.837  1.00  0.00    -0.298 C  
HETATM   12  C   UNL     1     -11.141  12.348  65.837  1.00  0.00    -0.349 C  
ENDROOT
BRANCH   2  13
HETATM   13  O   UNL     1      -9.808   8.010  67.500  1.00  0.00    -0.151 OA 
BRANCH  13  14
HETATM   14  C   UNL     1      -8.986   7.049  67.984  1.00  0.00    -0.126 C  
HETATM   15  C   UNL     1      -8.194   4.111  68.015  1.00  0.00    -0.094 C  
HETATM   16  C   UNL     1      -9.786   5.976  68.710  1.00  0.00    -0.170 C  
HETATM   17  O   UNL     1      -7.766   7.075  67.905  1.00  0.00    -0.108 OA 
HETATM   18  C   UNL     1      -9.625   4.634  67.991  1.00  0.00    -0.207 C  
HETATM   19  C   UNL     1     -11.273   6.342  68.844  1.00  0.00    -0.387 C  
ENDBRANCH  13  14
ENDBRANCH   2  13
BRANCH   4  20
HETATM   20  C   UNL     1     -11.200   9.848  69.545  1.00  0.00    -0.220 C  
BRANCH  20  21
HETATM   21  C   UNL     1      -9.763   9.934  70.116  1.00  0.00    -0.255 C  
BRANCH  21  22
HETATM   22  C   UNL     1      -9.285   9.054  71.273  1.00  0.00    -0.244 C  
HETATM   23  C   UNL     1      -7.898   8.455  71.133  1.00  0.00    -0.117 C  
HETATM   24  C   UNL     1      -7.487   7.904  72.494  1.00  0.00    -0.104 C  
HETATM   25  O   UNL     1      -7.121   8.964  73.387  1.00  0.00    -0.354 OA 
HETATM   26  C   UNL     1      -8.562   7.018  73.105  1.00  0.00    -0.142 C  
HETATM   27  C   UNL     1      -9.992   7.457  72.848  1.00  0.00    -0.232 C  
HETATM   28  H   UNL     1      -6.865   8.621  74.235  1.00  0.00     0.000 HD 
HETATM   29  O   UNL     1     -10.906   7.187  73.613  1.00  0.00    -0.352 OA 
HETATM   30  O   UNL     1     -10.223   8.031  71.628  1.00  0.00    -0.190 OA 
ENDBRANCH  21  22
ENDBRANCH  20  21
ENDBRANCH   4  20
TORSDOF 5
ENDMDL
MODEL       99
REMARK 921   NORMALIZED FREE ENERGY PREDICTED BY IDOCK:   -4.98 KCAL/MOL
REMARK 922        TOTAL FREE ENERGY PREDICTED BY IDOCK:   -8.02 KCAL/MOL
REMARK 923 INTER-LIGAND FREE ENERGY PREDICTED BY IDOCK:   -7.04 KCAL/MOL
REMARK 924 INTRA-LIGAND FREE ENERGY PREDICTED BY IDOCK:   -0.98 KCAL/MOL
REMARK 927      BINDING AFFINITY PREDICTED BY RF-SCORE:    0.00 PKD
ROOT
HETATM    1  C   UNL     1      -8.497   7.501  67.577  1.00  0.00    -0.119 C  
HETATM    2  C   UNL     1      -9.074   7.953  68.963  1.00  0.00    -0.144 C  
HETATM    3  C   UNL     1      -9.833   6.884  69.766  1.00  0.00    -0.177 C  
HETATM    4  C   UNL     1      -9.035   8.203  66.250  1.00  0.00    -0.215 C  
HETATM    5  C   UNL     1      -9.082   5.569  69.879  1.00  0.00    -0.159 C  
HETATM    6  C   UNL     1      -6.950   8.082  64.675  1.00  0.00    -0.071 C  
HETATM    7  C   UNL     1      -8.354   7.547  64.989  1.00  0.00    -0.068 C  
HETATM    8  C   UNL     1      -8.750   5.114  68.494  1.00  0.00    -0.101 C  
HETATM    9  C   UNL     1      -8.278   6.057  65.038  1.00  0.00    -0.136 C  
HETATM   10  C   UNL     1      -9.950   4.543  70.619  1.00  0.00    -0.273 C  
HETATM   11  C   UNL     1      -8.542   5.953  67.460  1.00  0.00    -0.102 C  
HETATM   12  C   UNL     1      -8.364   5.346  66.161  1.00  0.00    -0.117 C  
ENDROOT
BRANCH   2  13
HETATM   13  O   UNL     1     -10.045   8.995  68.849  1.00  0.00    -0.184 OA 
BRANCH  13  14
HETATM   14  C   UNL     1     -10.449   9.597  69.992  1.00  0.00    -0.261 C  
HETATM   15  C   UNL     1     -12.711  10.164  71.946  1.00  0.00    -0.493 C  
HETATM   16  C   UNL     1     -11.568  10.589  69.709  1.00  0.00    -0.368 C  
HETATM   17  O   UNL     1      -9.938   9.416  71.089  1.00  0.00    -0.289 OA 
HETATM   18  C   UNL     1     -12.845  10.149  70.429  1.00  0.00    -0.155 C  
HETATM   19  C   UNL     1     -11.831  10.765  68.204  1.00  0.00    -0.033 C  
ENDBRANCH  13  14
ENDBRANCH   2  13
BRANCH   4  20
HETATM   20  C   UNL     1      -8.959   9.778  66.073  1.00  0.00    -0.186 C  
BRANCH  20  21
HETATM   21  C   UNL     1      -9.929  10.240  64.958  1.00  0.00    -0.393 C  
BRANCH  21  22
HETATM   22  C   UNL     1     -10.698  11.561  65.034  1.00  0.00    -0.290 C  
HETATM   23  C   UNL     1     -11.286  12.072  63.732  1.00  0.00    -0.516 C  
HETATM   24  C   UNL     1     -12.267  13.190  64.068  1.00  0.00    -0.414 C  
HETATM   25  O   UNL     1     -13.487  12.657  64.602  1.00  0.00    -0.576 OA 
HETATM   26  C   UNL     1     -11.663  14.224  65.006  1.00  0.00    -0.383 C  
HETATM   27  C   UNL     1     -10.724  13.675  66.064  1.00  0.00    -0.280 C  
HETATM   28  H   UNL     1     -14.098  13.353  64.812  1.00  0.00     0.000 HD 
HETATM   29  O   UNL     1     -10.549  14.234  67.136  1.00  0.00    -0.275 OA 
HETATM   30  O   UNL     1      -9.962  12.606  65.679  1.00  0.00    -0.264 OA 
ENDBRANCH  21  22
ENDBRANCH  20  21
ENDBRANCH   4  20
TORSDOF 5
ENDMDL
MODEL      100
REMARK 921   NORMALIZED FREE ENERGY PREDICTED BY IDOCK:   -4.98 KCAL/MOL
REMARK 922        TOTAL FREE ENERGY PREDICTED BY IDOCK:   -8.02 KCAL/MOL
REMARK 923 INTER-LIGAND FREE ENERGY PREDICTED BY IDOCK:   -7.90 KCAL/MOL
REMARK 924 INTRA-LIGAND FREE ENERGY PREDICTED BY IDOCK:   -0.12 KCAL/MOL
REMARK 927      BINDING AFFINITY PREDICTED BY RF-SCORE:    0.00 PKD
ROOT
HETATM    1  C   UNL     1      -8.073  12.777  67.522  1.00  0.00    -0.180 C  
HETATM    2  C   UNL     1      -9.073  13.880  68.014  1.00  0.00    -0.192 C  
HETATM    3  C   UNL     1      -8.506  14.931  68.981  1.00  0.00    -0.178 C  
HETATM    4  C   UNL     1      -8.362  11.252  67.893  1.00  0.00    -0.131 C  
HETATM    5  C   UNL     1      -7.195  15.537  68.510  1.00  0.00    -0.119 C  
HETATM    6  C   UNL     1      -7.324   9.981  65.855  1.00  0.00    -0.115 C  
HETATM    7  C   UNL     1      -7.198  10.342  67.342  1.00  0.00    -0.091 C  
HETATM    8  C   UNL     1      -6.238  14.417  68.260  1.00  0.00    -0.120 C  
HETATM    9  C   UNL     1      -5.829  10.895  67.566  1.00  0.00    -0.045 C  
HETATM   10  C   UNL     1      -6.666  16.507  69.575  1.00  0.00    -0.198 C  
HETATM   11  C   UNL     1      -6.616  13.182  67.875  1.00  0.00    -0.137 C  
HETATM   12  C   UNL     1      -5.578  12.179  67.807  1.00  0.00    -0.081 C  
ENDROOT
BRANCH   2  13
HETATM   13  O   UNL     1     -10.172  13.346  68.754  1.00  0.00    -0.211 OA 
BRANCH  13  14
HETATM   14  C   UNL     1     -11.184  14.190  69.061  1.00  0.00    -0.271 C  
HETATM   15  C   UNL     1     -12.748  15.662  71.216  1.00  0.00    -0.537 C  
HETATM   16  C   UNL     1     -12.194  13.507  69.974  1.00  0.00    -0.381 C  
HETATM   17  O   UNL     1     -11.303  15.322  68.613  1.00  0.00    -0.282 OA 
HETATM   18  C   UNL     1     -12.243  14.229  71.324  1.00  0.00    -0.426 C  
HETATM   19  C   UNL     1     -11.890  12.013  70.172  1.00  0.00    -0.383 C  
ENDBRANCH  13  14
ENDBRANCH   2  13
BRANCH   4  20
HETATM   20  C   UNL     1      -9.736  10.564  67.500  1.00  0.00    -0.190 C  
BRANCH  20  21
HETATM   21  C   UNL     1      -9.890  10.511  65.960  1.00  0.00    -0.277 C  
BRANCH  21  22
HETATM   22  C   UNL     1     -10.842  11.434  65.197  1.00  0.00    -0.238 C  
HETATM   23  C   UNL     1     -10.481  11.726  63.753  1.00  0.00    -0.466 C  
HETATM   24  C   UNL     1     -11.692  12.371  63.089  1.00  0.00    -0.238 C  
HETATM   25  O   UNL     1     -12.705  11.395  62.811  1.00  0.00    -0.927 OA 
HETATM   26  C   UNL     1     -12.252  13.525  63.907  1.00  0.00    -0.458 C  
HETATM   27  C   UNL     1     -12.202  13.340  65.412  1.00  0.00    -0.456 C  
HETATM   28  H   UNL     1     -13.460  11.796  62.398  1.00  0.00     0.000 HD 
HETATM   29  O   UNL     1     -12.995  13.887  66.164  1.00  0.00    -0.300 OA 
HETATM   30  O   UNL     1     -11.116  12.658  65.887  1.00  0.00    -0.274 OA 
ENDBRANCH  21  22
ENDBRANCH  20  21
ENDBRANCH   4  20
TORSDOF 5
ENDMDL
MODEL      101
REMARK 921   NORMALIZED FREE ENERGY PREDICTED BY IDOCK:   -4.96 KCAL/MOL
REMARK 922        TOTAL FREE ENERGY PREDICTED BY IDOCK:   -7.99 KCAL/MOL
REMARK 923 INTER-LIGAND FREE ENERGY PREDICTED BY IDOCK:   -6.74 KCAL/MOL
REMARK 924 INTRA-LIGAND FREE ENERGY PREDICTED BY IDOCK:   -1.26 KCAL/MOL
REMARK 927      BINDING AFFINITY PREDICTED BY RF-SCORE:    0.00 PKD
ROOT
HETATM    1  C   UNL     1     -10.582   9.619  70.661  1.00  0.00    -0.386 C  
HETATM    2  C   UNL     1      -9.761  10.208  69.462  1.00  0.00    -0.229 C  
HETATM    3  C   UNL     1     -10.498  11.208  68.557  1.00  0.00    -0.212 C  
HETATM    4  C   UNL     1     -10.860   8.049  70.709  1.00  0.00    -0.244 C  
HETATM    5  C   UNL     1     -11.219  12.300  69.328  1.00  0.00    -0.275 C  
HETATM    6  C   UNL     1     -10.963   7.584  73.282  1.00  0.00    -0.362 C  
HETATM    7  C   UNL     1     -11.747   7.706  71.967  1.00  0.00    -0.340 C  
HETATM    8  C   UNL     1     -12.131  11.640  70.310  1.00  0.00    -0.443 C  
HETATM    9  C   UNL     1     -12.881   8.649  72.194  1.00  0.00    -0.442 C  
HETATM   10  C   UNL     1     -11.992  13.195  68.350  1.00  0.00    -0.324 C  
HETATM   11  C   UNL     1     -11.888  10.435  70.865  1.00  0.00    -0.475 C  
HETATM   12  C   UNL     1     -12.935   9.880  71.691  1.00  0.00    -0.536 C  
ENDROOT
BRANCH   2  13
HETATM   13  O   UNL     1      -9.338   9.209  68.532  1.00  0.00    -0.136 OA 
BRANCH  13  14
HETATM   14  C   UNL     1      -8.706   9.630  67.412  1.00  0.00    -0.128 C  
HETATM   15  C   UNL     1      -8.921  10.877  64.645  1.00  0.00    -0.147 C  
HETATM   16  C   UNL     1      -9.215   8.874  66.193  1.00  0.00    -0.273 C  
HETATM   17  O   UNL     1      -7.804  10.456  67.394  1.00  0.00    -0.102 OA 
HETATM   18  C   UNL     1      -9.886   9.849  65.222  1.00  0.00    -0.373 C  
HETATM   19  C   UNL     1     -10.179   7.736  66.567  1.00  0.00    -0.195 C  
ENDBRANCH  13  14
ENDBRANCH   2  13
BRANCH   4  20
HETATM   20  C   UNL     1      -9.665   7.008  70.665  1.00  0.00    -0.174 C  
BRANCH  20  21
HETATM   21  C   UNL     1     -10.073   5.757  69.848  1.00  0.00    -0.273 C  
BRANCH  21  22
HETATM   22  C   UNL     1      -9.046   4.764  69.298  1.00  0.00    -0.105 C  
HETATM   23  C   UNL     1      -9.451   4.002  68.051  1.00  0.00    -0.220 C  
HETATM   24  C   UNL     1      -8.203   3.332  67.486  1.00  0.00    -0.081 C  
HETATM   25  O   UNL     1      -7.361   4.289  66.829  1.00  0.00    -0.077 OA 
HETATM   26  C   UNL     1      -7.432   2.561  68.547  1.00  0.00    -0.047 C  
HETATM   27  C   UNL     1      -7.414   3.193  69.926  1.00  0.00    -0.044 C  
HETATM   28  H   UNL     1      -6.583   3.873  66.477  1.00  0.00     0.000 HD 
HETATM   29  O   UNL     1      -6.505   3.002  70.720  1.00  0.00    -0.026 OA 
HETATM   30  O   UNL     1      -8.556   3.853  70.288  1.00  0.00    -0.066 OA 
ENDBRANCH  21  22
ENDBRANCH  20  21
ENDBRANCH   4  20
TORSDOF 5
ENDMDL
MODEL      102
REMARK 921   NORMALIZED FREE ENERGY PREDICTED BY IDOCK:   -4.96 KCAL/MOL
REMARK 922        TOTAL FREE ENERGY PREDICTED BY IDOCK:   -7.99 KCAL/MOL
REMARK 923 INTER-LIGAND FREE ENERGY PREDICTED BY IDOCK:   -6.84 KCAL/MOL
REMARK 924 INTRA-LIGAND FREE ENERGY PREDICTED BY IDOCK:   -1.15 KCAL/MOL
REMARK 927      BINDING AFFINITY PREDICTED BY RF-SCORE:    0.00 PKD
ROOT
HETATM    1  C   UNL     1     -10.629  12.969  68.542  1.00  0.00    -0.274 C  
HETATM    2  C   UNL     1     -10.027  11.522  68.507  1.00  0.00    -0.204 C  
HETATM    3  C   UNL     1     -10.370  10.613  69.698  1.00  0.00    -0.185 C  
HETATM    4  C   UNL     1      -9.637  14.217  68.598  1.00  0.00    -0.179 C  
HETATM    5  C   UNL     1     -11.852  10.592  70.033  1.00  0.00    -0.388 C  
HETATM    6  C   UNL     1     -10.994  16.060  67.330  1.00  0.00    -0.237 C  
HETATM    7  C   UNL     1     -10.470  15.554  68.681  1.00  0.00    -0.237 C  
HETATM    8  C   UNL     1     -12.291  12.004  70.247  1.00  0.00    -0.275 C  
HETATM    9  C   UNL     1     -11.620  15.501  69.631  1.00  0.00    -0.359 C  
HETATM   10  C   UNL     1     -12.085   9.731  71.281  1.00  0.00    -0.470 C  
HETATM   11  C   UNL     1     -11.726  13.065  69.637  1.00  0.00    -0.364 C  
HETATM   12  C   UNL     1     -12.180  14.371  70.056  1.00  0.00    -0.408 C  
ENDROOT
BRANCH   2  13
HETATM   13  O   UNL     1      -8.598  11.512  68.519  1.00  0.00    -0.152 OA 
BRANCH  13  14
HETATM   14  C   UNL     1      -7.977  10.549  67.800  1.00  0.00    -0.106 C  
HETATM   15  C   UNL     1      -7.468   7.581  67.365  1.00  0.00    -0.104 C  
HETATM   16  C   UNL     1      -7.063   9.719  68.691  1.00  0.00    -0.071 C  
HETATM   17  O   UNL     1      -8.085  10.409  66.589  1.00  0.00    -0.117 OA 
HETATM   18  C   UNL     1      -7.550   8.268  68.723  1.00  0.00    -0.101 C  
HETATM   19  C   UNL     1      -6.962  10.285  70.117  1.00  0.00    -0.159 C  
ENDBRANCH  13  14
ENDBRANCH   2  13
BRANCH   4  20
HETATM   20  C   UNL     1      -8.516  14.418  67.494  1.00  0.00    -0.202 C  
BRANCH  20  21
HETATM   21  C   UNL     1      -7.347  15.260  68.062  1.00  0.00    -0.133 C  
BRANCH  21  22
HETATM   22  C   UNL     1      -7.099  16.710  67.640  1.00  0.00    -0.136 C  
HETATM   23  C   UNL     1      -5.824  16.974  66.862  1.00  0.00    -0.225 C  
HETATM   24  C   UNL     1      -5.922  18.373  66.264  1.00  0.00    -0.169 C  
HETATM   25  O   UNL     1      -6.809  18.387  65.138  1.00  0.00    -0.512 OA 
HETATM   26  C   UNL     1      -6.328  19.414  67.296  1.00  0.00    -0.201 C  
HETATM   27  C   UNL     1      -7.331  18.945  68.334  1.00  0.00    -0.288 C  
HETATM   28  H   UNL     1      -6.870  19.259  64.765  1.00  0.00     0.000 HD 
HETATM   29  O   UNL     1      -8.099  19.712  68.895  1.00  0.00    -0.330 OA 
HETATM   30  O   UNL     1      -7.209  17.639  68.724  1.00  0.00    -0.251 OA 
ENDBRANCH  21  22
ENDBRANCH  20  21
ENDBRANCH   4  20
TORSDOF 5
ENDMDL
MODEL      103
REMARK 921   NORMALIZED FREE ENERGY PREDICTED BY IDOCK:   -4.94 KCAL/MOL
REMARK 922        TOTAL FREE ENERGY PREDICTED BY IDOCK:   -7.97 KCAL/MOL
REMARK 923 INTER-LIGAND FREE ENERGY PREDICTED BY IDOCK:   -8.17 KCAL/MOL
REMARK 924 INTRA-LIGAND FREE ENERGY PREDICTED BY IDOCK:    0.19 KCAL/MOL
REMARK 927      BINDING AFFINITY PREDICTED BY RF-SCORE:    0.00 PKD
ROOT
HETATM    1  C   UNL     1      -9.189  12.578  68.453  1.00  0.00    -0.139 C  
HETATM    2  C   UNL     1     -10.729  12.283  68.467  1.00  0.00    -0.237 C  
HETATM    3  C   UNL     1     -11.138  10.805  68.566  1.00  0.00    -0.317 C  
HETATM    4  C   UNL     1      -8.547  13.267  67.165  1.00  0.00    -0.197 C  
HETATM    5  C   UNL     1     -10.417  10.052  69.671  1.00  0.00    -0.275 C  
HETATM    6  C   UNL     1      -6.563  14.626  68.197  1.00  0.00    -0.139 C  
HETATM    7  C   UNL     1      -6.989  13.410  67.361  1.00  0.00    -0.098 C  
HETATM    8  C   UNL     1      -8.948  10.225  69.456  1.00  0.00    -0.176 C  
HETATM    9  C   UNL     1      -6.330  12.201  67.940  1.00  0.00    -0.078 C  
HETATM   10  C   UNL     1     -10.824   8.574  69.637  1.00  0.00    -0.157 C  
HETATM   11  C   UNL     1      -8.399  11.309  68.873  1.00  0.00    -0.074 C  
HETATM   12  C   UNL     1      -6.977  11.258  68.621  1.00  0.00    -0.084 C  
ENDROOT
BRANCH   2  13
HETATM   13  O   UNL     1     -11.388  12.702  67.271  1.00  0.00    -0.281 OA 
BRANCH  13  14
HETATM   14  C   UNL     1     -11.239  11.924  66.173  1.00  0.00    -0.333 C  
HETATM   15  C   UNL     1     -10.232  11.668  63.313  1.00  0.00    -0.445 C  
HETATM   16  C   UNL     1     -11.954  12.539  64.979  1.00  0.00    -0.478 C  
HETATM   17  O   UNL     1     -10.664  10.844  66.162  1.00  0.00    -0.235 OA 
HETATM   18  C   UNL     1     -10.935  12.891  63.890  1.00  0.00    -0.422 C  
HETATM   19  C   UNL     1     -12.781  13.777  65.362  1.00  0.00    -0.513 C  
ENDBRANCH  13  14
ENDBRANCH   2  13
BRANCH   4  20
HETATM   20  C   UNL     1      -9.092  14.655  66.626  1.00  0.00    -0.285 C  
BRANCH  20  21
HETATM   21  C   UNL     1      -9.652  15.503  67.795  1.00  0.00    -0.209 C  
BRANCH  21  22
HETATM   22  C   UNL     1      -9.792  17.025  67.712  1.00  0.00    -0.271 C  
HETATM   23  C   UNL     1     -10.047  17.748  69.021  1.00  0.00    -0.294 C  
HETATM   24  C   UNL     1      -9.827  19.238  68.784  1.00  0.00    -0.447 C  
HETATM   25  O   UNL     1      -8.429  19.542  68.697  1.00  0.00    -0.357 OA 
HETATM   26  C   UNL     1     -10.576  19.743  67.560  1.00  0.00    -0.544 C  
HETATM   27  C   UNL     1     -10.643  18.775  66.393  1.00  0.00    -0.368 C  
HETATM   28  H   UNL     1      -8.292  20.470  68.549  1.00  0.00     0.000 HD 
HETATM   29  O   UNL     1     -10.754  19.153  65.236  1.00  0.00    -0.476 OA 
HETATM   30  O   UNL     1     -10.740  17.452  66.728  1.00  0.00    -0.236 OA 
ENDBRANCH  21  22
ENDBRANCH  20  21
ENDBRANCH   4  20
TORSDOF 5
ENDMDL
MODEL      104
REMARK 921   NORMALIZED FREE ENERGY PREDICTED BY IDOCK:   -4.93 KCAL/MOL
REMARK 922        TOTAL FREE ENERGY PREDICTED BY IDOCK:   -7.96 KCAL/MOL
REMARK 923 INTER-LIGAND FREE ENERGY PREDICTED BY IDOCK:   -6.73 KCAL/MOL
REMARK 924 INTRA-LIGAND FREE ENERGY PREDICTED BY IDOCK:   -1.22 KCAL/MOL
REMARK 927      BINDING AFFINITY PREDICTED BY RF-SCORE:    0.00 PKD
ROOT
HETATM    1  C   UNL     1      -8.496  12.210  66.747  1.00  0.00    -0.138 C  
HETATM    2  C   UNL     1      -9.611  13.143  67.336  1.00  0.00    -0.219 C  
HETATM    3  C   UNL     1      -9.188  14.066  68.489  1.00  0.00    -0.170 C  
HETATM    4  C   UNL     1      -8.675  10.629  66.857  1.00  0.00    -0.133 C  
HETATM    5  C   UNL     1      -7.910  14.836  68.208  1.00  0.00    -0.125 C  
HETATM    6  C   UNL     1      -7.424   9.781  64.721  1.00  0.00    -0.130 C  
HETATM    7  C   UNL     1      -7.410   9.909  66.251  1.00  0.00    -0.102 C  
HETATM    8  C   UNL     1      -6.849  13.845  67.852  1.00  0.00    -0.166 C  
HETATM    9  C   UNL     1      -6.107  10.519  66.650  1.00  0.00    -0.073 C  
HETATM   10  C   UNL     1      -7.523  15.660  69.443  1.00  0.00    -0.221 C  
HETATM   11  C   UNL     1      -7.100  12.662  67.256  1.00  0.00    -0.101 C  
HETATM   12  C   UNL     1      -5.978  11.764  67.103  1.00  0.00    -0.140 C  
ENDROOT
BRANCH   2  13
HETATM   13  O   UNL     1     -10.699  12.417  67.909  1.00  0.00    -0.209 OA 
BRANCH  13  14
HETATM   14  C   UNL     1     -11.746  13.134  68.380  1.00  0.00    -0.351 C  
HETATM   15  C   UNL     1     -12.924  14.790  70.644  1.00  0.00    -0.376 C  
HETATM   16  C   UNL     1     -12.274  12.526  69.672  1.00  0.00    -0.167 C  
HETATM   17  O   UNL     1     -12.239  14.097  67.810  1.00  0.00    -0.334 OA 
HETATM   18  C   UNL     1     -12.100  13.521  70.823  1.00  0.00    -0.351 C  
HETATM   19  C   UNL     1     -11.599  11.187  70.011  1.00  0.00    -0.421 C  
ENDBRANCH  13  14
ENDBRANCH   2  13
BRANCH   4  20
HETATM   20  C   UNL     1      -9.962   9.912  66.272  1.00  0.00    -0.322 C  
BRANCH  20  21
HETATM   21  C   UNL     1     -10.267   8.620  67.070  1.00  0.00    -0.360 C  
BRANCH  21  22
HETATM   22  C   UNL     1     -10.034   7.223  66.492  1.00  0.00    -0.112 C  
HETATM   23  C   UNL     1     -10.691   6.072  67.230  1.00  0.00    -0.400 C  
HETATM   24  C   UNL     1     -10.620   4.840  66.335  1.00  0.00    -0.153 C  
HETATM   25  O   UNL     1     -11.578   4.923  65.272  1.00  0.00    -0.957 OA 
HETATM   26  C   UNL     1      -9.219   4.601  65.793  1.00  0.00    -0.147 C  
HETATM   27  C   UNL     1      -8.431   5.853  65.451  1.00  0.00    -0.153 C  
HETATM   28  H   UNL     1     -11.534   4.155  64.714  1.00  0.00     0.000 HD 
HETATM   29  O   UNL     1      -7.553   5.860  64.602  1.00  0.00    -0.077 OA 
HETATM   30  O   UNL     1      -8.651   6.929  66.266  1.00  0.00    -0.124 OA 
ENDBRANCH  21  22
ENDBRANCH  20  21
ENDBRANCH   4  20
TORSDOF 5
ENDMDL
MODEL      105
REMARK 921   NORMALIZED FREE ENERGY PREDICTED BY IDOCK:   -4.93 KCAL/MOL
REMARK 922        TOTAL FREE ENERGY PREDICTED BY IDOCK:   -7.95 KCAL/MOL
REMARK 923 INTER-LIGAND FREE ENERGY PREDICTED BY IDOCK:   -7.32 KCAL/MOL
REMARK 924 INTRA-LIGAND FREE ENERGY PREDICTED BY IDOCK:   -0.63 KCAL/MOL
REMARK 927      BINDING AFFINITY PREDICTED BY RF-SCORE:    0.00 PKD
ROOT
HETATM    1  C   UNL     1      -9.854  10.469  65.679  1.00  0.00    -0.311 C  
HETATM    2  C   UNL     1     -10.594  11.601  66.473  1.00  0.00    -0.253 C  
HETATM    3  C   UNL     1     -11.074  12.808  65.650  1.00  0.00    -0.311 C  
HETATM    4  C   UNL     1      -8.332  10.148  66.033  1.00  0.00    -0.130 C  
HETATM    5  C   UNL     1     -11.835  12.418  64.395  1.00  0.00    -0.461 C  
HETATM    6  C   UNL     1      -8.167   7.593  65.493  1.00  0.00    -0.135 C  
HETATM    7  C   UNL     1      -7.791   9.021  65.072  1.00  0.00    -0.113 C  
HETATM    8  C   UNL     1     -10.967  11.495  63.603  1.00  0.00    -0.482 C  
HETATM    9  C   UNL     1      -8.180   9.195  63.641  1.00  0.00    -0.174 C  
HETATM   10  C   UNL     1     -12.196  13.679  63.599  1.00  0.00    -0.376 C  
HETATM   11  C   UNL     1     -10.053  10.670  64.152  1.00  0.00    -0.402 C  
HETATM   12  C   UNL     1      -9.204   9.943  63.237  1.00  0.00    -0.274 C  
ENDROOT
BRANCH   2  13
HETATM   13  O   UNL     1      -9.771  12.217  67.465  1.00  0.00    -0.181 OA 
BRANCH  13  14
HETATM   14  C   UNL     1     -10.389  12.949  68.420  1.00  0.00    -0.244 C  
HETATM   15  C   UNL     1     -11.827  15.526  69.163  1.00  0.00    -0.373 C  
HETATM   16  C   UNL     1      -9.672  14.276  68.626  1.00  0.00    -0.213 C  
HETATM   17  O   UNL     1     -11.352  12.568  69.071  1.00  0.00    -0.257 OA 
HETATM   18  C   UNL     1     -10.605  15.433  68.257  1.00  0.00    -0.253 C  
HETATM   19  C   UNL     1      -8.361  14.366  67.828  1.00  0.00    -0.172 C  
ENDBRANCH  13  14
ENDBRANCH   2  13
BRANCH   4  20
HETATM   20  C   UNL     1      -7.901   9.767  67.511  1.00  0.00    -0.095 C  
BRANCH  20  21
HETATM   21  C   UNL     1      -9.145   9.693  68.431  1.00  0.00    -0.123 C  
BRANCH  21  22
HETATM   22  C   UNL     1      -9.785   8.365  68.842  1.00  0.00    -0.167 C  
HETATM   23  C   UNL     1     -10.622   7.668  67.787  1.00  0.00    -0.265 C  
HETATM   24  C   UNL     1     -10.888   6.245  68.265  1.00  0.00    -0.319 C  
HETATM   25  O   UNL     1      -9.719   5.428  68.115  1.00  0.00    -0.125 OA 
HETATM   26  C   UNL     1     -11.406   6.204  69.695  1.00  0.00    -0.442 C  
HETATM   27  C   UNL     1     -10.809   7.237  70.633  1.00  0.00    -0.242 C  
HETATM   28  H   UNL     1      -9.884   4.541  68.413  1.00  0.00     0.000 HD 
HETATM   29  O   UNL     1     -10.729   7.055  71.839  1.00  0.00    -0.214 OA 
HETATM   30  O   UNL     1     -10.519   8.449  70.069  1.00  0.00    -0.214 OA 
ENDBRANCH  21  22
ENDBRANCH  20  21
ENDBRANCH   4  20
TORSDOF 5
ENDMDL
MODEL      106
REMARK 921   NORMALIZED FREE ENERGY PREDICTED BY IDOCK:   -4.86 KCAL/MOL
REMARK 922        TOTAL FREE ENERGY PREDICTED BY IDOCK:   -7.87 KCAL/MOL
REMARK 923 INTER-LIGAND FREE ENERGY PREDICTED BY IDOCK:   -6.64 KCAL/MOL
REMARK 924 INTRA-LIGAND FREE ENERGY PREDICTED BY IDOCK:   -1.22 KCAL/MOL
REMARK 927      BINDING AFFINITY PREDICTED BY RF-SCORE:    0.00 PKD
ROOT
HETATM    1  C   UNL     1      -7.927  15.317  67.320  1.00  0.00    -0.231 C  
HETATM    2  C   UNL     1      -9.064  15.433  66.246  1.00  0.00    -0.320 C  
HETATM    3  C   UNL     1      -9.792  16.785  66.167  1.00  0.00    -0.330 C  
HETATM    4  C   UNL     1      -8.087  14.259  68.502  1.00  0.00    -0.147 C  
HETATM    5  C   UNL     1      -8.849  17.974  66.110  1.00  0.00    -0.111 C  
HETATM    6  C   UNL     1      -5.602  13.614  69.007  1.00  0.00    -0.074 C  
HETATM    7  C   UNL     1      -6.854  14.365  69.480  1.00  0.00    -0.133 C  
HETATM    8  C   UNL     1      -7.932  17.887  67.287  1.00  0.00    -0.222 C  
HETATM    9  C   UNL     1      -6.454  15.765  69.811  1.00  0.00    -0.168 C  
HETATM   10  C   UNL     1      -9.661  19.275  66.120  1.00  0.00    -0.388 C  
HETATM   11  C   UNL     1      -7.561  16.725  67.862  1.00  0.00    -0.177 C  
HETATM   12  C   UNL     1      -6.778  16.824  69.073  1.00  0.00    -0.209 C  
ENDROOT
BRANCH   2  13
HETATM   13  O   UNL     1     -10.140  14.521  66.474  1.00  0.00    -0.259 OA 
BRANCH  13  14
HETATM   14  C   UNL     1     -10.420  13.632  65.492  1.00  0.00    -0.306 C  
HETATM   15  C   UNL     1     -12.482  12.467  63.582  1.00  0.00    -0.570 C  
HETATM   16  C   UNL     1     -11.520  12.676  65.933  1.00  0.00    -0.407 C  
HETATM   17  O   UNL     1      -9.824  13.566  64.426  1.00  0.00    -0.175 OA 
HETATM   18  C   UNL     1     -12.747  12.849  65.033  1.00  0.00    -0.474 C  
HETATM   19  C   UNL     1     -11.904  12.862  67.409  1.00  0.00    -0.418 C  
ENDBRANCH  13  14
ENDBRANCH   2  13
BRANCH   4  20
HETATM   20  C   UNL     1      -8.323  12.721  68.194  1.00  0.00    -0.172 C  
BRANCH  20  21
HETATM   21  C   UNL     1      -7.616  12.323  66.874  1.00  0.00     0.001 C  
BRANCH  21  22
HETATM   22  C   UNL     1      -7.975  11.053  66.101  1.00  0.00    -0.129 C  
HETATM   23  C   UNL     1      -9.215  10.312  66.565  1.00  0.00    -0.179 C  
HETATM   24  C   UNL     1      -9.581   9.293  65.491  1.00  0.00    -0.220 C  
HETATM   25  O   UNL     1     -10.187   9.936  64.361  1.00  0.00    -0.399 OA 
HETATM   26  C   UNL     1      -8.390   8.447  65.068  1.00  0.00    -0.169 C  
HETATM   27  C   UNL     1      -7.059   9.175  65.023  1.00  0.00    -0.092 C  
HETATM   28  H   UNL     1     -10.415   9.302  63.692  1.00  0.00     0.000 HD 
HETATM   29  O   UNL     1      -6.149   8.827  64.284  1.00  0.00    -0.069 OA 
HETATM   30  O   UNL     1      -6.880  10.139  65.977  1.00  0.00    -0.098 OA 
ENDBRANCH  21  22
ENDBRANCH  20  21
ENDBRANCH   4  20
TORSDOF 5
ENDMDL
MODEL      107
REMARK 921   NORMALIZED FREE ENERGY PREDICTED BY IDOCK:   -4.84 KCAL/MOL
REMARK 922        TOTAL FREE ENERGY PREDICTED BY IDOCK:   -7.84 KCAL/MOL
REMARK 923 INTER-LIGAND FREE ENERGY PREDICTED BY IDOCK:   -6.55 KCAL/MOL
REMARK 924 INTRA-LIGAND FREE ENERGY PREDICTED BY IDOCK:   -1.29 KCAL/MOL
REMARK 927      BINDING AFFINITY PREDICTED BY RF-SCORE:    0.00 PKD
ROOT
HETATM    1  C   UNL     1      -7.957  11.283  68.127  1.00  0.00    -0.131 C  
HETATM    2  C   UNL     1      -8.748  12.365  67.312  1.00  0.00    -0.191 C  
HETATM    3  C   UNL     1      -8.394  13.832  67.605  1.00  0.00    -0.183 C  
HETATM    4  C   UNL     1      -8.760  10.321  69.114  1.00  0.00    -0.176 C  
HETATM    5  C   UNL     1      -6.900  14.106  67.590  1.00  0.00    -0.196 C  
HETATM    6  C   UNL     1      -7.323   8.135  69.043  1.00  0.00    -0.083 C  
HETATM    7  C   UNL     1      -7.751   9.364  69.858  1.00  0.00    -0.114 C  
HETATM    8  C   UNL     1      -6.253  13.160  68.550  1.00  0.00    -0.079 C  
HETATM    9  C   UNL     1      -6.516  10.040  70.354  1.00  0.00    -0.125 C  
HETATM   10  C   UNL     1      -6.642  15.568  67.975  1.00  0.00    -0.156 C  
HETATM   11  C   UNL     1      -6.738  11.935  68.835  1.00  0.00    -0.095 C  
HETATM   12  C   UNL     1      -6.067  11.202  69.885  1.00  0.00    -0.121 C  
ENDROOT
BRANCH   2  13
HETATM   13  O   UNL     1     -10.154  12.334  67.564  1.00  0.00    -0.198 OA 
BRANCH  13  14
HETATM   14  C   UNL     1     -10.979  12.457  66.499  1.00  0.00    -0.272 C  
HETATM   15  C   UNL     1     -12.119  14.243  64.315  1.00  0.00    -0.467 C  
HETATM   16  C   UNL     1     -12.034  13.525  66.758  1.00  0.00    -0.453 C  
HETATM   17  O   UNL     1     -10.924  11.761  65.495  1.00  0.00    -0.291 OA 
HETATM   18  C   UNL     1     -11.869  14.670  65.756  1.00  0.00    -0.274 C  
HETATM   19  C   UNL     1     -11.987  14.059  68.199  1.00  0.00    -0.382 C  
ENDBRANCH  13  14
ENDBRANCH   2  13
BRANCH   4  20
HETATM   20  C   UNL     1      -9.963   9.433  68.586  1.00  0.00    -0.187 C  
BRANCH  20  21
HETATM   21  C   UNL     1     -10.921   9.079  69.751  1.00  0.00    -0.177 C  
BRANCH  21  22
HETATM   22  C   UNL     1     -10.748   7.819  70.603  1.00  0.00    -0.231 C  
HETATM   23  C   UNL     1     -11.255   6.524  69.997  1.00  0.00    -0.453 C  
HETATM   24  C   UNL     1     -10.705   5.371  70.829  1.00  0.00    -0.182 C  
HETATM   25  O   UNL     1      -9.316   5.153  70.547  1.00  0.00    -0.146 OA 
HETATM   26  C   UNL     1     -10.937   5.574  72.319  1.00  0.00    -0.296 C  
HETATM   27  C   UNL     1     -10.819   7.006  72.808  1.00  0.00    -0.288 C  
HETATM   28  H   UNL     1      -8.973   4.435  71.065  1.00  0.00     0.000 HD 
HETATM   29  O   UNL     1     -10.499   7.280  73.955  1.00  0.00    -0.353 OA 
HETATM   30  O   UNL     1     -11.253   7.965  71.934  1.00  0.00    -0.249 OA 
ENDBRANCH  21  22
ENDBRANCH  20  21
ENDBRANCH   4  20
TORSDOF 5
ENDMDL
MODEL      108
REMARK 921   NORMALIZED FREE ENERGY PREDICTED BY IDOCK:   -4.82 KCAL/MOL
REMARK 922        TOTAL FREE ENERGY PREDICTED BY IDOCK:   -7.81 KCAL/MOL
REMARK 923 INTER-LIGAND FREE ENERGY PREDICTED BY IDOCK:   -6.44 KCAL/MOL
REMARK 924 INTRA-LIGAND FREE ENERGY PREDICTED BY IDOCK:   -1.37 KCAL/MOL
REMARK 927      BINDING AFFINITY PREDICTED BY RF-SCORE:    0.00 PKD
ROOT
HETATM    1  C   UNL     1      -7.676   7.427  65.856  1.00  0.00    -0.093 C  
HETATM    2  C   UNL     1      -7.858   6.521  67.123  1.00  0.00    -0.108 C  
HETATM    3  C   UNL     1      -8.291   5.069  66.865  1.00  0.00    -0.107 C  
HETATM    4  C   UNL     1      -8.613   8.706  65.681  1.00  0.00    -0.191 C  
HETATM    5  C   UNL     1      -7.463   4.374  65.797  1.00  0.00    -0.081 C  
HETATM    6  C   UNL     1      -7.062  10.351  64.363  1.00  0.00     0.007 C  
HETATM    7  C   UNL     1      -8.284   9.422  64.315  1.00  0.00    -0.153 C  
HETATM    8  C   UNL     1      -7.515   5.213  64.561  1.00  0.00    -0.072 C  
HETATM    9  C   UNL     1      -8.109   8.491  63.161  1.00  0.00    -0.165 C  
HETATM   10  C   UNL     1      -8.021   2.966  65.549  1.00  0.00    -0.086 C  
HETATM   11  C   UNL     1      -7.662   6.553  64.572  1.00  0.00    -0.108 C  
HETATM   12  C   UNL     1      -7.828   7.196  63.289  1.00  0.00    -0.114 C  
ENDROOT
BRANCH   2  13
HETATM   13  O   UNL     1      -8.881   6.992  68.002  1.00  0.00    -0.125 OA 
BRANCH  13  14
HETATM   14  C   UNL     1      -8.717   6.763  69.326  1.00  0.00    -0.135 C  
HETATM   15  C   UNL     1      -8.922   4.807  71.648  1.00  0.00    -0.160 C  
HETATM   16  C   UNL     1     -10.038   6.367  69.970  1.00  0.00    -0.208 C  
HETATM   17  O   UNL     1      -7.665   6.918  69.931  1.00  0.00    -0.104 OA 
HETATM   18  C   UNL     1      -9.939   4.942  70.522  1.00  0.00    -0.311 C  
HETATM   19  C   UNL     1     -11.224   6.488  68.999  1.00  0.00    -0.354 C  
ENDBRANCH  13  14
ENDBRANCH   2  13
BRANCH   4  20
HETATM   20  C   UNL     1      -8.684   9.824  66.804  1.00  0.00    -0.140 C  
BRANCH  20  21
HETATM   21  C   UNL     1     -10.140  10.321  66.976  1.00  0.00    -0.268 C  
BRANCH  21  22
HETATM   22  C   UNL     1     -10.605  11.692  66.481  1.00  0.00    -0.253 C  
HETATM   23  C   UNL     1     -10.292  12.873  67.381  1.00  0.00    -0.233 C  
HETATM   24  C   UNL     1     -10.530  14.148  66.580  1.00  0.00    -0.278 C  
HETATM   25  O   UNL     1      -9.469  14.370  65.642  1.00  0.00    -0.526 OA 
HETATM   26  C   UNL     1     -11.884  14.149  65.887  1.00  0.00    -0.391 C  
HETATM   27  C   UNL     1     -12.344  12.804  65.354  1.00  0.00    -0.470 C  
HETATM   28  H   UNL     1      -9.617  15.164  65.143  1.00  0.00     0.000 HD 
HETATM   29  O   UNL     1     -13.105  12.703  64.404  1.00  0.00    -0.752 OA 
HETATM   30  O   UNL     1     -11.987  11.718  66.107  1.00  0.00    -0.464 OA 
ENDBRANCH  21  22
ENDBRANCH  20  21
ENDBRANCH   4  20
TORSDOF 5
ENDMDL
MODEL      109
REMARK 921   NORMALIZED FREE ENERGY PREDICTED BY IDOCK:   -4.76 KCAL/MOL
REMARK 922        TOTAL FREE ENERGY PREDICTED BY IDOCK:   -7.74 KCAL/MOL
REMARK 923 INTER-LIGAND FREE ENERGY PREDICTED BY IDOCK:   -7.68 KCAL/MOL
REMARK 924 INTRA-LIGAND FREE ENERGY PREDICTED BY IDOCK:   -0.06 KCAL/MOL
REMARK 927      BINDING AFFINITY PREDICTED BY RF-SCORE:    0.00 PKD
ROOT
HETATM    1  C   UNL     1     -10.022  11.499  65.476  1.00  0.00    -0.282 C  
HETATM    2  C   UNL     1      -9.011  10.577  66.243  1.00  0.00    -0.158 C  
HETATM    3  C   UNL     1      -8.578   9.292  65.519  1.00  0.00    -0.172 C  
HETATM    4  C   UNL     1     -11.464  11.754  66.108  1.00  0.00    -0.288 C  
HETATM    5  C   UNL     1      -8.141   9.526  64.084  1.00  0.00    -0.147 C  
HETATM    6  C   UNL     1     -12.025  14.163  65.251  1.00  0.00    -0.383 C  
HETATM    7  C   UNL     1     -12.316  12.659  65.137  1.00  0.00    -0.547 C  
HETATM    8  C   UNL     1      -9.253  10.232  63.377  1.00  0.00    -0.321 C  
HETATM    9  C   UNL     1     -12.213  12.280  63.696  1.00  0.00    -0.665 C  
HETATM   10  C   UNL     1      -7.812   8.183  63.420  1.00  0.00    -0.149 C  
HETATM   11  C   UNL     1     -10.120  11.063  63.989  1.00  0.00    -0.408 C  
HETATM   12  C   UNL     1     -11.216  11.558  63.189  1.00  0.00    -0.110 C  
ENDROOT
BRANCH   2  13
HETATM   13  O   UNL     1      -9.537  10.073  67.471  1.00  0.00    -0.150 OA 
BRANCH  13  14
HETATM   14  C   UNL     1      -9.923   8.776  67.497  1.00  0.00    -0.198 C  
HETATM   15  C   UNL     1     -11.051   6.455  69.109  1.00  0.00    -0.428 C  
HETATM   16  C   UNL     1      -9.108   7.995  68.518  1.00  0.00    -0.136 C  
HETATM   17  O   UNL     1     -10.765   8.288  66.755  1.00  0.00    -0.267 OA 
HETATM   18  C   UNL     1     -10.030   7.463  69.619  1.00  0.00    -0.182 C  
HETATM   19  C   UNL     1      -7.969   8.830  69.125  1.00  0.00    -0.109 C  
ENDBRANCH  13  14
ENDBRANCH   2  13
BRANCH   4  20
HETATM   20  C   UNL     1     -11.621  12.342  67.572  1.00  0.00    -0.422 C  
BRANCH  20  21
HETATM   21  C   UNL     1     -10.365  13.160  67.961  1.00  0.00    -0.240 C  
BRANCH  21  22
HETATM   22  C   UNL     1     -10.433  14.643  68.331  1.00  0.00    -0.243 C  
HETATM   23  C   UNL     1      -9.420  15.550  67.659  1.00  0.00    -0.208 C  
HETATM   24  C   UNL     1      -9.854  16.993  67.895  1.00  0.00    -0.269 C  
HETATM   25  O   UNL     1     -10.966  17.337  67.058  1.00  0.00    -0.108 OA 
HETATM   26  C   UNL     1     -10.163  17.269  69.359  1.00  0.00    -0.139 C  
HETATM   27  C   UNL     1     -10.824  16.129  70.111  1.00  0.00    -0.328 C  
HETATM   28  H   UNL     1     -11.237  18.235  67.205  1.00  0.00     0.000 HD 
HETATM   29  O   UNL     1     -11.548  16.317  71.077  1.00  0.00    -0.410 OA 
HETATM   30  O   UNL     1     -10.428  14.872  69.745  1.00  0.00    -0.212 OA 
ENDBRANCH  21  22
ENDBRANCH  20  21
ENDBRANCH   4  20
TORSDOF 5
ENDMDL
MODEL      110
REMARK 921   NORMALIZED FREE ENERGY PREDICTED BY IDOCK:   -4.75 KCAL/MOL
REMARK 922        TOTAL FREE ENERGY PREDICTED BY IDOCK:   -7.72 KCAL/MOL
REMARK 923 INTER-LIGAND FREE ENERGY PREDICTED BY IDOCK:   -6.33 KCAL/MOL
REMARK 924 INTRA-LIGAND FREE ENERGY PREDICTED BY IDOCK:   -1.40 KCAL/MOL
REMARK 927      BINDING AFFINITY PREDICTED BY RF-SCORE:    0.00 PKD
ROOT
HETATM    1  C   UNL     1      -8.239   7.109  67.956  1.00  0.00    -0.120 C  
HETATM    2  C   UNL     1      -8.663   6.357  69.265  1.00  0.00    -0.125 C  
HETATM    3  C   UNL     1      -9.026   4.871  69.111  1.00  0.00    -0.132 C  
HETATM    4  C   UNL     1      -9.131   8.327  67.443  1.00  0.00    -0.155 C  
HETATM    5  C   UNL     1      -7.997   4.079  68.322  1.00  0.00    -0.076 C  
HETATM    6  C   UNL     1      -7.361   9.848  66.260  1.00  0.00    -0.102 C  
HETATM    7  C   UNL     1      -8.542   8.883  66.089  1.00  0.00    -0.155 C  
HETATM    8  C   UNL     1      -7.809   4.760  67.005  1.00  0.00    -0.098 C  
HETATM    9  C   UNL     1      -8.134   7.824  65.118  1.00  0.00    -0.137 C  
HETATM   10  C   UNL     1      -8.485   2.635  68.147  1.00  0.00    -0.100 C  
HETATM   11  C   UNL     1      -7.964   6.087  66.820  1.00  0.00    -0.102 C  
HETATM   12  C   UNL     1      -7.876   6.564  65.459  1.00  0.00    -0.104 C  
ENDROOT
BRANCH   2  13
HETATM   13  O   UNL     1      -9.843   6.898  69.861  1.00  0.00    -0.165 OA 
BRANCH  13  14
HETATM   14  C   UNL     1      -9.762   7.296  71.152  1.00  0.00    -0.171 C  
HETATM   15  C   UNL     1     -10.136   6.603  74.091  1.00  0.00    -0.390 C  
HETATM   16  C   UNL     1     -11.126   7.217  71.824  1.00  0.00    -0.267 C  
HETATM   17  O   UNL     1      -8.746   7.723  71.683  1.00  0.00    -0.113 OA 
HETATM   18  C   UNL     1     -11.081   6.199  72.967  1.00  0.00    -0.250 C  
HETATM   19  C   UNL     1     -12.249   6.869  70.835  1.00  0.00    -0.404 C  
ENDBRANCH  13  14
ENDBRANCH   2  13
BRANCH   4  20
HETATM   20  C   UNL     1      -9.431   9.570  68.381  1.00  0.00    -0.144 C  
BRANCH  20  21
HETATM   21  C   UNL     1     -10.869  10.092  68.137  1.00  0.00    -0.310 C  
BRANCH  21  22
HETATM   22  C   UNL     1     -11.419  11.340  68.833  1.00  0.00    -0.297 C  
HETATM   23  C   UNL     1     -10.676  12.636  68.572  1.00  0.00    -0.271 C  
HETATM   24  C   UNL     1     -11.549  13.784  69.068  1.00  0.00    -0.313 C  
HETATM   25  O   UNL     1     -12.634  14.030  68.164  1.00  0.00    -0.402 OA 
HETATM   26  C   UNL     1     -12.055  13.552  70.484  1.00  0.00    -0.409 C  
HETATM   27  C   UNL     1     -12.401  12.114  70.824  1.00  0.00    -0.297 C  
HETATM   28  H   UNL     1     -13.178  14.745  68.473  1.00  0.00     0.000 HD 
HETATM   29  O   UNL     1     -13.230  11.825  71.674  1.00  0.00    -0.411 OA 
HETATM   30  O   UNL     1     -11.609  11.163  70.241  1.00  0.00    -0.307 OA 
ENDBRANCH  21  22
ENDBRANCH  20  21
ENDBRANCH   4  20
TORSDOF 5
ENDMDL
MODEL      111
REMARK 921   NORMALIZED FREE ENERGY PREDICTED BY IDOCK:   -4.75 KCAL/MOL
REMARK 922        TOTAL FREE ENERGY PREDICTED BY IDOCK:   -7.72 KCAL/MOL
REMARK 923 INTER-LIGAND FREE ENERGY PREDICTED BY IDOCK:   -7.13 KCAL/MOL
REMARK 924 INTRA-LIGAND FREE ENERGY PREDICTED BY IDOCK:   -0.59 KCAL/MOL
REMARK 927      BINDING AFFINITY PREDICTED BY RF-SCORE:    0.00 PKD
ROOT
HETATM    1  C   UNL     1     -12.363  13.586  69.588  1.00  0.00    -0.220 C  
HETATM    2  C   UNL     1     -12.733  12.726  70.846  1.00  0.00    -0.192 C  
HETATM    3  C   UNL     1     -12.494  13.384  72.214  1.00  0.00     0.138 C  
HETATM    4  C   UNL     1     -11.216  13.066  68.608  1.00  0.00    -0.316 C  
HETATM    5  C   UNL     1     -13.060  14.789  72.314  1.00  0.00    -0.441 C  
HETATM    6  C   UNL     1     -11.987  14.021  66.298  1.00  0.00    -0.454 C  
HETATM    7  C   UNL     1     -10.985  14.118  67.456  1.00  0.00    -0.292 C  
HETATM    8  C   UNL     1     -12.491  15.591  71.189  1.00  0.00    -0.491 C  
HETATM    9  C   UNL     1     -10.953  15.537  67.919  1.00  0.00    -0.316 C  
HETATM   10  C   UNL     1     -12.699  15.393  73.678  1.00  0.00    -0.713 C  
HETATM   11  C   UNL     1     -12.131  15.064  70.001  1.00  0.00    -0.382 C  
HETATM   12  C   UNL     1     -11.473  15.953  69.071  1.00  0.00    -0.380 C  
ENDROOT
BRANCH   2  13
HETATM   13  O   UNL     1     -11.965  11.526  70.946  1.00  0.00    -0.307 OA 
BRANCH  13  14
HETATM   14  C   UNL     1     -12.613  10.354  70.747  1.00  0.00    -0.371 C  
HETATM   15  C   UNL     1     -13.324   7.591  71.805  1.00  0.00    -0.370 C  
HETATM   16  C   UNL     1     -11.632   9.189  70.767  1.00  0.00    -0.329 C  
HETATM   17  O   UNL     1     -13.810  10.254  70.519  1.00  0.00     0.223 OA 
HETATM   18  C   UNL     1     -11.960   8.256  71.936  1.00  0.00    -0.383 C  
HETATM   19  C   UNL     1     -10.169   9.654  70.841  1.00  0.00    -0.303 C  
ENDBRANCH  13  14
ENDBRANCH   2  13
BRANCH   4  20
HETATM   20  C   UNL     1     -11.304  11.631  67.938  1.00  0.00    -0.369 C  
BRANCH  20  21
HETATM   21  C   UNL     1     -10.021  11.340  67.121  1.00  0.00    -0.219 C  
BRANCH  21  22
HETATM   22  C   UNL     1      -8.618  11.570  67.686  1.00  0.00    -0.135 C  
HETATM   23  C   UNL     1      -8.531  12.411  68.946  1.00  0.00     0.263 C  
HETATM   24  C   UNL     1      -7.128  12.249  69.521  1.00  0.00     0.223 C  
HETATM   25  O   UNL     1      -6.980  10.975  70.161  1.00  0.00    -0.394 OA 
HETATM   26  C   UNL     1      -6.047  12.465  68.472  1.00  0.00    -0.056 C  
HETATM   27  C   UNL     1      -6.378  11.953  67.082  1.00  0.00    -0.151 C  
HETATM   28  H   UNL     1      -6.107  10.874  70.519  1.00  0.00     0.000 HD 
HETATM   29  O   UNL     1      -5.513  11.607  66.291  1.00  0.00    -0.279 OA 
HETATM   30  O   UNL     1      -7.690  12.059  66.711  1.00  0.00    -0.117 OA 
ENDBRANCH  21  22
ENDBRANCH  20  21
ENDBRANCH   4  20
TORSDOF 5
ENDMDL
MODEL      112
REMARK 921   NORMALIZED FREE ENERGY PREDICTED BY IDOCK:   -4.74 KCAL/MOL
REMARK 922        TOTAL FREE ENERGY PREDICTED BY IDOCK:   -7.71 KCAL/MOL
REMARK 923 INTER-LIGAND FREE ENERGY PREDICTED BY IDOCK:   -6.66 KCAL/MOL
REMARK 924 INTRA-LIGAND FREE ENERGY PREDICTED BY IDOCK:   -1.06 KCAL/MOL
REMARK 927      BINDING AFFINITY PREDICTED BY RF-SCORE:    0.00 PKD
ROOT
HETATM    1  C   UNL     1      -8.745  10.444  68.670  1.00  0.00    -0.138 C  
HETATM    2  C   UNL     1     -10.030  10.156  67.818  1.00  0.00    -0.168 C  
HETATM    3  C   UNL     1     -10.505   8.695  67.774  1.00  0.00    -0.287 C  
HETATM    4  C   UNL     1      -7.445  11.007  67.938  1.00  0.00    -0.093 C  
HETATM    5  C   UNL     1     -10.589   8.048  69.146  1.00  0.00    -0.181 C  
HETATM    6  C   UNL     1      -6.335  12.451  69.817  1.00  0.00    -0.081 C  
HETATM    7  C   UNL     1      -6.274  11.163  68.983  1.00  0.00    -0.047 C  
HETATM    8  C   UNL     1      -9.255   8.195  69.803  1.00  0.00    -0.151 C  
HETATM    9  C   UNL     1      -6.134  10.012  69.924  1.00  0.00    -0.052 C  
HETATM   10  C   UNL     1     -10.986   6.573  68.995  1.00  0.00    -0.378 C  
HETATM   11  C   UNL     1      -8.411   9.218  69.562  1.00  0.00    -0.144 C  
HETATM   12  C   UNL     1      -7.107   9.139  70.178  1.00  0.00    -0.059 C  
ENDROOT
BRANCH   2  13
HETATM   13  O   UNL     1      -9.860  10.463  66.433  1.00  0.00    -0.196 OA 
BRANCH  13  14
HETATM   14  C   UNL     1     -10.706  11.369  65.888  1.00  0.00    -0.255 C  
HETATM   15  C   UNL     1     -12.595  12.088  63.614  1.00  0.00    -0.605 C  
HETATM   16  C   UNL     1     -10.226  11.785  64.505  1.00  0.00    -0.327 C  
HETATM   17  O   UNL     1     -11.683  11.835  66.458  1.00  0.00    -0.530 OA 
HETATM   18  C   UNL     1     -11.260  11.373  63.452  1.00  0.00    -0.252 C  
HETATM   19  C   UNL     1      -8.846  11.203  64.161  1.00  0.00     0.111 C  
ENDBRANCH  13  14
ENDBRANCH   2  13
BRANCH   4  20
HETATM   20  C   UNL     1      -7.504  12.340  67.081  1.00  0.00    -0.113 C  
BRANCH  20  21
HETATM   21  C   UNL     1      -8.476  13.355  67.731  1.00  0.00    -0.181 C  
BRANCH  21  22
HETATM   22  C   UNL     1      -8.940  14.624  67.013  1.00  0.00    -0.240 C  
HETATM   23  C   UNL     1      -8.716  15.931  67.750  1.00  0.00    -0.173 C  
HETATM   24  C   UNL     1      -8.931  17.070  66.759  1.00  0.00    -0.244 C  
HETATM   25  O   UNL     1      -7.815  17.190  65.866  1.00  0.00    -0.477 OA 
HETATM   26  C   UNL     1     -10.235  16.926  65.989  1.00  0.00    -0.350 C  
HETATM   27  C   UNL     1     -10.626  15.504  65.631  1.00  0.00    -0.373 C  
HETATM   28  H   UNL     1      -7.948  17.899  65.249  1.00  0.00     0.000 HD 
HETATM   29  O   UNL     1     -11.320  15.242  64.660  1.00  0.00    -0.398 OA 
HETATM   30  O   UNL     1     -10.294  14.550  66.554  1.00  0.00    -0.273 OA 
ENDBRANCH  21  22
ENDBRANCH  20  21
ENDBRANCH   4  20
TORSDOF 5
ENDMDL
MODEL      113
REMARK 921   NORMALIZED FREE ENERGY PREDICTED BY IDOCK:   -4.73 KCAL/MOL
REMARK 922        TOTAL FREE ENERGY PREDICTED BY IDOCK:   -7.69 KCAL/MOL
REMARK 923 INTER-LIGAND FREE ENERGY PREDICTED BY IDOCK:   -6.65 KCAL/MOL
REMARK 924 INTRA-LIGAND FREE ENERGY PREDICTED BY IDOCK:   -1.04 KCAL/MOL
REMARK 927      BINDING AFFINITY PREDICTED BY RF-SCORE:    0.00 PKD
ROOT
HETATM    1  C   UNL     1     -10.046  13.056  65.060  1.00  0.00    -0.234 C  
HETATM    2  C   UNL     1      -8.945  12.338  65.916  1.00  0.00     0.144 C  
HETATM    3  C   UNL     1      -8.880  10.807  65.796  1.00  0.00    -0.201 C  
HETATM    4  C   UNL     1     -11.198  13.867  65.808  1.00  0.00    -0.303 C  
HETATM    5  C   UNL     1      -8.876  10.316  64.359  1.00  0.00    -0.229 C  
HETATM    6  C   UNL     1     -11.753  15.755  64.083  1.00  0.00    -0.070 C  
HETATM    7  C   UNL     1     -12.210  14.449  64.748  1.00  0.00    -0.458 C  
HETATM    8  C   UNL     1     -10.075  10.891  63.676  1.00  0.00    -0.414 C  
HETATM    9  C   UNL     1     -12.585  13.490  63.667  1.00  0.00    -0.121 C  
HETATM   10  C   UNL     1      -8.896   8.782  64.340  1.00  0.00     0.021 C  
HETATM   11  C   UNL     1     -10.632  12.072  64.011  1.00  0.00    -0.423 C  
HETATM   12  C   UNL     1     -11.865  12.419  63.343  1.00  0.00    -0.571 C  
ENDROOT
BRANCH   2  13
HETATM   13  O   UNL     1      -9.122  12.526  67.322  1.00  0.00    -0.176 OA 
BRANCH  13  14
HETATM   14  C   UNL     1      -8.009  12.546  68.091  1.00  0.00    -0.157 C  
HETATM   15  C   UNL     1      -5.657  11.012  69.262  1.00  0.00    -0.041 C  
HETATM   16  C   UNL     1      -8.143  11.572  69.253  1.00  0.00     0.243 C  
HETATM   17  O   UNL     1      -7.057  13.293  67.913  1.00  0.00    -0.100 OA 
HETATM   18  C   UNL     1      -7.078  10.477  69.137  1.00  0.00    -0.089 C  
HETATM   19  C   UNL     1      -9.547  10.951  69.341  1.00  0.00     0.009 C  
ENDBRANCH  13  14
ENDBRANCH   2  13
BRANCH   4  20
HETATM   20  C   UNL     1     -10.846  15.032  66.826  1.00  0.00    -0.318 C  
BRANCH  20  21
HETATM   21  C   UNL     1      -9.607  15.819  66.334  1.00  0.00    -0.311 C  
BRANCH  21  22
HETATM   22  C   UNL     1      -9.331  17.264  66.755  1.00  0.00    -0.259 C  
HETATM   23  C   UNL     1     -10.546  18.111  67.083  1.00  0.00    -0.362 C  
HETATM   24  C   UNL     1     -10.060  19.376  67.782  1.00  0.00    -0.401 C  
HETATM   25  O   UNL     1      -9.681  19.099  69.137  1.00  0.00    -0.374 OA 
HETATM   26  C   UNL     1      -8.929  20.055  67.024  1.00  0.00    -0.445 C  
HETATM   27  C   UNL     1      -7.945  19.119  66.346  1.00  0.00    -0.294 C  
HETATM   28  H   UNL     1      -9.378  19.887  69.573  1.00  0.00     0.000 HD 
HETATM   29  O   UNL     1      -6.785  19.435  66.132  1.00  0.00    -0.200 OA 
HETATM   30  O   UNL     1      -8.480  17.966  65.842  1.00  0.00    -0.516 OA 
ENDBRANCH  21  22
ENDBRANCH  20  21
ENDBRANCH   4  20
TORSDOF 5
ENDMDL
MODEL      114
REMARK 921   NORMALIZED FREE ENERGY PREDICTED BY IDOCK:   -4.70 KCAL/MOL
REMARK 922        TOTAL FREE ENERGY PREDICTED BY IDOCK:   -7.65 KCAL/MOL
REMARK 923 INTER-LIGAND FREE ENERGY PREDICTED BY IDOCK:   -6.43 KCAL/MOL
REMARK 924 INTRA-LIGAND FREE ENERGY PREDICTED BY IDOCK:   -1.22 KCAL/MOL
REMARK 927      BINDING AFFINITY PREDICTED BY RF-SCORE:    0.00 PKD
ROOT
HETATM    1  C   UNL     1      -7.851   7.381  68.124  1.00  0.00    -0.122 C  
HETATM    2  C   UNL     1      -7.875   7.217  69.684  1.00  0.00    -0.118 C  
HETATM    3  C   UNL     1      -8.057   5.786  70.215  1.00  0.00    -0.105 C  
HETATM    4  C   UNL     1      -8.990   8.249  67.423  1.00  0.00    -0.142 C  
HETATM    5  C   UNL     1      -7.127   4.778  69.563  1.00  0.00    -0.054 C  
HETATM    6  C   UNL     1      -7.742   9.215  65.336  1.00  0.00    -0.098 C  
HETATM    7  C   UNL     1      -8.790   8.223  65.859  1.00  0.00    -0.197 C  
HETATM    8  C   UNL     1      -7.322   4.867  68.084  1.00  0.00    -0.070 C  
HETATM    9  C   UNL     1      -8.463   6.875  65.305  1.00  0.00    -0.062 C  
HETATM   10  C   UNL     1      -7.439   3.372  70.092  1.00  0.00    -0.044 C  
HETATM   11  C   UNL     1      -7.693   5.994  67.444  1.00  0.00    -0.097 C  
HETATM   12  C   UNL     1      -7.968   5.875  66.031  1.00  0.00    -0.108 C  
ENDROOT
BRANCH   2  13
HETATM   13  O   UNL     1      -8.960   7.911  70.301  1.00  0.00    -0.148 OA 
BRANCH  13  14
HETATM   14  C   UNL     1      -8.719   8.511  71.490  1.00  0.00    -0.189 C  
HETATM   15  C   UNL     1      -8.152   8.203  74.463  1.00  0.00    -0.265 C  
HETATM   16  C   UNL     1      -9.785   8.130  72.508  1.00  0.00    -0.357 C  
HETATM   17  O   UNL     1      -7.808   9.301  71.696  1.00  0.00    -0.329 OA 
HETATM   18  C   UNL     1      -9.143   7.363  73.668  1.00  0.00    -0.273 C  
HETATM   19  C   UNL     1     -10.926   7.310  71.885  1.00  0.00    -0.260 C  
ENDBRANCH  13  14
ENDBRANCH   2  13
BRANCH   4  20
HETATM   20  C   UNL     1      -9.246   9.756  67.848  1.00  0.00    -0.133 C  
BRANCH  20  21
HETATM   21  C   UNL     1     -10.680  10.189  67.454  1.00  0.00    -0.336 C  
BRANCH  21  22
HETATM   22  C   UNL     1     -11.036  11.638  67.115  1.00  0.00    -0.280 C  
HETATM   23  C   UNL     1     -11.697  12.443  68.218  1.00  0.00    -0.398 C  
HETATM   24  C   UNL     1     -11.667  13.911  67.809  1.00  0.00    -0.366 C  
HETATM   25  O   UNL     1     -10.353  14.461  67.968  1.00  0.00    -0.223 OA 
HETATM   26  C   UNL     1     -12.185  14.125  66.394  1.00  0.00    -0.473 C  
HETATM   27  C   UNL     1     -11.827  13.037  65.399  1.00  0.00    -0.388 C  
HETATM   28  H   UNL     1     -10.334  15.376  67.712  1.00  0.00     0.000 HD 
HETATM   29  O   UNL     1     -11.727  13.255  64.201  1.00  0.00    -0.379 OA 
HETATM   30  O   UNL     1     -11.788  11.766  65.903  1.00  0.00    -0.414 OA 
ENDBRANCH  21  22
ENDBRANCH  20  21
ENDBRANCH   4  20
TORSDOF 5
ENDMDL
MODEL      115
REMARK 921   NORMALIZED FREE ENERGY PREDICTED BY IDOCK:   -4.69 KCAL/MOL
REMARK 922        TOTAL FREE ENERGY PREDICTED BY IDOCK:   -7.64 KCAL/MOL
REMARK 923 INTER-LIGAND FREE ENERGY PREDICTED BY IDOCK:   -7.44 KCAL/MOL
REMARK 924 INTRA-LIGAND FREE ENERGY PREDICTED BY IDOCK:   -0.21 KCAL/MOL
REMARK 927      BINDING AFFINITY PREDICTED BY RF-SCORE:    0.00 PKD
ROOT
HETATM    1  C   UNL     1     -10.821   7.384  69.315  1.00  0.00    -0.153 C  
HETATM    2  C   UNL     1     -10.760   6.102  68.413  1.00  0.00    -0.293 C  
HETATM    3  C   UNL     1      -9.869   4.956  68.919  1.00  0.00    -0.241 C  
HETATM    4  C   UNL     1     -10.287   8.767  68.726  1.00  0.00    -0.234 C  
HETATM    5  C   UNL     1     -10.113   4.601  70.375  1.00  0.00    -0.275 C  
HETATM    6  C   UNL     1     -11.796  10.512  69.962  1.00  0.00    -0.388 C  
HETATM    7  C   UNL     1     -10.398   9.890  69.828  1.00  0.00    -0.278 C  
HETATM    8  C   UNL     1      -9.950   5.849  71.182  1.00  0.00    -0.236 C  
HETATM    9  C   UNL     1      -9.953   9.462  71.187  1.00  0.00    -0.311 C  
HETATM   10  C   UNL     1      -9.124   3.512  70.811  1.00  0.00    -0.181 C  
HETATM   11  C   UNL     1     -10.208   7.085  70.710  1.00  0.00    -0.208 C  
HETATM   12  C   UNL     1      -9.870   8.191  71.575  1.00  0.00    -0.233 C  
ENDROOT
BRANCH   2  13
HETATM   13  O   UNL     1     -10.219   6.359  67.116  1.00  0.00    -0.157 OA 
BRANCH  13  14
HETATM   14  C   UNL     1      -8.938   5.985  66.891  1.00  0.00    -0.117 C  
HETATM   15  C   UNL     1      -6.622   5.773  64.928  1.00  0.00    -0.042 C  
HETATM   16  C   UNL     1      -8.871   4.937  65.789  1.00  0.00    -0.135 C  
HETATM   17  O   UNL     1      -7.976   6.388  67.531  1.00  0.00    -0.113 OA 
HETATM   18  C   UNL     1      -8.082   5.487  64.598  1.00  0.00    -0.127 C  
HETATM   19  C   UNL     1     -10.263   4.464  65.342  1.00  0.00    -0.247 C  
ENDBRANCH  13  14
ENDBRANCH   2  13
BRANCH   4  20
HETATM   20  C   UNL     1     -10.873   9.359  67.377  1.00  0.00    -0.189 C  
BRANCH  20  21
HETATM   21  C   UNL     1     -10.103  10.641  66.973  1.00  0.00    -0.255 C  
BRANCH  21  22
HETATM   22  C   UNL     1     -10.614  11.603  65.898  1.00  0.00    -0.271 C  
HETATM   23  C   UNL     1      -9.890  12.931  65.786  1.00  0.00    -0.216 C  
HETATM   24  C   UNL     1     -10.317  13.588  64.478  1.00  0.00    -0.358 C  
HETATM   25  O   UNL     1      -9.683  12.958  63.357  1.00  0.00    -0.530 OA 
HETATM   26  C   UNL     1     -11.829  13.611  64.312  1.00  0.00    -0.464 C  
HETATM   27  C   UNL     1     -12.561  12.390  64.840  1.00  0.00    -0.289 C  
HETATM   28  H   UNL     1      -9.949  13.367  62.542  1.00  0.00     0.000 HD 
HETATM   29  O   UNL     1     -13.633  12.024  64.384  1.00  0.00    -0.465 OA 
HETATM   30  O   UNL     1     -12.027  11.824  65.965  1.00  0.00    -0.435 OA 
ENDBRANCH  21  22
ENDBRANCH  20  21
ENDBRANCH   4  20
TORSDOF 5
ENDMDL
MODEL      116
REMARK 921   NORMALIZED FREE ENERGY PREDICTED BY IDOCK:   -4.68 KCAL/MOL
REMARK 922        TOTAL FREE ENERGY PREDICTED BY IDOCK:   -7.64 KCAL/MOL
REMARK 923 INTER-LIGAND FREE ENERGY PREDICTED BY IDOCK:   -6.03 KCAL/MOL
REMARK 924 INTRA-LIGAND FREE ENERGY PREDICTED BY IDOCK:   -1.61 KCAL/MOL
REMARK 927      BINDING AFFINITY PREDICTED BY RF-SCORE:    0.00 PKD
ROOT
HETATM    1  C   UNL     1      -7.614  10.259  66.741  1.00  0.00    -0.107 C  
HETATM    2  C   UNL     1      -8.512  11.544  66.752  1.00  0.00    -0.168 C  
HETATM    3  C   UNL     1      -8.103  12.653  67.735  1.00  0.00    -0.166 C  
HETATM    4  C   UNL     1      -8.262   8.861  67.155  1.00  0.00    -0.103 C  
HETATM    5  C   UNL     1      -6.628  13.005  67.666  1.00  0.00    -0.160 C  
HETATM    6  C   UNL     1      -6.874   7.164  65.726  1.00  0.00    -0.056 C  
HETATM    7  C   UNL     1      -7.158   7.735  67.123  1.00  0.00    -0.085 C  
HETATM    8  C   UNL     1      -5.848  11.747  67.869  1.00  0.00    -0.050 C  
HETATM    9  C   UNL     1      -5.854   8.136  67.730  1.00  0.00    -0.042 C  
HETATM   10  C   UNL     1      -6.299  14.054  68.737  1.00  0.00    -0.090 C  
HETATM   11  C   UNL     1      -6.293  10.525  67.514  1.00  0.00    -0.057 C  
HETATM   12  C   UNL     1      -5.474   9.400  67.902  1.00  0.00    -0.037 C  
ENDROOT
BRANCH   2  13
HETATM   13  O   UNL     1      -9.862  11.277  67.138  1.00  0.00    -0.187 OA 
BRANCH  13  14
HETATM   14  C   UNL     1     -10.844  11.773  66.349  1.00  0.00    -0.282 C  
HETATM   15  C   UNL     1     -12.497  14.182  65.499  1.00  0.00    -0.495 C  
HETATM   16  C   UNL     1     -11.968  12.354  67.194  1.00  0.00    -0.248 C  
HETATM   17  O   UNL     1     -10.853  11.703  65.128  1.00  0.00    -0.290 OA 
HETATM   18  C   UNL     1     -12.091  13.857  66.931  1.00  0.00    -0.467 C  
HETATM   19  C   UNL     1     -11.775  12.083  68.695  1.00  0.00    -0.380 C  
ENDBRANCH  13  14
ENDBRANCH   2  13
BRANCH   4  20
HETATM   20  C   UNL     1      -9.541   8.301  66.403  1.00  0.00    -0.300 C  
BRANCH  20  21
HETATM   21  C   UNL     1     -10.716   8.129  67.398  1.00  0.00    -0.247 C  
BRANCH  21  22
HETATM   22  C   UNL     1     -10.523   7.559  68.805  1.00  0.00    -0.194 C  
HETATM   23  C   UNL     1     -11.275   6.279  69.119  1.00  0.00    -0.439 C  
HETATM   24  C   UNL     1     -10.707   5.709  70.414  1.00  0.00    -0.282 C  
HETATM   25  O   UNL     1      -9.429   5.099  70.189  1.00  0.00    -0.148 OA 
HETATM   26  C   UNL     1     -10.630   6.752  71.519  1.00  0.00    -0.245 C  
HETATM   27  C   UNL     1     -10.266   8.154  71.065  1.00  0.00    -0.188 C  
HETATM   28  H   UNL     1      -9.074   4.744  70.995  1.00  0.00     0.000 HD 
HETATM   29  O   UNL     1      -9.707   8.954  71.801  1.00  0.00    -0.288 OA 
HETATM   30  O   UNL     1     -10.750   8.522  69.840  1.00  0.00    -0.228 OA 
ENDBRANCH  21  22
ENDBRANCH  20  21
ENDBRANCH   4  20
TORSDOF 5
ENDMDL
MODEL      117
REMARK 921   NORMALIZED FREE ENERGY PREDICTED BY IDOCK:   -4.65 KCAL/MOL
REMARK 922        TOTAL FREE ENERGY PREDICTED BY IDOCK:   -7.59 KCAL/MOL
REMARK 923 INTER-LIGAND FREE ENERGY PREDICTED BY IDOCK:   -6.06 KCAL/MOL
REMARK 924 INTRA-LIGAND FREE ENERGY PREDICTED BY IDOCK:   -1.53 KCAL/MOL
REMARK 927      BINDING AFFINITY PREDICTED BY RF-SCORE:    0.00 PKD
ROOT
HETATM    1  C   UNL     1     -10.951  10.813  67.236  1.00  0.00    -0.359 C  
HETATM    2  C   UNL     1     -11.194  10.098  68.611  1.00  0.00    -0.168 C  
HETATM    3  C   UNL     1     -11.314  11.011  69.842  1.00  0.00    -0.364 C  
HETATM    4  C   UNL     1      -9.600  10.518  66.442  1.00  0.00    -0.220 C  
HETATM    5  C   UNL     1     -12.273  12.171  69.640  1.00  0.00    -0.183 C  
HETATM    6  C   UNL     1     -10.350  10.800  63.951  1.00  0.00    -0.329 C  
HETATM    7  C   UNL     1      -9.557  11.388  65.127  1.00  0.00    -0.258 C  
HETATM    8  C   UNL     1     -11.839  12.914  68.418  1.00  0.00    -0.357 C  
HETATM    9  C   UNL     1      -9.993  12.804  65.314  1.00  0.00    -0.202 C  
HETATM   10  C   UNL     1     -12.261  13.070  70.883  1.00  0.00    -0.310 C  
HETATM   11  C   UNL     1     -11.209  12.338  67.375  1.00  0.00    -0.358 C  
HETATM   12  C   UNL     1     -10.739  13.222  66.334  1.00  0.00    -0.291 C  
ENDROOT
BRANCH   2  13
HETATM   13  O   UNL     1     -10.126   9.225  68.982  1.00  0.00    -0.186 OA 
BRANCH  13  14
HETATM   14  C   UNL     1     -10.407   8.236  69.863  1.00  0.00    -0.218 C  
HETATM   15  C   UNL     1     -11.043   7.445  72.731  1.00  0.00    -0.394 C  
HETATM   16  C   UNL     1      -9.361   8.189  70.967  1.00  0.00    -0.180 C  
HETATM   17  O   UNL     1     -11.337   7.450  69.748  1.00  0.00    -0.154 OA 
HETATM   18  C   UNL     1     -10.018   8.493  72.317  1.00  0.00    -0.385 C  
HETATM   19  C   UNL     1      -8.190   9.151  70.709  1.00  0.00    -0.226 C  
ENDBRANCH  13  14
ENDBRANCH   2  13
BRANCH   4  20
HETATM   20  C   UNL     1      -9.189   9.037  66.051  1.00  0.00    -0.284 C  
BRANCH  20  21
HETATM   21  C   UNL     1      -7.865   8.644  66.752  1.00  0.00    -0.094 C  
BRANCH  21  22
HETATM   22  C   UNL     1      -7.454   7.186  66.972  1.00  0.00    -0.097 C  
HETATM   23  C   UNL     1      -8.476   6.134  66.585  1.00  0.00    -0.116 C  
HETATM   24  C   UNL     1      -7.772   4.782  66.566  1.00  0.00    -0.091 C  
HETATM   25  O   UNL     1      -6.948   4.649  65.400  1.00  0.00    -0.059 OA 
HETATM   26  C   UNL     1      -6.971   4.531  67.835  1.00  0.00    -0.056 C  
HETATM   27  C   UNL     1      -6.288   5.751  68.425  1.00  0.00    -0.041 C  
HETATM   28  H   UNL     1      -6.509   3.807  65.388  1.00  0.00     0.000 HD 
HETATM   29  O   UNL     1      -5.272   5.669  69.099  1.00  0.00    -0.003 OA 
HETATM   30  O   UNL     1      -6.970   6.930  68.295  1.00  0.00    -0.074 OA 
ENDBRANCH  21  22
ENDBRANCH  20  21
ENDBRANCH   4  20
TORSDOF 5
ENDMDL
MODEL      118
REMARK 921   NORMALIZED FREE ENERGY PREDICTED BY IDOCK:   -4.64 KCAL/MOL
REMARK 922        TOTAL FREE ENERGY PREDICTED BY IDOCK:   -7.58 KCAL/MOL
REMARK 923 INTER-LIGAND FREE ENERGY PREDICTED BY IDOCK:   -5.73 KCAL/MOL
REMARK 924 INTRA-LIGAND FREE ENERGY PREDICTED BY IDOCK:   -1.85 KCAL/MOL
REMARK 927      BINDING AFFINITY PREDICTED BY RF-SCORE:    0.00 PKD
ROOT
HETATM    1  C   UNL     1     -11.123  10.726  68.654  1.00  0.00    -0.312 C  
HETATM    2  C   UNL     1     -11.523   9.900  69.926  1.00  0.00    -0.179 C  
HETATM    3  C   UNL     1     -11.913  10.712  71.171  1.00  0.00    -0.401 C  
HETATM    4  C   UNL     1      -9.642  10.587  68.078  1.00  0.00    -0.159 C  
HETATM    5  C   UNL     1     -12.920  11.812  70.882  1.00  0.00    -0.114 C  
HETATM    6  C   UNL     1     -10.005  10.991  65.518  1.00  0.00    -0.308 C  
HETATM    7  C   UNL     1      -9.461  11.549  66.841  1.00  0.00    -0.194 C  
HETATM    8  C   UNL     1     -12.359  12.669  69.794  1.00  0.00    -0.090 C  
HETATM    9  C   UNL     1     -10.038  12.913  67.036  1.00  0.00    -0.245 C  
HETATM   10  C   UNL     1     -13.181  12.618  72.160  1.00  0.00    -0.527 C  
HETATM   11  C   UNL     1     -11.525  12.215  68.837  1.00  0.00    -0.350 C  
HETATM   12  C   UNL     1     -10.969  13.203  67.941  1.00  0.00    -0.271 C  
ENDROOT
BRANCH   2  13
HETATM   13  O   UNL     1     -10.459   9.082  70.416  1.00  0.00    -0.192 OA 
BRANCH  13  14
HETATM   14  C   UNL     1     -10.737   7.780  70.661  1.00  0.00    -0.231 C  
HETATM   15  C   UNL     1     -11.776   5.691  72.613  1.00  0.00    -0.256 C  
HETATM   16  C   UNL     1      -9.932   7.275  71.850  1.00  0.00    -0.184 C  
HETATM   17  O   UNL     1     -11.482   7.090  69.979  1.00  0.00    -0.269 OA 
HETATM   18  C   UNL     1     -10.879   6.866  72.981  1.00  0.00    -0.328 C  
HETATM   19  C   UNL     1      -8.910   8.309  72.350  1.00  0.00    -0.286 C  
ENDBRANCH  13  14
ENDBRANCH   2  13
BRANCH   4  20
HETATM   20  C   UNL     1      -9.053   9.171  67.674  1.00  0.00    -0.133 C  
BRANCH  20  21
HETATM   21  C   UNL     1      -7.818   8.834  68.546  1.00  0.00    -0.104 C  
BRANCH  21  22
HETATM   22  C   UNL     1      -7.569   7.435  69.112  1.00  0.00    -0.105 C  
HETATM   23  C   UNL     1      -6.118   7.007  69.230  1.00  0.00    -0.033 C  
HETATM   24  C   UNL     1      -6.069   5.755  70.099  1.00  0.00    -0.026 C  
HETATM   25  O   UNL     1      -6.258   6.084  71.482  1.00  0.00    -0.041 OA 
HETATM   26  C   UNL     1      -7.065   4.698  69.645  1.00  0.00    -0.050 C  
HETATM   27  C   UNL     1      -8.389   5.231  69.130  1.00  0.00    -0.091 C  
HETATM   28  H   UNL     1      -6.227   5.304  72.024  1.00  0.00     0.000 HD 
HETATM   29  O   UNL     1      -9.422   4.580  69.188  1.00  0.00    -0.136 OA 
HETATM   30  O   UNL     1      -8.324   6.415  68.448  1.00  0.00    -0.115 OA 
ENDBRANCH  21  22
ENDBRANCH  20  21
ENDBRANCH   4  20
TORSDOF 5
ENDMDL
MODEL      119
REMARK 921   NORMALIZED FREE ENERGY PREDICTED BY IDOCK:   -4.63 KCAL/MOL
REMARK 922        TOTAL FREE ENERGY PREDICTED BY IDOCK:   -7.57 KCAL/MOL
REMARK 923 INTER-LIGAND FREE ENERGY PREDICTED BY IDOCK:   -6.33 KCAL/MOL
REMARK 924 INTRA-LIGAND FREE ENERGY PREDICTED BY IDOCK:   -1.25 KCAL/MOL
REMARK 927      BINDING AFFINITY PREDICTED BY RF-SCORE:    0.00 PKD
ROOT
HETATM    1  C   UNL     1     -10.849   9.355  69.061  1.00  0.00    -0.161 C  
HETATM    2  C   UNL     1     -11.325   8.790  70.444  1.00  0.00    -0.192 C  
HETATM    3  C   UNL     1     -11.837   9.822  71.461  1.00  0.00    -0.476 C  
HETATM    4  C   UNL     1      -9.323   9.168  68.635  1.00  0.00    -0.135 C  
HETATM    5  C   UNL     1     -12.850  10.792  70.878  1.00  0.00    -0.443 C  
HETATM    6  C   UNL     1      -9.491   9.020  66.028  1.00  0.00    -0.323 C  
HETATM    7  C   UNL     1      -9.072   9.862  67.242  1.00  0.00    -0.149 C  
HETATM    8  C   UNL     1     -12.230  11.432  69.678  1.00  0.00    -0.316 C  
HETATM    9  C   UNL     1      -9.702  11.209  67.106  1.00  0.00    -0.199 C  
HETATM   10  C   UNL     1     -13.237  11.831  71.938  1.00  0.00    -0.468 C  
HETATM   11  C   UNL     1     -11.308  10.829  68.900  1.00  0.00    -0.349 C  
HETATM   12  C   UNL     1     -10.712  11.636  67.861  1.00  0.00    -0.241 C  
ENDROOT
BRANCH   2  13
HETATM   13  O   UNL     1     -10.280   8.139  71.170  1.00  0.00    -0.191 OA 
BRANCH  13  14
HETATM   14  C   UNL     1     -10.511   6.875  71.593  1.00  0.00    -0.204 C  
HETATM   15  C   UNL     1     -10.682   4.930  73.927  1.00  0.00    -0.363 C  
HETATM   16  C   UNL     1      -9.288   6.316  72.306  1.00  0.00    -0.146 C  
HETATM   17  O   UNL     1     -11.538   6.247  71.375  1.00  0.00    -0.301 OA 
HETATM   18  C   UNL     1      -9.630   6.021  73.769  1.00  0.00    -0.158 C  
HETATM   19  C   UNL     1      -8.075   7.257  72.216  1.00  0.00    -0.109 C  
ENDBRANCH  13  14
ENDBRANCH   2  13
BRANCH   4  20
HETATM   20  C   UNL     1      -8.663   7.727  68.579  1.00  0.00    -0.128 C  
BRANCH  20  21
HETATM   21  C   UNL     1      -9.695   6.682  68.088  1.00  0.00    -0.130 C  
BRANCH  21  22
HETATM   22  C   UNL     1      -9.412   5.178  68.105  1.00  0.00    -0.127 C  
HETATM   23  C   UNL     1      -9.579   4.448  66.786  1.00  0.00    -0.216 C  
HETATM   24  C   UNL     1      -8.947   3.068  66.931  1.00  0.00    -0.161 C  
HETATM   25  O   UNL     1      -7.516   3.153  66.894  1.00  0.00    -0.072 OA 
HETATM   26  C   UNL     1      -9.422   2.346  68.183  1.00  0.00    -0.215 C  
HETATM   27  C   UNL     1      -9.643   3.228  69.399  1.00  0.00    -0.049 C  
HETATM   28  H   UNL     1      -7.122   2.294  66.985  1.00  0.00     0.000 HD 
HETATM   29  O   UNL     1      -9.545   2.803  70.540  1.00  0.00    -0.149 OA 
HETATM   30  O   UNL     1     -10.120   4.483  69.138  1.00  0.00    -0.154 OA 
ENDBRANCH  21  22
ENDBRANCH  20  21
ENDBRANCH   4  20
TORSDOF 5
ENDMDL
MODEL      120
REMARK 921   NORMALIZED FREE ENERGY PREDICTED BY IDOCK:   -4.63 KCAL/MOL
REMARK 922        TOTAL FREE ENERGY PREDICTED BY IDOCK:   -7.57 KCAL/MOL
REMARK 923 INTER-LIGAND FREE ENERGY PREDICTED BY IDOCK:   -7.32 KCAL/MOL
REMARK 924 INTRA-LIGAND FREE ENERGY PREDICTED BY IDOCK:   -0.25 KCAL/MOL
REMARK 927      BINDING AFFINITY PREDICTED BY RF-SCORE:    0.00 PKD
ROOT
HETATM    1  C   UNL     1      -8.061  18.568  67.933  1.00  0.00    -0.272 C  
HETATM    2  C   UNL     1      -6.927  17.491  67.814  1.00  0.00    -0.172 C  
HETATM    3  C   UNL     1      -6.226  17.389  66.450  1.00  0.00    -0.258 C  
HETATM    4  C   UNL     1      -9.552  18.088  68.235  1.00  0.00    -0.321 C  
HETATM    5  C   UNL     1      -5.779  18.732  65.900  1.00  0.00    -0.200 C  
HETATM    6  C   UNL     1     -10.524  20.113  69.577  1.00  0.00     0.222 C  
HETATM    7  C   UNL     1     -10.517  19.335  68.253  1.00  0.00    -0.399 C  
HETATM    8  C   UNL     1      -6.973  19.630  65.862  1.00  0.00    -0.296 C  
HETATM    9  C   UNL     1     -10.280  20.310  67.147  1.00  0.00    -0.500 C  
HETATM   10  C   UNL     1      -5.170  18.540  64.504  1.00  0.00    -0.157 C  
HETATM   11  C   UNL     1      -8.009  19.534  66.719  1.00  0.00    -0.307 C  
HETATM   12  C   UNL     1      -9.143  20.391  66.460  1.00  0.00    -0.280 C  
ENDROOT
BRANCH   2  13
HETATM   13  O   UNL     1      -7.401  16.158  68.014  1.00  0.00    -0.123 OA 
BRANCH  13  14
HETATM   14  C   UNL     1      -8.067  15.575  66.990  1.00  0.00    -0.237 C  
HETATM   15  C   UNL     1     -10.505  14.009  66.061  1.00  0.00    -0.307 C  
HETATM   16  C   UNL     1      -8.252  14.086  67.249  1.00  0.00    -0.187 C  
HETATM   17  O   UNL     1      -8.413  16.153  65.969  1.00  0.00    -0.319 OA 
HETATM   18  C   UNL     1      -9.744  13.760  67.357  1.00  0.00    -0.235 C  
HETATM   19  C   UNL     1      -7.504  13.612  68.506  1.00  0.00    -0.119 C  
ENDBRANCH  13  14
ENDBRANCH   2  13
BRANCH   4  20
HETATM   20  C   UNL     1      -9.882  17.206  69.512  1.00  0.00     0.125 C  
BRANCH  20  21
HETATM   21  C   UNL     1     -11.197  16.418  69.294  1.00  0.00    -0.272 C  
BRANCH  21  22
HETATM   22  C   UNL     1     -11.776  15.477  70.354  1.00  0.00    -0.339 C  
HETATM   23  C   UNL     1     -12.865  14.530  69.888  1.00  0.00     0.015 C  
HETATM   24  C   UNL     1     -13.068  13.479  70.974  1.00  0.00    -0.148 C  
HETATM   25  O   UNL     1     -12.001  12.521  70.966  1.00  0.00    -0.373 OA 
HETATM   26  C   UNL     1     -13.237  14.101  72.353  1.00  0.00    -0.566 C  
HETATM   27  C   UNL     1     -12.395  15.335  72.618  1.00  0.00    -0.386 C  
HETATM   28  H   UNL     1     -12.127  11.867  71.642  1.00  0.00     0.000 HD 
HETATM   29  O   UNL     1     -12.041  15.655  73.743  1.00  0.00    -0.475 OA 
HETATM   30  O   UNL     1     -12.197  16.157  71.542  1.00  0.00    -0.433 OA 
ENDBRANCH  21  22
ENDBRANCH  20  21
ENDBRANCH   4  20
TORSDOF 5
ENDMDL
MODEL      121
REMARK 921   NORMALIZED FREE ENERGY PREDICTED BY IDOCK:   -4.62 KCAL/MOL
REMARK 922        TOTAL FREE ENERGY PREDICTED BY IDOCK:   -7.56 KCAL/MOL
REMARK 923 INTER-LIGAND FREE ENERGY PREDICTED BY IDOCK:   -6.28 KCAL/MOL
REMARK 924 INTRA-LIGAND FREE ENERGY PREDICTED BY IDOCK:   -1.27 KCAL/MOL
REMARK 927      BINDING AFFINITY PREDICTED BY RF-SCORE:    0.00 PKD
ROOT
HETATM    1  C   UNL     1      -9.828  14.137  65.416  1.00  0.00    -0.233 C  
HETATM    2  C   UNL     1      -9.867  12.569  65.411  1.00  0.00    -0.163 C  
HETATM    3  C   UNL     1     -11.169  11.922  64.915  1.00  0.00    -0.350 C  
HETATM    4  C   UNL     1      -9.655  14.900  66.806  1.00  0.00    -0.265 C  
HETATM    5  C   UNL     1     -11.664  12.495  63.599  1.00  0.00    -0.594 C  
HETATM    6  C   UNL     1      -8.374  17.067  66.092  1.00  0.00    -0.276 C  
HETATM    7  C   UNL     1      -9.701  16.458  66.565  1.00  0.00    -0.287 C  
HETATM    8  C   UNL     1     -11.790  13.975  63.764  1.00  0.00    -0.160 C  
HETATM    9  C   UNL     1     -10.772  16.901  65.624  1.00  0.00    -0.173 C  
HETATM   10  C   UNL     1     -13.007  11.851  63.230  1.00  0.00    -0.166 C  
HETATM   11  C   UNL     1     -11.022  14.703  64.600  1.00  0.00    -0.340 C  
HETATM   12  C   UNL     1     -11.363  16.100  64.740  1.00  0.00    -0.253 C  
ENDROOT
BRANCH   2  13
HETATM   13  O   UNL     1      -9.723  12.004  66.715  1.00  0.00    -0.200 OA 
BRANCH  13  14
HETATM   14  C   UNL     1      -8.969  10.886  66.829  1.00  0.00    -0.150 C  
HETATM   15  C   UNL     1      -8.633   7.929  66.195  1.00  0.00    -0.164 C  
HETATM   16  C   UNL     1      -9.745   9.786  67.540  1.00  0.00    -0.192 C  
HETATM   17  O   UNL     1      -7.803  10.796  66.468  1.00  0.00    -0.132 OA 
HETATM   18  C   UNL     1      -9.942   8.597  66.596  1.00  0.00    -0.357 C  
HETATM   19  C   UNL     1     -11.098  10.277  68.080  1.00  0.00    -0.336 C  
ENDBRANCH  13  14
ENDBRANCH   2  13
BRANCH   4  20
HETATM   20  C   UNL     1      -8.421  14.597  67.755  1.00  0.00    -0.178 C  
BRANCH  20  21
HETATM   21  C   UNL     1      -8.899  13.900  69.052  1.00  0.00     0.222 C  
BRANCH  21  22
HETATM   22  C   UNL     1     -10.242  14.223  69.711  1.00  0.00     0.401 C  
HETATM   23  C   UNL     1     -11.465  13.562  69.103  1.00  0.00    -0.345 C  
HETATM   24  C   UNL     1     -12.625  13.738  70.076  1.00  0.00    -0.147 C  
HETATM   25  O   UNL     1     -12.496  12.848  71.193  1.00  0.00    -0.353 OA 
HETATM   26  C   UNL     1     -12.777  15.180  70.537  1.00  0.00    -0.416 C  
HETATM   27  C   UNL     1     -11.479  15.940  70.736  1.00  0.00    -0.407 C  
HETATM   28  H   UNL     1     -13.218  12.958  71.800  1.00  0.00     0.000 HD 
HETATM   29  O   UNL     1     -11.381  16.871  71.521  1.00  0.00     0.016 OA 
HETATM   30  O   UNL     1     -10.473  15.628  69.863  1.00  0.00    -0.284 OA 
ENDBRANCH  21  22
ENDBRANCH  20  21
ENDBRANCH   4  20
TORSDOF 5
ENDMDL
MODEL      122
REMARK 921   NORMALIZED FREE ENERGY PREDICTED BY IDOCK:   -4.58 KCAL/MOL
REMARK 922        TOTAL FREE ENERGY PREDICTED BY IDOCK:   -7.50 KCAL/MOL
REMARK 923 INTER-LIGAND FREE ENERGY PREDICTED BY IDOCK:   -7.20 KCAL/MOL
REMARK 924 INTRA-LIGAND FREE ENERGY PREDICTED BY IDOCK:   -0.30 KCAL/MOL
REMARK 927      BINDING AFFINITY PREDICTED BY RF-SCORE:    0.00 PKD
ROOT
HETATM    1  C   UNL     1      -9.180   7.837  68.620  1.00  0.00    -0.138 C  
HETATM    2  C   UNL     1      -9.042   6.794  69.782  1.00  0.00    -0.143 C  
HETATM    3  C   UNL     1      -9.434   5.346  69.448  1.00  0.00    -0.181 C  
HETATM    4  C   UNL     1     -10.205   9.048  68.787  1.00  0.00    -0.226 C  
HETATM    5  C   UNL     1      -8.808   4.833  68.163  1.00  0.00    -0.116 C  
HETATM    6  C   UNL     1      -9.060  10.939  67.387  1.00  0.00    -0.144 C  
HETATM    7  C   UNL     1     -10.209   9.925  67.476  1.00  0.00    -0.265 C  
HETATM    8  C   UNL     1      -9.164   5.788  67.069  1.00  0.00    -0.118 C  
HETATM    9  C   UNL     1     -10.224   9.134  66.210  1.00  0.00    -0.257 C  
HETATM   10  C   UNL     1      -9.323   3.418  67.868  1.00  0.00    -0.242 C  
HETATM   11  C   UNL     1      -9.383   7.104  67.266  1.00  0.00    -0.156 C  
HETATM   12  C   UNL     1      -9.849   7.860  66.126  1.00  0.00    -0.020 C  
ENDROOT
BRANCH   2  13
HETATM   13  O   UNL     1      -9.885   7.088  70.898  1.00  0.00    -0.185 OA 
BRANCH  13  14
HETATM   14  C   UNL     1     -11.194   6.760  70.792  1.00  0.00    -0.304 C  
HETATM   15  C   UNL     1     -14.098   7.625  71.068  1.00  0.00    -0.139 C  
HETATM   16  C   UNL     1     -11.895   6.913  72.134  1.00  0.00    -0.318 C  
HETATM   17  O   UNL     1     -11.722   6.336  69.773  1.00  0.00    -0.403 OA 
HETATM   18  C   UNL     1     -12.977   7.992  72.034  1.00  0.00    -0.302 C  
HETATM   19  C   UNL     1     -10.917   7.236  73.275  1.00  0.00    -0.355 C  
ENDBRANCH  13  14
ENDBRANCH   2  13
BRANCH   4  20
HETATM   20  C   UNL     1     -10.105  10.035  70.024  1.00  0.00    -0.289 C  
BRANCH  20  21
HETATM   21  C   UNL     1     -11.486  10.672  70.316  1.00  0.00    -0.422 C  
BRANCH  21  22
HETATM   22  C   UNL     1     -11.738  12.178  70.200  1.00  0.00    -0.218 C  
HETATM   23  C   UNL     1     -12.731  12.770  71.182  1.00  0.00    -0.355 C  
HETATM   24  C   UNL     1     -12.595  14.288  71.126  1.00  0.00    -0.362 C  
HETATM   25  O   UNL     1     -11.410  14.721  71.808  1.00  0.00    -0.502 OA 
HETATM   26  C   UNL     1     -12.633  14.818  69.701  1.00  0.00    -0.097 C  
HETATM   27  C   UNL     1     -11.957  13.943  68.662  1.00  0.00    -0.366 C  
HETATM   28  H   UNL     1     -11.325  15.667  71.774  1.00  0.00     0.000 HD 
HETATM   29  O   UNL     1     -11.481  14.399  67.633  1.00  0.00    -0.311 OA 
HETATM   30  O   UNL     1     -12.062  12.594  68.869  1.00  0.00    -0.262 OA 
ENDBRANCH  21  22
ENDBRANCH  20  21
ENDBRANCH   4  20
TORSDOF 5
ENDMDL
MODEL      123
REMARK 921   NORMALIZED FREE ENERGY PREDICTED BY IDOCK:   -4.56 KCAL/MOL
REMARK 922        TOTAL FREE ENERGY PREDICTED BY IDOCK:   -7.48 KCAL/MOL
REMARK 923 INTER-LIGAND FREE ENERGY PREDICTED BY IDOCK:   -6.17 KCAL/MOL
REMARK 924 INTRA-LIGAND FREE ENERGY PREDICTED BY IDOCK:   -1.31 KCAL/MOL
REMARK 927      BINDING AFFINITY PREDICTED BY RF-SCORE:    0.00 PKD
ROOT
HETATM    1  C   UNL     1     -10.206  15.578  66.767  1.00  0.00    -0.282 C  
HETATM    2  C   UNL     1      -9.062  16.100  67.704  1.00  0.00    -0.196 C  
HETATM    3  C   UNL     1      -8.368  17.401  67.271  1.00  0.00    -0.221 C  
HETATM    4  C   UNL     1     -10.030  14.163  66.050  1.00  0.00    -0.340 C  
HETATM    5  C   UNL     1      -9.339  18.510  66.907  1.00  0.00    -0.294 C  
HETATM    6  C   UNL     1     -12.503  13.330  65.858  1.00  0.00    -0.433 C  
HETATM    7  C   UNL     1     -11.274  13.881  65.122  1.00  0.00    -0.326 C  
HETATM    8  C   UNL     1     -10.264  17.981  65.858  1.00  0.00    -0.231 C  
HETATM    9  C   UNL     1     -11.712  15.055  64.310  1.00  0.00    -0.245 C  
HETATM   10  C   UNL     1      -8.560  19.734  66.408  1.00  0.00    -0.398 C  
HETATM   11  C   UNL     1     -10.612  16.683  65.754  1.00  0.00    -0.278 C  
HETATM   12  C   UNL     1     -11.407  16.317  64.604  1.00  0.00    -0.237 C  
ENDROOT
BRANCH   2  13
HETATM   13  O   UNL     1      -7.967  15.189  67.807  1.00  0.00    -0.125 OA 
BRANCH  13  14
HETATM   14  C   UNL     1      -7.692  14.682  69.031  1.00  0.00    -0.134 C  
HETATM   15  C   UNL     1      -5.635  14.214  71.224  1.00  0.00    -0.217 C  
HETATM   16  C   UNL     1      -6.601  13.624  68.941  1.00  0.00    -0.105 C  
HETATM   17  O   UNL     1      -8.285  14.987  70.057  1.00  0.00     0.049 OA 
HETATM   18  C   UNL     1      -5.371  14.079  69.730  1.00  0.00    -0.094 C  
HETATM   19  C   UNL     1      -6.220  13.296  67.489  1.00  0.00    -0.114 C  
ENDBRANCH  13  14
ENDBRANCH   2  13
BRANCH   4  20
HETATM   20  C   UNL     1      -9.754  12.850  66.895  1.00  0.00    -0.240 C  
BRANCH  20  21
HETATM   21  C   UNL     1      -9.511  11.646  65.951  1.00  0.00    -0.246 C  
BRANCH  21  22
HETATM   22  C   UNL     1      -9.184  10.246  66.474  1.00  0.00    -0.153 C  
HETATM   23  C   UNL     1     -10.349   9.280  66.583  1.00  0.00    -0.292 C  
HETATM   24  C   UNL     1      -9.780   7.882  66.797  1.00  0.00    -0.234 C  
HETATM   25  O   UNL     1      -9.242   7.355  65.577  1.00  0.00    -0.382 OA 
HETATM   26  C   UNL     1      -8.747   7.845  67.914  1.00  0.00    -0.124 C  
HETATM   27  C   UNL     1      -7.854   9.068  68.015  1.00  0.00    -0.101 C  
HETATM   28  H   UNL     1      -8.887   6.484  65.710  1.00  0.00     0.000 HD 
HETATM   29  O   UNL     1      -6.727   9.016  68.485  1.00  0.00    -0.058 OA 
HETATM   30  O   UNL     1      -8.448  10.260  67.703  1.00  0.00    -0.118 OA 
ENDBRANCH  21  22
ENDBRANCH  20  21
ENDBRANCH   4  20
TORSDOF 5
ENDMDL
MODEL      124
REMARK 921   NORMALIZED FREE ENERGY PREDICTED BY IDOCK:   -4.47 KCAL/MOL
REMARK 922        TOTAL FREE ENERGY PREDICTED BY IDOCK:   -7.35 KCAL/MOL
REMARK 923 INTER-LIGAND FREE ENERGY PREDICTED BY IDOCK:   -6.61 KCAL/MOL
REMARK 924 INTRA-LIGAND FREE ENERGY PREDICTED BY IDOCK:   -0.75 KCAL/MOL
REMARK 927      BINDING AFFINITY PREDICTED BY RF-SCORE:    0.00 PKD
ROOT
HETATM    1  C   UNL     1     -10.795   9.345  68.810  1.00  0.00    -0.147 C  
HETATM    2  C   UNL     1     -11.400   8.659  70.084  1.00  0.00    -0.078 C  
HETATM    3  C   UNL     1     -11.870   9.598  71.205  1.00  0.00    -0.460 C  
HETATM    4  C   UNL     1      -9.272   9.061  68.431  1.00  0.00    -0.137 C  
HETATM    5  C   UNL     1     -12.751  10.733  70.712  1.00  0.00    -0.451 C  
HETATM    6  C   UNL     1      -9.304   9.265  65.822  1.00  0.00    -0.306 C  
HETATM    7  C   UNL     1      -8.878   9.899  67.154  1.00  0.00    -0.146 C  
HETATM    8  C   UNL     1     -12.006  11.455  69.636  1.00  0.00    -0.416 C  
HETATM    9  C   UNL     1      -9.369  11.309  67.171  1.00  0.00    -0.172 C  
HETATM   10  C   UNL     1     -13.098  11.662  71.882  1.00  0.00    -0.490 C  
HETATM   11  C   UNL     1     -11.103  10.867  68.827  1.00  0.00    -0.310 C  
HETATM   12  C   UNL     1     -10.375  11.735  67.931  1.00  0.00    -0.209 C  
ENDROOT
BRANCH   2  13
HETATM   13  O   UNL     1     -10.464   7.819  70.762  1.00  0.00    -0.207 OA 
BRANCH  13  14
HETATM   14  C   UNL     1     -10.936   6.670  71.300  1.00  0.00    -0.253 C  
HETATM   15  C   UNL     1     -10.918   4.722  73.637  1.00  0.00    -0.391 C  
HETATM   16  C   UNL     1      -9.797   5.695  71.566  1.00  0.00    -0.213 C  
HETATM   17  O   UNL     1     -12.120   6.425  71.484  1.00  0.00    -0.328 OA 
HETATM   18  C   UNL     1      -9.690   5.421  73.068  1.00  0.00    -0.165 C  
HETATM   19  C   UNL     1      -8.453   6.197  71.012  1.00  0.00    -0.128 C  
ENDBRANCH  13  14
ENDBRANCH   2  13
BRANCH   4  20
HETATM   20  C   UNL     1      -8.748   7.579  68.213  1.00  0.00    -0.123 C  
BRANCH  20  21
HETATM   21  C   UNL     1      -9.846   6.715  67.545  1.00  0.00    -0.158 C  
BRANCH  21  22
HETATM   22  C   UNL     1      -9.546   5.357  66.905  1.00  0.00    -0.142 C  
HETATM   23  C   UNL     1      -8.414   4.559  67.523  1.00  0.00    -0.103 C  
HETATM   24  C   UNL     1      -8.489   3.138  66.975  1.00  0.00    -0.102 C  
HETATM   25  O   UNL     1      -9.560   2.409  67.590  1.00  0.00    -0.385 OA 
HETATM   26  C   UNL     1      -8.605   3.110  65.459  1.00  0.00    -0.112 C  
HETATM   27  C   UNL     1      -9.442   4.220  64.849  1.00  0.00    -0.169 C  
HETATM   28  H   UNL     1      -9.608   1.524  67.249  1.00  0.00     0.000 HD 
HETATM   29  O   UNL     1     -10.022   4.089  63.782  1.00  0.00    -0.168 OA 
HETATM   30  O   UNL     1      -9.372   5.429  65.485  1.00  0.00    -0.136 OA 
ENDBRANCH  21  22
ENDBRANCH  20  21
ENDBRANCH   4  20
TORSDOF 5
ENDMDL
MODEL      125
REMARK 921   NORMALIZED FREE ENERGY PREDICTED BY IDOCK:   -4.46 KCAL/MOL
REMARK 922        TOTAL FREE ENERGY PREDICTED BY IDOCK:   -7.35 KCAL/MOL
REMARK 923 INTER-LIGAND FREE ENERGY PREDICTED BY IDOCK:   -6.16 KCAL/MOL
REMARK 924 INTRA-LIGAND FREE ENERGY PREDICTED BY IDOCK:   -1.18 KCAL/MOL
REMARK 927      BINDING AFFINITY PREDICTED BY RF-SCORE:    0.00 PKD
ROOT
HETATM    1  C   UNL     1      -8.156  10.312  67.989  1.00  0.00    -0.106 C  
HETATM    2  C   UNL     1      -8.931  11.615  67.592  1.00  0.00    -0.166 C  
HETATM    3  C   UNL     1      -8.225  12.947  67.893  1.00  0.00    -0.165 C  
HETATM    4  C   UNL     1      -8.788   9.342  69.086  1.00  0.00    -0.141 C  
HETATM    5  C   UNL     1      -6.785  12.987  67.412  1.00  0.00    -0.123 C  
HETATM    6  C   UNL     1      -7.899   6.999  68.331  1.00  0.00    -0.122 C  
HETATM    7  C   UNL     1      -7.807   8.137  69.358  1.00  0.00    -0.105 C  
HETATM    8  C   UNL     1      -6.072  11.816  68.007  1.00  0.00    -0.049 C  
HETATM    9  C   UNL     1      -6.372   8.531  69.481  1.00  0.00    -0.040 C  
HETATM   10  C   UNL     1      -6.140  14.315  67.831  1.00  0.00    -0.157 C  
HETATM   11  C   UNL     1      -6.675  10.650  68.315  1.00  0.00    -0.063 C  
HETATM   12  C   UNL     1      -5.871   9.669  69.006  1.00  0.00    -0.035 C  
ENDROOT
BRANCH   2  13
HETATM   13  O   UNL     1     -10.169  11.762  68.290  1.00  0.00    -0.192 OA 
BRANCH  13  14
HETATM   14  C   UNL     1     -11.289  11.915  67.546  1.00  0.00    -0.314 C  
HETATM   15  C   UNL     1     -12.862  13.622  65.578  1.00  0.00    -0.443 C  
HETATM   16  C   UNL     1     -12.030  13.183  67.947  1.00  0.00    -0.347 C  
HETATM   17  O   UNL     1     -11.683  11.111  66.713  1.00  0.00    -0.349 OA 
HETATM   18  C   UNL     1     -12.070  14.156  66.765  1.00  0.00    -0.474 C  
HETATM   19  C   UNL     1     -11.412  13.860  69.181  1.00  0.00    -0.345 C  
ENDBRANCH  13  14
ENDBRANCH   2  13
BRANCH   4  20
HETATM   20  C   UNL     1     -10.245   8.742  68.902  1.00  0.00    -0.221 C  
BRANCH  20  21
HETATM   21  C   UNL     1     -10.944   8.599  70.277  1.00  0.00    -0.251 C  
BRANCH  21  22
HETATM   22  C   UNL     1     -10.332   7.802  71.431  1.00  0.00    -0.197 C  
HETATM   23  C   UNL     1     -11.123   6.601  71.912  1.00  0.00    -0.289 C  
HETATM   24  C   UNL     1     -10.214   5.771  72.812  1.00  0.00    -0.185 C  
HETATM   25  O   UNL     1      -9.257   5.038  72.036  1.00  0.00    -0.134 OA 
HETATM   26  C   UNL     1      -9.529   6.616  73.875  1.00  0.00    -0.212 C  
HETATM   27  C   UNL     1      -9.118   8.009  73.434  1.00  0.00    -0.273 C  
HETATM   28  H   UNL     1      -8.690   4.521  72.596  1.00  0.00     0.000 HD 
HETATM   29  O   UNL     1      -8.183   8.607  73.946  1.00  0.00    -0.379 OA 
HETATM   30  O   UNL     1      -9.962   8.620  72.547  1.00  0.00    -0.282 OA 
ENDBRANCH  21  22
ENDBRANCH  20  21
ENDBRANCH   4  20
TORSDOF 5
ENDMDL
MODEL      126
REMARK 921   NORMALIZED FREE ENERGY PREDICTED BY IDOCK:   -4.43 KCAL/MOL
REMARK 922        TOTAL FREE ENERGY PREDICTED BY IDOCK:   -7.31 KCAL/MOL
REMARK 923 INTER-LIGAND FREE ENERGY PREDICTED BY IDOCK:   -6.14 KCAL/MOL
REMARK 924 INTRA-LIGAND FREE ENERGY PREDICTED BY IDOCK:   -1.17 KCAL/MOL
REMARK 927      BINDING AFFINITY PREDICTED BY RF-SCORE:    0.00 PKD
ROOT
HETATM    1  C   UNL     1     -10.894   9.371  68.200  1.00  0.00    -0.174 C  
HETATM    2  C   UNL     1     -10.342   9.228  66.740  1.00  0.00    -0.226 C  
HETATM    3  C   UNL     1      -9.541   7.952  66.436  1.00  0.00    -0.251 C  
HETATM    4  C   UNL     1     -10.382  10.581  69.105  1.00  0.00    -0.240 C  
HETATM    5  C   UNL     1     -10.234   6.682  66.895  1.00  0.00    -0.287 C  
HETATM    6  C   UNL     1     -12.455  11.047  70.632  1.00  0.00    -0.465 C  
HETATM    7  C   UNL     1     -11.030  10.483  70.539  1.00  0.00    -0.173 C  
HETATM    8  C   UNL     1     -10.542   6.830  68.351  1.00  0.00    -0.270 C  
HETATM    9  C   UNL     1     -11.042   9.105  71.113  1.00  0.00    -0.393 C  
HETATM   10  C   UNL     1      -9.326   5.475  66.629  1.00  0.00    -0.147 C  
HETATM   11  C   UNL     1     -10.782   8.015  68.948  1.00  0.00    -0.091 C  
HETATM   12  C   UNL     1     -10.929   7.996  70.385  1.00  0.00    -0.248 C  
ENDROOT
BRANCH   2  13
HETATM   13  O   UNL     1      -9.416  10.259  66.391  1.00  0.00    -0.164 OA 
BRANCH  13  14
HETATM   14  C   UNL     1      -8.942  10.267  65.123  1.00  0.00    -0.191 C  
HETATM   15  C   UNL     1      -7.226   8.913  63.006  1.00  0.00    -0.092 C  
HETATM   16  C   UNL     1      -7.420  10.322  65.121  1.00  0.00    -0.130 C  
HETATM   17  O   UNL     1      -9.642  10.292  64.121  1.00  0.00    -0.289 OA 
HETATM   18  C   UNL     1      -6.857   9.052  64.478  1.00  0.00    -0.081 C  
HETATM   19  C   UNL     1      -6.837  10.518  66.530  1.00  0.00    -0.113 C  
ENDBRANCH  13  14
ENDBRANCH   2  13
BRANCH   4  20
HETATM   20  C   UNL     1     -10.525  12.083  68.615  1.00  0.00    -0.238 C  
BRANCH  20  21
HETATM   21  C   UNL     1      -9.129  12.741  68.487  1.00  0.00    -0.049 C  
BRANCH  21  22
HETATM   22  C   UNL     1      -8.946  14.251  68.314  1.00  0.00    -0.187 C  
HETATM   23  C   UNL     1      -7.530  14.731  68.062  1.00  0.00    -0.135 C  
HETATM   24  C   UNL     1      -7.603  16.181  67.597  1.00  0.00    -0.145 C  
HETATM   25  O   UNL     1      -8.049  16.262  66.237  1.00  0.00    -0.308 OA 
HETATM   26  C   UNL     1      -8.468  17.036  68.511  1.00  0.00    -0.257 C  
HETATM   27  C   UNL     1      -9.692  16.344  69.083  1.00  0.00    -0.260 C  
HETATM   28  H   UNL     1      -8.095  17.165  65.948  1.00  0.00     0.000 HD 
HETATM   29  O   UNL     1     -10.698  16.958  69.405  1.00  0.00    -0.335 OA 
HETATM   30  O   UNL     1      -9.538  15.016  69.370  1.00  0.00    -0.202 OA 
ENDBRANCH  21  22
ENDBRANCH  20  21
ENDBRANCH   4  20
TORSDOF 5
ENDMDL
MODEL      127
REMARK 921   NORMALIZED FREE ENERGY PREDICTED BY IDOCK:   -4.41 KCAL/MOL
REMARK 922        TOTAL FREE ENERGY PREDICTED BY IDOCK:   -7.28 KCAL/MOL
REMARK 923 INTER-LIGAND FREE ENERGY PREDICTED BY IDOCK:   -5.90 KCAL/MOL
REMARK 924 INTRA-LIGAND FREE ENERGY PREDICTED BY IDOCK:   -1.38 KCAL/MOL
REMARK 927      BINDING AFFINITY PREDICTED BY RF-SCORE:    0.00 PKD
ROOT
HETATM    1  C   UNL     1      -8.096   9.044  67.385  1.00  0.00    -0.108 C  
HETATM    2  C   UNL     1      -9.018   8.515  68.538  1.00  0.00    -0.139 C  
HETATM    3  C   UNL     1     -10.144   7.554  68.123  1.00  0.00    -0.215 C  
HETATM    4  C   UNL     1      -8.068  10.608  67.076  1.00  0.00    -0.120 C  
HETATM    5  C   UNL     1      -9.670   6.423  67.226  1.00  0.00    -0.155 C  
HETATM    6  C   UNL     1      -5.626  10.955  66.202  1.00  0.00    -0.134 C  
HETATM    7  C   UNL     1      -7.119  10.889  65.848  1.00  0.00    -0.029 C  
HETATM    8  C   UNL     1      -8.979   7.033  66.050  1.00  0.00    -0.135 C  
HETATM    9  C   UNL     1      -7.281   9.931  64.715  1.00  0.00    -0.136 C  
HETATM   10  C   UNL     1     -10.871   5.570  66.796  1.00  0.00    -0.252 C  
HETATM   11  C   UNL     1      -8.327   8.213  66.094  1.00  0.00    -0.126 C  
HETATM   12  C   UNL     1      -7.829   8.723  64.837  1.00  0.00    -0.120 C  
ENDROOT
BRANCH   2  13
HETATM   13  O   UNL     1      -9.737   9.558  69.199  1.00  0.00    -0.166 OA 
BRANCH  13  14
HETATM   14  C   UNL     1     -10.096   9.346  70.487  1.00  0.00    -0.275 C  
HETATM   15  C   UNL     1     -12.018   8.026  72.442  1.00  0.00    -0.405 C  
HETATM   16  C   UNL     1     -11.509   9.853  70.740  1.00  0.00    -0.433 C  
HETATM   17  O   UNL     1      -9.361   8.872  71.343  1.00  0.00    -0.234 OA 
HETATM   18  C   UNL     1     -12.418   8.684  71.127  1.00  0.00    -0.210 C  
HETATM   19  C   UNL     1     -12.087  10.609  69.532  1.00  0.00    -0.285 C  
ENDBRANCH  13  14
ENDBRANCH   2  13
BRANCH   4  20
HETATM   20  C   UNL     1      -7.709  11.657  68.210  1.00  0.00    -0.128 C  
BRANCH  20  21
HETATM   21  C   UNL     1      -8.971  12.456  68.621  1.00  0.00     0.033 C  
BRANCH  21  22
HETATM   22  C   UNL     1      -9.512  13.621  67.789  1.00  0.00    -0.221 C  
HETATM   23  C   UNL     1      -8.925  14.988  68.085  1.00  0.00    -0.173 C  
HETATM   24  C   UNL     1      -9.338  15.929  66.958  1.00  0.00    -0.215 C  
HETATM   25  O   UNL     1      -8.574  15.673  65.772  1.00  0.00    -0.221 OA 
HETATM   26  C   UNL     1     -10.831  15.867  66.674  1.00  0.00    -0.213 C  
HETATM   27  C   UNL     1     -11.462  14.493  66.805  1.00  0.00    -0.367 C  
HETATM   28  H   UNL     1      -8.831  16.259  65.070  1.00  0.00     0.000 HD 
HETATM   29  O   UNL     1     -12.461  14.171  66.180  1.00  0.00    -0.466 OA 
HETATM   30  O   UNL     1     -10.943  13.696  67.789  1.00  0.00    -0.251 OA 
ENDBRANCH  21  22
ENDBRANCH  20  21
ENDBRANCH   4  20
TORSDOF 5
ENDMDL
MODEL      128
REMARK 921   NORMALIZED FREE ENERGY PREDICTED BY IDOCK:   -4.40 KCAL/MOL
REMARK 922        TOTAL FREE ENERGY PREDICTED BY IDOCK:   -7.27 KCAL/MOL
REMARK 923 INTER-LIGAND FREE ENERGY PREDICTED BY IDOCK:   -7.11 KCAL/MOL
REMARK 924 INTRA-LIGAND FREE ENERGY PREDICTED BY IDOCK:   -0.16 KCAL/MOL
REMARK 927      BINDING AFFINITY PREDICTED BY RF-SCORE:    0.00 PKD
ROOT
HETATM    1  C   UNL     1     -10.250  10.988  65.244  1.00  0.00    -0.344 C  
HETATM    2  C   UNL     1     -11.163  11.891  66.144  1.00  0.00    -0.333 C  
HETATM    3  C   UNL     1     -11.565  13.253  65.556  1.00  0.00    -0.351 C  
HETATM    4  C   UNL     1      -8.789  10.609  65.763  1.00  0.00    -0.198 C  
HETATM    5  C   UNL     1     -12.096  13.164  64.136  1.00  0.00    -0.496 C  
HETATM    6  C   UNL     1      -8.412   8.257  64.680  1.00  0.00    -0.069 C  
HETATM    7  C   UNL     1      -8.046   9.748  64.670  1.00  0.00    -0.148 C  
HETATM    8  C   UNL     1     -11.067  12.465  63.307  1.00  0.00    -0.347 C  
HETATM    9  C   UNL     1      -8.210  10.253  63.275  1.00  0.00    -0.164 C  
HETATM   10  C   UNL     1     -12.388  14.574  63.606  1.00  0.00     0.285 C  
HETATM   11  C   UNL     1     -10.212  11.544  63.794  1.00  0.00    -0.429 C  
HETATM   12  C   UNL     1      -9.193  11.064  62.890  1.00  0.00    -0.362 C  
ENDROOT
BRANCH   2  13
HETATM   13  O   UNL     1     -10.540  12.262  67.375  1.00  0.00    -0.217 OA 
BRANCH  13  14
HETATM   14  C   UNL     1     -10.100  13.537  67.490  1.00  0.00    -0.234 C  
HETATM   15  C   UNL     1      -8.939  15.711  69.274  1.00  0.00    -0.267 C  
HETATM   16  C   UNL     1     -10.921  14.296  68.523  1.00  0.00    -0.267 C  
HETATM   17  O   UNL     1      -9.210  14.027  66.809  1.00  0.00    -0.258 OA 
HETATM   18  C   UNL     1     -10.022  14.723  69.687  1.00  0.00     0.038 C  
HETATM   19  C   UNL     1     -12.118  13.480  69.038  1.00  0.00    -0.330 C  
ENDBRANCH  13  14
ENDBRANCH   2  13
BRANCH   4  20
HETATM   20  C   UNL     1      -8.582   9.892  67.162  1.00  0.00    -0.125 C  
BRANCH  20  21
HETATM   21  C   UNL     1      -9.795   8.987  67.487  1.00  0.00    -0.230 C  
BRANCH  21  22
HETATM   22  C   UNL     1     -10.311   8.785  68.914  1.00  0.00    -0.212 C  
HETATM   23  C   UNL     1     -10.462  10.038  69.756  1.00  0.00    -0.291 C  
HETATM   24  C   UNL     1     -11.280   9.676  70.991  1.00  0.00    -0.375 C  
HETATM   25  O   UNL     1     -12.668   9.529  70.662  1.00  0.00    -0.507 OA 
HETATM   26  C   UNL     1     -10.748   8.434  71.691  1.00  0.00    -0.333 C  
HETATM   27  C   UNL     1     -10.209   7.351  70.774  1.00  0.00    -0.197 C  
HETATM   28  H   UNL     1     -13.177   9.303  71.431  1.00  0.00     0.000 HD 
HETATM   29  O   UNL     1     -10.204   6.171  71.091  1.00  0.00    -0.190 OA 
HETATM   30  O   UNL     1      -9.579   7.794  69.644  1.00  0.00    -0.163 OA 
ENDBRANCH  21  22
ENDBRANCH  20  21
ENDBRANCH   4  20
TORSDOF 5
ENDMDL
MODEL      129
REMARK 921   NORMALIZED FREE ENERGY PREDICTED BY IDOCK:   -4.36 KCAL/MOL
REMARK 922        TOTAL FREE ENERGY PREDICTED BY IDOCK:   -7.22 KCAL/MOL
REMARK 923 INTER-LIGAND FREE ENERGY PREDICTED BY IDOCK:   -5.82 KCAL/MOL
REMARK 924 INTRA-LIGAND FREE ENERGY PREDICTED BY IDOCK:   -1.40 KCAL/MOL
REMARK 927      BINDING AFFINITY PREDICTED BY RF-SCORE:    0.00 PKD
ROOT
HETATM    1  C   UNL     1     -10.384  10.829  65.982  1.00  0.00    -0.300 C  
HETATM    2  C   UNL     1     -11.094  11.983  66.772  1.00  0.00    -0.305 C  
HETATM    3  C   UNL     1     -11.578  13.181  65.939  1.00  0.00    -0.391 C  
HETATM    4  C   UNL     1      -8.858  10.496  66.308  1.00  0.00    -0.172 C  
HETATM    5  C   UNL     1     -12.371  12.778  64.708  1.00  0.00    -0.540 C  
HETATM    6  C   UNL     1      -8.733   7.931  65.810  1.00  0.00    -0.163 C  
HETATM    7  C   UNL     1      -8.351   9.346  65.356  1.00  0.00    -0.143 C  
HETATM    8  C   UNL     1     -11.531  11.832  63.913  1.00  0.00    -0.481 C  
HETATM    9  C   UNL     1      -8.769   9.501  63.931  1.00  0.00    -0.238 C  
HETATM   10  C   UNL     1     -12.735  14.029  63.898  1.00  0.00     0.215 C  
HETATM   11  C   UNL     1     -10.614  11.006  64.457  1.00  0.00    -0.383 C  
HETATM   12  C   UNL     1      -9.794  10.254  63.536  1.00  0.00    -0.156 C  
ENDROOT
BRANCH   2  13
HETATM   13  O   UNL     1     -10.242  12.606  67.735  1.00  0.00    -0.213 OA 
BRANCH  13  14
HETATM   14  C   UNL     1     -10.823  13.099  68.853  1.00  0.00    -0.204 C  
HETATM   15  C   UNL     1     -12.510  15.285  70.130  1.00  0.00    -0.374 C  
HETATM   16  C   UNL     1     -10.289  14.490  69.166  1.00  0.00    -0.197 C  
HETATM   17  O   UNL     1     -11.618  12.484  69.550  1.00  0.00    -0.284 OA 
HETATM   18  C   UNL     1     -11.427  15.512  69.083  1.00  0.00    -0.356 C  
HETATM   19  C   UNL     1      -9.131  14.897  68.240  1.00  0.00    -0.179 C  
ENDBRANCH  13  14
ENDBRANCH   2  13
BRANCH   4  20
HETATM   20  C   UNL     1      -8.399  10.136  67.783  1.00  0.00    -0.114 C  
BRANCH  20  21
HETATM   21  C   UNL     1      -7.034  10.795  68.097  1.00  0.00    -0.072 C  
BRANCH  21  22
HETATM   22  C   UNL     1      -6.508  10.955  69.525  1.00  0.00    -0.095 C  
HETATM   23  C   UNL     1      -5.294  11.848  69.698  1.00  0.00    -0.071 C  
HETATM   24  C   UNL     1      -5.133  12.137  71.186  1.00  0.00    -0.139 C  
HETATM   25  O   UNL     1      -6.105  13.092  71.631  1.00  0.00    -0.411 OA 
HETATM   26  C   UNL     1      -5.183  10.870  72.028  1.00  0.00     0.183 C  
HETATM   27  C   UNL     1      -6.153   9.807  71.546  1.00  0.00     0.099 C  
HETATM   28  H   UNL     1      -6.006  13.272  72.558  1.00  0.00     0.000 HD 
HETATM   29  O   UNL     1      -6.664   8.997  72.306  1.00  0.00    -0.285 OA 
HETATM   30  O   UNL     1      -6.290   9.705  70.189  1.00  0.00    -0.053 OA 
ENDBRANCH  21  22
ENDBRANCH  20  21
ENDBRANCH   4  20
TORSDOF 5
ENDMDL
MODEL      130
REMARK 921   NORMALIZED FREE ENERGY PREDICTED BY IDOCK:   -4.36 KCAL/MOL
REMARK 922        TOTAL FREE ENERGY PREDICTED BY IDOCK:   -7.22 KCAL/MOL
REMARK 923 INTER-LIGAND FREE ENERGY PREDICTED BY IDOCK:   -7.27 KCAL/MOL
REMARK 924 INTRA-LIGAND FREE ENERGY PREDICTED BY IDOCK:    0.04 KCAL/MOL
REMARK 927      BINDING AFFINITY PREDICTED BY RF-SCORE:    0.00 PKD
ROOT
HETATM    1  C   UNL     1      -9.260  14.258  68.900  1.00  0.00    -0.044 C  
HETATM    2  C   UNL     1      -7.861  13.740  68.415  1.00  0.00    -0.143 C  
HETATM    3  C   UNL     1      -7.083  14.667  67.467  1.00  0.00    -0.203 C  
HETATM    4  C   UNL     1     -10.567  13.434  68.506  1.00  0.00    -0.264 C  
HETATM    5  C   UNL     1      -7.005  16.102  67.957  1.00  0.00    -0.139 C  
HETATM    6  C   UNL     1     -12.150  13.906  70.535  1.00  0.00    -0.426 C  
HETATM    7  C   UNL     1     -11.847  14.175  69.055  1.00  0.00    -0.384 C  
HETATM    8  C   UNL     1      -8.401  16.577  68.201  1.00  0.00    -0.186 C  
HETATM    9  C   UNL     1     -11.834  15.654  68.850  1.00  0.00    -0.368 C  
HETATM   10  C   UNL     1      -6.289  16.965  66.910  1.00  0.00    -0.237 C  
HETATM   11  C   UNL     1      -9.415  15.767  68.565  1.00  0.00    -0.201 C  
HETATM   12  C   UNL     1     -10.729  16.363  68.629  1.00  0.00    -0.317 C  
ENDROOT
BRANCH   2  13
HETATM   13  O   UNL     1      -7.947  12.532  67.657  1.00  0.00    -0.145 OA 
BRANCH  13  14
HETATM   14  C   UNL     1      -6.809  11.819  67.491  1.00  0.00    -0.113 C  
HETATM   15  C   UNL     1      -5.515   9.158  66.785  1.00  0.00    -0.039 C  
HETATM   16  C   UNL     1      -6.779  10.628  68.439  1.00  0.00    -0.060 C  
HETATM   17  O   UNL     1      -5.901  12.129  66.732  1.00  0.00    -0.265 OA 
HETATM   18  C   UNL     1      -6.769   9.326  67.633  1.00  0.00    -0.068 C  
HETATM   19  C   UNL     1      -7.952  10.638  69.432  1.00  0.00    -0.118 C  
ENDBRANCH  13  14
ENDBRANCH   2  13
BRANCH   4  20
HETATM   20  C   UNL     1     -10.706  11.899  68.877  1.00  0.00    -0.236 C  
BRANCH  20  21
HETATM   21  C   UNL     1     -11.321  11.113  67.692  1.00  0.00    -0.356 C  
BRANCH  21  22
HETATM   22  C   UNL     1     -11.150  11.555  66.237  1.00  0.00    -0.263 C  
HETATM   23  C   UNL     1      -9.749  11.448  65.663  1.00  0.00    -0.263 C  
HETATM   24  C   UNL     1      -9.849  11.612  64.151  1.00  0.00    -0.242 C  
HETATM   25  O   UNL     1     -10.369  10.423  63.540  1.00  0.00    -0.434 OA 
HETATM   26  C   UNL     1     -10.665  12.834  63.756  1.00  0.00    -0.397 C  
HETATM   27  C   UNL     1     -11.856  13.137  64.647  1.00  0.00    -0.370 C  
HETATM   28  H   UNL     1     -10.431  10.525  62.598  1.00  0.00     0.000 HD 
HETATM   29  O   UNL     1     -12.844  13.728  64.238  1.00  0.00    -0.624 OA 
HETATM   30  O   UNL     1     -11.685  12.857  65.975  1.00  0.00    -0.360 OA 
ENDBRANCH  21  22
ENDBRANCH  20  21
ENDBRANCH   4  20
TORSDOF 5
ENDMDL
MODEL      131
REMARK 921   NORMALIZED FREE ENERGY PREDICTED BY IDOCK:   -4.36 KCAL/MOL
REMARK 922        TOTAL FREE ENERGY PREDICTED BY IDOCK:   -7.22 KCAL/MOL
REMARK 923 INTER-LIGAND FREE ENERGY PREDICTED BY IDOCK:   -5.92 KCAL/MOL
REMARK 924 INTRA-LIGAND FREE ENERGY PREDICTED BY IDOCK:   -1.30 KCAL/MOL
REMARK 927      BINDING AFFINITY PREDICTED BY RF-SCORE:    0.00 PKD
ROOT
HETATM    1  C   UNL     1     -10.683   9.878  69.495  1.00  0.00    -0.265 C  
HETATM    2  C   UNL     1      -9.781   8.630  69.792  1.00  0.00    -0.176 C  
HETATM    3  C   UNL     1      -9.761   8.135  71.247  1.00  0.00    -0.207 C  
HETATM    4  C   UNL     1      -9.996  11.220  68.975  1.00  0.00    -0.124 C  
HETATM    5  C   UNL     1     -11.146   7.976  71.849  1.00  0.00    -0.333 C  
HETATM    6  C   UNL     1     -11.880  12.263  67.488  1.00  0.00    -0.331 C  
HETATM    7  C   UNL     1     -11.090  12.343  68.802  1.00  0.00    -0.307 C  
HETATM    8  C   UNL     1     -11.861   9.280  71.700  1.00  0.00    -0.453 C  
HETATM    9  C   UNL     1     -12.072  12.420  69.924  1.00  0.00    -0.317 C  
HETATM   10  C   UNL     1     -11.023   7.564  73.322  1.00  0.00    -0.362 C  
HETATM   11  C   UNL     1     -11.628  10.151  70.697  1.00  0.00    -0.429 C  
HETATM   12  C   UNL     1     -12.307  11.424  70.775  1.00  0.00    -0.483 C  
ENDROOT
BRANCH   2  13
HETATM   13  O   UNL     1      -8.397   8.869  69.532  1.00  0.00    -0.113 OA 
BRANCH  13  14
HETATM   14  C   UNL     1      -7.575   7.793  69.500  1.00  0.00    -0.100 C  
HETATM   15  C   UNL     1      -6.045   5.671  71.054  1.00  0.00    -0.033 C  
HETATM   16  C   UNL     1      -6.286   8.080  70.257  1.00  0.00    -0.036 C  
HETATM   17  O   UNL     1      -7.811   6.759  68.890  1.00  0.00    -0.107 OA 
HETATM   18  C   UNL     1      -6.169   7.136  71.457  1.00  0.00    -0.037 C  
HETATM   19  C   UNL     1      -6.186   9.545  70.713  1.00  0.00    -0.078 C  
ENDBRANCH  13  14
ENDBRANCH   2  13
BRANCH   4  20
HETATM   20  C   UNL     1      -9.096  11.222  67.669  1.00  0.00    -0.149 C  
BRANCH  20  21
HETATM   21  C   UNL     1      -9.760  10.372  66.557  1.00  0.00    -0.241 C  
BRANCH  21  22
HETATM   22  C   UNL     1      -9.468   8.881  66.379  1.00  0.00    -0.220 C  
HETATM   23  C   UNL     1      -8.719   8.490  65.119  1.00  0.00    -0.156 C  
HETATM   24  C   UNL     1      -8.245   7.050  65.284  1.00  0.00    -0.128 C  
HETATM   25  O   UNL     1      -7.123   6.978  66.174  1.00  0.00    -0.070 OA 
HETATM   26  C   UNL     1      -9.364   6.124  65.737  1.00  0.00     0.041 C  
HETATM   27  C   UNL     1     -10.355   6.729  66.714  1.00  0.00    -0.215 C  
HETATM   28  H   UNL     1      -6.827   6.081  66.277  1.00  0.00     0.000 HD 
HETATM   29  O   UNL     1     -10.979   6.050  67.516  1.00  0.00    -0.304 OA 
HETATM   30  O   UNL     1     -10.629   8.056  66.530  1.00  0.00    -0.187 OA 
ENDBRANCH  21  22
ENDBRANCH  20  21
ENDBRANCH   4  20
TORSDOF 5
ENDMDL
MODEL      132
REMARK 921   NORMALIZED FREE ENERGY PREDICTED BY IDOCK:   -4.35 KCAL/MOL
REMARK 922        TOTAL FREE ENERGY PREDICTED BY IDOCK:   -7.20 KCAL/MOL
REMARK 923 INTER-LIGAND FREE ENERGY PREDICTED BY IDOCK:   -5.61 KCAL/MOL
REMARK 924 INTRA-LIGAND FREE ENERGY PREDICTED BY IDOCK:   -1.60 KCAL/MOL
REMARK 927      BINDING AFFINITY PREDICTED BY RF-SCORE:    0.00 PKD
ROOT
HETATM    1  C   UNL     1     -11.250   9.442  68.735  1.00  0.00     0.112 C  
HETATM    2  C   UNL     1     -10.909   7.923  68.923  1.00  0.00     0.021 C  
HETATM    3  C   UNL     1     -10.552   7.476  70.350  1.00  0.00    -0.236 C  
HETATM    4  C   UNL     1     -10.318  10.331  67.793  1.00  0.00    -0.246 C  
HETATM    5  C   UNL     1     -11.539   7.959  71.398  1.00  0.00    -0.304 C  
HETATM    6  C   UNL     1     -12.003  12.104  66.865  1.00  0.00    -0.164 C  
HETATM    7  C   UNL     1     -10.823  11.825  67.806  1.00  0.00    -0.258 C  
HETATM    8  C   UNL     1     -11.645   9.445  71.274  1.00  0.00    -0.434 C  
HETATM    9  C   UNL     1     -11.183  12.339  69.161  1.00  0.00    -0.300 C  
HETATM   10  C   UNL     1     -11.056   7.540  72.792  1.00  0.00    -0.416 C  
HETATM   11  C   UNL     1     -11.468  10.115  70.118  1.00  0.00    -0.368 C  
HETATM   12  C   UNL     1     -11.472  11.557  70.199  1.00  0.00    -0.258 C  
ENDROOT
BRANCH   2  13
HETATM   13  O   UNL     1      -9.761   7.513  68.179  1.00  0.00    -0.149 OA 
BRANCH  13  14
HETATM   14  C   UNL     1      -9.809   6.302  67.576  1.00  0.00    -0.120 C  
HETATM   15  C   UNL     1      -9.414   3.294  67.802  1.00  0.00    -0.217 C  
HETATM   16  C   UNL     1      -8.439   5.639  67.594  1.00  0.00    -0.102 C  
HETATM   17  O   UNL     1     -10.803   5.837  67.035  1.00  0.00    -0.291 OA 
HETATM   18  C   UNL     1      -8.499   4.347  68.414  1.00  0.00    -0.101 C  
HETATM   19  C   UNL     1      -7.342   6.571  68.135  1.00  0.00    -0.090 C  
ENDBRANCH  13  14
ENDBRANCH   2  13
BRANCH   4  20
HETATM   20  C   UNL     1     -10.062   9.924  66.282  1.00  0.00    -0.311 C  
BRANCH  20  21
HETATM   21  C   UNL     1      -8.604  10.254  65.877  1.00  0.00    -0.160 C  
BRANCH  21  22
HETATM   22  C   UNL     1      -7.915   9.596  64.679  1.00  0.00    -0.135 C  
HETATM   23  C   UNL     1      -7.863   8.080  64.684  1.00  0.00    -0.140 C  
HETATM   24  C   UNL     1      -7.450   7.622  63.290  1.00  0.00    -0.108 C  
HETATM   25  O   UNL     1      -8.539   7.746  62.365  1.00  0.00    -0.380 OA 
HETATM   26  C   UNL     1      -6.215   8.353  62.785  1.00  0.00    -0.087 C  
HETATM   27  C   UNL     1      -6.118   9.815  63.179  1.00  0.00    -0.112 C  
HETATM   28  H   UNL     1      -8.281   7.461  61.497  1.00  0.00     0.000 HD 
HETATM   29  O   UNL     1      -5.509  10.634  62.506  1.00  0.00    -0.126 OA 
HETATM   30  O   UNL     1      -6.612  10.127  64.416  1.00  0.00    -0.127 OA 
ENDBRANCH  21  22
ENDBRANCH  20  21
ENDBRANCH   4  20
TORSDOF 5
ENDMDL
MODEL      133
REMARK 921   NORMALIZED FREE ENERGY PREDICTED BY IDOCK:   -4.34 KCAL/MOL
REMARK 922        TOTAL FREE ENERGY PREDICTED BY IDOCK:   -7.19 KCAL/MOL
REMARK 923 INTER-LIGAND FREE ENERGY PREDICTED BY IDOCK:   -5.68 KCAL/MOL
REMARK 924 INTRA-LIGAND FREE ENERGY PREDICTED BY IDOCK:   -1.52 KCAL/MOL
REMARK 927      BINDING AFFINITY PREDICTED BY RF-SCORE:    0.00 PKD
ROOT
HETATM    1  C   UNL     1      -9.539   8.638  66.378  1.00  0.00    -0.316 C  
HETATM    2  C   UNL     1      -9.488  10.117  65.860  1.00  0.00    -0.196 C  
HETATM    3  C   UNL     1      -8.221  10.526  65.091  1.00  0.00    -0.134 C  
HETATM    4  C   UNL     1      -9.612   8.373  67.950  1.00  0.00    -0.180 C  
HETATM    5  C   UNL     1      -7.832   9.540  64.003  1.00  0.00    -0.130 C  
HETATM    6  C   UNL     1     -10.962   6.135  68.071  1.00  0.00    -0.399 C  
HETATM    7  C   UNL     1      -9.597   6.820  68.227  1.00  0.00    -0.127 C  
HETATM    8  C   UNL     1      -7.707   8.191  64.632  1.00  0.00    -0.118 C  
HETATM    9  C   UNL     1      -8.604   6.061  67.410  1.00  0.00    -0.102 C  
HETATM   10  C   UNL     1      -6.516   9.986  63.352  1.00  0.00    -0.136 C  
HETATM   11  C   UNL     1      -8.415   7.799  65.711  1.00  0.00    -0.155 C  
HETATM   12  C   UNL     1      -8.076   6.513  66.275  1.00  0.00    -0.115 C  
ENDROOT
BRANCH   2  13
HETATM   13  O   UNL     1      -9.528  11.079  66.915  1.00  0.00    -0.174 OA 
BRANCH  13  14
HETATM   14  C   UNL     1     -10.491  12.028  66.856  1.00  0.00    -0.223 C  
HETATM   15  C   UNL     1     -11.497  14.602  65.584  1.00  0.00    -0.340 C  
HETATM   16  C   UNL     1      -9.913  13.399  67.178  1.00  0.00    -0.242 C  
HETATM   17  O   UNL     1     -11.674  11.803  66.639  1.00  0.00    -0.548 OA 
HETATM   18  C   UNL     1     -10.048  14.317  65.959  1.00  0.00    -0.333 C  
HETATM   19  C   UNL     1      -8.448  13.326  67.638  1.00  0.00    -0.191 C  
ENDBRANCH  13  14
ENDBRANCH   2  13
BRANCH   4  20
HETATM   20  C   UNL     1     -10.768   9.007  68.831  1.00  0.00    -0.149 C  
BRANCH  20  21
HETATM   21  C   UNL     1     -10.210   9.460  70.203  1.00  0.00    -0.271 C  
BRANCH  21  22
HETATM   22  C   UNL     1      -8.796   9.110  70.671  1.00  0.00    -0.232 C  
HETATM   23  C   UNL     1      -8.668   8.590  72.090  1.00  0.00    -0.267 C  
HETATM   24  C   UNL     1      -7.271   8.000  72.248  1.00  0.00    -0.094 C  
HETATM   25  O   UNL     1      -7.176   6.727  71.597  1.00  0.00    -0.078 OA 
HETATM   26  C   UNL     1      -6.186   8.949  71.760  1.00  0.00    -0.072 C  
HETATM   27  C   UNL     1      -6.544   9.773  70.537  1.00  0.00    -0.117 C  
HETATM   28  H   UNL     1      -6.305   6.359  71.695  1.00  0.00     0.000 HD 
HETATM   29  O   UNL     1      -5.698  10.187  69.758  1.00  0.00    -0.040 OA 
HETATM   30  O   UNL     1      -7.852  10.164  70.452  1.00  0.00    -0.202 OA 
ENDBRANCH  21  22
ENDBRANCH  20  21
ENDBRANCH   4  20
TORSDOF 5
ENDMDL
MODEL      134
REMARK 921   NORMALIZED FREE ENERGY PREDICTED BY IDOCK:   -4.33 KCAL/MOL
REMARK 922        TOTAL FREE ENERGY PREDICTED BY IDOCK:   -7.17 KCAL/MOL
REMARK 923 INTER-LIGAND FREE ENERGY PREDICTED BY IDOCK:   -5.76 KCAL/MOL
REMARK 924 INTRA-LIGAND FREE ENERGY PREDICTED BY IDOCK:   -1.41 KCAL/MOL
REMARK 927      BINDING AFFINITY PREDICTED BY RF-SCORE:    0.00 PKD
ROOT
HETATM    1  C   UNL     1      -8.180  11.285  66.550  1.00  0.00    -0.165 C  
HETATM    2  C   UNL     1      -9.037  12.541  66.936  1.00  0.00    -0.213 C  
HETATM    3  C   UNL     1      -8.401  13.517  67.938  1.00  0.00    -0.175 C  
HETATM    4  C   UNL     1      -8.733   9.833  66.912  1.00  0.00    -0.143 C  
HETATM    5  C   UNL     1      -6.976  13.904  67.580  1.00  0.00    -0.189 C  
HETATM    6  C   UNL     1      -7.730   8.366  64.992  1.00  0.00    -0.104 C  
HETATM    7  C   UNL     1      -7.680   8.742  66.479  1.00  0.00    -0.099 C  
HETATM    8  C   UNL     1      -6.185  12.645  67.430  1.00  0.00    -0.149 C  
HETATM    9  C   UNL     1      -6.267   9.084  66.820  1.00  0.00    -0.062 C  
HETATM   10  C   UNL     1      -6.398  14.808  68.676  1.00  0.00    -0.085 C  
HETATM   11  C   UNL     1      -6.715  11.472  67.028  1.00  0.00    -0.143 C  
HETATM   12  C   UNL     1      -5.842  10.321  67.066  1.00  0.00    -0.050 C  
ENDROOT
BRANCH   2  13
HETATM   13  O   UNL     1     -10.265  12.200  67.581  1.00  0.00    -0.193 OA 
BRANCH  13  14
HETATM   14  C   UNL     1     -11.156  13.197  67.790  1.00  0.00    -0.262 C  
HETATM   15  C   UNL     1     -12.081  15.500  69.551  1.00  0.00    -0.326 C  
HETATM   16  C   UNL     1     -11.885  12.997  69.111  1.00  0.00    -0.360 C  
HETATM   17  O   UNL     1     -11.388  14.097  66.994  1.00  0.00    -0.306 OA 
HETATM   18  C   UNL     1     -11.569  14.158  70.058  1.00  0.00    -0.315 C  
HETATM   19  C   UNL     1     -11.544  11.653  69.773  1.00  0.00    -0.389 C  
ENDBRANCH  13  14
ENDBRANCH   2  13
BRANCH   4  20
HETATM   20  C   UNL     1     -10.157   9.353  66.406  1.00  0.00    -0.332 C  
BRANCH  20  21
HETATM   21  C   UNL     1     -10.834   8.460  67.475  1.00  0.00    -0.083 C  
BRANCH  21  22
HETATM   22  C   UNL     1     -10.330   7.055  67.811  1.00  0.00    -0.202 C  
HETATM   23  C   UNL     1     -10.528   5.997  66.742  1.00  0.00    -0.329 C  
HETATM   24  C   UNL     1      -9.685   4.784  67.121  1.00  0.00    -0.184 C  
HETATM   25  O   UNL     1      -8.296   5.025  66.860  1.00  0.00    -0.108 OA 
HETATM   26  C   UNL     1      -9.907   4.357  68.564  1.00  0.00    -0.140 C  
HETATM   27  C   UNL     1     -10.123   5.488  69.552  1.00  0.00    -0.234 C  
HETATM   28  H   UNL     1      -7.770   4.270  67.097  1.00  0.00     0.000 HD 
HETATM   29  O   UNL     1      -9.839   5.385  70.736  1.00  0.00    -0.170 OA 
HETATM   30  O   UNL     1     -10.809   6.570  69.070  1.00  0.00    -0.250 OA 
ENDBRANCH  21  22
ENDBRANCH  20  21
ENDBRANCH   4  20
TORSDOF 5
ENDMDL
MODEL      135
REMARK 921   NORMALIZED FREE ENERGY PREDICTED BY IDOCK:   -4.31 KCAL/MOL
REMARK 922        TOTAL FREE ENERGY PREDICTED BY IDOCK:   -7.15 KCAL/MOL
REMARK 923 INTER-LIGAND FREE ENERGY PREDICTED BY IDOCK:   -6.71 KCAL/MOL
REMARK 924 INTRA-LIGAND FREE ENERGY PREDICTED BY IDOCK:   -0.44 KCAL/MOL
REMARK 927      BINDING AFFINITY PREDICTED BY RF-SCORE:    0.00 PKD
ROOT
HETATM    1  C   UNL     1      -8.423  13.117  67.234  1.00  0.00    -0.199 C  
HETATM    2  C   UNL     1      -9.177  14.261  67.996  1.00  0.00    -0.192 C  
HETATM    3  C   UNL     1      -8.358  15.042  69.036  1.00  0.00    -0.194 C  
HETATM    4  C   UNL     1      -8.927  11.613  67.406  1.00  0.00    -0.166 C  
HETATM    5  C   UNL     1      -7.013  15.514  68.513  1.00  0.00    -0.114 C  
HETATM    6  C   UNL     1      -8.303  10.554  65.095  1.00  0.00    -0.150 C  
HETATM    7  C   UNL     1      -7.985  10.642  66.595  1.00  0.00    -0.134 C  
HETATM    8  C   UNL     1      -6.282  14.320  67.990  1.00  0.00    -0.158 C  
HETATM    9  C   UNL     1      -6.528  10.939  66.739  1.00  0.00    -0.115 C  
HETATM   10  C   UNL     1      -6.235  16.204  69.641  1.00  0.00    -0.191 C  
HETATM   11  C   UNL     1      -6.893  13.235  67.472  1.00  0.00    -0.155 C  
HETATM   12  C   UNL     1      -6.046  12.114  67.136  1.00  0.00    -0.143 C  
ENDROOT
BRANCH   2  13
HETATM   13  O   UNL     1     -10.277  13.783  68.772  1.00  0.00    -0.226 OA 
BRANCH  13  14
HETATM   14  C   UNL     1     -11.122  14.706  69.289  1.00  0.00    -0.269 C  
HETATM   15  C   UNL     1     -12.286  16.029  71.769  1.00  0.00    -0.535 C  
HETATM   16  C   UNL     1     -12.162  14.041  70.180  1.00  0.00    -0.425 C  
HETATM   17  O   UNL     1     -11.091  15.899  69.024  1.00  0.00    -0.253 OA 
HETATM   18  C   UNL     1     -12.005  14.539  71.620  1.00  0.00    -0.328 C  
HETATM   19  C   UNL     1     -12.084  12.506  70.130  1.00  0.00    -0.368 C  
ENDBRANCH  13  14
ENDBRANCH   2  13
BRANCH   4  20
HETATM   20  C   UNL     1     -10.425  11.213  67.077  1.00  0.00    -0.277 C  
BRANCH  20  21
HETATM   21  C   UNL     1     -10.599   9.676  67.151  1.00  0.00    -0.298 C  
BRANCH  21  22
HETATM   22  C   UNL     1     -10.518   8.902  68.468  1.00  0.00    -0.182 C  
HETATM   23  C   UNL     1     -10.857   9.679  69.726  1.00  0.00    -0.274 C  
HETATM   24  C   UNL     1     -11.038   8.678  70.861  1.00  0.00    -0.264 C  
HETATM   25  O   UNL     1     -12.293   7.994  70.746  1.00  0.00    -0.502 OA 
HETATM   26  C   UNL     1      -9.882   7.692  70.950  1.00  0.00    -0.179 C  
HETATM   27  C   UNL     1      -9.295   7.256  69.620  1.00  0.00    -0.153 C  
HETATM   28  H   UNL     1     -12.406   7.370  71.453  1.00  0.00     0.000 HD 
HETATM   29  O   UNL     1      -8.742   6.177  69.473  1.00  0.00    -0.128 OA 
HETATM   30  O   UNL     1      -9.274   8.213  68.642  1.00  0.00    -0.143 OA 
ENDBRANCH  21  22
ENDBRANCH  20  21
ENDBRANCH   4  20
TORSDOF 5
ENDMDL
MODEL      136
REMARK 921   NORMALIZED FREE ENERGY PREDICTED BY IDOCK:   -4.29 KCAL/MOL
REMARK 922        TOTAL FREE ENERGY PREDICTED BY IDOCK:   -7.13 KCAL/MOL
REMARK 923 INTER-LIGAND FREE ENERGY PREDICTED BY IDOCK:   -5.99 KCAL/MOL
REMARK 924 INTRA-LIGAND FREE ENERGY PREDICTED BY IDOCK:   -1.15 KCAL/MOL
REMARK 927      BINDING AFFINITY PREDICTED BY RF-SCORE:    0.00 PKD
ROOT
HETATM    1  C   UNL     1      -7.292   7.707  66.712  1.00  0.00    -0.089 C  
HETATM    2  C   UNL     1      -7.510   7.237  68.192  1.00  0.00    -0.102 C  
HETATM    3  C   UNL     1      -7.499   5.720  68.434  1.00  0.00    -0.081 C  
HETATM    4  C   UNL     1      -8.459   8.508  65.977  1.00  0.00    -0.150 C  
HETATM    5  C   UNL     1      -6.314   5.016  67.796  1.00  0.00    -0.040 C  
HETATM    6  C   UNL     1      -7.123  10.048  64.336  1.00  0.00    -0.135 C  
HETATM    7  C   UNL     1      -8.033   8.821  64.491  1.00  0.00    -0.141 C  
HETATM    8  C   UNL     1      -6.306   5.363  66.342  1.00  0.00    -0.039 C  
HETATM    9  C   UNL     1      -7.386   7.676  63.785  1.00  0.00    -0.093 C  
HETATM   10  C   UNL     1      -6.433   3.503  68.017  1.00  0.00    -0.037 C  
HETATM   11  C   UNL     1      -6.783   6.522  65.846  1.00  0.00    -0.048 C  
HETATM   12  C   UNL     1      -6.824   6.642  64.407  1.00  0.00    -0.046 C  
ENDROOT
BRANCH   2  13
HETATM   13  O   UNL     1      -8.783   7.620  68.716  1.00  0.00    -0.129 OA 
BRANCH  13  14
HETATM   14  C   UNL     1      -9.055   7.282  69.998  1.00  0.00    -0.148 C  
HETATM   15  C   UNL     1      -9.634   5.077  72.014  1.00  0.00    -0.200 C  
HETATM   16  C   UNL     1     -10.396   6.566  70.091  1.00  0.00    -0.241 C  
HETATM   17  O   UNL     1      -8.351   7.571  70.956  1.00  0.00    -0.111 OA 
HETATM   18  C   UNL     1     -10.185   5.135  70.595  1.00  0.00    -0.326 C  
HETATM   19  C   UNL     1     -11.152   6.560  68.752  1.00  0.00    -0.357 C  
ENDBRANCH  13  14
ENDBRANCH   2  13
BRANCH   4  20
HETATM   20  C   UNL     1      -9.048   9.843  66.598  1.00  0.00    -0.171 C  
BRANCH  20  21
HETATM   21  C   UNL     1     -10.373  10.224  65.893  1.00  0.00    -0.241 C  
BRANCH  21  22
HETATM   22  C   UNL     1     -10.727  11.670  65.535  1.00  0.00    -0.281 C  
HETATM   23  C   UNL     1     -11.236  11.907  64.126  1.00  0.00    -0.446 C  
HETATM   24  C   UNL     1     -11.832  13.310  64.074  1.00  0.00    -0.455 C  
HETATM   25  O   UNL     1     -13.111  13.347  64.720  1.00  0.00    -0.694 OA 
HETATM   26  C   UNL     1     -10.893  14.357  64.654  1.00  0.00    -0.363 C  
HETATM   27  C   UNL     1     -10.077  13.907  65.852  1.00  0.00    -0.317 C  
HETATM   28  H   UNL     1     -13.483  14.221  64.688  1.00  0.00     0.000 HD 
HETATM   29  O   UNL     1      -9.674  14.691  66.699  1.00  0.00    -0.248 OA 
HETATM   30  O   UNL     1      -9.680  12.598  65.837  1.00  0.00    -0.256 OA 
ENDBRANCH  21  22
ENDBRANCH  20  21
ENDBRANCH   4  20
TORSDOF 5
ENDMDL
MODEL      137
REMARK 921   NORMALIZED FREE ENERGY PREDICTED BY IDOCK:   -4.29 KCAL/MOL
REMARK 922        TOTAL FREE ENERGY PREDICTED BY IDOCK:   -7.13 KCAL/MOL
REMARK 923 INTER-LIGAND FREE ENERGY PREDICTED BY IDOCK:   -6.75 KCAL/MOL
REMARK 924 INTRA-LIGAND FREE ENERGY PREDICTED BY IDOCK:   -0.38 KCAL/MOL
REMARK 927      BINDING AFFINITY PREDICTED BY RF-SCORE:    0.00 PKD
ROOT
HETATM    1  C   UNL     1      -8.826   9.657  68.984  1.00  0.00    -0.147 C  
HETATM    2  C   UNL     1      -9.918   8.655  69.496  1.00  0.00    -0.196 C  
HETATM    3  C   UNL     1      -9.510   7.740  70.661  1.00  0.00    -0.162 C  
HETATM    4  C   UNL     1      -8.297   9.523  67.485  1.00  0.00    -0.125 C  
HETATM    5  C   UNL     1      -8.854   8.485  71.811  1.00  0.00    -0.278 C  
HETATM    6  C   UNL     1      -7.697  11.998  66.886  1.00  0.00    -0.078 C  
HETATM    7  C   UNL     1      -7.171  10.595  67.221  1.00  0.00    -0.091 C  
HETATM    8  C   UNL     1      -7.699   9.254  71.257  1.00  0.00     0.025 C  
HETATM    9  C   UNL     1      -6.180  10.729  68.329  1.00  0.00    -0.053 C  
HETATM   10  C   UNL     1      -8.406   7.484  72.884  1.00  0.00    -0.154 C  
HETATM   11  C   UNL     1      -7.651   9.730  69.997  1.00  0.00    -0.169 C  
HETATM   12  C   UNL     1      -6.407  10.334  69.580  1.00  0.00    -0.062 C  
ENDROOT
BRANCH   2  13
HETATM   13  O   UNL     1     -10.323   7.716  68.499  1.00  0.00    -0.196 OA 
BRANCH  13  14
HETATM   14  C   UNL     1     -10.679   6.479  68.917  1.00  0.00    -0.273 C  
HETATM   15  C   UNL     1      -9.821   3.824  70.133  1.00  0.00    -0.118 C  
HETATM   16  C   UNL     1      -9.919   5.411  68.141  1.00  0.00    -0.207 C  
HETATM   17  O   UNL     1     -11.539   6.251  69.756  1.00  0.00    -0.436 OA 
HETATM   18  C   UNL     1      -9.029   4.611  69.096  1.00  0.00    -0.139 C  
HETATM   19  C   UNL     1      -9.085   6.002  66.993  1.00  0.00    -0.117 C  
ENDBRANCH  13  14
ENDBRANCH   2  13
BRANCH   4  20
HETATM   20  C   UNL     1      -9.301   9.570  66.258  1.00  0.00    -0.242 C  
BRANCH  20  21
HETATM   21  C   UNL     1     -10.623  10.262  66.673  1.00  0.00    -0.232 C  
BRANCH  21  22
HETATM   22  C   UNL     1     -11.189  11.469  65.922  1.00  0.00    -0.177 C  
HETATM   23  C   UNL     1     -10.838  11.568  64.449  1.00  0.00    -0.405 C  
HETATM   24  C   UNL     1     -11.744  12.623  63.823  1.00  0.00    -0.491 C  
HETATM   25  O   UNL     1     -13.073  12.115  63.642  1.00  0.00    -0.787 OA 
HETATM   26  C   UNL     1     -11.755  13.919  64.618  1.00  0.00    -0.413 C  
HETATM   27  C   UNL     1     -11.682  13.759  66.126  1.00  0.00    -0.370 C  
HETATM   28  H   UNL     1     -13.637  12.772  63.252  1.00  0.00     0.000 HD 
HETATM   29  O   UNL     1     -12.149  14.587  66.894  1.00  0.00    -0.399 OA 
HETATM   30  O   UNL     1     -10.918  12.716  66.572  1.00  0.00    -0.257 OA 
ENDBRANCH  21  22
ENDBRANCH  20  21
ENDBRANCH   4  20
TORSDOF 5
ENDMDL
MODEL      138
REMARK 921   NORMALIZED FREE ENERGY PREDICTED BY IDOCK:   -4.29 KCAL/MOL
REMARK 922        TOTAL FREE ENERGY PREDICTED BY IDOCK:   -7.12 KCAL/MOL
REMARK 923 INTER-LIGAND FREE ENERGY PREDICTED BY IDOCK:   -6.70 KCAL/MOL
REMARK 924 INTRA-LIGAND FREE ENERGY PREDICTED BY IDOCK:   -0.43 KCAL/MOL
REMARK 927      BINDING AFFINITY PREDICTED BY RF-SCORE:    0.00 PKD
ROOT
HETATM    1  C   UNL     1      -8.662   7.706  68.393  1.00  0.00    -0.127 C  
HETATM    2  C   UNL     1      -7.762   8.677  69.233  1.00  0.00    -0.096 C  
HETATM    3  C   UNL     1      -8.320   9.114  70.597  1.00  0.00    -0.239 C  
HETATM    4  C   UNL     1      -9.213   8.194  66.979  1.00  0.00    -0.187 C  
HETATM    5  C   UNL     1      -8.827   7.957  71.440  1.00  0.00    -0.158 C  
HETATM    6  C   UNL     1      -9.368   5.950  65.641  1.00  0.00     0.048 C  
HETATM    7  C   UNL     1     -10.132   7.076  66.353  1.00  0.00    -0.045 C  
HETATM    8  C   UNL     1      -9.832   7.206  70.626  1.00  0.00    -0.184 C  
HETATM    9  C   UNL     1     -11.080   6.448  67.321  1.00  0.00    -0.416 C  
HETATM   10  C   UNL     1      -9.440   8.497  72.738  1.00  0.00    -0.244 C  
HETATM   11  C   UNL     1      -9.800   7.132  69.281  1.00  0.00    -0.161 C  
HETATM   12  C   UNL     1     -10.920   6.479  68.642  1.00  0.00    -0.363 C  
ENDROOT
BRANCH   2  13
HETATM   13  O   UNL     1      -7.534   9.928  68.582  1.00  0.00    -0.073 OA 
BRANCH  13  14
HETATM   14  C   UNL     1      -8.260  10.990  69.002  1.00  0.00    -0.098 C  
HETATM   15  C   UNL     1      -9.256  13.811  68.450  1.00  0.00    -0.182 C  
HETATM   16  C   UNL     1      -7.380  12.225  69.129  1.00  0.00     0.091 C  
HETATM   17  O   UNL     1      -9.446  10.944  69.301  1.00  0.00    -0.148 OA 
HETATM   18  C   UNL     1      -7.853  13.301  68.147  1.00  0.00    -0.145 C  
HETATM   19  C   UNL     1      -5.891  11.912  68.909  1.00  0.00    -0.052 C  
ENDBRANCH  13  14
ENDBRANCH   2  13
BRANCH   4  20
HETATM   20  C   UNL     1      -8.222   8.691  65.844  1.00  0.00    -0.123 C  
BRANCH  20  21
HETATM   21  C   UNL     1      -9.019   9.145  64.596  1.00  0.00    -0.159 C  
BRANCH  21  22
HETATM   22  C   UNL     1     -10.016  10.306  64.636  1.00  0.00    -0.307 C  
HETATM   23  C   UNL     1      -9.872  11.352  63.547  1.00  0.00    -0.404 C  
HETATM   24  C   UNL     1     -11.127  12.218  63.561  1.00  0.00    -0.464 C  
HETATM   25  O   UNL     1     -12.236  11.522  62.976  1.00  0.00    -0.968 OA 
HETATM   26  C   UNL     1     -11.466  12.717  64.957  1.00  0.00    -0.356 C  
HETATM   27  C   UNL     1     -11.188  11.740  66.084  1.00  0.00    -0.306 C  
HETATM   28  H   UNL     1     -13.018  12.061  62.985  1.00  0.00     0.000 HD 
HETATM   29  O   UNL     1     -11.811  11.761  67.135  1.00  0.00    -0.599 OA 
HETATM   30  O   UNL     1     -10.089  10.943  65.916  1.00  0.00    -0.234 OA 
ENDBRANCH  21  22
ENDBRANCH  20  21
ENDBRANCH   4  20
TORSDOF 5
ENDMDL
MODEL      139
REMARK 921   NORMALIZED FREE ENERGY PREDICTED BY IDOCK:   -4.26 KCAL/MOL
REMARK 922        TOTAL FREE ENERGY PREDICTED BY IDOCK:   -7.09 KCAL/MOL
REMARK 923 INTER-LIGAND FREE ENERGY PREDICTED BY IDOCK:   -6.12 KCAL/MOL
REMARK 924 INTRA-LIGAND FREE ENERGY PREDICTED BY IDOCK:   -0.97 KCAL/MOL
REMARK 927      BINDING AFFINITY PREDICTED BY RF-SCORE:    0.00 PKD
ROOT
HETATM    1  C   UNL     1      -9.946   8.373  69.949  1.00  0.00    -0.190 C  
HETATM    2  C   UNL     1     -10.118   9.885  69.570  1.00  0.00    -0.221 C  
HETATM    3  C   UNL     1     -11.482  10.517  69.892  1.00  0.00    -0.384 C  
HETATM    4  C   UNL     1      -9.679   7.312  68.789  1.00  0.00    -0.151 C  
HETATM    5  C   UNL     1     -11.955  10.240  71.308  1.00  0.00    -0.457 C  
HETATM    6  C   UNL     1      -8.233   5.507  70.012  1.00  0.00    -0.104 C  
HETATM    7  C   UNL     1      -9.597   5.862  69.404  1.00  0.00    -0.171 C  
HETATM    8  C   UNL     1     -11.950   8.760  71.511  1.00  0.00    -0.386 C  
HETATM    9  C   UNL     1     -10.646   5.569  70.425  1.00  0.00    -0.350 C  
HETATM   10  C   UNL     1     -13.355  10.834  71.508  1.00  0.00    -0.324 C  
HETATM   11  C   UNL     1     -11.105   7.921  70.878  1.00  0.00    -0.268 C  
HETATM   12  C   UNL     1     -11.322   6.507  71.085  1.00  0.00    -0.367 C  
ENDROOT
BRANCH   2  13
HETATM   13  O   UNL     1      -9.995  10.125  68.167  1.00  0.00    -0.143 OA 
BRANCH  13  14
HETATM   14  C   UNL     1      -9.163  11.119  67.777  1.00  0.00    -0.153 C  
HETATM   15  C   UNL     1      -8.823  14.050  67.032  1.00  0.00    -0.234 C  
HETATM   16  C   UNL     1      -9.610  11.699  66.442  1.00  0.00    -0.236 C  
HETATM   17  O   UNL     1      -8.156  11.459  68.383  1.00  0.00    -0.131 OA 
HETATM   18  C   UNL     1      -9.996  13.170  66.619  1.00  0.00    -0.270 C  
HETATM   19  C   UNL     1     -10.771  10.908  65.817  1.00  0.00    -0.179 C  
ENDBRANCH  13  14
ENDBRANCH   2  13
BRANCH   4  20
HETATM   20  C   UNL     1      -8.455   7.481  67.795  1.00  0.00    -0.118 C  
BRANCH  20  21
HETATM   21  C   UNL     1      -8.278   6.204  66.937  1.00  0.00    -0.106 C  
BRANCH  21  22
HETATM   22  C   UNL     1      -8.330   6.227  65.408  1.00  0.00    -0.148 C  
HETATM   23  C   UNL     1      -7.866   4.968  64.701  1.00  0.00    -0.093 C  
HETATM   24  C   UNL     1      -8.297   5.065  63.242  1.00  0.00    -0.119 C  
HETATM   25  O   UNL     1      -9.704   4.822  63.106  1.00  0.00    -0.360 OA 
HETATM   26  C   UNL     1      -7.906   6.393  62.612  1.00  0.00    -0.099 C  
HETATM   27  C   UNL     1      -7.999   7.600  63.528  1.00  0.00    -0.091 C  
HETATM   28  H   UNL     1      -9.973   4.882  62.197  1.00  0.00     0.000 HD 
HETATM   29  O   UNL     1      -8.196   8.729  63.103  1.00  0.00    -0.172 OA 
HETATM   30  O   UNL     1      -7.683   7.371  64.839  1.00  0.00    -0.098 OA 
ENDBRANCH  21  22
ENDBRANCH  20  21
ENDBRANCH   4  20
TORSDOF 5
ENDMDL
MODEL      140
REMARK 921   NORMALIZED FREE ENERGY PREDICTED BY IDOCK:   -4.20 KCAL/MOL
REMARK 922        TOTAL FREE ENERGY PREDICTED BY IDOCK:   -7.01 KCAL/MOL
REMARK 923 INTER-LIGAND FREE ENERGY PREDICTED BY IDOCK:   -6.47 KCAL/MOL
REMARK 924 INTRA-LIGAND FREE ENERGY PREDICTED BY IDOCK:   -0.54 KCAL/MOL
REMARK 927      BINDING AFFINITY PREDICTED BY RF-SCORE:    0.00 PKD
ROOT
HETATM    1  C   UNL     1     -10.806   5.920  71.138  1.00  0.00    -0.334 C  
HETATM    2  C   UNL     1     -10.243   5.022  69.981  1.00  0.00    -0.269 C  
HETATM    3  C   UNL     1      -9.287   3.894  70.399  1.00  0.00    -0.231 C  
HETATM    4  C   UNL     1     -10.449   7.475  71.150  1.00  0.00    -0.216 C  
HETATM    5  C   UNL     1      -9.812   3.054  71.550  1.00  0.00    -0.192 C  
HETATM    6  C   UNL     1     -12.560   8.517  72.292  1.00  0.00    -0.438 C  
HETATM    7  C   UNL     1     -11.075   8.152  72.430  1.00  0.00    -0.437 C  
HETATM    8  C   UNL     1     -10.131   3.979  72.680  1.00  0.00    -0.225 C  
HETATM    9  C   UNL     1     -10.910   7.361  73.685  1.00  0.00    -0.118 C  
HETATM   10  C   UNL     1      -8.758   2.014  71.951  1.00  0.00    -0.093 C  
HETATM   11  C   UNL     1     -10.519   5.259  72.513  1.00  0.00    -0.266 C  
HETATM   12  C   UNL     1     -10.659   6.054  73.712  1.00  0.00    -0.265 C  
ENDROOT
BRANCH   2  13
HETATM   13  O   UNL     1      -9.458   5.754  69.039  1.00  0.00    -0.120 OA 
BRANCH  13  14
HETATM   14  C   UNL     1      -9.045   5.098  67.930  1.00  0.00    -0.112 C  
HETATM   15  C   UNL     1      -7.788   5.252  65.163  1.00  0.00    -0.093 C  
HETATM   16  C   UNL     1      -9.790   5.602  66.701  1.00  0.00    -0.191 C  
HETATM   17  O   UNL     1      -8.234   4.182  67.927  1.00  0.00    -0.092 OA 
HETATM   18  C   UNL     1      -8.801   6.242  65.722  1.00  0.00    -0.122 C  
HETATM   19  C   UNL     1     -10.912   6.590  67.058  1.00  0.00    -0.466 C  
ENDBRANCH  13  14
ENDBRANCH   2  13
BRANCH   4  20
HETATM   20  C   UNL     1     -10.784   8.398  69.906  1.00  0.00    -0.227 C  
BRANCH  20  21
HETATM   21  C   UNL     1      -9.562   9.281  69.548  1.00  0.00    -0.178 C  
BRANCH  21  22
HETATM   22  C   UNL     1      -9.680  10.528  68.668  1.00  0.00    -0.173 C  
HETATM   23  C   UNL     1     -10.143  10.302  67.242  1.00  0.00    -0.249 C  
HETATM   24  C   UNL     1     -10.506  11.658  66.647  1.00  0.00    -0.233 C  
HETATM   25  O   UNL     1     -11.763  12.121  67.157  1.00  0.00    -0.465 OA 
HETATM   26  C   UNL     1      -9.412  12.693  66.862  1.00  0.00    -0.229 C  
HETATM   27  C   UNL     1      -8.680  12.601  68.188  1.00  0.00    -0.190 C  
HETATM   28  H   UNL     1     -11.990  12.966  66.788  1.00  0.00     0.000 HD 
HETATM   29  O   UNL     1      -8.157  13.572  68.714  1.00  0.00    -0.093 OA 
HETATM   30  O   UNL     1      -8.497  11.336  68.674  1.00  0.00    -0.151 OA 
ENDBRANCH  21  22
ENDBRANCH  20  21
ENDBRANCH   4  20
TORSDOF 5
ENDMDL
MODEL      141
REMARK 921   NORMALIZED FREE ENERGY PREDICTED BY IDOCK:   -4.19 KCAL/MOL
REMARK 922        TOTAL FREE ENERGY PREDICTED BY IDOCK:   -7.00 KCAL/MOL
REMARK 923 INTER-LIGAND FREE ENERGY PREDICTED BY IDOCK:   -7.90 KCAL/MOL
REMARK 924 INTRA-LIGAND FREE ENERGY PREDICTED BY IDOCK:    0.90 KCAL/MOL
REMARK 927      BINDING AFFINITY PREDICTED BY RF-SCORE:    0.00 PKD
ROOT
HETATM    1  C   UNL     1     -10.822  12.996  66.248  1.00  0.00    -0.295 C  
HETATM    2  C   UNL     1     -10.488  12.382  67.652  1.00  0.00    -0.216 C  
HETATM    3  C   UNL     1     -10.592  10.853  67.769  1.00  0.00    -0.255 C  
HETATM    4  C   UNL     1     -12.062  13.991  66.117  1.00  0.00    -0.471 C  
HETATM    5  C   UNL     1      -9.875  10.113  66.653  1.00  0.00    -0.253 C  
HETATM    6  C   UNL     1     -11.301  15.568  64.173  1.00  0.00    -0.004 C  
HETATM    7  C   UNL     1     -12.232  14.430  64.611  1.00  0.00    -0.479 C  
HETATM    8  C   UNL     1     -10.406  10.623  65.352  1.00  0.00    -0.303 C  
HETATM    9  C   UNL     1     -12.091  13.315  63.628  1.00  0.00    -0.551 C  
HETATM   10  C   UNL     1     -10.106   8.604  66.805  1.00  0.00    -0.366 C  
HETATM   11  C   UNL     1     -10.876  11.875  65.175  1.00  0.00    -0.350 C  
HETATM   12  C   UNL     1     -11.476  12.165  63.893  1.00  0.00    -0.519 C  
ENDROOT
BRANCH   2  13
HETATM   13  O   UNL     1     -11.375  12.827  68.680  1.00  0.00    -0.252 OA 
BRANCH  13  14
HETATM   14  C   UNL     1     -11.432  12.090  69.814  1.00  0.00    -0.210 C  
HETATM   15  C   UNL     1     -13.120  11.019  72.108  1.00  0.00    -0.300 C  
HETATM   16  C   UNL     1     -11.885  12.947  70.988  1.00  0.00     0.431 C  
HETATM   17  O   UNL     1     -11.103  10.914  69.894  1.00  0.00    -0.266 OA 
HETATM   18  C   UNL     1     -13.220  12.424  71.527  1.00  0.00    -0.285 C  
HETATM   19  C   UNL     1     -11.998  14.435  70.620  1.00  0.00    -0.393 C  
ENDBRANCH  13  14
ENDBRANCH   2  13
BRANCH   4  20
HETATM   20  C   UNL     1     -12.158  15.297  67.011  1.00  0.00     0.385 C  
BRANCH  20  21
HETATM   21  C   UNL     1     -10.791  15.594  67.676  1.00  0.00    -0.307 C  
BRANCH  21  22
HETATM   22  C   UNL     1      -9.942  16.810  67.299  1.00  0.00    -0.272 C  
HETATM   23  C   UNL     1      -8.526  16.834  67.843  1.00  0.00    -0.200 C  
HETATM   24  C   UNL     1      -7.760  17.926  67.104  1.00  0.00    -0.210 C  
HETATM   25  O   UNL     1      -7.420  17.504  65.776  1.00  0.00    -0.490 OA 
HETATM   26  C   UNL     1      -8.514  19.247  67.084  1.00  0.00    -0.310 C  
HETATM   27  C   UNL     1     -10.021  19.134  66.950  1.00  0.00    -0.345 C  
HETATM   28  H   UNL     1      -6.943  18.183  65.315  1.00  0.00     0.000 HD 
HETATM   29  O   UNL     1     -10.700  20.018  66.449  1.00  0.00    -0.420 OA 
HETATM   30  O   UNL     1     -10.590  18.057  67.574  1.00  0.00    -0.395 OA 
ENDBRANCH  21  22
ENDBRANCH  20  21
ENDBRANCH   4  20
TORSDOF 5
ENDMDL
MODEL      142
REMARK 921   NORMALIZED FREE ENERGY PREDICTED BY IDOCK:   -4.15 KCAL/MOL
REMARK 922        TOTAL FREE ENERGY PREDICTED BY IDOCK:   -6.94 KCAL/MOL
REMARK 923 INTER-LIGAND FREE ENERGY PREDICTED BY IDOCK:   -5.98 KCAL/MOL
REMARK 924 INTRA-LIGAND FREE ENERGY PREDICTED BY IDOCK:   -0.97 KCAL/MOL
REMARK 927      BINDING AFFINITY PREDICTED BY RF-SCORE:    0.00 PKD
ROOT
HETATM    1  C   UNL     1      -8.970  14.722  68.879  1.00  0.00    -0.167 C  
HETATM    2  C   UNL     1      -7.566  14.113  68.535  1.00  0.00    -0.129 C  
HETATM    3  C   UNL     1      -6.649  14.974  67.653  1.00  0.00    -0.193 C  
HETATM    4  C   UNL     1     -10.283  13.969  68.375  1.00  0.00    -0.239 C  
HETATM    5  C   UNL     1      -6.530  16.411  68.129  1.00  0.00    -0.135 C  
HETATM    6  C   UNL     1     -12.016  14.571  70.240  1.00  0.00    -0.379 C  
HETATM    7  C   UNL     1     -11.560  14.794  68.791  1.00  0.00    -0.347 C  
HETATM    8  C   UNL     1      -7.911  16.972  68.234  1.00  0.00    -0.222 C  
HETATM    9  C   UNL     1     -11.439  16.266  68.569  1.00  0.00    -0.272 C  
HETATM   10  C   UNL     1      -5.668  17.210  67.143  1.00  0.00    -0.187 C  
HETATM   11  C   UNL     1      -9.002  16.230  68.512  1.00  0.00    -0.219 C  
HETATM   12  C   UNL     1     -10.278  16.904  68.444  1.00  0.00    -0.322 C  
ENDROOT
BRANCH   2  13
HETATM   13  O   UNL     1      -7.654  12.898  67.788  1.00  0.00    -0.113 OA 
BRANCH  13  14
HETATM   14  C   UNL     1      -6.503  12.224  67.558  1.00  0.00    -0.137 C  
HETATM   15  C   UNL     1      -5.162   9.640  66.675  1.00  0.00    -0.044 C  
HETATM   16  C   UNL     1      -6.423  10.983  68.435  1.00  0.00    -0.057 C  
HETATM   17  O   UNL     1      -5.621  12.599  66.797  1.00  0.00    -0.256 OA 
HETATM   18  C   UNL     1      -6.401   9.728  67.558  1.00  0.00    -0.064 C  
HETATM   19  C   UNL     1      -7.573  10.908  69.453  1.00  0.00    -0.097 C  
ENDBRANCH  13  14
ENDBRANCH   2  13
BRANCH   4  20
HETATM   20  C   UNL     1     -10.548  12.451  68.751  1.00  0.00    -0.213 C  
BRANCH  20  21
HETATM   21  C   UNL     1     -11.129  11.690  67.534  1.00  0.00    -0.333 C  
BRANCH  21  22
HETATM   22  C   UNL     1     -10.259  10.837  66.607  1.00  0.00    -0.233 C  
HETATM   23  C   UNL     1     -10.232  11.246  65.147  1.00  0.00    -0.344 C  
HETATM   24  C   UNL     1      -9.084  10.503  64.474  1.00  0.00    -0.222 C  
HETATM   25  O   UNL     1      -7.821  11.080  64.831  1.00  0.00    -0.342 OA 
HETATM   26  C   UNL     1      -9.109   9.011  64.772  1.00  0.00    -0.088 C  
HETATM   27  C   UNL     1      -9.560   8.635  66.172  1.00  0.00    -0.235 C  
HETATM   28  H   UNL     1      -7.105  10.617  64.412  1.00  0.00     0.000 HD 
HETATM   29  O   UNL     1      -9.196   7.605  66.720  1.00  0.00    -0.144 OA 
HETATM   30  O   UNL     1     -10.528   9.434  66.715  1.00  0.00    -0.243 OA 
ENDBRANCH  21  22
ENDBRANCH  20  21
ENDBRANCH   4  20
TORSDOF 5
ENDMDL
MODEL      143
REMARK 921   NORMALIZED FREE ENERGY PREDICTED BY IDOCK:   -4.14 KCAL/MOL
REMARK 922        TOTAL FREE ENERGY PREDICTED BY IDOCK:   -6.93 KCAL/MOL
REMARK 923 INTER-LIGAND FREE ENERGY PREDICTED BY IDOCK:   -6.81 KCAL/MOL
REMARK 924 INTRA-LIGAND FREE ENERGY PREDICTED BY IDOCK:   -0.11 KCAL/MOL
REMARK 927      BINDING AFFINITY PREDICTED BY RF-SCORE:    0.00 PKD
ROOT
HETATM    1  C   UNL     1      -9.935  13.636  65.915  1.00  0.00    -0.304 C  
HETATM    2  C   UNL     1      -8.802  14.037  66.924  1.00  0.00    -0.194 C  
HETATM    3  C   UNL     1      -8.114  12.882  67.668  1.00  0.00    -0.167 C  
HETATM    4  C   UNL     1     -11.423  14.142  66.186  1.00  0.00    -0.350 C  
HETATM    5  C   UNL     1      -7.671  11.754  66.752  1.00  0.00    -0.086 C  
HETATM    6  C   UNL     1     -12.382  14.361  63.761  1.00  0.00     0.031 C  
HETATM    7  C   UNL     1     -12.388  13.570  65.077  1.00  0.00    -0.468 C  
HETATM    8  C   UNL     1      -8.864  11.301  65.976  1.00  0.00    -0.189 C  
HETATM    9  C   UNL     1     -12.160  12.131  64.749  1.00  0.00    -0.368 C  
HETATM   10  C   UNL     1      -7.075  10.615  67.590  1.00  0.00    -0.084 C  
HETATM   11  C   UNL     1      -9.893  12.108  65.646  1.00  0.00    -0.256 C  
HETATM   12  C   UNL     1     -11.029  11.480  65.011  1.00  0.00    -0.305 C  
ENDROOT
BRANCH   2  13
HETATM   13  O   UNL     1      -9.275  14.852  67.997  1.00  0.00    -0.179 OA 
BRANCH  13  14
HETATM   14  C   UNL     1      -9.924  14.232  69.010  1.00  0.00    -0.097 C  
HETATM   15  C   UNL     1     -12.525  13.822  70.535  1.00  0.00    -0.409 C  
HETATM   16  C   UNL     1     -10.487  15.252  69.990  1.00  0.00    -0.266 C  
HETATM   17  O   UNL     1      -9.991  13.019  69.151  1.00  0.00     0.147 OA 
HETATM   18  C   UNL     1     -12.016  15.159  70.013  1.00  0.00    -0.374 C  
HETATM   19  C   UNL     1     -10.039  16.687  69.667  1.00  0.00    -0.068 C  
ENDBRANCH  13  14
ENDBRANCH   2  13
BRANCH   4  20
HETATM   20  C   UNL     1     -11.742  15.687  66.349  1.00  0.00     0.445 C  
BRANCH  20  21
HETATM   21  C   UNL     1     -10.702  16.535  65.577  1.00  0.00    -0.267 C  
BRANCH  21  22
HETATM   22  C   UNL     1     -10.009  17.751  66.197  1.00  0.00    -0.276 C  
HETATM   23  C   UNL     1     -10.657  19.097  65.938  1.00  0.00    -0.495 C  
HETATM   24  C   UNL     1     -10.028  20.110  66.889  1.00  0.00    -0.462 C  
HETATM   25  O   UNL     1     -10.527  19.940  68.222  1.00  0.00    -0.426 OA 
HETATM   26  C   UNL     1      -8.508  20.059  66.861  1.00  0.00    -0.385 C  
HETATM   27  C   UNL     1      -7.906  18.676  66.695  1.00  0.00    -0.255 C  
HETATM   28  H   UNL     1     -10.135  20.571  68.815  1.00  0.00     0.000 HD 
HETATM   29  O   UNL     1      -6.796  18.391  67.120  1.00  0.00    -0.191 OA 
HETATM   30  O   UNL     1      -8.611  17.817  65.897  1.00  0.00    -0.516 OA 
ENDBRANCH  21  22
ENDBRANCH  20  21
ENDBRANCH   4  20
TORSDOF 5
ENDMDL
MODEL      144
REMARK 921   NORMALIZED FREE ENERGY PREDICTED BY IDOCK:   -4.11 KCAL/MOL
REMARK 922        TOTAL FREE ENERGY PREDICTED BY IDOCK:   -6.89 KCAL/MOL
REMARK 923 INTER-LIGAND FREE ENERGY PREDICTED BY IDOCK:   -5.53 KCAL/MOL
REMARK 924 INTRA-LIGAND FREE ENERGY PREDICTED BY IDOCK:   -1.36 KCAL/MOL
REMARK 927      BINDING AFFINITY PREDICTED BY RF-SCORE:    0.00 PKD
ROOT
HETATM    1  C   UNL     1      -9.711   6.345  70.297  1.00  0.00    -0.186 C  
HETATM    2  C   UNL     1      -9.197   6.493  68.822  1.00  0.00    -0.131 C  
HETATM    3  C   UNL     1      -8.622   5.225  68.172  1.00  0.00    -0.099 C  
HETATM    4  C   UNL     1      -9.000   7.187  71.450  1.00  0.00    -0.135 C  
HETATM    5  C   UNL     1      -9.515   4.007  68.330  1.00  0.00    -0.211 C  
HETATM    6  C   UNL     1     -10.959   7.573  73.141  1.00  0.00    -0.420 C  
HETATM    7  C   UNL     1      -9.648   6.831  72.843  1.00  0.00    -0.167 C  
HETATM    8  C   UNL     1      -9.786   3.827  69.789  1.00  0.00    -0.193 C  
HETATM    9  C   UNL     1      -9.887   5.372  73.054  1.00  0.00    -0.181 C  
HETATM   10  C   UNL     1      -8.821   2.779  67.728  1.00  0.00    -0.166 C  
HETATM   11  C   UNL     1      -9.823   4.843  70.675  1.00  0.00    -0.289 C  
HETATM   12  C   UNL     1      -9.963   4.483  72.067  1.00  0.00    -0.255 C  
ENDROOT
BRANCH   2  13
HETATM   13  O   UNL     1      -8.115   7.417  68.700  1.00  0.00    -0.121 OA 
BRANCH  13  14
HETATM   14  C   UNL     1      -7.856   7.911  67.467  1.00  0.00    -0.122 C  
HETATM   15  C   UNL     1      -6.791   7.409  64.661  1.00  0.00    -0.047 C  
HETATM   16  C   UNL     1      -6.372   7.797  67.145  1.00  0.00    -0.055 C  
HETATM   17  O   UNL     1      -8.689   8.436  66.741  1.00  0.00    -0.121 OA 
HETATM   18  C   UNL     1      -6.173   6.868  65.944  1.00  0.00    -0.039 C  
HETATM   19  C   UNL     1      -5.546   7.310  68.346  1.00  0.00    -0.022 C  
ENDBRANCH  13  14
ENDBRANCH   2  13
BRANCH   4  20
HETATM   20  C   UNL     1      -8.894   8.766  71.359  1.00  0.00    -0.292 C  
BRANCH  20  21
HETATM   21  C   UNL     1     -10.216   9.364  70.817  1.00  0.00    -0.368 C  
BRANCH  21  22
HETATM   22  C   UNL     1     -10.257  10.310  69.615  1.00  0.00    -0.235 C  
HETATM   23  C   UNL     1     -11.069   9.845  68.422  1.00  0.00    -0.193 C  
HETATM   24  C   UNL     1     -11.257  11.036  67.489  1.00  0.00    -0.302 C  
HETATM   25  O   UNL     1     -12.235  11.946  68.010  1.00  0.00    -0.491 OA 
HETATM   26  C   UNL     1      -9.946  11.750  67.196  1.00  0.00    -0.221 C  
HETATM   27  C   UNL     1      -8.969  11.821  68.355  1.00  0.00    -0.168 C  
HETATM   28  H   UNL     1     -12.352  12.688  67.430  1.00  0.00     0.000 HD 
HETATM   29  O   UNL     1      -8.144  12.716  68.461  1.00  0.00    -0.143 OA 
HETATM   30  O   UNL     1      -8.959  10.733  69.185  1.00  0.00    -0.159 OA 
ENDBRANCH  21  22
ENDBRANCH  20  21
ENDBRANCH   4  20
TORSDOF 5
ENDMDL
MODEL      145
REMARK 921   NORMALIZED FREE ENERGY PREDICTED BY IDOCK:   -4.11 KCAL/MOL
REMARK 922        TOTAL FREE ENERGY PREDICTED BY IDOCK:   -6.89 KCAL/MOL
REMARK 923 INTER-LIGAND FREE ENERGY PREDICTED BY IDOCK:   -6.88 KCAL/MOL
REMARK 924 INTRA-LIGAND FREE ENERGY PREDICTED BY IDOCK:   -0.01 KCAL/MOL
REMARK 927      BINDING AFFINITY PREDICTED BY RF-SCORE:    0.00 PKD
ROOT
HETATM    1  C   UNL     1      -9.838  16.237  67.178  1.00  0.00    -0.243 C  
HETATM    2  C   UNL     1      -8.946  16.960  68.247  1.00  0.00    -0.235 C  
HETATM    3  C   UNL     1      -8.782  18.479  68.083  1.00  0.00    -0.330 C  
HETATM    4  C   UNL     1      -9.172  15.137  66.234  1.00  0.00    -0.336 C  
HETATM    5  C   UNL     1     -10.098  19.207  67.871  1.00  0.00    -0.472 C  
HETATM    6  C   UNL     1     -11.174  13.514  65.781  1.00  0.00    -0.308 C  
HETATM    7  C   UNL     1     -10.245  14.596  65.212  1.00  0.00    -0.421 C  
HETATM    8  C   UNL     1     -10.786  18.578  66.703  1.00  0.00    -0.278 C  
HETATM    9  C   UNL     1     -11.096  15.657  64.598  1.00  0.00    -0.387 C  
HETATM   10  C   UNL     1      -9.828  20.698  67.633  1.00  0.00    -0.425 C  
HETATM   11  C   UNL     1     -10.638  17.283  66.356  1.00  0.00    -0.179 C  
HETATM   12  C   UNL     1     -11.267  16.868  65.123  1.00  0.00     0.157 C  
ENDROOT
BRANCH   2  13
HETATM   13  O   UNL     1      -7.591  16.505  68.241  1.00  0.00    -0.159 OA 
BRANCH  13  14
HETATM   14  C   UNL     1      -6.657  17.328  68.771  1.00  0.00    -0.197 C  
HETATM   15  C   UNL     1      -5.443  20.116  68.882  1.00  0.00    -0.263 C  
HETATM   16  C   UNL     1      -5.757  17.891  67.680  1.00  0.00    -0.145 C  
HETATM   17  O   UNL     1      -6.516  17.537  69.969  1.00  0.00    -0.074 OA 
HETATM   18  C   UNL     1      -5.912  19.413  67.614  1.00  0.00    -0.209 C  
HETATM   19  C   UNL     1      -6.035  17.261  66.306  1.00  0.00    -0.176 C  
ENDBRANCH  13  14
ENDBRANCH   2  13
BRANCH   4  20
HETATM   20  C   UNL     1      -8.419  13.883  66.848  1.00  0.00    -0.092 C  
BRANCH  20  21
HETATM   21  C   UNL     1      -8.707  13.774  68.366  1.00  0.00    -0.162 C  
BRANCH  21  22
HETATM   22  C   UNL     1      -9.764  12.826  68.936  1.00  0.00     0.201 C  
HETATM   23  C   UNL     1      -9.925  11.495  68.226  1.00  0.00    -0.205 C  
HETATM   24  C   UNL     1     -10.763  10.587  69.119  1.00  0.00    -0.231 C  
HETATM   25  O   UNL     1      -9.988  10.094  70.220  1.00  0.00    -0.400 OA 
HETATM   26  C   UNL     1     -12.034  11.268  69.604  1.00  0.00    -0.423 C  
HETATM   27  C   UNL     1     -11.901  12.748  69.913  1.00  0.00    -0.301 C  
HETATM   28  H   UNL     1     -10.509   9.528  70.776  1.00  0.00     0.000 HD 
HETATM   29  O   UNL     1     -12.618  13.312  70.726  1.00  0.00    -0.333 OA 
HETATM   30  O   UNL     1     -11.044  13.445  69.107  1.00  0.00    -0.252 OA 
ENDBRANCH  21  22
ENDBRANCH  20  21
ENDBRANCH   4  20
TORSDOF 5
ENDMDL
MODEL      146
REMARK 921   NORMALIZED FREE ENERGY PREDICTED BY IDOCK:   -4.10 KCAL/MOL
REMARK 922        TOTAL FREE ENERGY PREDICTED BY IDOCK:   -6.88 KCAL/MOL
REMARK 923 INTER-LIGAND FREE ENERGY PREDICTED BY IDOCK:   -5.88 KCAL/MOL
REMARK 924 INTRA-LIGAND FREE ENERGY PREDICTED BY IDOCK:   -1.01 KCAL/MOL
REMARK 927      BINDING AFFINITY PREDICTED BY RF-SCORE:    0.00 PKD
ROOT
HETATM    1  C   UNL     1      -8.320  11.721  68.472  1.00  0.00    -0.131 C  
HETATM    2  C   UNL     1      -9.465  11.403  67.448  1.00  0.00    -0.167 C  
HETATM    3  C   UNL     1      -9.694   9.919  67.121  1.00  0.00    -0.224 C  
HETATM    4  C   UNL     1      -7.069  12.584  67.987  1.00  0.00    -0.103 C  
HETATM    5  C   UNL     1      -9.789   9.037  68.355  1.00  0.00    -0.183 C  
HETATM    6  C   UNL     1      -6.369  13.823  70.183  1.00  0.00    -0.060 C  
HETATM    7  C   UNL     1      -6.032  12.722  69.167  1.00  0.00    -0.086 C  
HETATM    8  C   UNL     1      -8.557   9.259  69.170  1.00  0.00    -0.134 C  
HETATM    9  C   UNL     1      -5.790  11.458  69.923  1.00  0.00    -0.109 C  
HETATM   10  C   UNL     1      -9.930   7.570  67.929  1.00  0.00    -0.203 C  
HETATM   11  C   UNL     1      -7.870  10.419  69.190  1.00  0.00    -0.134 C  
HETATM   12  C   UNL     1      -6.627  10.423  69.926  1.00  0.00    -0.124 C  
ENDROOT
BRANCH   2  13
HETATM   13  O   UNL     1      -9.230  11.967  66.157  1.00  0.00    -0.224 OA 
BRANCH  13  14
HETATM   14  C   UNL     1     -10.265  12.602  65.558  1.00  0.00    -0.281 C  
HETATM   15  C   UNL     1     -12.739  12.402  63.799  1.00  0.00    -0.471 C  
HETATM   16  C   UNL     1     -10.203  12.419  64.048  1.00  0.00    -0.401 C  
HETATM   17  O   UNL     1     -11.095  13.281  66.145  1.00  0.00    -0.282 OA 
HETATM   18  C   UNL     1     -11.436  11.647  63.568  1.00  0.00    -0.427 C  
HETATM   19  C   UNL     1      -8.915  11.713  63.593  1.00  0.00     0.284 C  
ENDBRANCH  13  14
ENDBRANCH   2  13
BRANCH   4  20
HETATM   20  C   UNL     1      -7.269  14.023  67.351  1.00  0.00    -0.117 C  
BRANCH  20  21
HETATM   21  C   UNL     1      -8.573  14.668  67.881  1.00  0.00    -0.165 C  
BRANCH  21  22
HETATM   22  C   UNL     1      -9.007  16.082  67.490  1.00  0.00    -0.194 C  
HETATM   23  C   UNL     1      -8.345  16.672  66.259  1.00  0.00    -0.360 C  
HETATM   24  C   UNL     1      -9.131  17.914  65.854  1.00  0.00     0.171 C  
HETATM   25  O   UNL     1     -10.366  17.555  65.221  1.00  0.00    -0.590 OA 
HETATM   26  C   UNL     1      -9.368  18.854  67.027  1.00  0.00    -0.329 C  
HETATM   27  C   UNL     1      -9.624  18.178  68.361  1.00  0.00    -0.337 C  
HETATM   28  H   UNL     1     -10.856  18.328  64.968  1.00  0.00     0.000 HD 
HETATM   29  O   UNL     1     -10.281  18.706  69.246  1.00  0.00    -0.247 OA 
HETATM   30  O   UNL     1      -8.936  17.015  68.575  1.00  0.00    -0.247 OA 
ENDBRANCH  21  22
ENDBRANCH  20  21
ENDBRANCH   4  20
TORSDOF 5
ENDMDL
MODEL      147
REMARK 921   NORMALIZED FREE ENERGY PREDICTED BY IDOCK:   -4.09 KCAL/MOL
REMARK 922        TOTAL FREE ENERGY PREDICTED BY IDOCK:   -6.87 KCAL/MOL
REMARK 923 INTER-LIGAND FREE ENERGY PREDICTED BY IDOCK:   -6.30 KCAL/MOL
REMARK 924 INTRA-LIGAND FREE ENERGY PREDICTED BY IDOCK:   -0.57 KCAL/MOL
REMARK 927      BINDING AFFINITY PREDICTED BY RF-SCORE:    0.00 PKD
ROOT
HETATM    1  C   UNL     1      -8.538  10.149  68.771  1.00  0.00    -0.133 C  
HETATM    2  C   UNL     1      -9.385   8.867  68.455  1.00  0.00    -0.136 C  
HETATM    3  C   UNL     1      -8.899   7.556  69.091  1.00  0.00    -0.136 C  
HETATM    4  C   UNL     1      -7.813  10.909  67.571  1.00  0.00    -0.114 C  
HETATM    5  C   UNL     1      -8.608   7.679  70.577  1.00  0.00    -0.137 C  
HETATM    6  C   UNL     1      -7.811  13.388  68.408  1.00  0.00    -0.138 C  
HETATM    7  C   UNL     1      -6.983  12.125  68.138  1.00  0.00    -0.082 C  
HETATM    8  C   UNL     1      -7.634   8.797  70.760  1.00  0.00    -0.097 C  
HETATM    9  C   UNL     1      -6.204  11.812  69.373  1.00  0.00    -0.103 C  
HETATM   10  C   UNL     1      -8.049   6.350  71.103  1.00  0.00    -0.117 C  
HETATM   11  C   UNL     1      -7.558   9.865  69.941  1.00  0.00    -0.167 C  
HETATM   12  C   UNL     1      -6.473  10.789  70.181  1.00  0.00    -0.155 C  
ENDROOT
BRANCH   2  13
HETATM   13  O   UNL     1      -9.405   8.542  67.064  1.00  0.00    -0.147 OA 
BRANCH  13  14
HETATM   14  C   UNL     1      -9.904   7.333  66.715  1.00  0.00    -0.212 C  
HETATM   15  C   UNL     1      -9.623   4.305  66.814  1.00  0.00    -0.221 C  
HETATM   16  C   UNL     1      -8.896   6.560  65.876  1.00  0.00    -0.131 C  
HETATM   17  O   UNL     1     -11.032   6.944  66.983  1.00  0.00    -0.379 OA 
HETATM   18  C   UNL     1      -8.475   5.286  66.614  1.00  0.00    -0.107 C  
HETATM   19  C   UNL     1      -7.664   7.404  65.512  1.00  0.00    -0.107 C  
ENDBRANCH  13  14
ENDBRANCH   2  13
BRANCH   4  20
HETATM   20  C   UNL     1      -8.636  11.432  66.320  1.00  0.00    -0.156 C  
BRANCH  20  21
HETATM   21  C   UNL     1     -10.028  11.941  66.768  1.00  0.00    -0.215 C  
BRANCH  21  22
HETATM   22  C   UNL     1     -10.739  13.105  66.074  1.00  0.00    -0.276 C  
HETATM   23  C   UNL     1     -11.790  12.733  65.046  1.00  0.00    -0.423 C  
HETATM   24  C   UNL     1     -12.593  13.988  64.722  1.00  0.00    -0.296 C  
HETATM   25  O   UNL     1     -13.505  14.301  65.784  1.00  0.00    -0.623 OA 
HETATM   26  C   UNL     1     -11.701  15.177  64.398  1.00  0.00    -0.301 C  
HETATM   27  C   UNL     1     -10.417  15.266  65.203  1.00  0.00    -0.411 C  
HETATM   28  H   UNL     1     -14.006  15.082  65.583  1.00  0.00     0.000 HD 
HETATM   29  O   UNL     1      -9.859  16.329  65.427  1.00  0.00    -0.496 OA 
HETATM   30  O   UNL     1      -9.836  14.069  65.521  1.00  0.00    -0.279 OA 
ENDBRANCH  21  22
ENDBRANCH  20  21
ENDBRANCH   4  20
TORSDOF 5
ENDMDL
MODEL      148
REMARK 921   NORMALIZED FREE ENERGY PREDICTED BY IDOCK:   -4.08 KCAL/MOL
REMARK 922        TOTAL FREE ENERGY PREDICTED BY IDOCK:   -6.85 KCAL/MOL
REMARK 923 INTER-LIGAND FREE ENERGY PREDICTED BY IDOCK:   -6.25 KCAL/MOL
REMARK 924 INTRA-LIGAND FREE ENERGY PREDICTED BY IDOCK:   -0.60 KCAL/MOL
REMARK 927      BINDING AFFINITY PREDICTED BY RF-SCORE:    0.00 PKD
ROOT
HETATM    1  C   UNL     1      -7.918  10.282  66.781  1.00  0.00    -0.114 C  
HETATM    2  C   UNL     1      -9.041  10.596  65.732  1.00  0.00    -0.186 C  
HETATM    3  C   UNL     1      -8.758  10.170  64.283  1.00  0.00    -0.218 C  
HETATM    4  C   UNL     1      -7.205  11.494  67.535  1.00  0.00    -0.111 C  
HETATM    5  C   UNL     1      -8.267   8.738  64.161  1.00  0.00    -0.163 C  
HETATM    6  C   UNL     1      -6.595  10.425  69.844  1.00  0.00    -0.124 C  
HETATM    7  C   UNL     1      -6.081  10.936  68.490  1.00  0.00    -0.042 C  
HETATM    8  C   UNL     1      -7.070   8.589  65.043  1.00  0.00    -0.079 C  
HETATM    9  C   UNL     1      -5.237   9.864  67.884  1.00  0.00    -0.035 C  
HETATM   10  C   UNL     1      -7.931   8.433  62.695  1.00  0.00    -0.154 C  
HETATM   11  C   UNL     1      -6.879   9.301  66.172  1.00  0.00    -0.085 C  
HETATM   12  C   UNL     1      -5.607   9.132  66.836  1.00  0.00    -0.040 C  
ENDROOT
BRANCH   2  13
HETATM   13  O   UNL     1      -9.298  11.995  65.594  1.00  0.00    -0.190 OA 
BRANCH  13  14
HETATM   14  C   UNL     1     -10.431  12.358  64.948  1.00  0.00    -0.298 C  
HETATM   15  C   UNL     1     -12.656  14.404  64.601  1.00  0.00    -0.256 C  
HETATM   16  C   UNL     1     -11.582  12.514  65.931  1.00  0.00    -0.454 C  
HETATM   17  O   UNL     1     -10.529  12.479  63.734  1.00  0.00    -0.416 OA 
HETATM   18  C   UNL     1     -12.067  13.967  65.936  1.00  0.00    -0.459 C  
HETATM   19  C   UNL     1     -11.205  12.067  67.353  1.00  0.00    -0.368 C  
ENDBRANCH  13  14
ENDBRANCH   2  13
BRANCH   4  20
HETATM   20  C   UNL     1      -8.052  12.553  68.357  1.00  0.00    -0.136 C  
BRANCH  20  21
HETATM   21  C   UNL     1      -7.525  13.985  68.090  1.00  0.00    -0.131 C  
BRANCH  21  22
HETATM   22  C   UNL     1      -8.455  15.195  67.978  1.00  0.00    -0.148 C  
HETATM   23  C   UNL     1      -7.807  16.504  67.569  1.00  0.00    -0.175 C  
HETATM   24  C   UNL     1      -8.918  17.481  67.198  1.00  0.00    -0.238 C  
HETATM   25  O   UNL     1      -9.472  17.162  65.915  1.00  0.00    -0.496 OA 
HETATM   26  C   UNL     1     -10.003  17.550  68.262  1.00  0.00    -0.330 C  
HETATM   27  C   UNL     1     -10.325  16.237  68.951  1.00  0.00    -0.263 C  
HETATM   28  H   UNL     1     -10.165  17.770  65.683  1.00  0.00     0.000 HD 
HETATM   29  O   UNL     1     -11.423  16.005  69.435  1.00  0.00    -0.333 OA 
HETATM   30  O   UNL     1      -9.264  15.395  69.142  1.00  0.00    -0.209 OA 
ENDBRANCH  21  22
ENDBRANCH  20  21
ENDBRANCH   4  20
TORSDOF 5
ENDMDL
MODEL      149
REMARK 921   NORMALIZED FREE ENERGY PREDICTED BY IDOCK:   -4.07 KCAL/MOL
REMARK 922        TOTAL FREE ENERGY PREDICTED BY IDOCK:   -6.84 KCAL/MOL
REMARK 923 INTER-LIGAND FREE ENERGY PREDICTED BY IDOCK:   -6.97 KCAL/MOL
REMARK 924 INTRA-LIGAND FREE ENERGY PREDICTED BY IDOCK:    0.12 KCAL/MOL
REMARK 927      BINDING AFFINITY PREDICTED BY RF-SCORE:    0.00 PKD
ROOT
HETATM    1  C   UNL     1      -8.363  11.769  68.323  1.00  0.00    -0.159 C  
HETATM    2  C   UNL     1      -9.890  11.584  68.629  1.00  0.00    -0.177 C  
HETATM    3  C   UNL     1     -10.589  10.412  67.922  1.00  0.00    -0.273 C  
HETATM    4  C   UNL     1      -7.876  13.110  67.610  1.00  0.00    -0.169 C  
HETATM    5  C   UNL     1      -9.835   9.100  68.040  1.00  0.00    -0.197 C  
HETATM    6  C   UNL     1      -5.463  13.406  68.577  1.00  0.00    -0.083 C  
HETATM    7  C   UNL     1      -6.321  13.042  67.357  1.00  0.00    -0.096 C  
HETATM    8  C   UNL     1      -8.446   9.324  67.535  1.00  0.00    -0.115 C  
HETATM    9  C   UNL     1      -5.842  11.729  66.833  1.00  0.00    -0.143 C  
HETATM   10  C   UNL     1     -10.561   8.014  67.235  1.00  0.00    -0.360 C  
HETATM   11  C   UNL     1      -7.806  10.509  67.605  1.00  0.00    -0.105 C  
HETATM   12  C   UNL     1      -6.521  10.590  66.950  1.00  0.00    -0.080 C  
ENDROOT
BRANCH   2  13
HETATM   13  O   UNL     1     -10.680  12.702  68.220  1.00  0.00    -0.215 OA 
BRANCH  13  14
HETATM   14  C   UNL     1     -11.389  12.577  67.074  1.00  0.00    -0.328 C  
HETATM   15  C   UNL     1     -11.974  13.627  64.279  1.00  0.00    -0.488 C  
HETATM   16  C   UNL     1     -12.205  13.834  66.808  1.00  0.00    -0.440 C  
HETATM   17  O   UNL     1     -11.418  11.567  66.383  1.00  0.00    -0.375 OA 
HETATM   18  C   UNL     1     -11.734  14.493  65.509  1.00  0.00    -0.343 C  
HETATM   19  C   UNL     1     -12.140  14.834  67.974  1.00  0.00    -0.163 C  
ENDBRANCH  13  14
ENDBRANCH   2  13
BRANCH   4  20
HETATM   20  C   UNL     1      -8.199  14.531  68.237  1.00  0.00    -0.149 C  
BRANCH  20  21
HETATM   21  C   UNL     1      -8.510  15.554  67.117  1.00  0.00    -0.239 C  
BRANCH  21  22
HETATM   22  C   UNL     1      -8.770  17.034  67.407  1.00  0.00    -0.202 C  
HETATM   23  C   UNL     1      -8.134  17.595  68.665  1.00  0.00    -0.269 C  
HETATM   24  C   UNL     1      -8.229  19.115  68.600  1.00  0.00    -0.369 C  
HETATM   25  O   UNL     1      -7.271  19.650  67.678  1.00  0.00    -0.233 OA 
HETATM   26  C   UNL     1      -9.636  19.591  68.268  1.00  0.00    -0.464 C  
HETATM   27  C   UNL     1     -10.400  18.725  67.283  1.00  0.00    -0.416 C  
HETATM   28  H   UNL     1      -7.330  20.597  67.637  1.00  0.00     0.000 HD 
HETATM   29  O   UNL     1     -11.280  19.175  66.564  1.00  0.00    -0.018 OA 
HETATM   30  O   UNL     1     -10.159  17.381  67.368  1.00  0.00    -0.299 OA 
ENDBRANCH  21  22
ENDBRANCH  20  21
ENDBRANCH   4  20
TORSDOF 5
ENDMDL
MODEL      150
REMARK 921   NORMALIZED FREE ENERGY PREDICTED BY IDOCK:   -4.07 KCAL/MOL
REMARK 922        TOTAL FREE ENERGY PREDICTED BY IDOCK:   -6.84 KCAL/MOL
REMARK 923 INTER-LIGAND FREE ENERGY PREDICTED BY IDOCK:   -5.61 KCAL/MOL
REMARK 924 INTRA-LIGAND FREE ENERGY PREDICTED BY IDOCK:   -1.24 KCAL/MOL
REMARK 927      BINDING AFFINITY PREDICTED BY RF-SCORE:    0.00 PKD
ROOT
HETATM    1  C   UNL     1      -9.918  14.671  67.137  1.00  0.00    -0.240 C  
HETATM    2  C   UNL     1      -8.926  15.641  67.868  1.00  0.00    -0.180 C  
HETATM    3  C   UNL     1      -8.761  17.039  67.251  1.00  0.00    -0.212 C  
HETATM    4  C   UNL     1      -9.352  13.319  66.508  1.00  0.00    -0.221 C  
HETATM    5  C   UNL     1     -10.083  17.722  66.943  1.00  0.00    -0.342 C  
HETATM    6  C   UNL     1     -11.404  11.710  66.718  1.00  0.00    -0.354 C  
HETATM    7  C   UNL     1     -10.517  12.543  65.782  1.00  0.00    -0.296 C  
HETATM    8  C   UNL     1     -10.879  16.804  66.072  1.00  0.00    -0.026 C  
HETATM    9  C   UNL     1     -11.408  13.409  64.954  1.00  0.00    -0.345 C  
HETATM   10  C   UNL     1      -9.818  19.067  66.254  1.00  0.00    -0.417 C  
HETATM   11  C   UNL     1     -10.777  15.460  66.111  1.00  0.00    -0.316 C  
HETATM   12  C   UNL     1     -11.518  14.726  65.111  1.00  0.00    -0.371 C  
ENDROOT
BRANCH   2  13
HETATM   13  O   UNL     1      -7.583  15.155  67.886  1.00  0.00    -0.119 OA 
BRANCH  13  14
HETATM   14  C   UNL     1      -6.829  15.452  68.970  1.00  0.00    -0.136 C  
HETATM   15  C   UNL     1      -5.452  17.587  70.645  1.00  0.00    -0.193 C  
HETATM   16  C   UNL     1      -5.535  16.136  68.551  1.00  0.00    -0.102 C  
HETATM   17  O   UNL     1      -7.119  15.152  70.120  1.00  0.00    -0.120 OA 
HETATM   18  C   UNL     1      -5.491  17.556  69.122  1.00  0.00    -0.177 C  
HETATM   19  C   UNL     1      -5.351  16.163  67.025  1.00  0.00     0.144 C  
ENDBRANCH  13  14
ENDBRANCH   2  13
BRANCH   4  20
HETATM   20  C   UNL     1      -8.561  12.273  67.400  1.00  0.00    -0.178 C  
BRANCH  20  21
HETATM   21  C   UNL     1      -7.699  11.348  66.507  1.00  0.00    -0.093 C  
BRANCH  21  22
HETATM   22  C   UNL     1      -8.158   9.949  66.089  1.00  0.00    -0.119 C  
HETATM   23  C   UNL     1      -8.318   8.933  67.204  1.00  0.00    -0.103 C  
HETATM   24  C   UNL     1      -9.080   7.738  66.643  1.00  0.00    -0.161 C  
HETATM   25  O   UNL     1     -10.474   8.043  66.497  1.00  0.00    -0.455 OA 
HETATM   26  C   UNL     1      -8.487   7.238  65.335  1.00  0.00    -0.096 C  
HETATM   27  C   UNL     1      -7.949   8.315  64.410  1.00  0.00    -0.144 C  
HETATM   28  H   UNL     1     -10.949   7.299  66.147  1.00  0.00     0.000 HD 
HETATM   29  O   UNL     1      -7.897   8.170  63.198  1.00  0.00    -0.135 OA 
HETATM   30  O   UNL     1      -7.372   9.390  65.030  1.00  0.00    -0.100 OA 
ENDBRANCH  21  22
ENDBRANCH  20  21
ENDBRANCH   4  20
TORSDOF 5
ENDMDL
MODEL      151
REMARK 921   NORMALIZED FREE ENERGY PREDICTED BY IDOCK:   -4.05 KCAL/MOL
REMARK 922        TOTAL FREE ENERGY PREDICTED BY IDOCK:   -6.81 KCAL/MOL
REMARK 923 INTER-LIGAND FREE ENERGY PREDICTED BY IDOCK:   -7.14 KCAL/MOL
REMARK 924 INTRA-LIGAND FREE ENERGY PREDICTED BY IDOCK:    0.33 KCAL/MOL
REMARK 927      BINDING AFFINITY PREDICTED BY RF-SCORE:    0.00 PKD
ROOT
HETATM    1  C   UNL     1     -11.008  10.710  70.057  1.00  0.00    -0.325 C  
HETATM    2  C   UNL     1     -10.718  11.691  68.868  1.00  0.00    -0.207 C  
HETATM    3  C   UNL     1     -11.729  12.830  68.662  1.00  0.00    -0.360 C  
HETATM    4  C   UNL     1     -11.284   9.172  69.739  1.00  0.00    -0.073 C  
HETATM    5  C   UNL     1     -12.056  13.584  69.939  1.00  0.00    -0.408 C  
HETATM    6  C   UNL     1     -10.364   7.990  71.885  1.00  0.00    -0.284 C  
HETATM    7  C   UNL     1     -11.603   8.402  71.078  1.00  0.00    -0.307 C  
HETATM    8  C   UNL     1     -12.517  12.587  70.953  1.00  0.00    -0.361 C  
HETATM    9  C   UNL     1     -12.529   9.128  71.997  1.00  0.00    -0.452 C  
HETATM   10  C   UNL     1     -13.132  14.639  69.653  1.00  0.00     0.623 C  
HETATM   11  C   UNL     1     -12.104  11.305  70.984  1.00  0.00    -0.335 C  
HETATM   12  C   UNL     1     -12.748  10.440  71.945  1.00  0.00    -0.459 C  
ENDROOT
BRANCH   2  13
HETATM   13  O   UNL     1     -10.727  11.041  67.596  1.00  0.00    -0.205 OA 
BRANCH  13  14
HETATM   14  C   UNL     1     -11.151  11.763  66.532  1.00  0.00    -0.310 C  
HETATM   15  C   UNL     1     -11.767  11.843  63.554  1.00  0.00    -0.550 C  
HETATM   16  C   UNL     1     -10.074  11.819  65.458  1.00  0.00    -0.285 C  
HETATM   17  O   UNL     1     -12.227  12.343  66.473  1.00  0.00    -0.586 OA 
HETATM   18  C   UNL     1     -10.575  11.134  64.184  1.00  0.00    -0.436 C  
HETATM   19  C   UNL     1      -8.749  11.193  65.922  1.00  0.00    -0.167 C  
ENDBRANCH  13  14
ENDBRANCH   2  13
BRANCH   4  20
HETATM   20  C   UNL     1     -10.232   8.306  68.927  1.00  0.00    -0.222 C  
BRANCH  20  21
HETATM   21  C   UNL     1     -10.795   6.888  68.661  1.00  0.00    -0.236 C  
BRANCH  21  22
HETATM   22  C   UNL     1      -9.966   5.620  68.881  1.00  0.00    -0.166 C  
HETATM   23  C   UNL     1      -9.896   4.653  67.715  1.00  0.00    -0.183 C  
HETATM   24  C   UNL     1      -8.785   3.649  68.006  1.00  0.00    -0.105 C  
HETATM   25  O   UNL     1      -7.494   4.242  67.807  1.00  0.00    -0.068 OA 
HETATM   26  C   UNL     1      -8.904   3.046  69.397  1.00  0.00    -0.151 C  
HETATM   27  C   UNL     1      -9.394   3.992  70.478  1.00  0.00    -0.150 C  
HETATM   28  H   UNL     1      -6.802   3.617  67.988  1.00  0.00     0.000 HD 
HETATM   29  O   UNL     1      -9.099   3.847  71.655  1.00  0.00    -0.106 OA 
HETATM   30  O   UNL     1     -10.319   4.916  70.077  1.00  0.00    -0.268 OA 
ENDBRANCH  21  22
ENDBRANCH  20  21
ENDBRANCH   4  20
TORSDOF 5
ENDMDL
MODEL      152
REMARK 921   NORMALIZED FREE ENERGY PREDICTED BY IDOCK:   -4.03 KCAL/MOL
REMARK 922        TOTAL FREE ENERGY PREDICTED BY IDOCK:   -6.79 KCAL/MOL
REMARK 923 INTER-LIGAND FREE ENERGY PREDICTED BY IDOCK:   -5.81 KCAL/MOL
REMARK 924 INTRA-LIGAND FREE ENERGY PREDICTED BY IDOCK:   -0.98 KCAL/MOL
REMARK 927      BINDING AFFINITY PREDICTED BY RF-SCORE:    0.00 PKD
ROOT
HETATM    1  C   UNL     1      -9.099  10.821  65.028  1.00  0.00    -0.226 C  
HETATM    2  C   UNL     1      -8.177   9.709  65.638  1.00  0.00    -0.120 C  
HETATM    3  C   UNL     1      -8.140   8.368  64.888  1.00  0.00    -0.149 C  
HETATM    4  C   UNL     1     -10.332  11.358  65.886  1.00  0.00    -0.299 C  
HETATM    5  C   UNL     1      -7.916   8.519  63.394  1.00  0.00    -0.161 C  
HETATM    6  C   UNL     1     -10.537  13.835  65.070  1.00  0.00    -0.402 C  
HETATM    7  C   UNL     1     -11.138  12.423  65.048  1.00  0.00    -0.344 C  
HETATM    8  C   UNL     1      -8.968   9.440  62.865  1.00  0.00    -0.188 C  
HETATM    9  C   UNL     1     -11.360  12.040  63.621  1.00  0.00    -0.536 C  
HETATM   10  C   UNL     1      -7.980   7.141  62.722  1.00  0.00    -0.107 C  
HETATM   11  C   UNL     1      -9.535  10.424  63.591  1.00  0.00    -0.353 C  
HETATM   12  C   UNL     1     -10.630  11.135  62.973  1.00  0.00    -0.058 C  
ENDROOT
BRANCH   2  13
HETATM   13  O   UNL     1      -8.576   9.313  66.951  1.00  0.00    -0.125 OA 
BRANCH  13  14
HETATM   14  C   UNL     1      -7.609   9.213  67.892  1.00  0.00    -0.085 C  
HETATM   15  C   UNL     1      -6.158   7.470  69.922  1.00  0.00    -0.027 C  
HETATM   16  C   UNL     1      -8.207   8.823  69.237  1.00  0.00    -0.108 C  
HETATM   17  O   UNL     1      -6.427   9.465  67.701  1.00  0.00    -0.061 OA 
HETATM   18  C   UNL     1      -7.661   7.460  69.671  1.00  0.00    -0.107 C  
HETATM   19  C   UNL     1      -9.744   8.806  69.214  1.00  0.00    -0.172 C  
ENDBRANCH  13  14
ENDBRANCH   2  13
BRANCH   4  20
HETATM   20  C   UNL     1     -10.116  11.954  67.339  1.00  0.00    -0.211 C  
BRANCH  20  21
HETATM   21  C   UNL     1      -8.748  12.675  67.426  1.00  0.00    -0.191 C  
BRANCH  21  22
HETATM   22  C   UNL     1      -8.627  14.176  67.698  1.00  0.00    -0.189 C  
HETATM   23  C   UNL     1      -7.267  14.797  67.440  1.00  0.00    -0.202 C  
HETATM   24  C   UNL     1      -7.435  16.313  67.448  1.00  0.00    -0.161 C  
HETATM   25  O   UNL     1      -8.056  16.765  66.237  1.00  0.00    -0.299 OA 
HETATM   26  C   UNL     1      -8.196  16.802  68.671  1.00  0.00    -0.252 C  
HETATM   27  C   UNL     1      -9.318  15.896  69.145  1.00  0.00    -0.252 C  
HETATM   28  H   UNL     1      -8.161  17.709  66.242  1.00  0.00     0.000 HD 
HETATM   29  O   UNL     1     -10.289  16.322  69.752  1.00  0.00    -0.267 OA 
HETATM   30  O   UNL     1      -9.096  14.554  68.997  1.00  0.00    -0.155 OA 
ENDBRANCH  21  22
ENDBRANCH  20  21
ENDBRANCH   4  20
TORSDOF 5
ENDMDL
MODEL      153
REMARK 921   NORMALIZED FREE ENERGY PREDICTED BY IDOCK:   -3.99 KCAL/MOL
REMARK 922        TOTAL FREE ENERGY PREDICTED BY IDOCK:   -6.74 KCAL/MOL
REMARK 923 INTER-LIGAND FREE ENERGY PREDICTED BY IDOCK:   -6.26 KCAL/MOL
REMARK 924 INTRA-LIGAND FREE ENERGY PREDICTED BY IDOCK:   -0.48 KCAL/MOL
REMARK 927      BINDING AFFINITY PREDICTED BY RF-SCORE:    0.00 PKD
ROOT
HETATM    1  C   UNL     1      -7.024  13.548  67.993  1.00  0.00    -0.133 C  
HETATM    2  C   UNL     1      -8.055  14.459  67.241  1.00  0.00    -0.187 C  
HETATM    3  C   UNL     1      -8.108  15.932  67.678  1.00  0.00    -0.160 C  
HETATM    4  C   UNL     1      -7.565  12.317  68.852  1.00  0.00     0.021 C  
HETATM    5  C   UNL     1      -6.740  16.587  67.757  1.00  0.00    -0.158 C  
HETATM    6  C   UNL     1      -5.600  10.600  68.657  1.00  0.00    -0.040 C  
HETATM    7  C   UNL     1      -6.356  11.589  69.556  1.00  0.00    -0.116 C  
HETATM    8  C   UNL     1      -5.887  15.754  68.659  1.00  0.00    -0.101 C  
HETATM    9  C   UNL     1      -5.355  12.514  70.166  1.00  0.00    -0.113 C  
HETATM   10  C   UNL     1      -6.886  18.021  68.281  1.00  0.00    -0.217 C  
HETATM   11  C   UNL     1      -6.037  14.423  68.812  1.00  0.00    -0.088 C  
HETATM   12  C   UNL     1      -5.219  13.792  69.823  1.00  0.00    -0.086 C  
ENDROOT
BRANCH   2  13
HETATM   13  O   UNL     1      -9.408  14.038  67.423  1.00  0.00    -0.205 OA 
BRANCH  13  14
HETATM   14  C   UNL     1     -10.090  14.570  68.464  1.00  0.00    -0.242 C  
HETATM   15  C   UNL     1     -12.166  14.179  70.654  1.00  0.00    -0.432 C  
HETATM   16  C   UNL     1     -11.588  14.534  68.197  1.00  0.00    -0.359 C  
HETATM   17  O   UNL     1      -9.569  15.070  69.451  1.00  0.00    -0.202 OA 
HETATM   18  C   UNL     1     -12.278  13.641  69.232  1.00  0.00    -0.283 C  
HETATM   19  C   UNL     1     -11.920  14.062  66.772  1.00  0.00    -0.473 C  
ENDBRANCH  13  14
ENDBRANCH   2  13
BRANCH   4  20
HETATM   20  C   UNL     1      -8.479  11.202  68.192  1.00  0.00    -0.138 C  
BRANCH  20  21
HETATM   21  C   UNL     1      -9.841  11.121  68.925  1.00  0.00    -0.176 C  
BRANCH  21  22
HETATM   22  C   UNL     1     -10.152  10.041  69.964  1.00  0.00    -0.239 C  
HETATM   23  C   UNL     1     -11.442  10.210  70.743  1.00  0.00    -0.442 C  
HETATM   24  C   UNL     1     -11.728   8.898  71.467  1.00  0.00    -0.324 C  
HETATM   25  O   UNL     1     -12.214   7.905  70.554  1.00  0.00    -0.487 OA 
HETATM   26  C   UNL     1     -10.518   8.390  72.237  1.00  0.00    -0.407 C  
HETATM   27  C   UNL     1      -9.175   8.631  71.573  1.00  0.00    -0.246 C  
HETATM   28  H   UNL     1     -12.392   7.088  71.004  1.00  0.00     0.000 HD 
HETATM   29  O   UNL     1      -8.209   7.911  71.774  1.00  0.00    -0.104 OA 
HETATM   30  O   UNL     1      -9.067   9.797  70.867  1.00  0.00    -0.120 OA 
ENDBRANCH  21  22
ENDBRANCH  20  21
ENDBRANCH   4  20
TORSDOF 5
ENDMDL
MODEL      154
REMARK 921   NORMALIZED FREE ENERGY PREDICTED BY IDOCK:   -3.98 KCAL/MOL
REMARK 922        TOTAL FREE ENERGY PREDICTED BY IDOCK:   -6.72 KCAL/MOL
REMARK 923 INTER-LIGAND FREE ENERGY PREDICTED BY IDOCK:   -5.42 KCAL/MOL
REMARK 924 INTRA-LIGAND FREE ENERGY PREDICTED BY IDOCK:   -1.30 KCAL/MOL
REMARK 927      BINDING AFFINITY PREDICTED BY RF-SCORE:    0.00 PKD
ROOT
HETATM    1  C   UNL     1     -11.598  10.037  68.894  1.00  0.00     0.029 C  
HETATM    2  C   UNL     1     -11.230   8.516  68.999  1.00  0.00     0.400 C  
HETATM    3  C   UNL     1     -10.968   7.975  70.413  1.00  0.00    -0.248 C  
HETATM    4  C   UNL     1     -10.625  11.013  68.091  1.00  0.00    -0.226 C  
HETATM    5  C   UNL     1     -12.044   8.358  71.414  1.00  0.00    -0.337 C  
HETATM    6  C   UNL     1     -12.285  12.811  67.165  1.00  0.00    -0.058 C  
HETATM    7  C   UNL     1     -11.170  12.490  68.171  1.00  0.00    -0.312 C  
HETATM    8  C   UNL     1     -12.182   9.846  71.389  1.00  0.00    -0.499 C  
HETATM    9  C   UNL     1     -11.645  12.896  69.527  1.00  0.00    -0.348 C  
HETATM   10  C   UNL     1     -11.654   7.850  72.808  1.00  0.00    -0.387 C  
HETATM   11  C   UNL     1     -11.937  10.602  70.300  1.00  0.00    -0.425 C  
HETATM   12  C   UNL     1     -11.988  12.034  70.482  1.00  0.00    -0.338 C  
ENDROOT
BRANCH   2  13
HETATM   13  O   UNL     1     -10.018   8.188  68.317  1.00  0.00    -0.174 OA 
BRANCH  13  14
HETATM   14  C   UNL     1      -9.946   6.972  67.728  1.00  0.00    -0.152 C  
HETATM   15  C   UNL     1      -9.597   3.967  68.055  1.00  0.00    -0.189 C  
HETATM   16  C   UNL     1      -8.604   6.314  68.019  1.00  0.00    -0.116 C  
HETATM   17  O   UNL     1     -10.814   6.497  67.007  1.00  0.00    -0.328 OA 
HETATM   18  C   UNL     1      -8.821   5.029  68.824  1.00  0.00    -0.109 C  
HETATM   19  C   UNL     1      -7.636   7.254  68.755  1.00  0.00    -0.104 C  
ENDBRANCH  13  14
ENDBRANCH   2  13
BRANCH   4  20
HETATM   20  C   UNL     1     -10.245  10.723  66.578  1.00  0.00    -0.287 C  
BRANCH  20  21
HETATM   21  C   UNL     1      -8.707  10.749  66.396  1.00  0.00    -0.163 C  
BRANCH  21  22
HETATM   22  C   UNL     1      -7.776  11.469  67.374  1.00  0.00    -0.143 C  
HETATM   23  C   UNL     1      -7.705  10.899  68.777  1.00  0.00    -0.129 C  
HETATM   24  C   UNL     1      -6.508  11.532  69.480  1.00  0.00    -0.124 C  
HETATM   25  O   UNL     1      -5.279  10.965  69.008  1.00  0.00    -0.042 OA 
HETATM   26  C   UNL     1      -6.500  13.048  69.350  1.00  0.00    -0.094 C  
HETATM   27  C   UNL     1      -6.993  13.590  68.021  1.00  0.00    -0.133 C  
HETATM   28  H   UNL     1      -4.533  11.360  69.445  1.00  0.00     0.000 HD 
HETATM   29  O   UNL     1      -6.620  14.665  67.575  1.00  0.00    -0.220 OA 
HETATM   30  O   UNL     1      -8.006  12.882  67.434  1.00  0.00    -0.167 OA 
ENDBRANCH  21  22
ENDBRANCH  20  21
ENDBRANCH   4  20
TORSDOF 5
ENDMDL
MODEL      155
REMARK 921   NORMALIZED FREE ENERGY PREDICTED BY IDOCK:   -3.95 KCAL/MOL
REMARK 922        TOTAL FREE ENERGY PREDICTED BY IDOCK:   -6.69 KCAL/MOL
REMARK 923 INTER-LIGAND FREE ENERGY PREDICTED BY IDOCK:   -6.96 KCAL/MOL
REMARK 924 INTRA-LIGAND FREE ENERGY PREDICTED BY IDOCK:    0.26 KCAL/MOL
REMARK 927      BINDING AFFINITY PREDICTED BY RF-SCORE:    0.00 PKD
ROOT
HETATM    1  C   UNL     1      -7.475  13.872  67.647  1.00  0.00    -0.187 C  
HETATM    2  C   UNL     1      -7.348  15.435  67.611  1.00  0.00    -0.180 C  
HETATM    3  C   UNL     1      -6.823  16.105  68.891  1.00  0.00    -0.152 C  
HETATM    4  C   UNL     1      -8.918  13.211  67.484  1.00  0.00    -0.197 C  
HETATM    5  C   UNL     1      -5.564  15.456  69.438  1.00  0.00    -0.100 C  
HETATM    6  C   UNL     1      -8.356  10.936  66.321  1.00  0.00    -0.164 C  
HETATM    7  C   UNL     1      -8.801  11.644  67.609  1.00  0.00    -0.159 C  
HETATM    8  C   UNL     1      -5.847  14.001  69.631  1.00  0.00    -0.109 C  
HETATM    9  C   UNL     1      -7.914  11.182  68.718  1.00  0.00    -0.144 C  
HETATM   10  C   UNL     1      -5.167  16.134  70.756  1.00  0.00    -0.162 C  
HETATM   11  C   UNL     1      -6.726  13.304  68.883  1.00  0.00    -0.110 C  
HETATM   12  C   UNL     1      -6.980  11.940  69.287  1.00  0.00    -0.046 C  
ENDROOT
BRANCH   2  13
HETATM   13  O   UNL     1      -8.601  16.091  67.415  1.00  0.00    -0.169 OA 
BRANCH  13  14
HETATM   14  C   UNL     1      -8.630  17.436  67.569  1.00  0.00    -0.218 C  
HETATM   15  C   UNL     1     -10.159  19.887  68.523  1.00  0.00    -0.538 C  
HETATM   16  C   UNL     1      -9.802  18.038  66.806  1.00  0.00    -0.335 C  
HETATM   17  O   UNL     1      -7.792  18.081  68.183  1.00  0.00    -0.254 OA 
HETATM   18  C   UNL     1     -10.772  18.703  67.787  1.00  0.00    -0.394 C  
HETATM   19  C   UNL     1     -10.536  17.000  65.942  1.00  0.00    -0.282 C  
ENDBRANCH  13  14
ENDBRANCH   2  13
BRANCH   4  20
HETATM   20  C   UNL     1      -9.820  13.526  66.218  1.00  0.00    -0.306 C  
BRANCH  20  21
HETATM   21  C   UNL     1     -11.313  13.592  66.626  1.00  0.00    -0.344 C  
BRANCH  21  22
HETATM   22  C   UNL     1     -11.762  13.688  68.085  1.00  0.00    -0.357 C  
HETATM   23  C   UNL     1     -11.232  14.871  68.874  1.00  0.00    -0.282 C  
HETATM   24  C   UNL     1     -12.036  14.970  70.166  1.00  0.00    -0.331 C  
HETATM   25  O   UNL     1     -13.342  15.509  69.917  1.00  0.00    -0.439 OA 
HETATM   26  C   UNL     1     -12.123  13.638  70.895  1.00  0.00    -0.330 C  
HETATM   27  C   UNL     1     -12.238  12.414  70.004  1.00  0.00    -0.194 C  
HETATM   28  H   UNL     1     -13.843  15.571  70.721  1.00  0.00     0.000 HD 
HETATM   29  O   UNL     1     -12.781  11.385  70.375  1.00  0.00    -0.197 OA 
HETATM   30  O   UNL     1     -11.552  12.478  68.822  1.00  0.00    -0.275 OA 
ENDBRANCH  21  22
ENDBRANCH  20  21
ENDBRANCH   4  20
TORSDOF 5
ENDMDL
MODEL      156
REMARK 921   NORMALIZED FREE ENERGY PREDICTED BY IDOCK:   -3.93 KCAL/MOL
REMARK 922        TOTAL FREE ENERGY PREDICTED BY IDOCK:   -6.67 KCAL/MOL
REMARK 923 INTER-LIGAND FREE ENERGY PREDICTED BY IDOCK:   -6.85 KCAL/MOL
REMARK 924 INTRA-LIGAND FREE ENERGY PREDICTED BY IDOCK:    0.18 KCAL/MOL
REMARK 927      BINDING AFFINITY PREDICTED BY RF-SCORE:    0.00 PKD
ROOT
HETATM    1  C   UNL     1      -9.236  14.141  67.814  1.00  0.00    -0.193 C  
HETATM    2  C   UNL     1      -8.026  14.744  68.610  1.00  0.00    -0.143 C  
HETATM    3  C   UNL     1      -7.091  15.677  67.824  1.00  0.00    -0.174 C  
HETATM    4  C   UNL     1      -9.323  12.560  67.624  1.00  0.00    -0.189 C  
HETATM    5  C   UNL     1      -7.829  16.747  67.039  1.00  0.00    -0.229 C  
HETATM    6  C   UNL     1     -11.906  12.156  67.530  1.00  0.00    -0.307 C  
HETATM    7  C   UNL     1     -10.585  12.200  66.750  1.00  0.00    -0.256 C  
HETATM    8  C   UNL     1      -8.824  16.062  66.158  1.00  0.00    -0.366 C  
HETATM    9  C   UNL     1     -10.781  13.084  65.562  1.00  0.00    -0.299 C  
HETATM   10  C   UNL     1      -6.824  17.571  66.223  1.00  0.00    -0.323 C  
HETATM   11  C   UNL     1      -9.411  14.888  66.464  1.00  0.00    -0.308 C  
HETATM   12  C   UNL     1     -10.246  14.297  65.444  1.00  0.00    -0.395 C  
ENDROOT
BRANCH   2  13
HETATM   13  O   UNL     1      -7.125  13.746  69.093  1.00  0.00    -0.108 OA 
BRANCH  13  14
HETATM   14  C   UNL     1      -6.181  13.293  68.236  1.00  0.00    -0.099 C  
HETATM   15  C   UNL     1      -5.227  11.064  66.398  1.00  0.00    -0.109 C  
HETATM   16  C   UNL     1      -5.574  11.993  68.745  1.00  0.00    -0.049 C  
HETATM   17  O   UNL     1      -5.821  13.882  67.226  1.00  0.00    -0.319 OA 
HETATM   18  C   UNL     1      -5.875  10.860  67.761  1.00  0.00    -0.043 C  
HETATM   19  C   UNL     1      -6.065  11.628  70.155  1.00  0.00    -0.155 C  
ENDBRANCH  13  14
ENDBRANCH   2  13
BRANCH   4  20
HETATM   20  C   UNL     1      -9.312  11.586  68.875  1.00  0.00    -0.006 C  
BRANCH  20  21
HETATM   21  C   UNL     1      -9.679  10.146  68.438  1.00  0.00    -0.157 C  
BRANCH  21  22
HETATM   22  C   UNL     1     -10.545   9.223  69.298  1.00  0.00    -0.222 C  
HETATM   23  C   UNL     1     -10.798   9.675  70.724  1.00  0.00    -0.400 C  
HETATM   24  C   UNL     1     -11.922   8.816  71.295  1.00  0.00    -0.301 C  
HETATM   25  O   UNL     1     -13.193   9.217  70.766  1.00  0.00    -0.538 OA 
HETATM   26  C   UNL     1     -11.680   7.330  71.075  1.00  0.00    -0.340 C  
HETATM   27  C   UNL     1     -11.021   6.966  69.757  1.00  0.00    -0.270 C  
HETATM   28  H   UNL     1     -13.893   8.682  71.121  1.00  0.00     0.000 HD 
HETATM   29  O   UNL     1     -11.188   5.881  69.221  1.00  0.00    -0.363 OA 
HETATM   30  O   UNL     1     -10.098   7.862  69.291  1.00  0.00    -0.186 OA 
ENDBRANCH  21  22
ENDBRANCH  20  21
ENDBRANCH   4  20
TORSDOF 5
ENDMDL
MODEL      157
REMARK 921   NORMALIZED FREE ENERGY PREDICTED BY IDOCK:   -3.93 KCAL/MOL
REMARK 922        TOTAL FREE ENERGY PREDICTED BY IDOCK:   -6.66 KCAL/MOL
REMARK 923 INTER-LIGAND FREE ENERGY PREDICTED BY IDOCK:   -5.80 KCAL/MOL
REMARK 924 INTRA-LIGAND FREE ENERGY PREDICTED BY IDOCK:   -0.86 KCAL/MOL
REMARK 927      BINDING AFFINITY PREDICTED BY RF-SCORE:    0.00 PKD
ROOT
HETATM    1  C   UNL     1     -10.693  10.575  68.693  1.00  0.00    -0.247 C  
HETATM    2  C   UNL     1     -10.649   9.237  69.510  1.00  0.00    -0.224 C  
HETATM    3  C   UNL     1     -11.312   9.262  70.896  1.00  0.00    -0.373 C  
HETATM    4  C   UNL     1      -9.320  11.297  68.321  1.00  0.00    -0.180 C  
HETATM    5  C   UNL     1     -12.707   9.862  70.885  1.00  0.00    -0.376 C  
HETATM    6  C   UNL     1      -9.909  12.469  66.057  1.00  0.00    -0.266 C  
HETATM    7  C   UNL     1      -9.620  12.643  67.554  1.00  0.00    -0.184 C  
HETATM    8  C   UNL     1     -12.615  11.222  70.271  1.00  0.00    -0.255 C  
HETATM    9  C   UNL     1     -10.727  13.452  68.146  1.00  0.00    -0.267 C  
HETATM   10  C   UNL     1     -13.252   9.924  72.318  1.00  0.00    -0.434 C  
HETATM   11  C   UNL     1     -11.699  11.563  69.344  1.00  0.00    -0.413 C  
HETATM   12  C   UNL     1     -11.661  12.954  68.953  1.00  0.00    -0.360 C  
ENDROOT
BRANCH   2  13
HETATM   13  O   UNL     1      -9.319   8.815  69.816  1.00  0.00    -0.158 OA 
BRANCH  13  14
HETATM   14  C   UNL     1      -9.176   7.790  70.689  1.00  0.00    -0.161 C  
HETATM   15  C   UNL     1      -9.055   6.873  73.588  1.00  0.00    -0.182 C  
HETATM   16  C   UNL     1      -7.966   8.014  71.586  1.00  0.00    -0.129 C  
HETATM   17  O   UNL     1      -9.885   6.793  70.709  1.00  0.00    -0.182 OA 
HETATM   18  C   UNL     1      -8.418   8.145  73.043  1.00  0.00    -0.272 C  
HETATM   19  C   UNL     1      -7.141   9.241  71.164  1.00  0.00    -0.058 C  
ENDBRANCH  13  14
ENDBRANCH   2  13
BRANCH   4  20
HETATM   20  C   UNL     1      -8.186  10.531  67.520  1.00  0.00    -0.114 C  
BRANCH  20  21
HETATM   21  C   UNL     1      -8.805   9.394  66.669  1.00  0.00    -0.151 C  
BRANCH  21  22
HETATM   22  C   UNL     1      -8.255   7.966  66.682  1.00  0.00    -0.119 C  
HETATM   23  C   UNL     1      -6.745   7.828  66.735  1.00  0.00    -0.067 C  
HETATM   24  C   UNL     1      -6.419   6.377  67.070  1.00  0.00    -0.046 C  
HETATM   25  O   UNL     1      -6.659   6.105  68.457  1.00  0.00    -0.053 OA 
HETATM   26  C   UNL     1      -7.170   5.398  66.181  1.00  0.00    -0.077 C  
HETATM   27  C   UNL     1      -8.584   5.807  65.810  1.00  0.00    -0.149 C  
HETATM   28  H   UNL     1      -6.456   5.201  68.666  1.00  0.00     0.000 HD 
HETATM   29  O   UNL     1      -9.452   4.990  65.544  1.00  0.00    -0.160 OA 
HETATM   30  O   UNL     1      -8.782   7.149  65.631  1.00  0.00    -0.143 OA 
ENDBRANCH  21  22
ENDBRANCH  20  21
ENDBRANCH   4  20
TORSDOF 5
ENDMDL
MODEL      158
REMARK 921   NORMALIZED FREE ENERGY PREDICTED BY IDOCK:   -3.91 KCAL/MOL
REMARK 922        TOTAL FREE ENERGY PREDICTED BY IDOCK:   -6.64 KCAL/MOL
REMARK 923 INTER-LIGAND FREE ENERGY PREDICTED BY IDOCK:   -6.22 KCAL/MOL
REMARK 924 INTRA-LIGAND FREE ENERGY PREDICTED BY IDOCK:   -0.42 KCAL/MOL
REMARK 927      BINDING AFFINITY PREDICTED BY RF-SCORE:    0.00 PKD
ROOT
HETATM    1  C   UNL     1      -9.965   9.624  69.853  1.00  0.00    -0.273 C  
HETATM    2  C   UNL     1      -9.217   9.974  68.519  1.00  0.00    -0.141 C  
HETATM    3  C   UNL     1     -10.061  10.640  67.420  1.00  0.00    -0.231 C  
HETATM    4  C   UNL     1     -10.079   8.095  70.295  1.00  0.00    -0.192 C  
HETATM    5  C   UNL     1     -10.884  11.813  67.922  1.00  0.00    -0.255 C  
HETATM    6  C   UNL     1     -10.114   8.276  72.905  1.00  0.00    -0.285 C  
HETATM    7  C   UNL     1     -10.916   7.990  71.627  1.00  0.00    -0.288 C  
HETATM    8  C   UNL     1     -11.716  11.331  69.066  1.00  0.00    -0.410 C  
HETATM    9  C   UNL     1     -12.140   8.844  71.652  1.00  0.00    -0.415 C  
HETATM   10  C   UNL     1     -11.753  12.357  66.780  1.00  0.00    -0.430 C  
HETATM   11  C   UNL     1     -11.346  10.332  69.892  1.00  0.00    -0.354 C  
HETATM   12  C   UNL     1     -12.324   9.900  70.863  1.00  0.00    -0.403 C  
ENDROOT
BRANCH   2  13
HETATM   13  O   UNL     1      -8.702   8.821  67.851  1.00  0.00    -0.135 OA 
BRANCH  13  14
HETATM   14  C   UNL     1      -9.569   8.089  67.114  1.00  0.00    -0.175 C  
HETATM   15  C   UNL     1     -10.670   5.342  66.407  1.00  0.00    -0.284 C  
HETATM   16  C   UNL     1      -8.822   7.089  66.243  1.00  0.00    -0.164 C  
HETATM   17  O   UNL     1     -10.781   8.255  67.103  1.00  0.00    -0.302 OA 
HETATM   18  C   UNL     1      -9.201   5.662  66.650  1.00  0.00    -0.138 C  
HETATM   19  C   UNL     1      -7.298   7.280  66.304  1.00  0.00    -0.079 C  
ENDBRANCH  13  14
ENDBRANCH   2  13
BRANCH   4  20
HETATM   20  C   UNL     1      -8.783   7.198  70.469  1.00  0.00    -0.149 C  
BRANCH  20  21
HETATM   21  C   UNL     1      -9.164   5.696  70.457  1.00  0.00    -0.175 C  
BRANCH  21  22
HETATM   22  C   UNL     1      -9.120   4.827  71.715  1.00  0.00    -0.135 C  
HETATM   23  C   UNL     1     -10.457   4.343  72.244  1.00  0.00    -0.192 C  
HETATM   24  C   UNL     1     -10.186   3.252  73.274  1.00  0.00    -0.147 C  
HETATM   25  O   UNL     1      -9.808   2.026  72.633  1.00  0.00    -0.096 OA 
HETATM   26  C   UNL     1      -9.149   3.675  74.303  1.00  0.00    -0.096 C  
HETATM   27  C   UNL     1      -8.017   4.536  73.772  1.00  0.00    -0.101 C  
HETATM   28  H   UNL     1      -9.639   1.346  73.274  1.00  0.00     0.000 HD 
HETATM   29  O   UNL     1      -6.912   4.555  74.292  1.00  0.00    -0.067 OA 
HETATM   30  O   UNL     1      -8.359   5.412  72.778  1.00  0.00    -0.112 OA 
ENDBRANCH  21  22
ENDBRANCH  20  21
ENDBRANCH   4  20
TORSDOF 5
ENDMDL
MODEL      159
REMARK 921   NORMALIZED FREE ENERGY PREDICTED BY IDOCK:   -3.91 KCAL/MOL
REMARK 922        TOTAL FREE ENERGY PREDICTED BY IDOCK:   -6.64 KCAL/MOL
REMARK 923 INTER-LIGAND FREE ENERGY PREDICTED BY IDOCK:   -6.33 KCAL/MOL
REMARK 924 INTRA-LIGAND FREE ENERGY PREDICTED BY IDOCK:   -0.31 KCAL/MOL
REMARK 927      BINDING AFFINITY PREDICTED BY RF-SCORE:    0.00 PKD
ROOT
HETATM    1  C   UNL     1      -8.939   9.710  69.150  1.00  0.00    -0.154 C  
HETATM    2  C   UNL     1     -10.043   8.607  69.000  1.00  0.00    -0.199 C  
HETATM    3  C   UNL     1      -9.825   7.311  69.796  1.00  0.00    -0.177 C  
HETATM    4  C   UNL     1      -8.103  10.146  67.863  1.00  0.00    -0.109 C  
HETATM    5  C   UNL     1      -9.473   7.552  71.254  1.00  0.00    -0.158 C  
HETATM    6  C   UNL     1      -7.560  12.653  68.380  1.00  0.00    -0.132 C  
HETATM    7  C   UNL     1      -7.022  11.219  68.271  1.00  0.00    -0.071 C  
HETATM    8  C   UNL     1      -8.282   8.454  71.293  1.00  0.00    -0.161 C  
HETATM    9  C   UNL     1      -6.292  10.905  69.535  1.00  0.00    -0.082 C  
HETATM   10  C   UNL     1      -9.190   6.211  71.943  1.00  0.00    -0.150 C  
HETATM   11  C   UNL     1      -8.007   9.373  70.346  1.00  0.00    -0.190 C  
HETATM   12  C   UNL     1      -6.746  10.068  70.466  1.00  0.00    -0.118 C  
ENDROOT
BRANCH   2  13
HETATM   13  O   UNL     1     -10.170   8.125  67.661  1.00  0.00    -0.201 OA 
BRANCH  13  14
HETATM   14  C   UNL     1     -10.457   6.812  67.498  1.00  0.00    -0.239 C  
HETATM   15  C   UNL     1      -9.522   3.924  67.708  1.00  0.00    -0.230 C  
HETATM   16  C   UNL     1      -9.495   6.172  66.507  1.00  0.00    -0.178 C  
HETATM   17  O   UNL     1     -11.400   6.238  68.024  1.00  0.00    -0.260 OA 
HETATM   18  C   UNL     1      -8.673   5.087  67.209  1.00  0.00    -0.103 C  
HETATM   19  C   UNL     1      -8.569   7.201  65.838  1.00  0.00    -0.157 C  
ENDBRANCH  13  14
ENDBRANCH   2  13
BRANCH   4  20
HETATM   20  C   UNL     1      -8.833  10.673  66.557  1.00  0.00    -0.160 C  
BRANCH  20  21
HETATM   21  C   UNL     1     -10.111  11.461  66.937  1.00  0.00    -0.245 C  
BRANCH  21  22
HETATM   22  C   UNL     1     -10.605  12.664  66.129  1.00  0.00    -0.258 C  
HETATM   23  C   UNL     1     -11.074  13.863  66.930  1.00  0.00    -0.309 C  
HETATM   24  C   UNL     1     -11.206  15.043  65.973  1.00  0.00    -0.310 C  
HETATM   25  O   UNL     1      -9.917  15.569  65.628  1.00  0.00    -0.328 OA 
HETATM   26  C   UNL     1     -12.005  14.689  64.729  1.00  0.00    -0.439 C  
HETATM   27  C   UNL     1     -11.796  13.282  64.199  1.00  0.00    -0.443 C  
HETATM   28  H   UNL     1      -9.999  16.303  65.032  1.00  0.00     0.000 HD 
HETATM   29  O   UNL     1     -11.949  12.999  63.020  1.00  0.00    -0.431 OA 
HETATM   30  O   UNL     1     -11.589  12.319  65.148  1.00  0.00    -0.340 OA 
ENDBRANCH  21  22
ENDBRANCH  20  21
ENDBRANCH   4  20
TORSDOF 5
ENDMDL
MODEL      160
REMARK 921   NORMALIZED FREE ENERGY PREDICTED BY IDOCK:   -3.91 KCAL/MOL
REMARK 922        TOTAL FREE ENERGY PREDICTED BY IDOCK:   -6.64 KCAL/MOL
REMARK 923 INTER-LIGAND FREE ENERGY PREDICTED BY IDOCK:   -6.82 KCAL/MOL
REMARK 924 INTRA-LIGAND FREE ENERGY PREDICTED BY IDOCK:    0.18 KCAL/MOL
REMARK 927      BINDING AFFINITY PREDICTED BY RF-SCORE:    0.00 PKD
ROOT
HETATM    1  C   UNL     1      -8.148  16.223  67.521  1.00  0.00    -0.165 C  
HETATM    2  C   UNL     1      -9.574  16.417  66.899  1.00  0.00    -0.244 C  
HETATM    3  C   UNL     1     -10.226  17.793  67.106  1.00  0.00    -0.353 C  
HETATM    4  C   UNL     1      -7.946  15.124  68.659  1.00  0.00    -0.151 C  
HETATM    5  C   UNL     1      -9.307  18.953  66.765  1.00  0.00    -0.343 C  
HETATM    6  C   UNL     1      -5.466  14.382  68.276  1.00  0.00    -0.114 C  
HETATM    7  C   UNL     1      -6.452  15.153  69.165  1.00  0.00    -0.116 C  
HETATM    8  C   UNL     1      -8.052  18.791  67.560  1.00  0.00    -0.273 C  
HETATM    9  C   UNL     1      -5.903  16.525  69.378  1.00  0.00    -0.167 C  
HETATM   10  C   UNL     1     -10.012  20.278  67.084  1.00  0.00    -0.593 C  
HETATM   11  C   UNL     1      -7.559  17.596  67.945  1.00  0.00    -0.210 C  
HETATM   12  C   UNL     1      -6.412  17.622  68.822  1.00  0.00    -0.213 C  
ENDROOT
BRANCH   2  13
HETATM   13  O   UNL     1     -10.549  15.531  67.452  1.00  0.00    -0.279 OA 
BRANCH  13  14
HETATM   14  C   UNL     1     -11.152  15.911  68.603  1.00  0.00    -0.337 C  
HETATM   15  C   UNL     1     -11.482  15.492  71.599  1.00  0.00    -0.496 C  
HETATM   16  C   UNL     1     -11.939  14.754  69.203  1.00  0.00    -0.317 C  
HETATM   17  O   UNL     1     -11.120  17.045  69.061  1.00  0.00    -0.191 OA 
HETATM   18  C   UNL     1     -11.353  14.379  70.566  1.00  0.00    -0.117 C  
HETATM   19  C   UNL     1     -11.979  13.528  68.277  1.00  0.00    -0.377 C  
ENDBRANCH  13  14
ENDBRANCH   2  13
BRANCH   4  20
HETATM   20  C   UNL     1      -8.338  13.608  68.408  1.00  0.00    -0.147 C  
BRANCH  20  21
HETATM   21  C   UNL     1      -8.464  13.330  66.890  1.00  0.00    -0.074 C  
BRANCH  21  22
HETATM   22  C   UNL     1      -8.855  11.958  66.335  1.00  0.00    -0.152 C  
HETATM   23  C   UNL     1      -9.746  11.959  65.108  1.00  0.00    -0.197 C  
HETATM   24  C   UNL     1      -9.747  10.548  64.529  1.00  0.00    -0.314 C  
HETATM   25  O   UNL     1      -8.519  10.276  63.842  1.00  0.00    -0.167 OA 
HETATM   26  C   UNL     1     -10.030   9.492  65.587  1.00  0.00    -0.269 C  
HETATM   27  C   UNL     1      -9.436   9.766  66.956  1.00  0.00    -0.157 C  
HETATM   28  H   UNL     1      -8.519   9.397  63.481  1.00  0.00     0.000 HD 
HETATM   29  O   UNL     1      -9.149   8.869  67.735  1.00  0.00    -0.134 OA 
HETATM   30  O   UNL     1      -9.396  11.081  67.330  1.00  0.00    -0.155 OA 
ENDBRANCH  21  22
ENDBRANCH  20  21
ENDBRANCH   4  20
TORSDOF 5
ENDMDL
MODEL      161
REMARK 921   NORMALIZED FREE ENERGY PREDICTED BY IDOCK:   -3.87 KCAL/MOL
REMARK 922        TOTAL FREE ENERGY PREDICTED BY IDOCK:   -6.58 KCAL/MOL
REMARK 923 INTER-LIGAND FREE ENERGY PREDICTED BY IDOCK:   -5.62 KCAL/MOL
REMARK 924 INTRA-LIGAND FREE ENERGY PREDICTED BY IDOCK:   -0.96 KCAL/MOL
REMARK 927      BINDING AFFINITY PREDICTED BY RF-SCORE:    0.00 PKD
ROOT
HETATM    1  C   UNL     1      -9.719   8.034  66.641  1.00  0.00    -0.313 C  
HETATM    2  C   UNL     1     -10.497   8.641  67.860  1.00  0.00    -0.209 C  
HETATM    3  C   UNL     1     -10.567  10.175  67.928  1.00  0.00    -0.294 C  
HETATM    4  C   UNL     1      -8.411   7.163  66.917  1.00  0.00    -0.118 C  
HETATM    5  C   UNL     1     -10.993  10.817  66.620  1.00  0.00    -0.173 C  
HETATM    6  C   UNL     1      -8.436   5.479  64.914  1.00  0.00    -0.139 C  
HETATM    7  C   UNL     1      -7.775   6.713  65.546  1.00  0.00    -0.097 C  
HETATM    8  C   UNL     1     -10.066  10.335  65.551  1.00  0.00    -0.351 C  
HETATM    9  C   UNL     1      -7.724   7.788  64.510  1.00  0.00    -0.122 C  
HETATM   10  C   UNL     1     -10.951  12.345  66.759  1.00  0.00    -0.305 C  
HETATM   11  C   UNL     1      -9.457   9.133  65.575  1.00  0.00    -0.276 C  
HETATM   12  C   UNL     1      -8.488   8.877  64.534  1.00  0.00    -0.178 C  
ENDROOT
BRANCH   2  13
HETATM   13  O   UNL     1      -9.909   8.306  69.118  1.00  0.00    -0.172 OA 
BRANCH  13  14
HETATM   14  C   UNL     1     -10.672   8.470  70.224  1.00  0.00    -0.230 C  
HETATM   15  C   UNL     1     -11.326   7.577  73.059  1.00  0.00    -0.313 C  
HETATM   16  C   UNL     1     -11.437   7.192  70.542  1.00  0.00    -0.334 C  
HETATM   17  O   UNL     1     -10.781   9.520  70.843  1.00  0.00    -0.285 OA 
HETATM   18  C   UNL     1     -10.991   6.645  71.901  1.00  0.00    -0.277 C  
HETATM   19  C   UNL     1     -11.273   6.122  69.450  1.00  0.00    -0.466 C  
ENDBRANCH  13  14
ENDBRANCH   2  13
BRANCH   4  20
HETATM   20  C   UNL     1      -8.462   5.892  67.863  1.00  0.00    -0.107 C  
BRANCH  20  21
HETATM   21  C   UNL     1      -7.346   5.973  68.933  1.00  0.00    -0.085 C  
BRANCH  21  22
HETATM   22  C   UNL     1      -6.963   7.285  69.622  1.00  0.00    -0.054 C  
HETATM   23  C   UNL     1      -5.582   7.829  69.309  1.00  0.00    -0.026 C  
HETATM   24  C   UNL     1      -5.520   9.267  69.812  1.00  0.00    -0.033 C  
HETATM   25  O   UNL     1      -6.244  10.146  68.941  1.00  0.00    -0.044 OA 
HETATM   26  C   UNL     1      -6.003   9.397  71.248  1.00  0.00    -0.076 C  
HETATM   27  C   UNL     1      -7.161   8.493  71.630  1.00  0.00    -0.097 C  
HETATM   28  H   UNL     1      -6.206  11.042  69.254  1.00  0.00     0.000 HD 
HETATM   29  O   UNL     1      -7.954   8.784  72.513  1.00  0.00    -0.373 OA 
HETATM   30  O   UNL     1      -7.166   7.259  71.039  1.00  0.00    -0.070 OA 
ENDBRANCH  21  22
ENDBRANCH  20  21
ENDBRANCH   4  20
TORSDOF 5
ENDMDL
MODEL      162
REMARK 921   NORMALIZED FREE ENERGY PREDICTED BY IDOCK:   -3.86 KCAL/MOL
REMARK 922        TOTAL FREE ENERGY PREDICTED BY IDOCK:   -6.57 KCAL/MOL
REMARK 923 INTER-LIGAND FREE ENERGY PREDICTED BY IDOCK:   -6.89 KCAL/MOL
REMARK 924 INTRA-LIGAND FREE ENERGY PREDICTED BY IDOCK:    0.32 KCAL/MOL
REMARK 927      BINDING AFFINITY PREDICTED BY RF-SCORE:    0.00 PKD
ROOT
HETATM    1  C   UNL     1      -7.982  18.692  67.119  1.00  0.00    -0.249 C  
HETATM    2  C   UNL     1      -6.764  17.724  66.923  1.00  0.00    -0.179 C  
HETATM    3  C   UNL     1      -6.068  17.774  65.554  1.00  0.00    -0.051 C  
HETATM    4  C   UNL     1      -9.426  18.070  67.390  1.00  0.00    -0.262 C  
HETATM    5  C   UNL     1      -5.738  19.184  65.097  1.00  0.00    -0.251 C  
HETATM    6  C   UNL     1     -10.552  19.910  68.870  1.00  0.00     0.069 C  
HETATM    7  C   UNL     1     -10.491  19.227  67.496  1.00  0.00    -0.564 C  
HETATM    8  C   UNL     1      -7.002  19.980  65.123  1.00  0.00    -0.244 C  
HETATM    9  C   UNL     1     -10.345  20.292  66.460  1.00  0.00    -0.420 C  
HETATM   10  C   UNL     1      -5.127  19.139  63.690  1.00  0.00    -0.279 C  
HETATM   11  C   UNL     1      -8.021  19.740  65.974  1.00  0.00    -0.339 C  
HETATM   12  C   UNL     1      -9.224  20.515  65.777  1.00  0.00     0.252 C  
ENDROOT
BRANCH   2  13
HETATM   13  O   UNL     1      -7.124  16.346  67.032  1.00  0.00    -0.184 OA 
BRANCH  13  14
HETATM   14  C   UNL     1      -6.219  15.509  67.592  1.00  0.00    -0.149 C  
HETATM   15  C   UNL     1      -5.613  13.422  69.722  1.00  0.00    -0.104 C  
HETATM   16  C   UNL     1      -6.010  15.851  69.061  1.00  0.00    -0.116 C  
HETATM   17  O   UNL     1      -5.608  14.641  66.984  1.00  0.00     0.107 OA 
HETATM   18  C   UNL     1      -6.453  14.675  69.935  1.00  0.00    -0.164 C  
HETATM   19  C   UNL     1      -6.743  17.138  69.475  1.00  0.00    -0.143 C  
ENDBRANCH  13  14
ENDBRANCH   2  13
BRANCH   4  20
HETATM   20  C   UNL     1      -9.672  17.079  68.604  1.00  0.00    -0.282 C  
BRANCH  20  21
HETATM   21  C   UNL     1     -10.989  16.292  68.396  1.00  0.00    -0.351 C  
BRANCH  21  22
HETATM   22  C   UNL     1     -11.063  15.023  67.545  1.00  0.00    -0.317 C  
HETATM   23  C   UNL     1     -11.289  15.224  66.058  1.00  0.00    -0.162 C  
HETATM   24  C   UNL     1     -11.005  13.899  65.358  1.00  0.00    -0.316 C  
HETATM   25  O   UNL     1      -9.594  13.653  65.280  1.00  0.00    -0.534 OA 
HETATM   26  C   UNL     1     -11.729  12.734  66.014  1.00  0.00    -0.470 C  
HETATM   27  C   UNL     1     -11.836  12.802  67.527  1.00  0.00    -0.343 C  
HETATM   28  H   UNL     1      -9.417  12.828  64.844  1.00  0.00     0.000 HD 
HETATM   29  O   UNL     1     -11.929  11.801  68.221  1.00  0.00    -0.487 OA 
HETATM   30  O   UNL     1     -11.990  14.056  68.051  1.00  0.00    -0.361 OA 
ENDBRANCH  21  22
ENDBRANCH  20  21
ENDBRANCH   4  20
TORSDOF 5
ENDMDL
MODEL      163
REMARK 921   NORMALIZED FREE ENERGY PREDICTED BY IDOCK:   -3.85 KCAL/MOL
REMARK 922        TOTAL FREE ENERGY PREDICTED BY IDOCK:   -6.56 KCAL/MOL
REMARK 923 INTER-LIGAND FREE ENERGY PREDICTED BY IDOCK:   -5.09 KCAL/MOL
REMARK 924 INTRA-LIGAND FREE ENERGY PREDICTED BY IDOCK:   -1.47 KCAL/MOL
REMARK 927      BINDING AFFINITY PREDICTED BY RF-SCORE:    0.00 PKD
ROOT
HETATM    1  C   UNL     1      -9.505   8.895  65.680  1.00  0.00    -0.230 C  
HETATM    2  C   UNL     1     -10.309   9.050  67.018  1.00  0.00    -0.269 C  
HETATM    3  C   UNL     1     -10.649  10.487  67.445  1.00  0.00    -0.313 C  
HETATM    4  C   UNL     1      -8.048   8.246  65.726  1.00  0.00    -0.109 C  
HETATM    5  C   UNL     1     -11.257  11.319  66.330  1.00  0.00    -0.190 C  
HETATM    6  C   UNL     1      -7.884   7.090  63.384  1.00  0.00    -0.107 C  
HETATM    7  C   UNL     1      -7.421   8.249  64.279  1.00  0.00    -0.107 C  
HETATM    8  C   UNL     1     -10.321  11.277  65.166  1.00  0.00    -0.353 C  
HETATM    9  C   UNL     1      -7.623   9.521  63.525  1.00  0.00    -0.118 C  
HETATM   10  C   UNL     1     -11.482  12.754  66.824  1.00  0.00    -0.399 C  
HETATM   11  C   UNL     1      -9.506  10.237  64.899  1.00  0.00    -0.337 C  
HETATM   12  C   UNL     1      -8.568  10.413  63.814  1.00  0.00    -0.178 C  
ENDROOT
BRANCH   2  13
HETATM   13  O   UNL     1      -9.600   8.554  68.154  1.00  0.00    -0.140 OA 
BRANCH  13  14
HETATM   14  C   UNL     1     -10.335   8.063  69.180  1.00  0.00    -0.220 C  
HETATM   15  C   UNL     1     -12.237   8.624  71.487  1.00  0.00    -0.368 C  
HETATM   16  C   UNL     1      -9.888   8.674  70.500  1.00  0.00    -0.210 C  
HETATM   17  O   UNL     1     -11.193   7.198  69.066  1.00  0.00    -0.076 OA 
HETATM   18  C   UNL     1     -11.036   9.483  71.111  1.00  0.00    -0.438 C  
HETATM   19  C   UNL     1      -8.634   9.550  70.348  1.00  0.00    -0.246 C  
ENDBRANCH  13  14
ENDBRANCH   2  13
BRANCH   4  20
HETATM   20  C   UNL     1      -7.816   6.806  66.347  1.00  0.00    -0.104 C  
BRANCH  20  21
HETATM   21  C   UNL     1      -6.958   6.907  67.632  1.00  0.00    -0.083 C  
BRANCH  21  22
HETATM   22  C   UNL     1      -7.058   5.888  68.770  1.00  0.00    -0.081 C  
HETATM   23  C   UNL     1      -7.167   6.456  70.172  1.00  0.00    -0.084 C  
HETATM   24  C   UNL     1      -7.582   5.323  71.104  1.00  0.00    -0.096 C  
HETATM   25  O   UNL     1      -8.972   5.009  70.944  1.00  0.00    -0.128 OA 
HETATM   26  C   UNL     1      -6.716   4.084  70.927  1.00  0.00    -0.032 C  
HETATM   27  C   UNL     1      -6.279   3.794  69.503  1.00  0.00    -0.028 C  
HETATM   28  H   UNL     1      -9.230   4.304  71.524  1.00  0.00     0.000 HD 
HETATM   29  O   UNL     1      -6.024   2.663  69.116  1.00  0.00    -0.023 OA 
HETATM   30  O   UNL     1      -6.029   4.892  68.727  1.00  0.00    -0.023 OA 
ENDBRANCH  21  22
ENDBRANCH  20  21
ENDBRANCH   4  20
TORSDOF 5
ENDMDL
MODEL      164
REMARK 921   NORMALIZED FREE ENERGY PREDICTED BY IDOCK:   -3.83 KCAL/MOL
REMARK 922        TOTAL FREE ENERGY PREDICTED BY IDOCK:   -6.54 KCAL/MOL
REMARK 923 INTER-LIGAND FREE ENERGY PREDICTED BY IDOCK:   -5.63 KCAL/MOL
REMARK 924 INTRA-LIGAND FREE ENERGY PREDICTED BY IDOCK:   -0.90 KCAL/MOL
REMARK 927      BINDING AFFINITY PREDICTED BY RF-SCORE:    0.00 PKD
ROOT
HETATM    1  C   UNL     1     -10.468   8.758  69.390  1.00  0.00    -0.228 C  
HETATM    2  C   UNL     1      -9.811   8.614  67.974  1.00  0.00    -0.169 C  
HETATM    3  C   UNL     1     -10.371   9.522  66.867  1.00  0.00    -0.307 C  
HETATM    4  C   UNL     1     -11.229   7.505  70.019  1.00  0.00    -0.173 C  
HETATM    5  C   UNL     1     -10.485  10.978  67.282  1.00  0.00    -0.270 C  
HETATM    6  C   UNL     1     -10.860   7.865  72.584  1.00  0.00    -0.428 C  
HETATM    7  C   UNL     1     -11.850   7.906  71.412  1.00  0.00    -0.328 C  
HETATM    8  C   UNL     1     -11.301  11.034  68.533  1.00  0.00    -0.355 C  
HETATM    9  C   UNL     1     -12.521   9.240  71.423  1.00  0.00    -0.418 C  
HETATM   10  C   UNL     1     -11.130  11.787  66.150  1.00  0.00    -0.358 C  
HETATM   11  C   UNL     1     -11.343  10.040  69.444  1.00  0.00    -0.192 C  
HETATM   12  C   UNL     1     -12.285  10.197  70.528  1.00  0.00    -0.352 C  
ENDROOT
BRANCH   2  13
HETATM   13  O   UNL     1      -9.977   7.311  67.412  1.00  0.00    -0.147 OA 
BRANCH  13  14
HETATM   14  C   UNL     1      -8.857   6.636  67.065  1.00  0.00    -0.114 C  
HETATM   15  C   UNL     1      -7.088   5.552  64.839  1.00  0.00    -0.061 C  
HETATM   16  C   UNL     1      -9.208   5.401  66.245  1.00  0.00    -0.157 C  
HETATM   17  O   UNL     1      -7.726   6.941  67.417  1.00  0.00    -0.106 OA 
HETATM   18  C   UNL     1      -8.611   5.526  64.840  1.00  0.00    -0.111 C  
HETATM   19  C   UNL     1     -10.724   5.159  66.167  1.00  0.00    -0.247 C  
ENDBRANCH  13  14
ENDBRANCH   2  13
BRANCH   4  20
HETATM   20  C   UNL     1     -10.491   6.113  70.205  1.00  0.00    -0.288 C  
BRANCH  20  21
HETATM   21  C   UNL     1      -9.014   6.338  70.612  1.00  0.00    -0.144 C  
BRANCH  21  22
HETATM   22  C   UNL     1      -8.390   5.670  71.839  1.00  0.00    -0.120 C  
HETATM   23  C   UNL     1      -6.958   5.193  71.688  1.00  0.00    -0.057 C  
HETATM   24  C   UNL     1      -6.422   4.870  73.079  1.00  0.00    -0.051 C  
HETATM   25  O   UNL     1      -6.121   6.070  73.803  1.00  0.00    -0.060 OA 
HETATM   26  C   UNL     1      -7.368   3.975  73.866  1.00  0.00    -0.067 C  
HETATM   27  C   UNL     1      -8.846   4.239  73.649  1.00  0.00    -0.093 C  
HETATM   28  H   UNL     1      -5.788   5.869  74.670  1.00  0.00     0.000 HD 
HETATM   29  O   UNL     1      -9.687   3.987  74.499  1.00  0.00    -0.111 OA 
HETATM   30  O   UNL     1      -9.197   4.620  72.382  1.00  0.00    -0.124 OA 
ENDBRANCH  21  22
ENDBRANCH  20  21
ENDBRANCH   4  20
TORSDOF 5
ENDMDL
MODEL      165
REMARK 921   NORMALIZED FREE ENERGY PREDICTED BY IDOCK:   -3.82 KCAL/MOL
REMARK 922        TOTAL FREE ENERGY PREDICTED BY IDOCK:   -6.52 KCAL/MOL
REMARK 923 INTER-LIGAND FREE ENERGY PREDICTED BY IDOCK:   -5.60 KCAL/MOL
REMARK 924 INTRA-LIGAND FREE ENERGY PREDICTED BY IDOCK:   -0.93 KCAL/MOL
REMARK 927      BINDING AFFINITY PREDICTED BY RF-SCORE:    0.00 PKD
ROOT
HETATM    1  C   UNL     1      -8.445   8.837  66.742  1.00  0.00    -0.113 C  
HETATM    2  C   UNL     1      -9.154  10.228  66.892  1.00  0.00    -0.143 C  
HETATM    3  C   UNL     1      -8.380  11.307  67.666  1.00  0.00    -0.123 C  
HETATM    4  C   UNL     1      -9.125   7.551  67.395  1.00  0.00    -0.135 C  
HETATM    5  C   UNL     1      -6.940  11.462  67.208  1.00  0.00    -0.115 C  
HETATM    6  C   UNL     1      -8.358   5.640  65.780  1.00  0.00    -0.132 C  
HETATM    7  C   UNL     1      -8.206   6.290  67.163  1.00  0.00    -0.109 C  
HETATM    8  C   UNL     1      -6.287  10.120  67.292  1.00  0.00    -0.066 C  
HETATM    9  C   UNL     1      -6.753   6.539  67.397  1.00  0.00    -0.067 C  
HETATM   10  C   UNL     1      -6.227  12.495  68.091  1.00  0.00    -0.072 C  
HETATM   11  C   UNL     1      -6.949   8.955  67.141  1.00  0.00    -0.075 C  
HETATM   12  C   UNL     1      -6.195   7.747  67.385  1.00  0.00    -0.054 C  
ENDROOT
BRANCH   2  13
HETATM   13  O   UNL     1     -10.381  10.153  67.619  1.00  0.00    -0.190 OA 
BRANCH  13  14
HETATM   14  C   UNL     1     -11.216  11.215  67.542  1.00  0.00    -0.301 C  
HETATM   15  C   UNL     1     -11.769  14.116  68.272  1.00  0.00    -0.383 C  
HETATM   16  C   UNL     1     -11.651  11.658  68.932  1.00  0.00    -0.377 C  
HETATM   17  O   UNL     1     -11.617  11.707  66.496  1.00  0.00    -0.473 OA 
HETATM   18  C   UNL     1     -11.152  13.080  69.202  1.00  0.00    -0.245 C  
HETATM   19  C   UNL     1     -11.167  10.699  70.032  1.00  0.00    -0.382 C  
ENDBRANCH  13  14
ENDBRANCH   2  13
BRANCH   4  20
HETATM   20  C   UNL     1     -10.610   7.137  67.026  1.00  0.00    -0.413 C  
BRANCH  20  21
HETATM   21  C   UNL     1     -11.398   6.763  68.306  1.00  0.00    -0.022 C  
BRANCH  21  22
HETATM   22  C   UNL     1     -10.772   5.964  69.452  1.00  0.00    -0.336 C  
HETATM   23  C   UNL     1     -10.092   6.772  70.541  1.00  0.00    -0.201 C  
HETATM   24  C   UNL     1      -9.835   5.842  71.721  1.00  0.00    -0.163 C  
HETATM   25  O   UNL     1     -11.047   5.581  72.442  1.00  0.00    -0.248 OA 
HETATM   26  C   UNL     1      -9.158   4.547  71.298  1.00  0.00    -0.178 C  
HETATM   27  C   UNL     1      -9.599   3.990  69.957  1.00  0.00    -0.204 C  
HETATM   28  H   UNL     1     -10.887   5.002  73.177  1.00  0.00     0.000 HD 
HETATM   29  O   UNL     1      -9.547   2.798  69.696  1.00  0.00    -0.113 OA 
HETATM   30  O   UNL     1      -9.899   4.922  69.001  1.00  0.00    -0.164 OA 
ENDBRANCH  21  22
ENDBRANCH  20  21
ENDBRANCH   4  20
TORSDOF 5
ENDMDL
MODEL      166
REMARK 921   NORMALIZED FREE ENERGY PREDICTED BY IDOCK:   -3.81 KCAL/MOL
REMARK 922        TOTAL FREE ENERGY PREDICTED BY IDOCK:   -6.51 KCAL/MOL
REMARK 923 INTER-LIGAND FREE ENERGY PREDICTED BY IDOCK:   -6.33 KCAL/MOL
REMARK 924 INTRA-LIGAND FREE ENERGY PREDICTED BY IDOCK:   -0.18 KCAL/MOL
REMARK 927      BINDING AFFINITY PREDICTED BY RF-SCORE:    0.00 PKD
ROOT
HETATM    1  C   UNL     1      -9.754  13.968  65.419  1.00  0.00    -0.109 C  
HETATM    2  C   UNL     1      -9.826  12.403  65.478  1.00  0.00    -0.200 C  
HETATM    3  C   UNL     1     -11.156  11.765  65.046  1.00  0.00    -0.343 C  
HETATM    4  C   UNL     1      -9.524  14.782  66.771  1.00  0.00    -0.271 C  
HETATM    5  C   UNL     1     -11.677  12.297  63.722  1.00  0.00    -0.566 C  
HETATM    6  C   UNL     1      -8.219  16.889  65.934  1.00  0.00     0.013 C  
HETATM    7  C   UNL     1      -9.545  16.329  66.469  1.00  0.00    -0.286 C  
HETATM    8  C   UNL     1     -11.767  13.785  63.832  1.00  0.00    -0.304 C  
HETATM    9  C   UNL     1     -10.634  16.759  65.542  1.00  0.00    -0.243 C  
HETATM   10  C   UNL     1     -13.044  11.669  63.418  1.00  0.00     0.148 C  
HETATM   11  C   UNL     1     -10.960  14.527  64.616  1.00  0.00    -0.351 C  
HETATM   12  C   UNL     1     -11.266  15.936  64.709  1.00  0.00    -0.364 C  
ENDROOT
BRANCH   2  13
HETATM   13  O   UNL     1      -9.655  11.887  66.799  1.00  0.00    -0.195 OA 
BRANCH  13  14
HETATM   14  C   UNL     1      -9.250  10.600  66.917  1.00  0.00    -0.155 C  
HETATM   15  C   UNL     1      -9.927   7.649  66.620  1.00  0.00    -0.284 C  
HETATM   16  C   UNL     1     -10.142   9.846  67.894  1.00  0.00    -0.210 C  
HETATM   17  O   UNL     1      -8.265  10.130  66.365  1.00  0.00    -0.118 OA 
HETATM   18  C   UNL     1     -10.871   8.715  67.162  1.00  0.00    -0.061 C  
HETATM   19  C   UNL     1     -11.148  10.766  68.602  1.00  0.00    -0.312 C  
ENDBRANCH  13  14
ENDBRANCH   2  13
BRANCH   4  20
HETATM   20  C   UNL     1      -8.269  14.490  67.696  1.00  0.00    -0.187 C  
BRANCH  20  21
HETATM   21  C   UNL     1      -8.277  15.431  68.926  1.00  0.00    -0.192 C  
BRANCH  21  22
HETATM   22  C   UNL     1      -7.741  16.863  68.867  1.00  0.00    -0.237 C  
HETATM   23  C   UNL     1      -6.435  17.121  69.595  1.00  0.00    -0.170 C  
HETATM   24  C   UNL     1      -5.913  18.483  69.152  1.00  0.00    -0.237 C  
HETATM   25  O   UNL     1      -5.356  18.413  67.832  1.00  0.00    -0.155 OA 
HETATM   26  C   UNL     1      -6.979  19.565  69.241  1.00  0.00    -0.385 C  
HETATM   27  C   UNL     1      -8.387  19.124  68.887  1.00  0.00    -0.290 C  
HETATM   28  H   UNL     1      -5.031  19.261  67.555  1.00  0.00     0.000 HD 
HETATM   29  O   UNL     1      -9.223  19.898  68.446  1.00  0.00    -0.315 OA 
HETATM   30  O   UNL     1      -8.712  17.845  69.247  1.00  0.00     0.052 OA 
ENDBRANCH  21  22
ENDBRANCH  20  21
ENDBRANCH   4  20
TORSDOF 5
ENDMDL
MODEL      167
REMARK 921   NORMALIZED FREE ENERGY PREDICTED BY IDOCK:   -3.75 KCAL/MOL
REMARK 922        TOTAL FREE ENERGY PREDICTED BY IDOCK:   -6.43 KCAL/MOL
REMARK 923 INTER-LIGAND FREE ENERGY PREDICTED BY IDOCK:   -5.62 KCAL/MOL
REMARK 924 INTRA-LIGAND FREE ENERGY PREDICTED BY IDOCK:   -0.81 KCAL/MOL
REMARK 927      BINDING AFFINITY PREDICTED BY RF-SCORE:    0.00 PKD
ROOT
HETATM    1  C   UNL     1      -9.367   8.120  71.911  1.00  0.00    -0.251 C  
HETATM    2  C   UNL     1      -9.778   8.896  70.613  1.00  0.00    -0.212 C  
HETATM    3  C   UNL     1     -11.286   9.015  70.339  1.00  0.00    -0.275 C  
HETATM    4  C   UNL     1      -8.513   6.779  71.771  1.00  0.00    -0.120 C  
HETATM    5  C   UNL     1     -12.082   9.485  71.545  1.00  0.00    -0.468 C  
HETATM    6  C   UNL     1      -7.110   6.784  73.980  1.00  0.00    -0.089 C  
HETATM    7  C   UNL     1      -8.271   6.153  73.198  1.00  0.00    -0.114 C  
HETATM    8  C   UNL     1     -11.779   8.561  72.680  1.00  0.00    -0.301 C  
HETATM    9  C   UNL     1      -9.475   6.155  74.081  1.00  0.00    -0.173 C  
HETATM   10  C   UNL     1     -13.577   9.490  71.203  1.00  0.00    -0.231 C  
HETATM   11  C   UNL     1     -10.606   7.912  72.824  1.00  0.00    -0.418 C  
HETATM   12  C   UNL     1     -10.525   6.954  73.903  1.00  0.00    -0.352 C  
ENDROOT
BRANCH   2  13
HETATM   13  O   UNL     1      -9.300   8.276  69.418  1.00  0.00    -0.154 OA 
BRANCH  13  14
HETATM   14  C   UNL     1     -10.144   7.441  68.770  1.00  0.00    -0.179 C  
HETATM   15  C   UNL     1     -10.574   5.466  66.495  1.00  0.00    -0.353 C  
HETATM   16  C   UNL     1     -10.307   7.864  67.316  1.00  0.00    -0.377 C  
HETATM   17  O   UNL     1     -10.743   6.513  69.298  1.00  0.00    -0.228 OA 
HETATM   18  C   UNL     1      -9.779   6.762  66.393  1.00  0.00    -0.125 C  
HETATM   19  C   UNL     1      -9.613   9.201  67.012  1.00  0.00    -0.223 C  
ENDBRANCH  13  14
ENDBRANCH   2  13
BRANCH   4  20
HETATM   20  C   UNL     1      -7.126   6.773  71.002  1.00  0.00    -0.072 C  
BRANCH  20  21
HETATM   21  C   UNL     1      -7.077   5.600  69.992  1.00  0.00    -0.067 C  
BRANCH  21  22
HETATM   22  C   UNL     1      -7.976   4.368  70.120  1.00  0.00    -0.059 C  
HETATM   23  C   UNL     1      -7.686   3.443  71.286  1.00  0.00    -0.051 C  
HETATM   24  C   UNL     1      -8.865   2.486  71.429  1.00  0.00    -0.073 C  
HETATM   25  O   UNL     1      -9.992   3.146  72.019  1.00  0.00    -0.165 OA 
HETATM   26  C   UNL     1      -9.240   1.833  70.107  1.00  0.00    -0.170 C  
HETATM   27  C   UNL     1      -9.108   2.719  68.882  1.00  0.00    -0.147 C  
HETATM   28  H   UNL     1     -10.727   2.551  72.108  1.00  0.00     0.000 HD 
HETATM   29  O   UNL     1      -9.784   2.552  67.879  1.00  0.00    -0.106 OA 
HETATM   30  O   UNL     1      -8.069   3.610  68.908  1.00  0.00    -0.061 OA 
ENDBRANCH  21  22
ENDBRANCH  20  21
ENDBRANCH   4  20
TORSDOF 5
ENDMDL
MODEL      168
REMARK 921   NORMALIZED FREE ENERGY PREDICTED BY IDOCK:   -3.73 KCAL/MOL
REMARK 922        TOTAL FREE ENERGY PREDICTED BY IDOCK:   -6.40 KCAL/MOL
REMARK 923 INTER-LIGAND FREE ENERGY PREDICTED BY IDOCK:   -6.28 KCAL/MOL
REMARK 924 INTRA-LIGAND FREE ENERGY PREDICTED BY IDOCK:   -0.12 KCAL/MOL
REMARK 927      BINDING AFFINITY PREDICTED BY RF-SCORE:    0.00 PKD
ROOT
HETATM    1  C   UNL     1      -6.960  15.976  66.853  1.00  0.00    -0.139 C  
HETATM    2  C   UNL     1      -7.628  17.225  66.180  1.00  0.00    -0.282 C  
HETATM    3  C   UNL     1      -7.194  18.600  66.713  1.00  0.00    -0.231 C  
HETATM    4  C   UNL     1      -7.882  14.938  67.639  1.00  0.00    -0.189 C  
HETATM    5  C   UNL     1      -5.687  18.760  66.812  1.00  0.00    -0.165 C  
HETATM    6  C   UNL     1      -6.593  12.687  67.298  1.00  0.00    -0.109 C  
HETATM    7  C   UNL     1      -6.985  13.806  68.272  1.00  0.00    -0.109 C  
HETATM    8  C   UNL     1      -5.162  17.634  67.643  1.00  0.00    -0.136 C  
HETATM    9  C   UNL     1      -5.738  14.305  68.925  1.00  0.00    -0.086 C  
HETATM   10  C   UNL     1      -5.354  20.124  67.432  1.00  0.00    -0.182 C  
HETATM   11  C   UNL     1      -5.743  16.420  67.711  1.00  0.00    -0.151 C  
HETATM   12  C   UNL     1      -5.186  15.488  68.664  1.00  0.00    -0.094 C  
ENDROOT
BRANCH   2  13
HETATM   13  O   UNL     1      -9.045  17.263  66.357  1.00  0.00    -0.256 OA 
BRANCH  13  14
HETATM   14  C   UNL     1      -9.620  18.478  66.517  1.00  0.00    -0.329 C  
HETATM   15  C   UNL     1      -9.886  21.002  68.195  1.00  0.00     0.289 C  
HETATM   16  C   UNL     1     -10.400  18.534  67.823  1.00  0.00    -0.435 C  
HETATM   17  O   UNL     1      -9.572  19.381  65.694  1.00  0.00    -0.328 OA 
HETATM   18  C   UNL     1      -9.785  19.586  68.749  1.00  0.00    -0.513 C  
HETATM   19  C   UNL     1     -10.467  17.169  68.527  1.00  0.00    -0.377 C  
ENDBRANCH  13  14
ENDBRANCH   2  13
BRANCH   4  20
HETATM   20  C   UNL     1      -9.109  14.234  66.923  1.00  0.00    -0.268 C  
BRANCH  20  21
HETATM   21  C   UNL     1      -9.571  13.001  67.739  1.00  0.00    -0.208 C  
BRANCH  21  22
HETATM   22  C   UNL     1     -10.712  13.070  68.757  1.00  0.00    -0.221 C  
HETATM   23  C   UNL     1     -10.695  14.255  69.704  1.00  0.00    -0.034 C  
HETATM   24  C   UNL     1     -12.053  14.320  70.395  1.00  0.00    -0.339 C  
HETATM   25  O   UNL     1     -13.056  14.832  69.508  1.00  0.00    -0.269 OA 
HETATM   26  C   UNL     1     -12.469  12.977  70.977  1.00  0.00    -0.385 C  
HETATM   27  C   UNL     1     -12.076  11.762  70.156  1.00  0.00    -0.317 C  
HETATM   28  H   UNL     1     -13.902  14.872  69.938  1.00  0.00     0.000 HD 
HETATM   29  O   UNL     1     -12.706  10.716  70.196  1.00  0.00    -0.308 OA 
HETATM   30  O   UNL     1     -10.880  11.856  69.498  1.00  0.00    -0.109 OA 
ENDBRANCH  21  22
ENDBRANCH  20  21
ENDBRANCH   4  20
TORSDOF 5
ENDMDL
MODEL      169
REMARK 921   NORMALIZED FREE ENERGY PREDICTED BY IDOCK:   -3.72 KCAL/MOL
REMARK 922        TOTAL FREE ENERGY PREDICTED BY IDOCK:   -6.39 KCAL/MOL
REMARK 923 INTER-LIGAND FREE ENERGY PREDICTED BY IDOCK:   -4.80 KCAL/MOL
REMARK 924 INTRA-LIGAND FREE ENERGY PREDICTED BY IDOCK:   -1.60 KCAL/MOL
REMARK 927      BINDING AFFINITY PREDICTED BY RF-SCORE:    0.00 PKD
ROOT
HETATM    1  C   UNL     1      -7.751  10.199  66.410  1.00  0.00    -0.111 C  
HETATM    2  C   UNL     1      -8.455  10.694  67.721  1.00  0.00    -0.116 C  
HETATM    3  C   UNL     1      -7.573  11.458  68.721  1.00  0.00    -0.132 C  
HETATM    4  C   UNL     1      -7.667   8.632  66.124  1.00  0.00    -0.097 C  
HETATM    5  C   UNL     1      -6.752  12.563  68.078  1.00  0.00    -0.090 C  
HETATM    6  C   UNL     1      -7.708   8.544  63.509  1.00  0.00    -0.142 C  
HETATM    7  C   UNL     1      -6.871   8.380  64.786  1.00  0.00    -0.072 C  
HETATM    8  C   UNL     1      -5.959  11.955  66.966  1.00  0.00    -0.153 C  
HETATM    9  C   UNL     1      -5.639   9.210  64.638  1.00  0.00    -0.062 C  
HETATM   10  C   UNL     1      -5.843  13.208  69.133  1.00  0.00    -0.080 C  
HETATM   11  C   UNL     1      -6.365  10.881  66.259  1.00  0.00    -0.132 C  
HETATM   12  C   UNL     1      -5.420  10.339  65.309  1.00  0.00    -0.093 C  
ENDROOT
BRANCH   2  13
HETATM   13  O   UNL     1      -8.963   9.623  68.519  1.00  0.00    -0.123 OA 
BRANCH  13  14
HETATM   14  C   UNL     1     -10.299   9.586  68.731  1.00  0.00    -0.208 C  
HETATM   15  C   UNL     1     -12.720  10.782  70.133  1.00  0.00    -0.232 C  
HETATM   16  C   UNL     1     -10.601   9.368  70.208  1.00  0.00    -0.297 C  
HETATM   17  O   UNL     1     -11.144   9.651  67.849  1.00  0.00    -0.205 OA 
HETATM   18  C   UNL     1     -11.350  10.581  70.767  1.00  0.00    -0.295 C  
HETATM   19  C   UNL     1      -9.334   9.090  71.032  1.00  0.00    -0.339 C  
ENDBRANCH  13  14
ENDBRANCH   2  13
BRANCH   4  20
HETATM   20  C   UNL     1      -8.976   7.739  66.080  1.00  0.00    -0.185 C  
BRANCH  20  21
HETATM   21  C   UNL     1      -8.617   6.248  66.290  1.00  0.00    -0.138 C  
BRANCH  21  22
HETATM   22  C   UNL     1      -9.092   5.451  67.507  1.00  0.00    -0.107 C  
HETATM   23  C   UNL     1      -8.865   6.096  68.861  1.00  0.00    -0.122 C  
HETATM   24  C   UNL     1      -9.684   5.323  69.890  1.00  0.00    -0.193 C  
HETATM   25  O   UNL     1     -11.076   5.647  69.784  1.00  0.00    -0.328 OA 
HETATM   26  C   UNL     1      -9.461   3.822  69.795  1.00  0.00    -0.256 C  
HETATM   27  C   UNL     1      -9.274   3.279  68.389  1.00  0.00    -0.178 C  
HETATM   28  H   UNL     1     -11.587   5.166  70.425  1.00  0.00     0.000 HD 
HETATM   29  O   UNL     1      -9.562   2.130  68.089  1.00  0.00    -0.212 OA 
HETATM   30  O   UNL     1      -8.609   4.103  67.523  1.00  0.00    -0.098 OA 
ENDBRANCH  21  22
ENDBRANCH  20  21
ENDBRANCH   4  20
TORSDOF 5
ENDMDL
MODEL      170
REMARK 921   NORMALIZED FREE ENERGY PREDICTED BY IDOCK:   -3.72 KCAL/MOL
REMARK 922        TOTAL FREE ENERGY PREDICTED BY IDOCK:   -6.39 KCAL/MOL
REMARK 923 INTER-LIGAND FREE ENERGY PREDICTED BY IDOCK:   -4.85 KCAL/MOL
REMARK 924 INTRA-LIGAND FREE ENERGY PREDICTED BY IDOCK:   -1.54 KCAL/MOL
REMARK 927      BINDING AFFINITY PREDICTED BY RF-SCORE:    0.00 PKD
ROOT
HETATM    1  C   UNL     1     -10.119   9.410  67.150  1.00  0.00    -0.292 C  
HETATM    2  C   UNL     1     -10.760   8.713  68.400  1.00  0.00    -0.046 C  
HETATM    3  C   UNL     1     -11.114   9.628  69.584  1.00  0.00    -0.223 C  
HETATM    4  C   UNL     1      -8.639   9.005  66.716  1.00  0.00    -0.129 C  
HETATM    5  C   UNL     1     -11.893  10.867  69.176  1.00  0.00    -0.389 C  
HETATM    6  C   UNL     1      -8.707   9.360  64.124  1.00  0.00    -0.224 C  
HETATM    7  C   UNL     1      -8.194   9.874  65.477  1.00  0.00    -0.136 C  
HETATM    8  C   UNL     1     -11.105  11.575  68.122  1.00  0.00    -0.303 C  
HETATM    9  C   UNL     1      -8.547  11.321  65.583  1.00  0.00    -0.023 C  
HETATM   10  C   UNL     1     -12.124  11.757  70.404  1.00  0.00    -0.440 C  
HETATM   11  C   UNL     1     -10.280  10.951  67.258  1.00  0.00    -0.242 C  
HETATM   12  C   UNL     1      -9.491  11.797  66.392  1.00  0.00    -0.234 C  
ENDROOT
BRANCH   2  13
HETATM   13  O   UNL     1      -9.895   7.752  69.007  1.00  0.00    -0.163 OA 
BRANCH  13  14
HETATM   14  C   UNL     1     -10.466   6.810  69.793  1.00  0.00    -0.210 C  
HETATM   15  C   UNL     1     -11.827   6.133  72.429  1.00  0.00    -0.287 C  
HETATM   16  C   UNL     1      -9.717   6.686  71.112  1.00  0.00    -0.184 C  
HETATM   17  O   UNL     1     -11.414   6.110  69.461  1.00  0.00    -0.429 OA 
HETATM   18  C   UNL     1     -10.640   7.074  72.271  1.00  0.00    -0.242 C  
HETATM   19  C   UNL     1      -8.433   7.531  71.140  1.00  0.00    -0.117 C  
ENDBRANCH  13  14
ENDBRANCH   2  13
BRANCH   4  20
HETATM   20  C   UNL     1      -8.265   7.496  66.404  1.00  0.00    -0.122 C  
BRANCH  20  21
HETATM   21  C   UNL     1      -6.997   7.084  67.191  1.00  0.00    -0.078 C  
BRANCH  21  22
HETATM   22  C   UNL     1      -6.873   5.733  67.900  1.00  0.00    -0.060 C  
HETATM   23  C   UNL     1      -5.855   5.653  69.021  1.00  0.00    -0.016 C  
HETATM   24  C   UNL     1      -6.113   4.366  69.797  1.00  0.00    -0.022 C  
HETATM   25  O   UNL     1      -7.270   4.494  70.633  1.00  0.00    -0.046 OA 
HETATM   26  C   UNL     1      -6.227   3.155  68.883  1.00  0.00    -0.029 C  
HETATM   27  C   UNL     1      -6.913   3.407  67.552  1.00  0.00    -0.050 C  
HETATM   28  H   UNL     1      -7.431   3.693  71.116  1.00  0.00     0.000 HD 
HETATM   29  O   UNL     1      -7.502   2.526  66.944  1.00  0.00    -0.067 OA 
HETATM   30  O   UNL     1      -6.688   4.637  66.996  1.00  0.00    -0.049 OA 
ENDBRANCH  21  22
ENDBRANCH  20  21
ENDBRANCH   4  20
TORSDOF 5
ENDMDL
MODEL      171
REMARK 921   NORMALIZED FREE ENERGY PREDICTED BY IDOCK:   -3.68 KCAL/MOL
REMARK 922        TOTAL FREE ENERGY PREDICTED BY IDOCK:   -6.34 KCAL/MOL
REMARK 923 INTER-LIGAND FREE ENERGY PREDICTED BY IDOCK:   -5.29 KCAL/MOL
REMARK 924 INTRA-LIGAND FREE ENERGY PREDICTED BY IDOCK:   -1.05 KCAL/MOL
REMARK 927      BINDING AFFINITY PREDICTED BY RF-SCORE:    0.00 PKD
ROOT
HETATM    1  C   UNL     1      -9.182   6.161  68.630  1.00  0.00    -0.123 C  
HETATM    2  C   UNL     1      -9.454   6.681  67.176  1.00  0.00    -0.136 C  
HETATM    3  C   UNL     1      -9.313   5.649  66.046  1.00  0.00    -0.150 C  
HETATM    4  C   UNL     1      -7.970   6.785  69.459  1.00  0.00    -0.125 C  
HETATM    5  C   UNL     1     -10.051   4.350  66.320  1.00  0.00    -0.249 C  
HETATM    6  C   UNL     1      -8.833   6.603  71.922  1.00  0.00    -0.132 C  
HETATM    7  C   UNL     1      -7.862   6.070  70.860  1.00  0.00    -0.107 C  
HETATM    8  C   UNL     1      -9.576   3.824  67.636  1.00  0.00    -0.199 C  
HETATM    9  C   UNL     1      -8.012   4.585  70.804  1.00  0.00    -0.068 C  
HETATM   10  C   UNL     1      -9.782   3.355  65.183  1.00  0.00    -0.093 C  
HETATM   11  C   UNL     1      -9.141   4.609  68.643  1.00  0.00    -0.156 C  
HETATM   12  C   UNL     1      -8.591   3.935  69.797  1.00  0.00    -0.104 C  
ENDROOT
BRANCH   2  13
HETATM   13  O   UNL     1      -8.543   7.704  66.770  1.00  0.00    -0.122 OA 
BRANCH  13  14
HETATM   14  C   UNL     1      -9.063   8.791  66.155  1.00  0.00    -0.202 C  
HETATM   15  C   UNL     1      -9.460  10.344  63.569  1.00  0.00    -0.356 C  
HETATM   16  C   UNL     1      -7.962   9.611  65.496  1.00  0.00    -0.115 C  
HETATM   17  O   UNL     1     -10.245   9.105  66.182  1.00  0.00    -0.272 OA 
HETATM   18  C   UNL     1      -8.174   9.638  63.979  1.00  0.00    -0.159 C  
HETATM   19  C   UNL     1      -6.557   9.088  65.835  1.00  0.00    -0.064 C  
ENDBRANCH  13  14
ENDBRANCH   2  13
BRANCH   4  20
HETATM   20  C   UNL     1      -7.873   8.348  69.709  1.00  0.00    -0.099 C  
BRANCH  20  21
HETATM   21  C   UNL     1      -9.232   8.898  70.206  1.00  0.00    -0.207 C  
BRANCH  21  22
HETATM   22  C   UNL     1      -9.803  10.234  69.723  1.00  0.00    -0.161 C  
HETATM   23  C   UNL     1     -11.282  10.249  69.386  1.00  0.00    -0.292 C  
HETATM   24  C   UNL     1     -11.717  11.704  69.251  1.00  0.00    -0.331 C  
HETATM   25  O   UNL     1     -11.835  12.325  70.538  1.00  0.00    -0.509 OA 
HETATM   26  C   UNL     1     -10.794  12.499  68.340  1.00  0.00    -0.266 C  
HETATM   27  C   UNL     1      -9.322  12.136  68.427  1.00  0.00    -0.170 C  
HETATM   28  H   UNL     1     -12.105  13.231  70.455  1.00  0.00     0.000 HD 
HETATM   29  O   UNL     1      -8.436  12.936  68.170  1.00  0.00    -0.164 OA 
HETATM   30  O   UNL     1      -9.053  10.813  68.650  1.00  0.00    -0.158 OA 
ENDBRANCH  21  22
ENDBRANCH  20  21
ENDBRANCH   4  20
TORSDOF 5
ENDMDL
MODEL      172
REMARK 921   NORMALIZED FREE ENERGY PREDICTED BY IDOCK:   -3.67 KCAL/MOL
REMARK 922        TOTAL FREE ENERGY PREDICTED BY IDOCK:   -6.33 KCAL/MOL
REMARK 923 INTER-LIGAND FREE ENERGY PREDICTED BY IDOCK:   -6.70 KCAL/MOL
REMARK 924 INTRA-LIGAND FREE ENERGY PREDICTED BY IDOCK:    0.38 KCAL/MOL
REMARK 927      BINDING AFFINITY PREDICTED BY RF-SCORE:    0.00 PKD
ROOT
HETATM    1  C   UNL     1     -11.331  10.973  69.972  1.00  0.00    -0.358 C  
HETATM    2  C   UNL     1     -10.970  11.956  68.804  1.00  0.00    -0.235 C  
HETATM    3  C   UNL     1     -11.854  13.206  68.669  1.00  0.00    -0.363 C  
HETATM    4  C   UNL     1     -11.786   9.486  69.616  1.00  0.00     0.199 C  
HETATM    5  C   UNL     1     -12.054  13.947  69.980  1.00  0.00    -0.411 C  
HETATM    6  C   UNL     1     -10.936   8.136  71.690  1.00  0.00    -0.306 C  
HETATM    7  C   UNL     1     -12.147   8.710  70.941  1.00  0.00    -0.173 C  
HETATM    8  C   UNL     1     -12.592  12.973  70.978  1.00  0.00    -0.386 C  
HETATM    9  C   UNL     1     -12.957   9.502  71.913  1.00  0.00    -0.514 C  
HETATM   10  C   UNL     1     -13.015  15.124  69.764  1.00  0.00     0.177 C  
HETATM   11  C   UNL     1     -12.323  11.652  70.954  1.00  0.00    -0.436 C  
HETATM   12  C   UNL     1     -13.030  10.831  71.910  1.00  0.00    -0.524 C  
ENDROOT
BRANCH   2  13
HETATM   13  O   UNL     1     -11.091  11.356  67.514  1.00  0.00    -0.244 OA 
BRANCH  13  14
HETATM   14  C   UNL     1     -11.410  12.167  66.478  1.00  0.00    -0.350 C  
HETATM   15  C   UNL     1     -11.897  12.459  63.489  1.00  0.00    -0.605 C  
HETATM   16  C   UNL     1     -10.290  12.186  65.447  1.00  0.00    -0.301 C  
HETATM   17  O   UNL     1     -12.429  12.841  66.413  1.00  0.00    -0.443 OA 
HETATM   18  C   UNL     1     -10.797  11.615  64.120  1.00  0.00    -0.433 C  
HETATM   19  C   UNL     1      -9.042  11.423  65.921  1.00  0.00    -0.209 C  
ENDBRANCH  13  14
ENDBRANCH   2  13
BRANCH   4  20
HETATM   20  C   UNL     1     -10.863   8.538  68.741  1.00  0.00     0.004 C  
BRANCH  20  21
HETATM   21  C   UNL     1      -9.372   8.768  69.091  1.00  0.00    -0.149 C  
BRANCH  21  22
HETATM   22  C   UNL     1      -8.246   7.932  68.478  1.00  0.00    -0.127 C  
HETATM   23  C   UNL     1      -7.185   8.695  67.708  1.00  0.00    -0.088 C  
HETATM   24  C   UNL     1      -6.011   7.753  67.470  1.00  0.00    -0.045 C  
HETATM   25  O   UNL     1      -5.247   7.573  68.670  1.00  0.00    -0.020 OA 
HETATM   26  C   UNL     1      -6.452   6.415  66.895  1.00  0.00    -0.046 C  
HETATM   27  C   UNL     1      -7.775   5.886  67.419  1.00  0.00    -0.097 C  
HETATM   28  H   UNL     1      -4.515   6.986  68.523  1.00  0.00     0.000 HD 
HETATM   29  O   UNL     1      -8.032   4.692  67.455  1.00  0.00    -0.099 OA 
HETATM   30  O   UNL     1      -8.723   6.834  67.692  1.00  0.00    -0.120 OA 
ENDBRANCH  21  22
ENDBRANCH  20  21
ENDBRANCH   4  20
TORSDOF 5
ENDMDL
MODEL      173
REMARK 921   NORMALIZED FREE ENERGY PREDICTED BY IDOCK:   -3.66 KCAL/MOL
REMARK 922        TOTAL FREE ENERGY PREDICTED BY IDOCK:   -6.32 KCAL/MOL
REMARK 923 INTER-LIGAND FREE ENERGY PREDICTED BY IDOCK:   -4.65 KCAL/MOL
REMARK 924 INTRA-LIGAND FREE ENERGY PREDICTED BY IDOCK:   -1.66 KCAL/MOL
REMARK 927      BINDING AFFINITY PREDICTED BY RF-SCORE:    0.00 PKD
ROOT
HETATM    1  C   UNL     1      -9.117   9.001  67.111  1.00  0.00    -0.158 C  
HETATM    2  C   UNL     1      -8.413   7.681  66.642  1.00  0.00    -0.130 C  
HETATM    3  C   UNL     1      -8.059   7.591  65.149  1.00  0.00    -0.130 C  
HETATM    4  C   UNL     1     -10.594   8.917  67.710  1.00  0.00    -0.266 C  
HETATM    5  C   UNL     1      -7.340   8.822  64.625  1.00  0.00    -0.098 C  
HETATM    6  C   UNL     1     -10.618  10.909  69.405  1.00  0.00    -0.233 C  
HETATM    7  C   UNL     1     -11.109  10.366  68.056  1.00  0.00    -0.359 C  
HETATM    8  C   UNL     1      -8.187  10.013  64.941  1.00  0.00    -0.154 C  
HETATM    9  C   UNL     1     -10.809  11.390  67.011  1.00  0.00    -0.331 C  
HETATM   10  C   UNL     1      -7.107   8.678  63.116  1.00  0.00    -0.090 C  
HETATM   11  C   UNL     1      -9.013  10.084  66.003  1.00  0.00    -0.174 C  
HETATM   12  C   UNL     1      -9.860  11.252  66.088  1.00  0.00    -0.262 C  
ENDROOT
BRANCH   2  13
HETATM   13  O   UNL     1      -9.222   6.519  66.834  1.00  0.00    -0.131 OA 
BRANCH  13  14
HETATM   14  C   UNL     1      -8.584   5.348  67.068  1.00  0.00    -0.109 C  
HETATM   15  C   UNL     1      -7.165   2.913  65.922  1.00  0.00    -0.066 C  
HETATM   16  C   UNL     1      -9.316   4.195  66.396  1.00  0.00    -0.178 C  
HETATM   17  O   UNL     1      -7.593   5.228  67.776  1.00  0.00    -0.085 OA 
HETATM   18  C   UNL     1      -8.414   3.557  65.335  1.00  0.00    -0.107 C  
HETATM   19  C   UNL     1     -10.653   4.629  65.777  1.00  0.00    -0.264 C  
ENDBRANCH  13  14
ENDBRANCH   2  13
BRANCH   4  20
HETATM   20  C   UNL     1     -10.919   7.983  68.949  1.00  0.00     0.114 C  
BRANCH  20  21
HETATM   21  C   UNL     1      -9.655   7.788  69.822  1.00  0.00    -0.167 C  
BRANCH  21  22
HETATM   22  C   UNL     1      -9.396   6.508  70.619  1.00  0.00    -0.162 C  
HETATM   23  C   UNL     1     -10.269   5.316  70.277  1.00  0.00    -0.345 C  
HETATM   24  C   UNL     1      -9.650   4.081  70.924  1.00  0.00    -0.183 C  
HETATM   25  O   UNL     1      -8.490   3.651  70.200  1.00  0.00    -0.058 OA 
HETATM   26  C   UNL     1      -9.329   4.302  72.395  1.00  0.00    -0.158 C  
HETATM   27  C   UNL     1      -8.837   5.692  72.753  1.00  0.00    -0.122 C  
HETATM   28  H   UNL     1      -8.104   2.882  70.603  1.00  0.00     0.000 HD 
HETATM   29  O   UNL     1      -8.109   5.900  73.712  1.00  0.00    -0.106 OA 
HETATM   30  O   UNL     1      -9.392   6.717  72.036  1.00  0.00    -0.144 OA 
ENDBRANCH  21  22
ENDBRANCH  20  21
ENDBRANCH   4  20
TORSDOF 5
ENDMDL
MODEL      174
REMARK 921   NORMALIZED FREE ENERGY PREDICTED BY IDOCK:   -3.65 KCAL/MOL
REMARK 922        TOTAL FREE ENERGY PREDICTED BY IDOCK:   -6.30 KCAL/MOL
REMARK 923 INTER-LIGAND FREE ENERGY PREDICTED BY IDOCK:   -4.54 KCAL/MOL
REMARK 924 INTRA-LIGAND FREE ENERGY PREDICTED BY IDOCK:   -1.76 KCAL/MOL
REMARK 927      BINDING AFFINITY PREDICTED BY RF-SCORE:    0.00 PKD
ROOT
HETATM    1  C   UNL     1      -9.310   8.624  71.916  1.00  0.00    -0.357 C  
HETATM    2  C   UNL     1      -9.093   9.657  70.755  1.00  0.00     0.036 C  
HETATM    3  C   UNL     1     -10.338  10.030  69.934  1.00  0.00    -0.315 C  
HETATM    4  C   UNL     1      -8.555   7.220  71.850  1.00  0.00    -0.123 C  
HETATM    5  C   UNL     1     -11.537  10.398  70.791  1.00  0.00    -0.450 C  
HETATM    6  C   UNL     1      -8.210   6.659  74.382  1.00  0.00    -0.146 C  
HETATM    7  C   UNL     1      -8.971   6.337  73.088  1.00  0.00    -0.130 C  
HETATM    8  C   UNL     1     -11.792   9.264  71.730  1.00  0.00    -0.454 C  
HETATM    9  C   UNL     1     -10.432   6.360  73.395  1.00  0.00    -0.283 C  
HETATM   10  C   UNL     1     -12.749  10.669  69.889  1.00  0.00    -0.081 C  
HETATM   11  C   UNL     1     -10.827   8.443  72.192  1.00  0.00    -0.407 C  
HETATM   12  C   UNL     1     -11.261   7.316  72.985  1.00  0.00    -0.309 C  
ENDROOT
BRANCH   2  13
HETATM   13  O   UNL     1      -8.195   9.185  69.750  1.00  0.00    -0.110 OA 
BRANCH  13  14
HETATM   14  C   UNL     1      -7.106   9.943  69.483  1.00  0.00    -0.082 C  
HETATM   15  C   UNL     1      -5.773  11.989  67.668  1.00  0.00    -0.091 C  
HETATM   16  C   UNL     1      -6.535   9.599  68.115  1.00  0.00    -0.057 C  
HETATM   17  O   UNL     1      -6.612  10.747  70.263  1.00  0.00    -0.175 OA 
HETATM   18  C   UNL     1      -6.625  10.819  67.194  1.00  0.00    -0.079 C  
HETATM   19  C   UNL     1      -7.233   8.388  67.475  1.00  0.00    -0.088 C  
ENDBRANCH  13  14
ENDBRANCH   2  13
BRANCH   4  20
HETATM   20  C   UNL     1      -6.977   7.148  71.717  1.00  0.00    -0.064 C  
BRANCH  20  21
HETATM   21  C   UNL     1      -6.573   6.051  70.701  1.00  0.00    -0.048 C  
BRANCH  21  22
HETATM   22  C   UNL     1      -7.561   5.001  70.190  1.00  0.00    -0.060 C  
HETATM   23  C   UNL     1      -7.688   3.737  71.020  1.00  0.00    -0.048 C  
HETATM   24  C   UNL     1      -8.927   2.987  70.544  1.00  0.00    -0.102 C  
HETATM   25  O   UNL     1     -10.123   3.618  71.021  1.00  0.00    -0.097 OA 
HETATM   26  C   UNL     1      -8.958   2.825  69.032  1.00  0.00    -0.172 C  
HETATM   27  C   UNL     1      -8.414   4.000  68.240  1.00  0.00    -0.093 C  
HETATM   28  H   UNL     1     -10.895   3.151  70.725  1.00  0.00     0.000 HD 
HETATM   29  O   UNL     1      -8.786   4.251  67.104  1.00  0.00    -0.104 OA 
HETATM   30  O   UNL     1      -7.362   4.661  68.813  1.00  0.00    -0.059 OA 
ENDBRANCH  21  22
ENDBRANCH  20  21
ENDBRANCH   4  20
TORSDOF 5
ENDMDL
MODEL      175
REMARK 921   NORMALIZED FREE ENERGY PREDICTED BY IDOCK:   -3.59 KCAL/MOL
REMARK 922        TOTAL FREE ENERGY PREDICTED BY IDOCK:   -6.22 KCAL/MOL
REMARK 923 INTER-LIGAND FREE ENERGY PREDICTED BY IDOCK:   -6.15 KCAL/MOL
REMARK 924 INTRA-LIGAND FREE ENERGY PREDICTED BY IDOCK:   -0.08 KCAL/MOL
REMARK 927      BINDING AFFINITY PREDICTED BY RF-SCORE:    0.00 PKD
ROOT
HETATM    1  C   UNL     1      -8.662  10.054  66.993  1.00  0.00    -0.137 C  
HETATM    2  C   UNL     1      -8.254   9.800  68.486  1.00  0.00    -0.106 C  
HETATM    3  C   UNL     1      -7.548   8.468  68.782  1.00  0.00    -0.097 C  
HETATM    4  C   UNL     1     -10.208  10.211  66.632  1.00  0.00    -0.287 C  
HETATM    5  C   UNL     1      -6.401   8.169  67.832  1.00  0.00    -0.052 C  
HETATM    6  C   UNL     1     -10.134  11.834  64.581  1.00  0.00    -0.310 C  
HETATM    7  C   UNL     1     -10.373  10.400  65.075  1.00  0.00    -0.249 C  
HETATM    8  C   UNL     1      -6.934   8.235  66.438  1.00  0.00    -0.067 C  
HETATM    9  C   UNL     1      -9.527   9.484  64.253  1.00  0.00     0.035 C  
HETATM   10  C   UNL     1      -5.816   6.787  68.150  1.00  0.00    -0.020 C  
HETATM   11  C   UNL     1      -7.964   9.022  66.066  1.00  0.00    -0.103 C  
HETATM   12  C   UNL     1      -8.440   8.866  64.711  1.00  0.00    -0.193 C  
ENDROOT
BRANCH   2  13
HETATM   13  O   UNL     1      -9.375   9.754  69.370  1.00  0.00    -0.176 OA 
BRANCH  13  14
HETATM   14  C   UNL     1      -9.123   9.561  70.685  1.00  0.00    -0.174 C  
HETATM   15  C   UNL     1      -9.516   7.831  73.158  1.00  0.00    -0.325 C  
HETATM   16  C   UNL     1     -10.420   9.524  71.481  1.00  0.00    -0.168 C  
HETATM   17  O   UNL     1      -8.003   9.491  71.173  1.00  0.00    -0.315 OA 
HETATM   18  C   UNL     1     -10.593   8.147  72.127  1.00  0.00    -0.358 C  
HETATM   19  C   UNL     1     -11.646   9.875  70.622  1.00  0.00    -0.413 C  
ENDBRANCH  13  14
ENDBRANCH   2  13
BRANCH   4  20
HETATM   20  C   UNL     1     -11.105  11.307  67.346  1.00  0.00    -0.358 C  
BRANCH  20  21
HETATM   21  C   UNL     1     -10.216  12.289  68.148  1.00  0.00    -0.212 C  
BRANCH  21  22
HETATM   22  C   UNL     1     -10.607  13.751  68.378  1.00  0.00    -0.253 C  
HETATM   23  C   UNL     1     -11.633  14.008  69.465  1.00  0.00    -0.350 C  
HETATM   24  C   UNL     1     -11.639  15.504  69.759  1.00  0.00    -0.334 C  
HETATM   25  O   UNL     1     -10.487  15.880  70.527  1.00  0.00    -0.198 OA 
HETATM   26  C   UNL     1     -11.751  16.339  68.493  1.00  0.00    -0.083 C  
HETATM   27  C   UNL     1     -11.016  15.791  67.284  1.00  0.00    -0.259 C  
HETATM   28  H   UNL     1     -10.490  16.812  70.710  1.00  0.00     0.000 HD 
HETATM   29  O   UNL     1     -10.602  16.513  66.389  1.00  0.00    -0.295 OA 
HETATM   30  O   UNL     1     -10.992  14.428  67.176  1.00  0.00    -0.291 OA 
ENDBRANCH  21  22
ENDBRANCH  20  21
ENDBRANCH   4  20
TORSDOF 5
ENDMDL
MODEL      176
REMARK 921   NORMALIZED FREE ENERGY PREDICTED BY IDOCK:   -3.58 KCAL/MOL
REMARK 922        TOTAL FREE ENERGY PREDICTED BY IDOCK:   -6.21 KCAL/MOL
REMARK 923 INTER-LIGAND FREE ENERGY PREDICTED BY IDOCK:   -5.85 KCAL/MOL
REMARK 924 INTRA-LIGAND FREE ENERGY PREDICTED BY IDOCK:   -0.36 KCAL/MOL
REMARK 927      BINDING AFFINITY PREDICTED BY RF-SCORE:    0.00 PKD
ROOT
HETATM    1  C   UNL     1      -9.946  13.953  67.245  1.00  0.00    -0.242 C  
HETATM    2  C   UNL     1      -8.988  14.059  68.482  1.00  0.00    -0.160 C  
HETATM    3  C   UNL     1      -7.871  15.111  68.390  1.00  0.00    -0.127 C  
HETATM    4  C   UNL     1      -9.991  12.590  66.418  1.00  0.00    -0.262 C  
HETATM    5  C   UNL     1      -8.365  16.478  67.950  1.00  0.00    -0.175 C  
HETATM    6  C   UNL     1     -12.459  12.550  65.550  1.00  0.00    -0.228 C  
HETATM    7  C   UNL     1     -10.977  12.742  65.197  1.00  0.00    -0.323 C  
HETATM    8  C   UNL     1      -9.094  16.305  66.657  1.00  0.00    -0.278 C  
HETATM    9  C   UNL     1     -10.844  14.033  64.458  1.00  0.00    -0.362 C  
HETATM   10  C   UNL     1      -7.174  17.433  67.805  1.00  0.00    -0.177 C  
HETATM   11  C   UNL     1      -9.750  15.178  66.312  1.00  0.00    -0.315 C  
HETATM   12  C   UNL     1     -10.287  15.127  64.972  1.00  0.00    -0.377 C  
ENDROOT
BRANCH   2  13
HETATM   13  O   UNL     1      -8.255  12.857  68.724  1.00  0.00    -0.035 OA 
BRANCH  13  14
HETATM   14  C   UNL     1      -7.145  12.644  67.979  1.00  0.00    -0.103 C  
HETATM   15  C   UNL     1      -5.666  10.856  66.011  1.00  0.00    -0.149 C  
HETATM   16  C   UNL     1      -6.472  11.339  68.380  1.00  0.00    -0.057 C  
HETATM   17  O   UNL     1      -6.710  13.426  67.145  1.00  0.00    -0.165 OA 
HETATM   18  C   UNL     1      -6.485  10.365  67.199  1.00  0.00    -0.072 C  
HETATM   19  C   UNL     1      -7.124  10.697  69.615  1.00  0.00    -0.143 C  
ENDBRANCH  13  14
ENDBRANCH   2  13
BRANCH   4  20
HETATM   20  C   UNL     1     -10.321  11.213  67.133  1.00  0.00    -0.249 C  
BRANCH  20  21
HETATM   21  C   UNL     1     -10.068  10.031  66.165  1.00  0.00    -0.317 C  
BRANCH  21  22
HETATM   22  C   UNL     1      -9.737   8.621  66.659  1.00  0.00    -0.247 C  
HETATM   23  C   UNL     1      -8.761   7.825  65.813  1.00  0.00    -0.160 C  
HETATM   24  C   UNL     1      -8.317   6.614  66.625  1.00  0.00    -0.117 C  
HETATM   25  O   UNL     1      -7.381   6.995  67.643  1.00  0.00    -0.091 OA 
HETATM   26  C   UNL     1      -9.494   5.855  67.219  1.00  0.00    -0.117 C  
HETATM   27  C   UNL     1     -10.656   6.714  67.683  1.00  0.00    -0.263 C  
HETATM   28  H   UNL     1      -7.105   6.240  68.149  1.00  0.00     0.000 HD 
HETATM   29  O   UNL     1     -11.415   6.361  68.573  1.00  0.00    -0.228 OA 
HETATM   30  O   UNL     1     -10.900   7.831  66.932  1.00  0.00    -0.311 OA 
ENDBRANCH  21  22
ENDBRANCH  20  21
ENDBRANCH   4  20
TORSDOF 5
ENDMDL
MODEL      177
REMARK 921   NORMALIZED FREE ENERGY PREDICTED BY IDOCK:   -3.58 KCAL/MOL
REMARK 922        TOTAL FREE ENERGY PREDICTED BY IDOCK:   -6.21 KCAL/MOL
REMARK 923 INTER-LIGAND FREE ENERGY PREDICTED BY IDOCK:   -5.66 KCAL/MOL
REMARK 924 INTRA-LIGAND FREE ENERGY PREDICTED BY IDOCK:   -0.55 KCAL/MOL
REMARK 927      BINDING AFFINITY PREDICTED BY RF-SCORE:    0.00 PKD
ROOT
HETATM    1  C   UNL     1      -9.677  13.598  65.302  1.00  0.00    -0.025 C  
HETATM    2  C   UNL     1      -9.743  12.086  64.891  1.00  0.00    -0.106 C  
HETATM    3  C   UNL     1     -11.131  11.541  64.522  1.00  0.00    -0.340 C  
HETATM    4  C   UNL     1      -9.203  13.976  66.777  1.00  0.00    -0.280 C  
HETATM    5  C   UNL     1     -11.882  12.419  63.536  1.00  0.00    -0.605 C  
HETATM    6  C   UNL     1      -8.063  16.303  66.412  1.00  0.00    -0.334 C  
HETATM    7  C   UNL     1      -9.272  15.540  66.972  1.00  0.00    -0.242 C  
HETATM    8  C   UNL     1     -11.944  13.798  64.109  1.00  0.00    -0.473 C  
HETATM    9  C   UNL     1     -10.509  16.172  66.424  1.00  0.00    -0.304 C  
HETATM   10  C   UNL     1     -13.283  11.842  63.296  1.00  0.00     0.227 C  
HETATM   11  C   UNL     1     -11.006  14.310  64.931  1.00  0.00    -0.413 C  
HETATM   12  C   UNL     1     -11.285  15.607  65.502  1.00  0.00    -0.140 C  
ENDROOT
BRANCH   2  13
HETATM   13  O   UNL     1      -9.338  11.205  65.940  1.00  0.00    -0.199 OA 
BRANCH  13  14
HETATM   14  C   UNL     1     -10.264  10.880  66.871  1.00  0.00    -0.228 C  
HETATM   15  C   UNL     1     -10.889   9.513  69.517  1.00  0.00    -0.243 C  
HETATM   16  C   UNL     1     -10.359   9.369  67.028  1.00  0.00    -0.322 C  
HETATM   17  O   UNL     1     -10.972  11.688  67.456  1.00  0.00    -0.229 OA 
HETATM   18  C   UNL     1      -9.949   8.968  68.448  1.00  0.00    -0.200 C  
HETATM   19  C   UNL     1      -9.511   8.616  65.990  1.00  0.00    -0.278 C  
ENDBRANCH  13  14
ENDBRANCH   2  13
BRANCH   4  20
HETATM   20  C   UNL     1      -7.803  13.484  67.336  1.00  0.00    -0.157 C  
BRANCH  20  21
HETATM   21  C   UNL     1      -7.984  12.797  68.711  1.00  0.00     0.069 C  
BRANCH  21  22
HETATM   22  C   UNL     1      -7.177  11.565  69.127  1.00  0.00    -0.084 C  
HETATM   23  C   UNL     1      -6.092  11.791  70.163  1.00  0.00    -0.147 C  
HETATM   24  C   UNL     1      -5.642  10.427  70.675  1.00  0.00    -0.088 C  
HETATM   25  O   UNL     1      -6.613   9.870  71.571  1.00  0.00    -0.311 OA 
HETATM   26  C   UNL     1      -5.324   9.463  69.542  1.00  0.00    -0.035 C  
HETATM   27  C   UNL     1      -6.219   9.574  68.321  1.00  0.00    -0.052 C  
HETATM   28  H   UNL     1      -6.333   9.020  71.890  1.00  0.00     0.000 HD 
HETATM   29  O   UNL     1      -6.427   8.629  67.576  1.00  0.00    -0.056 OA 
HETATM   30  O   UNL     1      -6.643  10.838  68.014  1.00  0.00    -0.062 OA 
ENDBRANCH  21  22
ENDBRANCH  20  21
ENDBRANCH   4  20
TORSDOF 5
ENDMDL
MODEL      178
REMARK 921   NORMALIZED FREE ENERGY PREDICTED BY IDOCK:   -3.58 KCAL/MOL
REMARK 922        TOTAL FREE ENERGY PREDICTED BY IDOCK:   -6.21 KCAL/MOL
REMARK 923 INTER-LIGAND FREE ENERGY PREDICTED BY IDOCK:   -4.79 KCAL/MOL
REMARK 924 INTRA-LIGAND FREE ENERGY PREDICTED BY IDOCK:   -1.42 KCAL/MOL
REMARK 927      BINDING AFFINITY PREDICTED BY RF-SCORE:    0.00 PKD
ROOT
HETATM    1  C   UNL     1      -8.252  10.245  66.499  1.00  0.00    -0.127 C  
HETATM    2  C   UNL     1      -8.977  10.783  67.781  1.00  0.00    -0.137 C  
HETATM    3  C   UNL     1      -8.117  11.599  68.758  1.00  0.00    -0.072 C  
HETATM    4  C   UNL     1      -8.142   8.669  66.278  1.00  0.00    -0.103 C  
HETATM    5  C   UNL     1      -7.303  12.688  68.080  1.00  0.00    -0.112 C  
HETATM    6  C   UNL     1      -8.152   8.474  63.669  1.00  0.00    -0.154 C  
HETATM    7  C   UNL     1      -7.328   8.373  64.960  1.00  0.00    -0.086 C  
HETATM    8  C   UNL     1      -6.490  12.047  67.003  1.00  0.00    -0.114 C  
HETATM    9  C   UNL     1      -6.106   9.214  64.793  1.00  0.00    -0.066 C  
HETATM   10  C   UNL     1      -6.416  13.389  69.118  1.00  0.00    -0.105 C  
HETATM   11  C   UNL     1      -6.872  10.940  66.335  1.00  0.00    -0.135 C  
HETATM   12  C   UNL     1      -5.910  10.372  65.419  1.00  0.00    -0.127 C  
ENDROOT
BRANCH   2  13
HETATM   13  O   UNL     1      -9.480   9.739  68.616  1.00  0.00    -0.146 OA 
BRANCH  13  14
HETATM   14  C   UNL     1     -10.759   9.847  69.046  1.00  0.00    -0.222 C  
HETATM   15  C   UNL     1     -12.666  10.263  71.379  1.00  0.00    -0.547 C  
HETATM   16  C   UNL     1     -11.073   8.765  70.070  1.00  0.00    -0.169 C  
HETATM   17  O   UNL     1     -11.567  10.661  68.620  1.00  0.00    -0.281 OA 
HETATM   18  C   UNL     1     -11.405   9.410  71.419  1.00  0.00    -0.451 C  
HETATM   19  C   UNL     1      -9.929   7.751  70.224  1.00  0.00    -0.189 C  
ENDBRANCH  13  14
ENDBRANCH   2  13
BRANCH   4  20
HETATM   20  C   UNL     1      -9.439   7.757  66.256  1.00  0.00    -0.201 C  
BRANCH  20  21
HETATM   21  C   UNL     1      -9.098   6.326  66.740  1.00  0.00    -0.141 C  
BRANCH  21  22
HETATM   22  C   UNL     1      -8.909   5.155  65.773  1.00  0.00    -0.143 C  
HETATM   23  C   UNL     1      -9.123   3.768  66.348  1.00  0.00    -0.157 C  
HETATM   24  C   UNL     1      -9.214   2.787  65.184  1.00  0.00    -0.139 C  
HETATM   25  O   UNL     1     -10.484   2.891  64.526  1.00  0.00    -0.394 OA 
HETATM   26  C   UNL     1      -8.069   2.956  64.197  1.00  0.00    -0.082 C  
HETATM   27  C   UNL     1      -7.610   4.384  63.971  1.00  0.00    -0.071 C  
HETATM   28  H   UNL     1     -10.542   2.280  63.801  1.00  0.00     0.000 HD 
HETATM   29  O   UNL     1      -7.087   4.745  62.927  1.00  0.00    -0.037 OA 
HETATM   30  O   UNL     1      -7.664   5.202  65.066  1.00  0.00    -0.080 OA 
ENDBRANCH  21  22
ENDBRANCH  20  21
ENDBRANCH   4  20
TORSDOF 5
ENDMDL
MODEL      179
REMARK 921   NORMALIZED FREE ENERGY PREDICTED BY IDOCK:   -3.58 KCAL/MOL
REMARK 922        TOTAL FREE ENERGY PREDICTED BY IDOCK:   -6.21 KCAL/MOL
REMARK 923 INTER-LIGAND FREE ENERGY PREDICTED BY IDOCK:   -4.96 KCAL/MOL
REMARK 924 INTRA-LIGAND FREE ENERGY PREDICTED BY IDOCK:   -1.25 KCAL/MOL
REMARK 927      BINDING AFFINITY PREDICTED BY RF-SCORE:    0.00 PKD
ROOT
HETATM    1  C   UNL     1      -7.418  12.678  67.427  1.00  0.00    -0.146 C  
HETATM    2  C   UNL     1      -8.751  13.324  66.911  1.00  0.00    -0.142 C  
HETATM    3  C   UNL     1      -9.013  14.777  67.337  1.00  0.00    -0.200 C  
HETATM    4  C   UNL     1      -7.498  11.412  68.394  1.00  0.00    -0.111 C  
HETATM    5  C   UNL     1      -7.825  15.695  67.109  1.00  0.00    -0.253 C  
HETATM    6  C   UNL     1      -5.308  10.114  67.786  1.00  0.00    -0.038 C  
HETATM    7  C   UNL     1      -6.043  10.978  68.821  1.00  0.00    -0.043 C  
HETATM    8  C   UNL     1      -6.646  15.099  67.809  1.00  0.00    -0.186 C  
HETATM    9  C   UNL     1      -5.147  12.115  69.189  1.00  0.00    -0.055 C  
HETATM   10  C   UNL     1      -8.149  17.097  67.640  1.00  0.00    -0.187 C  
HETATM   11  C   UNL     1      -6.481  13.775  68.002  1.00  0.00    -0.140 C  
HETATM   12  C   UNL     1      -5.355  13.375  68.814  1.00  0.00    -0.071 C  
ENDROOT
BRANCH   2  13
HETATM   13  O   UNL     1      -9.917  12.651  67.390  1.00  0.00    -0.202 OA 
BRANCH  13  14
HETATM   14  C   UNL     1     -10.836  12.270  66.472  1.00  0.00    -0.259 C  
HETATM   15  C   UNL     1     -12.893  13.097  64.388  1.00  0.00    -0.122 C  
HETATM   16  C   UNL     1     -12.210  12.821  66.827  1.00  0.00    -0.134 C  
HETATM   17  O   UNL     1     -10.605  11.530  65.525  1.00  0.00    -0.268 OA 
HETATM   18  C   UNL     1     -12.682  13.782  65.732  1.00  0.00    -0.494 C  
HETATM   19  C   UNL     1     -12.227  13.517  68.198  1.00  0.00    -0.141 C  
ENDBRANCH  13  14
ENDBRANCH   2  13
BRANCH   4  20
HETATM   20  C   UNL     1      -8.281  10.103  67.961  1.00  0.00    -0.113 C  
BRANCH  20  21
HETATM   21  C   UNL     1      -8.668   9.271  69.208  1.00  0.00    -0.141 C  
BRANCH  21  22
HETATM   22  C   UNL     1      -9.432   7.948  69.109  1.00  0.00    -0.155 C  
HETATM   23  C   UNL     1      -9.035   6.868  70.097  1.00  0.00    -0.149 C  
HETATM   24  C   UNL     1     -10.105   5.783  70.059  1.00  0.00    -0.216 C  
HETATM   25  O   UNL     1     -11.291   6.207  70.745  1.00  0.00    -0.321 OA 
HETATM   26  C   UNL     1     -10.423   5.336  68.639  1.00  0.00    -0.148 C  
HETATM   27  C   UNL     1     -10.395   6.433  67.590  1.00  0.00    -0.197 C  
HETATM   28  H   UNL     1     -11.958   5.531  70.721  1.00  0.00     0.000 HD 
HETATM   29  O   UNL     1     -11.060   6.374  66.567  1.00  0.00    -0.190 OA 
HETATM   30  O   UNL     1      -9.456   7.409  67.782  1.00  0.00    -0.138 OA 
ENDBRANCH  21  22
ENDBRANCH  20  21
ENDBRANCH   4  20
TORSDOF 5
ENDMDL
MODEL      180
REMARK 921   NORMALIZED FREE ENERGY PREDICTED BY IDOCK:   -3.53 KCAL/MOL
REMARK 922        TOTAL FREE ENERGY PREDICTED BY IDOCK:   -6.15 KCAL/MOL
REMARK 923 INTER-LIGAND FREE ENERGY PREDICTED BY IDOCK:   -5.20 KCAL/MOL
REMARK 924 INTRA-LIGAND FREE ENERGY PREDICTED BY IDOCK:   -0.94 KCAL/MOL
REMARK 927      BINDING AFFINITY PREDICTED BY RF-SCORE:    0.00 PKD
ROOT
HETATM    1  C   UNL     1     -10.466  13.150  67.272  1.00  0.00    -0.243 C  
HETATM    2  C   UNL     1     -10.051  14.612  67.661  1.00  0.00    -0.228 C  
HETATM    3  C   UNL     1     -10.026  15.639  66.518  1.00  0.00    -0.287 C  
HETATM    4  C   UNL     1      -9.409  11.970  67.467  1.00  0.00    -0.179 C  
HETATM    5  C   UNL     1     -11.284  15.625  65.667  1.00  0.00    -0.106 C  
HETATM    6  C   UNL     1     -10.956   9.921  67.969  1.00  0.00    -0.269 C  
HETATM    7  C   UNL     1     -10.031  10.613  66.959  1.00  0.00    -0.243 C  
HETATM    8  C   UNL     1     -11.486  14.228  65.175  1.00  0.00    -0.351 C  
HETATM    9  C   UNL     1     -10.764  10.721  65.662  1.00  0.00    -0.142 C  
HETATM   10  C   UNL     1     -11.132  16.617  64.507  1.00  0.00     0.081 C  
HETATM   11  C   UNL     1     -11.083  13.131  65.847  1.00  0.00    -0.298 C  
HETATM   12  C   UNL     1     -11.235  11.865  65.170  1.00  0.00    -0.346 C  
ENDROOT
BRANCH   2  13
HETATM   13  O   UNL     1      -8.720  14.695  68.174  1.00  0.00    -0.156 OA 
BRANCH  13  14
HETATM   14  C   UNL     1      -8.395  15.803  68.881  1.00  0.00    -0.213 C  
HETATM   15  C   UNL     1      -6.575  18.222  69.186  1.00  0.00    -0.265 C  
HETATM   16  C   UNL     1      -6.963  15.711  69.391  1.00  0.00    -0.196 C  
HETATM   17  O   UNL     1      -9.167  16.719  69.129  1.00  0.00    -0.239 OA 
HETATM   18  C   UNL     1      -6.120  16.828  68.770  1.00  0.00    -0.147 C  
HETATM   19  C   UNL     1      -6.328  14.339  69.116  1.00  0.00    -0.104 C  
ENDBRANCH  13  14
ENDBRANCH   2  13
BRANCH   4  20
HETATM   20  C   UNL     1      -8.746  11.695  68.881  1.00  0.00     0.078 C  
BRANCH  20  21
HETATM   21  C   UNL     1      -7.609  10.652  68.746  1.00  0.00    -0.109 C  
BRANCH  21  22
HETATM   22  C   UNL     1      -7.563   9.374  69.587  1.00  0.00    -0.095 C  
HETATM   23  C   UNL     1      -8.177   8.136  68.960  1.00  0.00    -0.127 C  
HETATM   24  C   UNL     1      -7.746   6.930  69.787  1.00  0.00    -0.113 C  
HETATM   25  O   UNL     1      -6.378   6.589  69.522  1.00  0.00    -0.035 OA 
HETATM   26  C   UNL     1      -7.981   7.138  71.275  1.00  0.00    -0.102 C  
HETATM   27  C   UNL     1      -7.741   8.549  71.781  1.00  0.00    -0.117 C  
HETATM   28  H   UNL     1      -6.110   5.838  70.037  1.00  0.00     0.000 HD 
HETATM   29  O   UNL     1      -7.414   8.782  72.935  1.00  0.00    -0.357 OA 
HETATM   30  O   UNL     1      -8.074   9.552  70.913  1.00  0.00    -0.297 OA 
ENDBRANCH  21  22
ENDBRANCH  20  21
ENDBRANCH   4  20
TORSDOF 5
ENDMDL
MODEL      181
REMARK 921   NORMALIZED FREE ENERGY PREDICTED BY IDOCK:   -3.53 KCAL/MOL
REMARK 922        TOTAL FREE ENERGY PREDICTED BY IDOCK:   -6.14 KCAL/MOL
REMARK 923 INTER-LIGAND FREE ENERGY PREDICTED BY IDOCK:   -5.03 KCAL/MOL
REMARK 924 INTRA-LIGAND FREE ENERGY PREDICTED BY IDOCK:   -1.11 KCAL/MOL
REMARK 927      BINDING AFFINITY PREDICTED BY RF-SCORE:    0.00 PKD
ROOT
HETATM    1  C   UNL     1     -11.174   7.107  70.332  1.00  0.00    -0.320 C  
HETATM    2  C   UNL     1     -10.623   5.893  69.506  1.00  0.00    -0.308 C  
HETATM    3  C   UNL     1      -9.689   4.928  70.255  1.00  0.00    -0.287 C  
HETATM    4  C   UNL     1     -10.789   8.587  69.878  1.00  0.00    -0.205 C  
HETATM    5  C   UNL     1     -10.235   4.484  71.601  1.00  0.00    -0.214 C  
HETATM    6  C   UNL     1     -12.887   9.959  70.630  1.00  0.00    -0.205 C  
HETATM    7  C   UNL     1     -11.409   9.629  70.886  1.00  0.00    -0.431 C  
HETATM    8  C   UNL     1     -10.543   5.712  72.396  1.00  0.00    -0.270 C  
HETATM    9  C   UNL     1     -11.265   9.252  72.324  1.00  0.00     0.159 C  
HETATM   10  C   UNL     1      -9.202   3.597  72.308  1.00  0.00    -0.164 C  
HETATM   11  C   UNL     1     -10.907   6.888  71.846  1.00  0.00    -0.258 C  
HETATM   12  C   UNL     1     -11.037   8.010  72.746  1.00  0.00    -0.448 C  
ENDROOT
BRANCH   2  13
HETATM   13  O   UNL     1      -9.820   6.294  68.395  1.00  0.00    -0.125 OA 
BRANCH  13  14
HETATM   14  C   UNL     1     -10.171   5.827  67.174  1.00  0.00    -0.207 C  
HETATM   15  C   UNL     1      -9.370   4.280  64.679  1.00  0.00    -0.162 C  
HETATM   16  C   UNL     1      -9.251   6.392  66.100  1.00  0.00    -0.132 C  
HETATM   17  O   UNL     1     -11.134   5.105  66.958  1.00  0.00     0.167 OA 
HETATM   18  C   UNL     1      -8.474   5.254  65.432  1.00  0.00    -0.145 C  
HETATM   19  C   UNL     1      -8.286   7.453  66.652  1.00  0.00    -0.125 C  
ENDBRANCH  13  14
ENDBRANCH   2  13
BRANCH   4  20
HETATM   20  C   UNL     1     -11.101   9.096  68.409  1.00  0.00     0.119 C  
BRANCH  20  21
HETATM   21  C   UNL     1     -10.876  10.626  68.312  1.00  0.00    -0.287 C  
BRANCH  21  22
HETATM   22  C   UNL     1      -9.488  11.241  68.123  1.00  0.00    -0.184 C  
HETATM   23  C   UNL     1      -8.386  10.698  69.012  1.00  0.00    -0.153 C  
HETATM   24  C   UNL     1      -7.052  11.186  68.456  1.00  0.00    -0.080 C  
HETATM   25  O   UNL     1      -6.690  10.453  67.278  1.00  0.00    -0.074 OA 
HETATM   26  C   UNL     1      -7.051  12.684  68.193  1.00  0.00    -0.102 C  
HETATM   27  C   UNL     1      -8.360  13.256  67.679  1.00  0.00    -0.181 C  
HETATM   28  H   UNL     1      -5.860  10.757  66.931  1.00  0.00     0.000 HD 
HETATM   29  O   UNL     1      -8.405  14.262  66.987  1.00  0.00    -0.195 OA 
HETATM   30  O   UNL     1      -9.494  12.672  68.174  1.00  0.00    -0.210 OA 
ENDBRANCH  21  22
ENDBRANCH  20  21
ENDBRANCH   4  20
TORSDOF 5
ENDMDL
MODEL      182
REMARK 921   NORMALIZED FREE ENERGY PREDICTED BY IDOCK:   -3.52 KCAL/MOL
REMARK 922        TOTAL FREE ENERGY PREDICTED BY IDOCK:   -6.13 KCAL/MOL
REMARK 923 INTER-LIGAND FREE ENERGY PREDICTED BY IDOCK:   -5.97 KCAL/MOL
REMARK 924 INTRA-LIGAND FREE ENERGY PREDICTED BY IDOCK:   -0.16 KCAL/MOL
REMARK 927      BINDING AFFINITY PREDICTED BY RF-SCORE:    0.00 PKD
ROOT
HETATM    1  C   UNL     1      -8.397  12.426  68.054  1.00  0.00    -0.170 C  
HETATM    2  C   UNL     1      -9.628  13.346  67.741  1.00  0.00    -0.213 C  
HETATM    3  C   UNL     1      -9.625  14.735  68.399  1.00  0.00    -0.213 C  
HETATM    4  C   UNL     1      -8.638  11.049  68.822  1.00  0.00    -0.144 C  
HETATM    5  C   UNL     1      -8.314  15.481  68.225  1.00  0.00    -0.147 C  
HETATM    6  C   UNL     1      -6.725   9.541  67.866  1.00  0.00    -0.066 C  
HETATM    7  C   UNL     1      -7.256  10.331  69.070  1.00  0.00    -0.080 C  
HETATM    8  C   UNL     1      -7.218  14.604  68.738  1.00  0.00    -0.124 C  
HETATM    9  C   UNL     1      -6.168  11.241  69.539  1.00  0.00    -0.099 C  
HETATM   10  C   UNL     1      -8.376  16.813  68.984  1.00  0.00    -0.163 C  
HETATM   11  C   UNL     1      -7.265  13.257  68.717  1.00  0.00    -0.088 C  
HETATM   12  C   UNL     1      -6.183  12.562  69.374  1.00  0.00    -0.113 C  
ENDROOT
BRANCH   2  13
HETATM   13  O   UNL     1     -10.865  12.795  68.197  1.00  0.00    -0.213 OA 
BRANCH  13  14
HETATM   14  C   UNL     1     -11.803  13.661  68.646  1.00  0.00    -0.374 C  
HETATM   15  C   UNL     1     -12.734  15.533  70.856  1.00  0.00    -0.525 C  
HETATM   16  C   UNL     1     -12.399  13.172  69.959  1.00  0.00    -0.241 C  
HETATM   17  O   UNL     1     -12.167  14.663  68.045  1.00  0.00    -0.225 OA 
HETATM   18  C   UNL     1     -12.086  14.172  71.075  1.00  0.00    -0.411 C  
HETATM   19  C   UNL     1     -11.907  11.766  70.340  1.00  0.00    -0.362 C  
ENDBRANCH  13  14
ENDBRANCH   2  13
BRANCH   4  20
HETATM   20  C   UNL     1      -9.647   9.965  68.255  1.00  0.00    -0.151 C  
BRANCH  20  21
HETATM   21  C   UNL     1     -10.003  10.281  66.781  1.00  0.00    -0.261 C  
BRANCH  21  22
HETATM   22  C   UNL     1      -9.196   9.728  65.604  1.00  0.00    -0.199 C  
HETATM   23  C   UNL     1      -9.623  10.186  64.223  1.00  0.00    -0.354 C  
HETATM   24  C   UNL     1      -8.521   9.804  63.241  1.00  0.00    -0.181 C  
HETATM   25  O   UNL     1      -7.395  10.683  63.366  1.00  0.00    -0.342 OA 
HETATM   26  C   UNL     1      -8.100   8.349  63.386  1.00  0.00    -0.145 C  
HETATM   27  C   UNL     1      -8.093   7.811  64.805  1.00  0.00    -0.131 C  
HETATM   28  H   UNL     1      -6.708  10.445  62.755  1.00  0.00     0.000 HD 
HETATM   29  O   UNL     1      -7.362   6.896  65.153  1.00  0.00    -0.073 OA 
HETATM   30  O   UNL     1      -9.070   8.302  65.626  1.00  0.00    -0.156 OA 
ENDBRANCH  21  22
ENDBRANCH  20  21
ENDBRANCH   4  20
TORSDOF 5
ENDMDL
MODEL      183
REMARK 921   NORMALIZED FREE ENERGY PREDICTED BY IDOCK:   -3.51 KCAL/MOL
REMARK 922        TOTAL FREE ENERGY PREDICTED BY IDOCK:   -6.12 KCAL/MOL
REMARK 923 INTER-LIGAND FREE ENERGY PREDICTED BY IDOCK:   -6.42 KCAL/MOL
REMARK 924 INTRA-LIGAND FREE ENERGY PREDICTED BY IDOCK:    0.30 KCAL/MOL
REMARK 927      BINDING AFFINITY PREDICTED BY RF-SCORE:    0.00 PKD
ROOT
HETATM    1  C   UNL     1      -9.568  10.327  68.162  1.00  0.00    -0.151 C  
HETATM    2  C   UNL     1     -10.866  11.171  68.409  1.00  0.00    -0.205 C  
HETATM    3  C   UNL     1     -10.939  12.532  67.700  1.00  0.00    -0.279 C  
HETATM    4  C   UNL     1      -8.620   9.988  69.399  1.00  0.00    -0.182 C  
HETATM    5  C   UNL     1     -10.594  12.461  66.222  1.00  0.00    -0.277 C  
HETATM    6  C   UNL     1      -7.601   7.682  68.700  1.00  0.00    -0.109 C  
HETATM    7  C   UNL     1      -7.359   9.185  68.898  1.00  0.00    -0.074 C  
HETATM    8  C   UNL     1      -9.247  11.824  66.098  1.00  0.00    -0.218 C  
HETATM    9  C   UNL     1      -6.749   9.721  67.645  1.00  0.00    -0.069 C  
HETATM   10  C   UNL     1     -10.609  13.873  65.622  1.00  0.00    -0.306 C  
HETATM   11  C   UNL     1      -8.762  10.922  66.975  1.00  0.00    -0.141 C  
HETATM   12  C   UNL     1      -7.392  10.506  66.783  1.00  0.00    -0.114 C  
ENDROOT
BRANCH   2  13
HETATM   13  O   UNL     1     -11.043  11.531  69.780  1.00  0.00    -0.199 OA 
BRANCH  13  14
HETATM   14  C   UNL     1     -12.005  12.440  70.065  1.00  0.00    -0.299 C  
HETATM   15  C   UNL     1     -13.620  13.902  72.189  1.00  0.00    -0.599 C  
HETATM   16  C   UNL     1     -13.141  11.791  70.844  1.00  0.00     0.042 C  
HETATM   17  O   UNL     1     -11.993  13.604  69.690  1.00  0.00    -0.309 OA 
HETATM   18  C   UNL     1     -13.245  12.426  72.233  1.00  0.00    -0.392 C  
HETATM   19  C   UNL     1     -12.979  10.267  70.959  1.00  0.00    -0.488 C  
ENDBRANCH  13  14
ENDBRANCH   2  13
BRANCH   4  20
HETATM   20  C   UNL     1      -9.186   9.242  70.680  1.00  0.00    -0.321 C  
BRANCH  20  21
HETATM   21  C   UNL     1     -10.140   8.098  70.257  1.00  0.00    -0.192 C  
BRANCH  21  22
HETATM   22  C   UNL     1     -10.103   6.714  70.909  1.00  0.00    -0.187 C  
HETATM   23  C   UNL     1     -10.259   5.528  69.977  1.00  0.00    -0.337 C  
HETATM   24  C   UNL     1      -9.871   4.272  70.750  1.00  0.00    -0.195 C  
HETATM   25  O   UNL     1      -8.448   4.180  70.897  1.00  0.00    -0.076 OA 
HETATM   26  C   UNL     1     -10.570   4.186  72.098  1.00  0.00    -0.026 C  
HETATM   27  C   UNL     1     -10.761   5.508  72.818  1.00  0.00    -0.247 C  
HETATM   28  H   UNL     1      -8.206   3.398  71.378  1.00  0.00     0.000 HD 
HETATM   29  O   UNL     1     -10.839   5.584  74.035  1.00  0.00    -0.242 OA 
HETATM   30  O   UNL     1     -11.006   6.587  72.014  1.00  0.00    -0.230 OA 
ENDBRANCH  21  22
ENDBRANCH  20  21
ENDBRANCH   4  20
TORSDOF 5
ENDMDL
MODEL      184
REMARK 921   NORMALIZED FREE ENERGY PREDICTED BY IDOCK:   -3.51 KCAL/MOL
REMARK 922        TOTAL FREE ENERGY PREDICTED BY IDOCK:   -6.11 KCAL/MOL
REMARK 923 INTER-LIGAND FREE ENERGY PREDICTED BY IDOCK:   -4.47 KCAL/MOL
REMARK 924 INTRA-LIGAND FREE ENERGY PREDICTED BY IDOCK:   -1.65 KCAL/MOL
REMARK 927      BINDING AFFINITY PREDICTED BY RF-SCORE:    0.00 PKD
ROOT
HETATM    1  C   UNL     1      -9.180   5.841  69.398  1.00  0.00    -0.144 C  
HETATM    2  C   UNL     1      -8.630   6.244  70.811  1.00  0.00    -0.135 C  
HETATM    3  C   UNL     1      -9.495   7.220  71.624  1.00  0.00    -0.161 C  
HETATM    4  C   UNL     1      -8.334   6.228  68.102  1.00  0.00    -0.115 C  
HETATM    5  C   UNL     1     -10.958   6.819  71.690  1.00  0.00    -0.267 C  
HETATM    6  C   UNL     1      -8.934   4.289  66.451  1.00  0.00    -0.120 C  
HETATM    7  C   UNL     1      -9.109   5.772  66.807  1.00  0.00    -0.126 C  
HETATM    8  C   UNL     1     -11.449   6.655  70.288  1.00  0.00    -0.449 C  
HETATM    9  C   UNL     1     -10.572   6.069  66.832  1.00  0.00    -0.384 C  
HETATM   10  C   UNL     1     -11.753   7.893  72.445  1.00  0.00    -0.423 C  
HETATM   11  C   UNL     1     -10.664   6.276  69.259  1.00  0.00    -0.367 C  
HETATM   12  C   UNL     1     -11.265   6.295  67.945  1.00  0.00    -0.216 C  
ENDROOT
BRANCH   2  13
HETATM   13  O   UNL     1      -7.377   6.927  70.747  1.00  0.00    -0.074 OA 
BRANCH  13  14
HETATM   14  C   UNL     1      -6.457   6.627  71.693  1.00  0.00    -0.046 C  
HETATM   15  C   UNL     1      -5.490   6.995  74.555  1.00  0.00    -0.059 C  
HETATM   16  C   UNL     1      -5.762   7.890  72.184  1.00  0.00    -0.036 C  
HETATM   17  O   UNL     1      -6.178   5.492  72.055  1.00  0.00    -0.036 OA 
HETATM   18  C   UNL     1      -6.058   8.099  73.672  1.00  0.00    -0.096 C  
HETATM   19  C   UNL     1      -6.163   9.134  71.374  1.00  0.00    -0.078 C  
ENDBRANCH  13  14
ENDBRANCH   2  13
BRANCH   4  20
HETATM   20  C   UNL     1      -6.825   5.766  67.946  1.00  0.00    -0.060 C  
BRANCH  20  21
HETATM   21  C   UNL     1      -5.958   6.935  67.415  1.00  0.00    -0.021 C  
BRANCH  21  22
HETATM   22  C   UNL     1      -6.509   8.000  66.465  1.00  0.00    -0.051 C  
HETATM   23  C   UNL     1      -6.555   7.630  64.994  1.00  0.00    -0.044 C  
HETATM   24  C   UNL     1      -7.419   8.662  64.278  1.00  0.00    -0.109 C  
HETATM   25  O   UNL     1      -8.810   8.442  64.548  1.00  0.00    -0.413 OA 
HETATM   26  C   UNL     1      -7.013  10.088  64.618  1.00  0.00    -0.137 C  
HETATM   27  C   UNL     1      -6.564  10.314  66.050  1.00  0.00    -0.109 C  
HETATM   28  H   UNL     1      -9.348   9.085  64.103  1.00  0.00     0.000 HD 
HETATM   29  O   UNL     1      -6.672  11.398  66.605  1.00  0.00    -0.139 OA 
HETATM   30  O   UNL     1      -5.881   9.278  66.625  1.00  0.00    -0.053 OA 
ENDBRANCH  21  22
ENDBRANCH  20  21
ENDBRANCH   4  20
TORSDOF 5
ENDMDL
MODEL      185
REMARK 921   NORMALIZED FREE ENERGY PREDICTED BY IDOCK:   -3.49 KCAL/MOL
REMARK 922        TOTAL FREE ENERGY PREDICTED BY IDOCK:   -6.10 KCAL/MOL
REMARK 923 INTER-LIGAND FREE ENERGY PREDICTED BY IDOCK:   -6.38 KCAL/MOL
REMARK 924 INTRA-LIGAND FREE ENERGY PREDICTED BY IDOCK:    0.28 KCAL/MOL
REMARK 927      BINDING AFFINITY PREDICTED BY RF-SCORE:    0.00 PKD
ROOT
HETATM    1  C   UNL     1      -8.880   9.777  70.369  1.00  0.00    -0.125 C  
HETATM    2  C   UNL     1     -10.350   9.694  69.829  1.00  0.00    -0.241 C  
HETATM    3  C   UNL     1     -11.217   8.554  70.387  1.00  0.00    -0.224 C  
HETATM    4  C   UNL     1      -7.671   9.592  69.345  1.00  0.00    -0.101 C  
HETATM    5  C   UNL     1     -11.173   8.448  71.901  1.00  0.00    -0.379 C  
HETATM    6  C   UNL     1      -5.806  11.082  70.417  1.00  0.00    -0.137 C  
HETATM    7  C   UNL     1      -6.301   9.659  70.124  1.00  0.00    -0.069 C  
HETATM    8  C   UNL     1      -9.740   8.327  72.309  1.00  0.00    -0.362 C  
HETATM    9  C   UNL     1      -6.287   8.894  71.406  1.00  0.00    -0.073 C  
HETATM   10  C   UNL     1     -11.995   7.235  72.356  1.00  0.00    -0.202 C  
HETATM   11  C   UNL     1      -8.716   8.863  71.614  1.00  0.00    -0.186 C  
HETATM   12  C   UNL     1      -7.384   8.539  72.071  1.00  0.00    -0.110 C  
ENDROOT
BRANCH   2  13
HETATM   13  O   UNL     1     -10.415   9.466  68.421  1.00  0.00    -0.208 OA 
BRANCH  13  14
HETATM   14  C   UNL     1     -10.224   8.198  67.987  1.00  0.00    -0.212 C  
HETATM   15  C   UNL     1      -8.324   6.138  66.801  1.00  0.00    -0.110 C  
HETATM   16  C   UNL     1      -9.812   8.189  66.522  1.00  0.00    -0.309 C  
HETATM   17  O   UNL     1     -10.421   7.197  68.663  1.00  0.00    -0.190 OA 
HETATM   18  C   UNL     1      -8.404   7.601  66.383  1.00  0.00    -0.129 C  
HETATM   19  C   UNL     1      -9.877   9.586  65.884  1.00  0.00    -0.360 C  
ENDBRANCH  13  14
ENDBRANCH   2  13
BRANCH   4  20
HETATM   20  C   UNL     1      -7.539  10.516  68.063  1.00  0.00    -0.091 C  
BRANCH  20  21
HETATM   21  C   UNL     1      -7.900  11.980  68.417  1.00  0.00    -0.147 C  
BRANCH  21  22
HETATM   22  C   UNL     1      -9.028  12.741  67.717  1.00  0.00    -0.190 C  
HETATM   23  C   UNL     1      -8.772  14.208  67.431  1.00  0.00    -0.217 C  
HETATM   24  C   UNL     1      -9.845  14.690  66.460  1.00  0.00    -0.275 C  
HETATM   25  O   UNL     1      -9.585  14.215  65.132  1.00  0.00    -0.542 OA 
HETATM   26  C   UNL     1     -11.246  14.310  66.915  1.00  0.00    -0.333 C  
HETATM   27  C   UNL     1     -11.366  12.957  67.591  1.00  0.00    -0.303 C  
HETATM   28  H   UNL     1     -10.254  14.515  64.527  1.00  0.00     0.000 HD 
HETATM   29  O   UNL     1     -12.402  12.308  67.575  1.00  0.00    -0.330 OA 
HETATM   30  O   UNL     1     -10.298  12.585  68.360  1.00  0.00    -0.223 OA 
ENDBRANCH  21  22
ENDBRANCH  20  21
ENDBRANCH   4  20
TORSDOF 5
ENDMDL
MODEL      186
REMARK 921   NORMALIZED FREE ENERGY PREDICTED BY IDOCK:   -3.49 KCAL/MOL
REMARK 922        TOTAL FREE ENERGY PREDICTED BY IDOCK:   -6.10 KCAL/MOL
REMARK 923 INTER-LIGAND FREE ENERGY PREDICTED BY IDOCK:   -5.21 KCAL/MOL
REMARK 924 INTRA-LIGAND FREE ENERGY PREDICTED BY IDOCK:   -0.89 KCAL/MOL
REMARK 927      BINDING AFFINITY PREDICTED BY RF-SCORE:    0.00 PKD
ROOT
HETATM    1  C   UNL     1      -9.401   8.634  71.858  1.00  0.00    -0.357 C  
HETATM    2  C   UNL     1     -10.031   9.417  70.654  1.00  0.00    -0.284 C  
HETATM    3  C   UNL     1     -11.520   9.157  70.377  1.00  0.00    -0.228 C  
HETATM    4  C   UNL     1      -8.221   7.599  71.572  1.00  0.00    -0.108 C  
HETATM    5  C   UNL     1     -12.389   9.251  71.619  1.00  0.00    -0.450 C  
HETATM    6  C   UNL     1      -6.829   7.724  73.784  1.00  0.00    -0.108 C  
HETATM    7  C   UNL     1      -7.792   6.899  72.918  1.00  0.00    -0.096 C  
HETATM    8  C   UNL     1     -11.827   8.318  72.642  1.00  0.00    -0.382 C  
HETATM    9  C   UNL     1      -8.935   6.475  73.780  1.00  0.00    -0.144 C  
HETATM   10  C   UNL     1     -13.838   8.894  71.262  1.00  0.00    -0.231 C  
HETATM   11  C   UNL     1     -10.520   7.997  72.724  1.00  0.00    -0.415 C  
HETATM   12  C   UNL     1     -10.164   6.977  73.684  1.00  0.00    -0.396 C  
ENDROOT
BRANCH   2  13
HETATM   13  O   UNL     1      -9.427   9.092  69.400  1.00  0.00    -0.154 OA 
BRANCH  13  14
HETATM   14  C   UNL     1      -9.891   9.732  68.302  1.00  0.00    -0.148 C  
HETATM   15  C   UNL     1      -9.426  10.553  65.409  1.00  0.00    -0.273 C  
HETATM   16  C   UNL     1      -8.944  10.852  67.894  1.00  0.00    -0.141 C  
HETATM   17  O   UNL     1     -10.957   9.485  67.754  1.00  0.00    -0.244 OA 
HETATM   18  C   UNL     1      -8.367  10.563  66.505  1.00  0.00    -0.141 C  
HETATM   19  C   UNL     1      -7.814  11.066  68.913  1.00  0.00    -0.138 C  
ENDBRANCH  13  14
ENDBRANCH   2  13
BRANCH   4  20
HETATM   20  C   UNL     1      -6.899   8.055  70.825  1.00  0.00    -0.037 C  
BRANCH  20  21
HETATM   21  C   UNL     1      -6.618   7.130  69.616  1.00  0.00    -0.044 C  
BRANCH  21  22
HETATM   22  C   UNL     1      -7.411   5.846  69.362  1.00  0.00    -0.087 C  
HETATM   23  C   UNL     1      -6.873   4.585  70.012  1.00  0.00    -0.041 C  
HETATM   24  C   UNL     1      -7.954   3.513  69.920  1.00  0.00    -0.049 C  
HETATM   25  O   UNL     1      -8.999   3.757  70.872  1.00  0.00    -0.081 OA 
HETATM   26  C   UNL     1      -8.514   3.379  68.512  1.00  0.00    -0.105 C  
HETATM   27  C   UNL     1      -8.644   4.677  67.737  1.00  0.00    -0.103 C  
HETATM   28  H   UNL     1      -9.672   3.090  70.815  1.00  0.00     0.000 HD 
HETATM   29  O   UNL     1      -9.473   4.829  66.852  1.00  0.00    -0.135 OA 
HETATM   30  O   UNL     1      -7.669   5.606  67.974  1.00  0.00    -0.087 OA 
ENDBRANCH  21  22
ENDBRANCH  20  21
ENDBRANCH   4  20
TORSDOF 5
ENDMDL
MODEL      187
REMARK 921   NORMALIZED FREE ENERGY PREDICTED BY IDOCK:   -3.49 KCAL/MOL
REMARK 922        TOTAL FREE ENERGY PREDICTED BY IDOCK:   -6.10 KCAL/MOL
REMARK 923 INTER-LIGAND FREE ENERGY PREDICTED BY IDOCK:   -4.17 KCAL/MOL
REMARK 924 INTRA-LIGAND FREE ENERGY PREDICTED BY IDOCK:   -1.92 KCAL/MOL
REMARK 927      BINDING AFFINITY PREDICTED BY RF-SCORE:    0.00 PKD
ROOT
HETATM    1  C   UNL     1      -8.996   6.053  68.701  1.00  0.00    -0.118 C  
HETATM    2  C   UNL     1      -8.680   5.717  70.200  1.00  0.00    -0.137 C  
HETATM    3  C   UNL     1      -9.701   6.209  71.238  1.00  0.00    -0.196 C  
HETATM    4  C   UNL     1      -7.988   6.988  67.891  1.00  0.00    -0.115 C  
HETATM    5  C   UNL     1     -11.137   5.866  70.880  1.00  0.00    -0.312 C  
HETATM    6  C   UNL     1      -8.243   6.090  65.447  1.00  0.00    -0.141 C  
HETATM    7  C   UNL     1      -8.541   7.228  66.434  1.00  0.00    -0.141 C  
HETATM    8  C   UNL     1     -11.408   6.405  69.513  1.00  0.00    -0.460 C  
HETATM    9  C   UNL     1     -10.005   7.517  66.374  1.00  0.00    -0.119 C  
HETATM   10  C   UNL     1     -12.085   6.470  71.924  1.00  0.00    -0.388 C  
HETATM   11  C   UNL     1     -10.463   6.542  68.561  1.00  0.00    -0.257 C  
HETATM   12  C   UNL     1     -10.864   7.203  67.341  1.00  0.00    -0.346 C  
ENDROOT
BRANCH   2  13
HETATM   13  O   UNL     1      -7.466   6.312  70.661  1.00  0.00    -0.083 OA 
BRANCH  13  14
HETATM   14  C   UNL     1      -6.775   5.653  71.620  1.00  0.00    -0.058 C  
HETATM   15  C   UNL     1      -6.503   4.928  74.562  1.00  0.00    -0.065 C  
HETATM   16  C   UNL     1      -6.263   6.623  72.675  1.00  0.00    -0.054 C  
HETATM   17  O   UNL     1      -6.540   4.452  71.603  1.00  0.00    -0.024 OA 
HETATM   18  C   UNL     1      -6.899   6.299  74.029  1.00  0.00    -0.082 C  
HETATM   19  C   UNL     1      -6.519   8.091  72.297  1.00  0.00    -0.066 C  
ENDBRANCH  13  14
ENDBRANCH   2  13
BRANCH   4  20
HETATM   20  C   UNL     1      -6.452   6.616  67.766  1.00  0.00    -0.053 C  
BRANCH  20  21
HETATM   21  C   UNL     1      -5.572   7.842  68.114  1.00  0.00    -0.032 C  
BRANCH  21  22
HETATM   22  C   UNL     1      -6.159   9.236  68.343  1.00  0.00    -0.045 C  
HETATM   23  C   UNL     1      -6.410  10.071  67.102  1.00  0.00    -0.067 C  
HETATM   24  C   UNL     1      -7.282  11.256  67.504  1.00  0.00    -0.100 C  
HETATM   25  O   UNL     1      -8.641  10.848  67.706  1.00  0.00    -0.125 OA 
HETATM   26  C   UNL     1      -6.739  11.982  68.726  1.00  0.00    -0.087 C  
HETATM   27  C   UNL     1      -6.105  11.096  69.782  1.00  0.00    -0.107 C  
HETATM   28  H   UNL     1      -9.184  11.586  67.956  1.00  0.00     0.000 HD 
HETATM   29  O   UNL     1      -6.069  11.409  70.962  1.00  0.00    -0.360 OA 
HETATM   30  O   UNL     1      -5.430  10.004  69.308  1.00  0.00    -0.035 OA 
ENDBRANCH  21  22
ENDBRANCH  20  21
ENDBRANCH   4  20
TORSDOF 5
ENDMDL
MODEL      188
REMARK 921   NORMALIZED FREE ENERGY PREDICTED BY IDOCK:   -3.47 KCAL/MOL
REMARK 922        TOTAL FREE ENERGY PREDICTED BY IDOCK:   -6.07 KCAL/MOL
REMARK 923 INTER-LIGAND FREE ENERGY PREDICTED BY IDOCK:   -4.67 KCAL/MOL
REMARK 924 INTRA-LIGAND FREE ENERGY PREDICTED BY IDOCK:   -1.40 KCAL/MOL
REMARK 927      BINDING AFFINITY PREDICTED BY RF-SCORE:    0.00 PKD
ROOT
HETATM    1  C   UNL     1      -9.078   8.921  68.630  1.00  0.00    -0.137 C  
HETATM    2  C   UNL     1      -9.984   7.930  69.442  1.00  0.00    -0.189 C  
HETATM    3  C   UNL     1     -10.810   8.543  70.583  1.00  0.00    -0.255 C  
HETATM    4  C   UNL     1      -7.497   8.716  68.653  1.00  0.00    -0.096 C  
HETATM    5  C   UNL     1     -11.577   9.788  70.171  1.00  0.00    -0.239 C  
HETATM    6  C   UNL     1      -6.789   9.617  66.300  1.00  0.00    -0.091 C  
HETATM    7  C   UNL     1      -6.802   9.858  67.817  1.00  0.00    -0.080 C  
HETATM    8  C   UNL     1     -10.598  10.757  69.592  1.00  0.00    -0.222 C  
HETATM    9  C   UNL     1      -7.358  11.222  68.061  1.00  0.00    -0.092 C  
HETATM   10  C   UNL     1     -12.300  10.374  71.391  1.00  0.00    -0.500 C  
HETATM   11  C   UNL     1      -9.467  10.388  68.958  1.00  0.00    -0.205 C  
HETATM   12  C   UNL     1      -8.564  11.450  68.577  1.00  0.00    -0.150 C  
ENDROOT
BRANCH   2  13
HETATM   13  O   UNL     1      -9.235   6.918  70.117  1.00  0.00    -0.155 OA 
BRANCH  13  14
HETATM   14  C   UNL     1      -9.931   5.908  70.689  1.00  0.00    -0.189 C  
HETATM   15  C   UNL     1     -11.460   4.881  73.111  1.00  0.00    -0.362 C  
HETATM   16  C   UNL     1      -9.252   5.449  71.972  1.00  0.00    -0.152 C  
HETATM   17  O   UNL     1     -10.930   5.393  70.206  1.00  0.00    -0.225 OA 
HETATM   18  C   UNL     1     -10.177   5.700  73.167  1.00  0.00    -0.212 C  
HETATM   19  C   UNL     1      -7.891   6.129  72.192  1.00  0.00    -0.101 C  
ENDBRANCH  13  14
ENDBRANCH   2  13
BRANCH   4  20
HETATM   20  C   UNL     1      -6.847   7.337  68.214  1.00  0.00    -0.070 C  
BRANCH  20  21
HETATM   21  C   UNL     1      -7.648   6.714  67.045  1.00  0.00    -0.095 C  
BRANCH  21  22
HETATM   22  C   UNL     1      -8.070   5.243  67.030  1.00  0.00    -0.104 C  
HETATM   23  C   UNL     1      -7.465   4.360  68.105  1.00  0.00    -0.065 C  
HETATM   24  C   UNL     1      -8.243   3.049  68.127  1.00  0.00    -0.076 C  
HETATM   25  O   UNL     1      -9.520   3.222  68.755  1.00  0.00    -0.171 OA 
HETATM   26  C   UNL     1      -8.391   2.443  66.739  1.00  0.00    -0.091 C  
HETATM   27  C   UNL     1      -8.586   3.440  65.611  1.00  0.00    -0.116 C  
HETATM   28  H   UNL     1     -10.005   2.406  68.769  1.00  0.00     0.000 HD 
HETATM   29  O   UNL     1      -9.179   3.153  64.582  1.00  0.00    -0.131 OA 
HETATM   30  O   UNL     1      -7.915   4.624  65.748  1.00  0.00    -0.097 OA 
ENDBRANCH  21  22
ENDBRANCH  20  21
ENDBRANCH   4  20
TORSDOF 5
ENDMDL
MODEL      189
REMARK 921   NORMALIZED FREE ENERGY PREDICTED BY IDOCK:   -3.45 KCAL/MOL
REMARK 922        TOTAL FREE ENERGY PREDICTED BY IDOCK:   -6.05 KCAL/MOL
REMARK 923 INTER-LIGAND FREE ENERGY PREDICTED BY IDOCK:   -6.51 KCAL/MOL
REMARK 924 INTRA-LIGAND FREE ENERGY PREDICTED BY IDOCK:    0.46 KCAL/MOL
REMARK 927      BINDING AFFINITY PREDICTED BY RF-SCORE:    0.00 PKD
ROOT
HETATM    1  C   UNL     1      -9.554  12.224  68.307  1.00  0.00    -0.212 C  
HETATM    2  C   UNL     1     -10.964  12.880  68.506  1.00  0.00    -0.259 C  
HETATM    3  C   UNL     1     -12.073  11.961  69.041  1.00  0.00    -0.245 C  
HETATM    4  C   UNL     1      -8.936  12.155  66.838  1.00  0.00    -0.201 C  
HETATM    5  C   UNL     1     -11.655  11.159  70.261  1.00  0.00    -0.388 C  
HETATM    6  C   UNL     1      -6.366  12.288  67.313  1.00  0.00    -0.150 C  
HETATM    7  C   UNL     1      -7.548  11.408  66.881  1.00  0.00    -0.151 C  
HETATM    8  C   UNL     1     -10.412  10.408  69.909  1.00  0.00    -0.266 C  
HETATM    9  C   UNL     1      -7.539  10.179  67.729  1.00  0.00    -0.090 C  
HETATM   10  C   UNL     1     -12.791  10.212  70.669  1.00  0.00    -0.314 C  
HETATM   11  C   UNL     1      -9.504  10.841  69.011  1.00  0.00    -0.179 C  
HETATM   12  C   UNL     1      -8.428   9.932  68.688  1.00  0.00    -0.114 C  
ENDROOT
BRANCH   2  13
HETATM   13  O   UNL     1     -11.531  13.364  67.287  1.00  0.00    -0.307 OA 
BRANCH  13  14
HETATM   14  C   UNL     1     -11.835  12.450  66.337  1.00  0.00    -0.354 C  
HETATM   15  C   UNL     1     -11.322  11.376  63.536  1.00  0.00    -0.257 C  
HETATM   16  C   UNL     1     -12.338  13.135  65.074  1.00  0.00    -0.511 C  
HETATM   17  O   UNL     1     -11.775  11.238  66.496  1.00  0.00    -0.323 OA 
HETATM   18  C   UNL     1     -11.382  12.851  63.913  1.00  0.00    -0.489 C  
HETATM   19  C   UNL     1     -12.523  14.650  65.262  1.00  0.00    -0.182 C  
ENDBRANCH  13  14
ENDBRANCH   2  13
BRANCH   4  20
HETATM   20  C   UNL     1      -8.747  13.469  65.970  1.00  0.00     0.736 C  
BRANCH  20  21
HETATM   21  C   UNL     1      -8.468  14.684  66.889  1.00  0.00    -0.203 C  
BRANCH  21  22
HETATM   22  C   UNL     1      -9.436  15.864  67.006  1.00  0.00    -0.222 C  
HETATM   23  C   UNL     1      -8.934  17.198  66.487  1.00  0.00    -0.300 C  
HETATM   24  C   UNL     1     -10.129  18.141  66.389  1.00  0.00    -0.389 C  
HETATM   25  O   UNL     1     -10.944  17.818  65.255  1.00  0.00    -0.557 OA 
HETATM   26  C   UNL     1     -10.951  18.164  67.668  1.00  0.00    -0.118 C  
HETATM   27  C   UNL     1     -11.073  16.833  68.388  1.00  0.00    -0.266 C  
HETATM   28  H   UNL     1     -11.688  18.405  65.193  1.00  0.00     0.000 HD 
HETATM   29  O   UNL     1     -12.029  16.560  69.099  1.00  0.00     0.017 OA 
HETATM   30  O   UNL     1      -9.971  16.025  68.325  1.00  0.00    -0.216 OA 
ENDBRANCH  21  22
ENDBRANCH  20  21
ENDBRANCH   4  20
TORSDOF 5
ENDMDL
MODEL      190
REMARK 921   NORMALIZED FREE ENERGY PREDICTED BY IDOCK:   -3.45 KCAL/MOL
REMARK 922        TOTAL FREE ENERGY PREDICTED BY IDOCK:   -6.04 KCAL/MOL
REMARK 923 INTER-LIGAND FREE ENERGY PREDICTED BY IDOCK:   -6.92 KCAL/MOL
REMARK 924 INTRA-LIGAND FREE ENERGY PREDICTED BY IDOCK:    0.88 KCAL/MOL
REMARK 927      BINDING AFFINITY PREDICTED BY RF-SCORE:    0.00 PKD
ROOT
HETATM    1  C   UNL     1      -7.871  18.327  67.427  1.00  0.00    -0.229 C  
HETATM    2  C   UNL     1      -6.621  17.422  67.148  1.00  0.00    -0.163 C  
HETATM    3  C   UNL     1      -6.033  17.490  65.730  1.00  0.00     0.001 C  
HETATM    4  C   UNL     1      -9.256  17.634  67.812  1.00  0.00    -0.251 C  
HETATM    5  C   UNL     1      -5.814  18.910  65.236  1.00  0.00    -0.274 C  
HETATM    6  C   UNL     1     -10.363  19.433  69.356  1.00  0.00     0.143 C  
HETATM    7  C   UNL     1     -10.370  18.736  67.988  1.00  0.00    -0.442 C  
HETATM    8  C   UNL     1      -7.114  19.639  65.351  1.00  0.00    -0.221 C  
HETATM    9  C   UNL     1     -10.358  19.794  66.933  1.00  0.00    -0.601 C  
HETATM   10  C   UNL     1      -5.309  18.878  63.788  1.00  0.00    -0.237 C  
HETATM   11  C   UNL     1      -8.051  19.357  66.278  1.00  0.00    -0.335 C  
HETATM   12  C   UNL     1      -9.305  20.065  66.166  1.00  0.00    -0.415 C  
ENDROOT
BRANCH   2  13
HETATM   13  O   UNL     1      -6.899  16.028  67.296  1.00  0.00    -0.172 OA 
BRANCH  13  14
HETATM   14  C   UNL     1      -5.948  15.264  67.882  1.00  0.00    -0.150 C  
HETATM   15  C   UNL     1      -5.125  13.540  70.250  1.00  0.00    -0.097 C  
HETATM   16  C   UNL     1      -5.557  15.838  69.236  1.00  0.00    -0.109 C  
HETATM   17  O   UNL     1      -5.429  14.284  67.363  1.00  0.00    -0.340 OA 
HETATM   18  C   UNL     1      -5.912  14.841  70.344  1.00  0.00    -0.159 C  
HETATM   19  C   UNL     1      -6.213  17.201  69.508  1.00  0.00    -0.242 C  
ENDBRANCH  13  14
ENDBRANCH   2  13
BRANCH   4  20
HETATM   20  C   UNL     1      -9.357  16.648  69.049  1.00  0.00    -0.227 C  
BRANCH  20  21
HETATM   21  C   UNL     1      -9.891  15.267  68.594  1.00  0.00    -0.211 C  
BRANCH  21  22
HETATM   22  C   UNL     1     -10.838  14.428  69.455  1.00  0.00    -0.201 C  
HETATM   23  C   UNL     1     -11.720  13.440  68.715  1.00  0.00    -0.377 C  
HETATM   24  C   UNL     1     -12.328  12.494  69.744  1.00  0.00    -0.020 C  
HETATM   25  O   UNL     1     -11.359  11.541  70.200  1.00  0.00    -0.475 OA 
HETATM   26  C   UNL     1     -12.956  13.240  70.912  1.00  0.00    -0.171 C  
HETATM   27  C   UNL     1     -12.225  14.495  71.352  1.00  0.00    -0.358 C  
HETATM   28  H   UNL     1     -11.738  10.952  70.842  1.00  0.00     0.000 HD 
HETATM   29  O   UNL     1     -12.285  14.918  72.496  1.00  0.00    -0.336 OA 
HETATM   30  O   UNL     1     -11.632  15.214  70.350  1.00  0.00    -0.253 OA 
ENDBRANCH  21  22
ENDBRANCH  20  21
ENDBRANCH   4  20
TORSDOF 5
ENDMDL
MODEL      191
REMARK 921   NORMALIZED FREE ENERGY PREDICTED BY IDOCK:   -3.43 KCAL/MOL
REMARK 922        TOTAL FREE ENERGY PREDICTED BY IDOCK:   -6.01 KCAL/MOL
REMARK 923 INTER-LIGAND FREE ENERGY PREDICTED BY IDOCK:   -6.48 KCAL/MOL
REMARK 924 INTRA-LIGAND FREE ENERGY PREDICTED BY IDOCK:    0.46 KCAL/MOL
REMARK 927      BINDING AFFINITY PREDICTED BY RF-SCORE:    0.00 PKD
ROOT
HETATM    1  C   UNL     1     -11.144  11.074  69.851  1.00  0.00    -0.276 C  
HETATM    2  C   UNL     1     -10.957  12.224  68.801  1.00  0.00    -0.236 C  
HETATM    3  C   UNL     1     -11.949  13.394  68.889  1.00  0.00    -0.362 C  
HETATM    4  C   UNL     1     -11.501   9.608  69.335  1.00  0.00     0.048 C  
HETATM    5  C   UNL     1     -12.108  13.945  70.295  1.00  0.00    -0.423 C  
HETATM    6  C   UNL     1     -10.387   8.094  71.155  1.00  0.00    -0.237 C  
HETATM    7  C   UNL     1     -11.695   8.643  70.567  1.00  0.00    -0.097 C  
HETATM    8  C   UNL     1     -12.486  12.809  71.190  1.00  0.00    -0.335 C  
HETATM    9  C   UNL     1     -12.491   9.230  71.686  1.00  0.00    -0.448 C  
HETATM   10  C   UNL     1     -13.176  15.047  70.298  1.00  0.00    -0.025 C  
HETATM   11  C   UNL     1     -12.112  11.532  70.977  1.00  0.00    -0.258 C  
HETATM   12  C   UNL     1     -12.673  10.537  71.861  1.00  0.00    -0.436 C  
ENDROOT
BRANCH   2  13
HETATM   13  O   UNL     1     -11.126  11.780  67.454  1.00  0.00    -0.247 OA 
BRANCH  13  14
HETATM   14  C   UNL     1     -11.269  12.730  66.500  1.00  0.00    -0.307 C  
HETATM   15  C   UNL     1     -12.494  13.543  63.837  1.00  0.00    -0.295 C  
HETATM   16  C   UNL     1     -10.762  12.221  65.157  1.00  0.00    -0.330 C  
HETATM   17  O   UNL     1     -11.686  13.862  66.705  1.00  0.00    -0.354 OA 
HETATM   18  C   UNL     1     -11.917  12.170  64.153  1.00  0.00    -0.497 C  
HETATM   19  C   UNL     1     -10.082  10.847  65.268  1.00  0.00    -0.340 C  
ENDBRANCH  13  14
ENDBRANCH   2  13
BRANCH   4  20
HETATM   20  C   UNL     1     -10.573   8.864  68.285  1.00  0.00    -0.203 C  
BRANCH  20  21
HETATM   21  C   UNL     1      -9.086   9.215  68.540  1.00  0.00    -0.132 C  
BRANCH  21  22
HETATM   22  C   UNL     1      -8.026   9.149  67.438  1.00  0.00    -0.103 C  
HETATM   23  C   UNL     1      -7.575   7.762  67.022  1.00  0.00    -0.100 C  
HETATM   24  C   UNL     1      -6.790   7.894  65.723  1.00  0.00    -0.056 C  
HETATM   25  O   UNL     1      -7.669   8.121  64.613  1.00  0.00    -0.103 OA 
HETATM   26  C   UNL     1      -5.719   8.972  65.804  1.00  0.00    -0.050 C  
HETATM   27  C   UNL     1      -6.093  10.202  66.611  1.00  0.00    -0.065 C  
HETATM   28  H   UNL     1      -7.180   8.204  63.803  1.00  0.00     0.000 HD 
HETATM   29  O   UNL     1      -5.604  11.300  66.392  1.00  0.00    -0.127 OA 
HETATM   30  O   UNL     1      -6.885   9.973  67.702  1.00  0.00    -0.081 OA 
ENDBRANCH  21  22
ENDBRANCH  20  21
ENDBRANCH   4  20
TORSDOF 5
ENDMDL
MODEL      192
REMARK 921   NORMALIZED FREE ENERGY PREDICTED BY IDOCK:   -3.42 KCAL/MOL
REMARK 922        TOTAL FREE ENERGY PREDICTED BY IDOCK:   -6.01 KCAL/MOL
REMARK 923 INTER-LIGAND FREE ENERGY PREDICTED BY IDOCK:   -5.44 KCAL/MOL
REMARK 924 INTRA-LIGAND FREE ENERGY PREDICTED BY IDOCK:   -0.57 KCAL/MOL
REMARK 927      BINDING AFFINITY PREDICTED BY RF-SCORE:    0.00 PKD
ROOT
HETATM    1  C   UNL     1      -9.498   6.985  69.855  1.00  0.00    -0.157 C  
HETATM    2  C   UNL     1     -10.060   8.263  70.569  1.00  0.00    -0.195 C  
HETATM    3  C   UNL     1     -10.045   8.247  72.106  1.00  0.00    -0.344 C  
HETATM    4  C   UNL     1     -10.476   6.119  68.940  1.00  0.00    -0.293 C  
HETATM    5  C   UNL     1      -8.709   7.825  72.691  1.00  0.00    -0.198 C  
HETATM    6  C   UNL     1      -8.838   5.149  67.145  1.00  0.00    -0.109 C  
HETATM    7  C   UNL     1      -9.705   4.863  68.379  1.00  0.00    -0.212 C  
HETATM    8  C   UNL     1      -8.352   6.498  72.103  1.00  0.00    -0.107 C  
HETATM    9  C   UNL     1      -8.852   4.167  69.389  1.00  0.00    -0.142 C  
HETATM   10  C   UNL     1      -8.816   7.756  74.220  1.00  0.00    -0.187 C  
HETATM   11  C   UNL     1      -8.738   6.095  70.876  1.00  0.00    -0.136 C  
HETATM   12  C   UNL     1      -8.421   4.733  70.513  1.00  0.00    -0.106 C  
ENDROOT
BRANCH   2  13
HETATM   13  O   UNL     1     -11.439   8.501  70.280  1.00  0.00    -0.194 OA 
BRANCH  13  14
HETATM   14  C   UNL     1     -11.833   9.789  70.147  1.00  0.00    -0.079 C  
HETATM   15  C   UNL     1     -12.670  12.381  71.504  1.00  0.00    -0.333 C  
HETATM   16  C   UNL     1     -13.204   9.998  70.775  1.00  0.00    -0.270 C  
HETATM   17  O   UNL     1     -11.202  10.649  69.547  1.00  0.00    -0.232 OA 
HETATM   18  C   UNL     1     -13.095  10.985  71.941  1.00  0.00    -0.525 C  
HETATM   19  C   UNL     1     -13.843   8.680  71.242  1.00  0.00    -0.217 C  
ENDBRANCH  13  14
ENDBRANCH   2  13
BRANCH   4  20
HETATM   20  C   UNL     1     -11.259   6.781  67.729  1.00  0.00    -0.195 C  
BRANCH  20  21
HETATM   21  C   UNL     1     -10.604   8.129  67.339  1.00  0.00    -0.325 C  
BRANCH  21  22
HETATM   22  C   UNL     1      -9.245   8.210  66.640  1.00  0.00    -0.180 C  
HETATM   23  C   UNL     1      -8.128   8.880  67.418  1.00  0.00    -0.108 C  
HETATM   24  C   UNL     1      -6.814   8.572  66.709  1.00  0.00    -0.069 C  
HETATM   25  O   UNL     1      -6.402   7.222  66.959  1.00  0.00    -0.047 OA 
HETATM   26  C   UNL     1      -6.883   8.858  65.217  1.00  0.00    -0.072 C  
HETATM   27  C   UNL     1      -8.211   8.542  64.554  1.00  0.00    -0.156 C  
HETATM   28  H   UNL     1      -5.583   7.029  66.518  1.00  0.00     0.000 HD 
HETATM   29  O   UNL     1      -8.298   8.252  63.370  1.00  0.00    -0.133 OA 
HETATM   30  O   UNL     1      -9.321   8.765  65.322  1.00  0.00    -0.122 OA 
ENDBRANCH  21  22
ENDBRANCH  20  21
ENDBRANCH   4  20
TORSDOF 5
ENDMDL
MODEL      193
REMARK 921   NORMALIZED FREE ENERGY PREDICTED BY IDOCK:   -3.42 KCAL/MOL
REMARK 922        TOTAL FREE ENERGY PREDICTED BY IDOCK:   -6.00 KCAL/MOL
REMARK 923 INTER-LIGAND FREE ENERGY PREDICTED BY IDOCK:   -5.95 KCAL/MOL
REMARK 924 INTRA-LIGAND FREE ENERGY PREDICTED BY IDOCK:   -0.06 KCAL/MOL
REMARK 927      BINDING AFFINITY PREDICTED BY RF-SCORE:    0.00 PKD
ROOT
HETATM    1  C   UNL     1      -7.924  11.805  67.998  1.00  0.00    -0.141 C  
HETATM    2  C   UNL     1      -9.003  12.733  67.339  1.00  0.00    -0.195 C  
HETATM    3  C   UNL     1      -8.950  14.220  67.726  1.00  0.00    -0.188 C  
HETATM    4  C   UNL     1      -8.404  10.625  68.958  1.00  0.00    -0.153 C  
HETATM    5  C   UNL     1      -7.559  14.821  67.620  1.00  0.00    -0.193 C  
HETATM    6  C   UNL     1      -6.540   8.825  68.595  1.00  0.00    -0.055 C  
HETATM    7  C   UNL     1      -7.147   9.871  69.540  1.00  0.00    -0.082 C  
HETATM    8  C   UNL     1      -6.636  13.983  68.445  1.00  0.00    -0.106 C  
HETATM    9  C   UNL     1      -6.047  10.773  69.995  1.00  0.00    -0.107 C  
HETATM   10  C   UNL     1      -7.589  16.276  68.106  1.00  0.00    -0.151 C  
HETATM   11  C   UNL     1      -6.815  12.665  68.662  1.00  0.00    -0.091 C  
HETATM   12  C   UNL     1      -5.907  12.034  69.592  1.00  0.00    -0.106 C  
ENDROOT
BRANCH   2  13
HETATM   13  O   UNL     1     -10.339  12.374  67.695  1.00  0.00    -0.211 OA 
BRANCH  13  14
HETATM   14  C   UNL     1     -11.249  13.372  67.783  1.00  0.00    -0.279 C  
HETATM   15  C   UNL     1     -12.121  15.952  69.140  1.00  0.00    -0.158 C  
HETATM   16  C   UNL     1     -11.862  13.417  69.176  1.00  0.00    -0.383 C  
HETATM   17  O   UNL     1     -11.580  14.093  66.852  1.00  0.00    -0.351 OA 
HETATM   18  C   UNL     1     -11.517  14.747  69.851  1.00  0.00    -0.322 C  
HETATM   19  C   UNL     1     -11.415  12.236  70.053  1.00  0.00    -0.133 C  
ENDBRANCH  13  14
ENDBRANCH   2  13
BRANCH   4  20
HETATM   20  C   UNL     1      -9.430   9.528  68.452  1.00  0.00    -0.144 C  
BRANCH  20  21
HETATM   21  C   UNL     1     -10.748   9.611  69.260  1.00  0.00    -0.246 C  
BRANCH  21  22
HETATM   22  C   UNL     1     -11.223   8.481  70.177  1.00  0.00    -0.136 C  
HETATM   23  C   UNL     1     -12.239   8.860  71.238  1.00  0.00    -0.351 C  
HETATM   24  C   UNL     1     -12.818   7.571  71.811  1.00  0.00    -0.327 C  
HETATM   25  O   UNL     1     -13.749   6.976  70.897  1.00  0.00    -0.441 OA 
HETATM   26  C   UNL     1     -11.736   6.581  72.214  1.00  0.00    -0.320 C  
HETATM   27  C   UNL     1     -10.517   6.546  71.311  1.00  0.00    -0.215 C  
HETATM   28  H   UNL     1     -14.110   6.174  71.254  1.00  0.00     0.000 HD 
HETATM   29  O   UNL     1      -9.823   5.548  71.188  1.00  0.00    -0.168 OA 
HETATM   30  O   UNL     1     -10.147   7.748  70.772  1.00  0.00    -0.192 OA 
ENDBRANCH  21  22
ENDBRANCH  20  21
ENDBRANCH   4  20
TORSDOF 5
ENDMDL
MODEL      194
REMARK 921   NORMALIZED FREE ENERGY PREDICTED BY IDOCK:   -3.34 KCAL/MOL
REMARK 922        TOTAL FREE ENERGY PREDICTED BY IDOCK:   -5.90 KCAL/MOL
REMARK 923 INTER-LIGAND FREE ENERGY PREDICTED BY IDOCK:   -6.22 KCAL/MOL
REMARK 924 INTRA-LIGAND FREE ENERGY PREDICTED BY IDOCK:    0.32 KCAL/MOL
REMARK 927      BINDING AFFINITY PREDICTED BY RF-SCORE:    0.00 PKD
ROOT
HETATM    1  C   UNL     1     -10.712  12.190  68.323  1.00  0.00    -0.248 C  
HETATM    2  C   UNL     1     -10.768  10.789  69.026  1.00  0.00    -0.228 C  
HETATM    3  C   UNL     1     -11.377  10.758  70.437  1.00  0.00    -0.342 C  
HETATM    4  C   UNL     1      -9.291  12.812  67.953  1.00  0.00    -0.208 C  
HETATM    5  C   UNL     1     -12.709  11.483  70.533  1.00  0.00    -0.193 C  
HETATM    6  C   UNL     1      -9.843  14.219  65.817  1.00  0.00    -0.314 C  
HETATM    7  C   UNL     1      -9.487  14.238  67.311  1.00  0.00    -0.220 C  
HETATM    8  C   UNL     1     -12.509  12.875  70.028  1.00  0.00    -0.084 C  
HETATM    9  C   UNL     1     -10.491  15.093  68.012  1.00  0.00    -0.247 C  
HETATM   10  C   UNL     1     -13.195  11.473  71.988  1.00  0.00    -0.443 C  
HETATM   11  C   UNL     1     -11.596  13.208  69.093  1.00  0.00    -0.368 C  
HETATM   12  C   UNL     1     -11.440  14.617  68.815  1.00  0.00    -0.322 C  
ENDROOT
BRANCH   2  13
HETATM   13  O   UNL     1      -9.474  10.222  69.241  1.00  0.00    -0.198 OA 
BRANCH  13  14
HETATM   14  C   UNL     1      -9.415   9.030  69.881  1.00  0.00    -0.177 C  
HETATM   15  C   UNL     1      -8.230   6.231  70.009  1.00  0.00    -0.125 C  
HETATM   16  C   UNL     1      -9.837   7.902  68.950  1.00  0.00    -0.174 C  
HETATM   17  O   UNL     1      -9.126   8.890  71.061  1.00  0.00    -0.201 OA 
HETATM   18  C   UNL     1      -8.663   6.943  68.733  1.00  0.00    -0.129 C  
HETATM   19  C   UNL     1     -10.367   8.418  67.603  1.00  0.00    -0.317 C  
ENDBRANCH  13  14
ENDBRANCH   2  13
BRANCH   4  20
HETATM   20  C   UNL     1      -8.263  12.014  67.046  1.00  0.00    -0.169 C  
BRANCH  20  21
HETATM   21  C   UNL     1      -9.020  11.174  65.988  1.00  0.00    -0.210 C  
BRANCH  21  22
HETATM   22  C   UNL     1      -8.295  10.328  64.938  1.00  0.00    -0.172 C  
HETATM   23  C   UNL     1      -8.432   8.824  65.077  1.00  0.00    -0.193 C  
HETATM   24  C   UNL     1      -7.933   8.188  63.784  1.00  0.00    -0.137 C  
HETATM   25  O   UNL     1      -8.894   8.344  62.732  1.00  0.00    -0.428 OA 
HETATM   26  C   UNL     1      -6.570   8.721  63.368  1.00  0.00    -0.089 C  
HETATM   27  C   UNL     1      -6.336  10.195  63.645  1.00  0.00    -0.133 C  
HETATM   28  H   UNL     1      -8.583   7.948  61.926  1.00  0.00     0.000 HD 
HETATM   29  O   UNL     1      -5.562  10.869  62.982  1.00  0.00    -0.143 OA 
HETATM   30  O   UNL     1      -6.915  10.680  64.786  1.00  0.00    -0.006 OA 
ENDBRANCH  21  22
ENDBRANCH  20  21
ENDBRANCH   4  20
TORSDOF 5
ENDMDL
MODEL      195
REMARK 921   NORMALIZED FREE ENERGY PREDICTED BY IDOCK:   -3.32 KCAL/MOL
REMARK 922        TOTAL FREE ENERGY PREDICTED BY IDOCK:   -5.87 KCAL/MOL
REMARK 923 INTER-LIGAND FREE ENERGY PREDICTED BY IDOCK:   -5.19 KCAL/MOL
REMARK 924 INTRA-LIGAND FREE ENERGY PREDICTED BY IDOCK:   -0.68 KCAL/MOL
REMARK 927      BINDING AFFINITY PREDICTED BY RF-SCORE:    0.00 PKD
ROOT
HETATM    1  C   UNL     1      -9.854   6.837  70.192  1.00  0.00    -0.187 C  
HETATM    2  C   UNL     1     -10.393   8.099  70.951  1.00  0.00    -0.190 C  
HETATM    3  C   UNL     1     -10.350   8.039  72.486  1.00  0.00    -0.374 C  
HETATM    4  C   UNL     1     -10.855   6.005  69.270  1.00  0.00    -0.428 C  
HETATM    5  C   UNL     1      -9.007   7.591  73.035  1.00  0.00    -0.207 C  
HETATM    6  C   UNL     1      -9.257   5.073  67.419  1.00  0.00    -0.127 C  
HETATM    7  C   UNL     1     -10.104   4.759  68.661  1.00  0.00    -0.114 C  
HETATM    8  C   UNL     1      -8.671   6.278  72.404  1.00  0.00    -0.121 C  
HETATM    9  C   UNL     1      -9.239   4.028  69.634  1.00  0.00    -0.217 C  
HETATM   10  C   UNL     1      -9.087   7.479  74.563  1.00  0.00     0.015 C  
HETATM   11  C   UNL     1      -9.082   5.913  71.173  1.00  0.00    -0.152 C  
HETATM   12  C   UNL     1      -8.783   4.559  70.766  1.00  0.00    -0.124 C  
ENDROOT
BRANCH   2  13
HETATM   13  O   UNL     1     -11.774   8.355  70.694  1.00  0.00    -0.254 OA 
BRANCH  13  14
HETATM   14  C   UNL     1     -12.108   9.596  70.266  1.00  0.00     0.023 C  
HETATM   15  C   UNL     1     -12.698  12.495  70.978  1.00  0.00    -0.316 C  
HETATM   16  C   UNL     1     -13.413  10.050  70.904  1.00  0.00    -0.179 C  
HETATM   17  O   UNL     1     -11.479  10.234  69.433  1.00  0.00    -0.234 OA 
HETATM   18  C   UNL     1     -13.163  11.283  71.776  1.00  0.00    -0.480 C  
HETATM   19  C   UNL     1     -14.085   8.937  71.725  1.00  0.00    -0.426 C  
ENDBRANCH  13  14
ENDBRANCH   2  13
BRANCH   4  20
HETATM   20  C   UNL     1     -11.654   6.706  68.093  1.00  0.00     0.423 C  
BRANCH  20  21
HETATM   21  C   UNL     1     -10.680   7.151  66.974  1.00  0.00    -0.420 C  
BRANCH  21  22
HETATM   22  C   UNL     1      -9.991   8.518  66.979  1.00  0.00    -0.250 C  
HETATM   23  C   UNL     1     -10.098   9.329  65.702  1.00  0.00     0.025 C  
HETATM   24  C   UNL     1      -9.649  10.753  66.013  1.00  0.00    -0.201 C  
HETATM   25  O   UNL     1     -10.660  11.461  66.743  1.00  0.00    -0.233 OA 
HETATM   26  C   UNL     1      -8.316  10.790  66.744  1.00  0.00    -0.136 C  
HETATM   27  C   UNL     1      -8.091   9.672  67.746  1.00  0.00    -0.113 C  
HETATM   28  H   UNL     1     -10.380  12.347  66.937  1.00  0.00     0.000 HD 
HETATM   29  O   UNL     1      -7.360   9.801  68.716  1.00  0.00    -0.071 OA 
HETATM   30  O   UNL     1      -8.626   8.459  67.406  1.00  0.00    -0.123 OA 
ENDBRANCH  21  22
ENDBRANCH  20  21
ENDBRANCH   4  20
TORSDOF 5
ENDMDL
MODEL      196
REMARK 921   NORMALIZED FREE ENERGY PREDICTED BY IDOCK:   -3.31 KCAL/MOL
REMARK 922        TOTAL FREE ENERGY PREDICTED BY IDOCK:   -5.86 KCAL/MOL
REMARK 923 INTER-LIGAND FREE ENERGY PREDICTED BY IDOCK:   -5.90 KCAL/MOL
REMARK 924 INTRA-LIGAND FREE ENERGY PREDICTED BY IDOCK:    0.04 KCAL/MOL
REMARK 927      BINDING AFFINITY PREDICTED BY RF-SCORE:    0.00 PKD
ROOT
HETATM    1  C   UNL     1      -9.605  16.046  67.408  1.00  0.00    -0.225 C  
HETATM    2  C   UNL     1      -8.782  16.787  68.518  1.00  0.00    -0.245 C  
HETATM    3  C   UNL     1      -8.767  18.322  68.445  1.00  0.00    -0.325 C  
HETATM    4  C   UNL     1      -8.842  15.074  66.400  1.00  0.00    -0.238 C  
HETATM    5  C   UNL     1     -10.148  18.931  68.277  1.00  0.00    -0.446 C  
HETATM    6  C   UNL     1     -10.680  13.295  65.849  1.00  0.00    -0.284 C  
HETATM    7  C   UNL     1      -9.862  14.494  65.347  1.00  0.00    -0.274 C  
HETATM    8  C   UNL     1     -10.777  18.309  67.073  1.00  0.00    -0.305 C  
HETATM    9  C   UNL     1     -10.815  15.502  64.797  1.00  0.00    -0.385 C  
HETATM   10  C   UNL     1     -10.024  20.453  68.128  1.00  0.00    -0.326 C  
HETATM   11  C   UNL     1     -10.507  17.058  66.649  1.00  0.00    -0.253 C  
HETATM   12  C   UNL     1     -11.099  16.658  65.393  1.00  0.00     0.014 C  
ENDROOT
BRANCH   2  13
HETATM   13  O   UNL     1      -7.390  16.466  68.486  1.00  0.00    -0.163 OA 
BRANCH  13  14
HETATM   14  C   UNL     1      -6.527  17.393  68.966  1.00  0.00    -0.226 C  
HETATM   15  C   UNL     1      -5.563  20.278  68.930  1.00  0.00    -0.302 C  
HETATM   16  C   UNL     1      -5.689  17.979  67.838  1.00  0.00    -0.158 C  
HETATM   17  O   UNL     1      -6.396  17.671  70.150  1.00  0.00    -0.062 OA 
HETATM   18  C   UNL     1      -5.978  19.477  67.703  1.00  0.00    -0.208 C  
HETATM   19  C   UNL     1      -5.922  17.262  66.499  1.00  0.00    -0.244 C  
ENDBRANCH  13  14
ENDBRANCH   2  13
BRANCH   4  20
HETATM   20  C   UNL     1      -7.968  13.865  66.939  1.00  0.00     0.190 C  
BRANCH  20  21
HETATM   21  C   UNL     1      -8.680  13.175  68.128  1.00  0.00    -0.193 C  
BRANCH  21  22
HETATM   22  C   UNL     1      -8.872  11.659  68.204  1.00  0.00    -0.164 C  
HETATM   23  C   UNL     1      -8.140  10.944  69.324  1.00  0.00    -0.062 C  
HETATM   24  C   UNL     1      -8.708   9.533  69.430  1.00  0.00    -0.165 C  
HETATM   25  O   UNL     1      -9.997   9.546  70.057  1.00  0.00    -0.205 OA 
HETATM   26  C   UNL     1      -8.760   8.831  68.082  1.00  0.00    -0.134 C  
HETATM   27  C   UNL     1      -9.104   9.717  66.899  1.00  0.00    -0.138 C  
HETATM   28  H   UNL     1     -10.351   8.667  70.123  1.00  0.00     0.000 HD 
HETATM   29  O   UNL     1      -9.645   9.282  65.893  1.00  0.00    -0.242 OA 
HETATM   30  O   UNL     1      -8.623  10.996  66.959  1.00  0.00    -0.134 OA 
ENDBRANCH  21  22
ENDBRANCH  20  21
ENDBRANCH   4  20
TORSDOF 5
ENDMDL
MODEL      197
REMARK 921   NORMALIZED FREE ENERGY PREDICTED BY IDOCK:   -3.30 KCAL/MOL
REMARK 922        TOTAL FREE ENERGY PREDICTED BY IDOCK:   -5.84 KCAL/MOL
REMARK 923 INTER-LIGAND FREE ENERGY PREDICTED BY IDOCK:   -5.35 KCAL/MOL
REMARK 924 INTRA-LIGAND FREE ENERGY PREDICTED BY IDOCK:   -0.50 KCAL/MOL
REMARK 927      BINDING AFFINITY PREDICTED BY RF-SCORE:    0.00 PKD
ROOT
HETATM    1  C   UNL     1      -9.555  15.715  67.518  1.00  0.00    -0.224 C  
HETATM    2  C   UNL     1      -8.718  16.586  68.517  1.00  0.00    -0.228 C  
HETATM    3  C   UNL     1      -8.866  18.110  68.381  1.00  0.00    -0.305 C  
HETATM    4  C   UNL     1      -8.787  14.773  66.485  1.00  0.00    -0.223 C  
HETATM    5  C   UNL     1     -10.311  18.572  68.316  1.00  0.00    -0.380 C  
HETATM    6  C   UNL     1     -10.475  12.798  66.177  1.00  0.00    -0.284 C  
HETATM    7  C   UNL     1      -9.831  14.045  65.554  1.00  0.00    -0.229 C  
HETATM    8  C   UNL     1     -10.977  17.832  67.201  1.00  0.00     0.006 C  
HETATM    9  C   UNL     1     -10.927  14.927  65.053  1.00  0.00    -0.432 C  
HETATM   10  C   UNL     1     -10.357  20.090  68.095  1.00  0.00    -0.503 C  
HETATM   11  C   UNL     1     -10.618  16.594  66.805  1.00  0.00    -0.214 C  
HETATM   12  C   UNL     1     -11.274  16.077  65.626  1.00  0.00     0.058 C  
ENDROOT
BRANCH   2  13
HETATM   13  O   UNL     1      -7.309  16.403  68.371  1.00  0.00    -0.155 OA 
BRANCH  13  14
HETATM   14  C   UNL     1      -6.502  17.397  68.811  1.00  0.00    -0.201 C  
HETATM   15  C   UNL     1      -5.751  20.343  68.703  1.00  0.00    -0.325 C  
HETATM   16  C   UNL     1      -5.740  18.022  67.652  1.00  0.00    -0.148 C  
HETATM   17  O   UNL     1      -6.360  17.704  69.987  1.00  0.00    -0.139 OA 
HETATM   18  C   UNL     1      -6.139  19.492  67.501  1.00  0.00    -0.208 C  
HETATM   19  C   UNL     1      -5.956  17.266  66.331  1.00  0.00    -0.228 C  
ENDBRANCH  13  14
ENDBRANCH   2  13
BRANCH   4  20
HETATM   20  C   UNL     1      -7.751  13.684  66.989  1.00  0.00     0.159 C  
BRANCH  20  21
HETATM   21  C   UNL     1      -8.242  13.048  68.313  1.00  0.00    -0.150 C  
BRANCH  21  22
HETATM   22  C   UNL     1      -7.283  12.636  69.432  1.00  0.00     0.267 C  
HETATM   23  C   UNL     1      -6.039  13.488  69.597  1.00  0.00    -0.121 C  
HETATM   24  C   UNL     1      -5.400  13.130  70.935  1.00  0.00    -0.171 C  
HETATM   25  O   UNL     1      -6.138  13.701  72.024  1.00  0.00    -0.525 OA 
HETATM   26  C   UNL     1      -5.236  11.628  71.111  1.00  0.00    -0.095 C  
HETATM   27  C   UNL     1      -6.354  10.779  70.535  1.00  0.00    -0.051 C  
HETATM   28  H   UNL     1      -5.741  13.478  72.857  1.00  0.00     0.000 HD 
HETATM   29  O   UNL     1      -6.632   9.676  70.981  1.00  0.00    -0.188 OA 
HETATM   30  O   UNL     1      -6.921  11.251  69.383  1.00  0.00    -0.112 OA 
ENDBRANCH  21  22
ENDBRANCH  20  21
ENDBRANCH   4  20
TORSDOF 5
ENDMDL
MODEL      198
REMARK 921   NORMALIZED FREE ENERGY PREDICTED BY IDOCK:   -3.27 KCAL/MOL
REMARK 922        TOTAL FREE ENERGY PREDICTED BY IDOCK:   -5.81 KCAL/MOL
REMARK 923 INTER-LIGAND FREE ENERGY PREDICTED BY IDOCK:   -5.88 KCAL/MOL
REMARK 924 INTRA-LIGAND FREE ENERGY PREDICTED BY IDOCK:    0.07 KCAL/MOL
REMARK 927      BINDING AFFINITY PREDICTED BY RF-SCORE:    0.00 PKD
ROOT
HETATM    1  C   UNL     1      -8.960  12.936  66.588  1.00  0.00    -0.141 C  
HETATM    2  C   UNL     1      -7.581  13.159  67.301  1.00  0.00    -0.080 C  
HETATM    3  C   UNL     1      -7.235  12.181  68.435  1.00  0.00    -0.097 C  
HETATM    4  C   UNL     1     -10.067  14.081  66.673  1.00  0.00    -0.276 C  
HETATM    5  C   UNL     1      -7.436  10.724  68.057  1.00  0.00    -0.090 C  
HETATM    6  C   UNL     1     -11.345  13.783  64.409  1.00  0.00    -0.375 C  
HETATM    7  C   UNL     1     -11.378  13.608  65.934  1.00  0.00    -0.317 C  
HETATM    8  C   UNL     1      -8.844  10.567  67.578  1.00  0.00    -0.131 C  
HETATM    9  C   UNL     1     -11.771  12.197  66.227  1.00  0.00    -0.389 C  
HETATM   10  C   UNL     1      -7.149   9.833  69.272  1.00  0.00    -0.066 C  
HETATM   11  C   UNL     1      -9.544  11.550  66.977  1.00  0.00    -0.199 C  
HETATM   12  C   UNL     1     -10.935  11.276  66.698  1.00  0.00    -0.326 C  
ENDROOT
BRANCH   2  13
HETATM   13  O   UNL     1      -7.491  14.427  67.953  1.00  0.00    -0.120 OA 
BRANCH  13  14
HETATM   14  C   UNL     1      -6.519  14.579  68.883  1.00  0.00    -0.092 C  
HETATM   15  C   UNL     1      -5.192  16.372  70.953  1.00  0.00    -0.143 C  
HETATM   16  C   UNL     1      -5.606  15.741  68.518  1.00  0.00    -0.102 C  
HETATM   17  O   UNL     1      -6.360  13.843  69.848  1.00  0.00    -0.134 OA 
HETATM   18  C   UNL     1      -5.699  16.830  69.591  1.00  0.00    -0.194 C  
HETATM   19  C   UNL     1      -5.921  16.323  67.131  1.00  0.00    -0.128 C  
ENDBRANCH  13  14
ENDBRANCH   2  13
BRANCH   4  20
HETATM   20  C   UNL     1      -9.751  15.558  66.190  1.00  0.00    -0.348 C  
BRANCH  20  21
HETATM   21  C   UNL     1      -9.632  16.507  67.408  1.00  0.00    -0.238 C  
BRANCH  21  22
HETATM   22  C   UNL     1      -9.643  18.031  67.266  1.00  0.00    -0.269 C  
HETATM   23  C   UNL     1      -8.640  18.623  66.294  1.00  0.00    -0.232 C  
HETATM   24  C   UNL     1      -9.024  20.078  66.052  1.00  0.00    -0.201 C  
HETATM   25  O   UNL     1     -10.165  20.169  65.188  1.00  0.00    -0.208 OA 
HETATM   26  C   UNL     1      -9.258  20.836  67.350  1.00  0.00    -0.363 C  
HETATM   27  C   UNL     1      -9.913  20.037  68.462  1.00  0.00    -0.336 C  
HETATM   28  H   UNL     1     -10.405  21.076  65.037  1.00  0.00     0.000 HD 
HETATM   29  O   UNL     1     -10.586  20.564  69.335  1.00  0.00     0.049 OA 
HETATM   30  O   UNL     1      -9.567  18.715  68.521  1.00  0.00    -0.328 OA 
ENDBRANCH  21  22
ENDBRANCH  20  21
ENDBRANCH   4  20
TORSDOF 5
ENDMDL
MODEL      199
REMARK 921   NORMALIZED FREE ENERGY PREDICTED BY IDOCK:   -3.25 KCAL/MOL
REMARK 922        TOTAL FREE ENERGY PREDICTED BY IDOCK:   -5.78 KCAL/MOL
REMARK 923 INTER-LIGAND FREE ENERGY PREDICTED BY IDOCK:   -4.08 KCAL/MOL
REMARK 924 INTRA-LIGAND FREE ENERGY PREDICTED BY IDOCK:   -1.70 KCAL/MOL
REMARK 927      BINDING AFFINITY PREDICTED BY RF-SCORE:    0.00 PKD
ROOT
HETATM    1  C   UNL     1     -10.232   8.847  68.302  1.00  0.00    -0.239 C  
HETATM    2  C   UNL     1     -10.092   7.346  68.732  1.00  0.00    -0.179 C  
HETATM    3  C   UNL     1      -9.655   7.092  70.184  1.00  0.00    -0.164 C  
HETATM    4  C   UNL     1      -9.288   9.410  67.146  1.00  0.00    -0.172 C  
HETATM    5  C   UNL     1     -10.450   7.891  71.202  1.00  0.00    -0.230 C  
HETATM    6  C   UNL     1     -10.793  11.248  66.048  1.00  0.00    -0.273 C  
HETATM    7  C   UNL     1      -9.572  10.946  66.929  1.00  0.00    -0.203 C  
HETATM    8  C   UNL     1     -10.357   9.334  70.822  1.00  0.00    -0.348 C  
HETATM    9  C   UNL     1      -9.713  11.728  68.193  1.00  0.00    -0.192 C  
HETATM   10  C   UNL     1      -9.887   7.638  72.607  1.00  0.00    -0.262 C  
HETATM   11  C   UNL     1     -10.208   9.766  69.554  1.00  0.00    -0.238 C  
HETATM   12  C   UNL     1     -10.000  11.184  69.374  1.00  0.00     0.055 C  
ENDROOT
BRANCH   2  13
HETATM   13  O   UNL     1      -9.097   6.643  67.987  1.00  0.00    -0.118 OA 
BRANCH  13  14
HETATM   14  C   UNL     1      -9.257   5.307  67.841  1.00  0.00    -0.112 C  
HETATM   15  C   UNL     1      -9.127   2.543  69.107  1.00  0.00    -0.188 C  
HETATM   16  C   UNL     1      -7.950   4.577  68.120  1.00  0.00    -0.080 C  
HETATM   17  O   UNL     1     -10.291   4.769  67.472  1.00  0.00    -0.106 OA 
HETATM   18  C   UNL     1      -8.118   3.662  69.336  1.00  0.00    -0.063 C  
HETATM   19  C   UNL     1      -6.772   5.542  68.330  1.00  0.00    -0.054 C  
ENDBRANCH  13  14
ENDBRANCH   2  13
BRANCH   4  20
HETATM   20  C   UNL     1      -9.251   8.723  65.717  1.00  0.00    -0.269 C  
BRANCH  20  21
HETATM   21  C   UNL     1      -7.797   8.341  65.342  1.00  0.00    -0.113 C  
BRANCH  21  22
HETATM   22  C   UNL     1      -7.468   7.162  64.425  1.00  0.00    -0.097 C  
HETATM   23  C   UNL     1      -7.151   7.502  62.981  1.00  0.00    -0.074 C  
HETATM   24  C   UNL     1      -6.541   6.265  62.331  1.00  0.00    -0.034 C  
HETATM   25  O   UNL     1      -5.185   6.078  62.759  1.00  0.00    -0.016 OA 
HETATM   26  C   UNL     1      -7.372   5.015  62.579  1.00  0.00    -0.042 C  
HETATM   27  C   UNL     1      -8.026   4.929  63.945  1.00  0.00    -0.098 C  
HETATM   28  H   UNL     1      -4.805   5.307  62.354  1.00  0.00     0.000 HD 
HETATM   29  O   UNL     1      -8.296   3.860  64.474  1.00  0.00    -0.096 OA 
HETATM   30  O   UNL     1      -8.447   6.118  64.474  1.00  0.00    -0.074 OA 
ENDBRANCH  21  22
ENDBRANCH  20  21
ENDBRANCH   4  20
TORSDOF 5
ENDMDL
MODEL      200
REMARK 921   NORMALIZED FREE ENERGY PREDICTED BY IDOCK:   -3.17 KCAL/MOL
REMARK 922        TOTAL FREE ENERGY PREDICTED BY IDOCK:   -5.68 KCAL/MOL
REMARK 923 INTER-LIGAND FREE ENERGY PREDICTED BY IDOCK:   -4.80 KCAL/MOL
REMARK 924 INTRA-LIGAND FREE ENERGY PREDICTED BY IDOCK:   -0.88 KCAL/MOL
REMARK 927      BINDING AFFINITY PREDICTED BY RF-SCORE:    0.00 PKD
ROOT
HETATM    1  C   UNL     1      -9.645   5.878  71.555  1.00  0.00    -0.175 C  
HETATM    2  C   UNL     1      -8.412   4.999  71.146  1.00  0.00    -0.120 C  
HETATM    3  C   UNL     1      -7.061   5.392  71.763  1.00  0.00    -0.076 C  
HETATM    4  C   UNL     1     -10.412   6.705  70.427  1.00  0.00    -0.249 C  
HETATM    5  C   UNL     1      -7.122   5.599  73.266  1.00  0.00    -0.086 C  
HETATM    6  C   UNL     1     -12.860   6.759  71.350  1.00  0.00    -0.287 C  
HETATM    7  C   UNL     1     -11.571   7.549  71.084  1.00  0.00    -0.304 C  
HETATM    8  C   UNL     1      -8.191   6.606  73.545  1.00  0.00    -0.121 C  
HETATM    9  C   UNL     1     -11.185   8.239  72.351  1.00  0.00    -0.451 C  
HETATM   10  C   UNL     1      -5.754   6.070  73.777  1.00  0.00    -0.052 C  
HETATM   11  C   UNL     1      -9.281   6.775  72.770  1.00  0.00    -0.149 C  
HETATM   12  C   UNL     1     -10.148   7.881  73.105  1.00  0.00    -0.362 C  
ENDROOT
BRANCH   2  13
HETATM   13  O   UNL     1      -8.134   5.049  69.745  1.00  0.00    -0.073 OA 
BRANCH  13  14
HETATM   14  C   UNL     1      -7.207   4.187  69.265  1.00  0.00    -0.050 C  
HETATM   15  C   UNL     1      -6.078   2.692  66.868  1.00  0.00    -0.024 C  
HETATM   16  C   UNL     1      -7.878   2.966  68.651  1.00  0.00    -0.057 C  
HETATM   17  O   UNL     1      -5.998   4.341  69.369  1.00  0.00    -0.021 OA 
HETATM   18  C   UNL     1      -7.560   2.898  67.154  1.00  0.00    -0.070 C  
HETATM   19  C   UNL     1      -9.398   2.953  68.880  1.00  0.00    -0.226 C  
ENDBRANCH  13  14
ENDBRANCH   2  13
BRANCH   4  20
HETATM   20  C   UNL     1     -11.011   5.980  69.150  1.00  0.00    -0.429 C  
BRANCH  20  21
HETATM   21  C   UNL     1     -11.020   6.946  67.940  1.00  0.00    -0.260 C  
BRANCH  21  22
HETATM   22  C   UNL     1      -9.842   7.869  67.616  1.00  0.00    -0.165 C  
HETATM   23  C   UNL     1     -10.039   8.827  66.457  1.00  0.00    -0.349 C  
HETATM   24  C   UNL     1      -8.917   9.858  66.506  1.00  0.00    -0.146 C  
HETATM   25  O   UNL     1      -9.144  10.813  67.551  1.00  0.00    -0.139 OA 
HETATM   26  C   UNL     1      -7.546   9.212  66.642  1.00  0.00    -0.089 C  
HETATM   27  C   UNL     1      -7.495   7.970  67.513  1.00  0.00    -0.097 C  
HETATM   28  H   UNL     1      -8.445  11.455  67.583  1.00  0.00     0.000 HD 
HETATM   29  O   UNL     1      -6.482   7.628  68.105  1.00  0.00    -0.050 OA 
HETATM   30  O   UNL     1      -8.603   7.168  67.463  1.00  0.00    -0.121 OA 
ENDBRANCH  21  22
ENDBRANCH  20  21
ENDBRANCH   4  20
TORSDOF 5
ENDMDL
MODEL      201
REMARK 921   NORMALIZED FREE ENERGY PREDICTED BY IDOCK:   -3.16 KCAL/MOL
REMARK 922        TOTAL FREE ENERGY PREDICTED BY IDOCK:   -5.67 KCAL/MOL
REMARK 923 INTER-LIGAND FREE ENERGY PREDICTED BY IDOCK:   -4.64 KCAL/MOL
REMARK 924 INTRA-LIGAND FREE ENERGY PREDICTED BY IDOCK:   -1.03 KCAL/MOL
REMARK 927      BINDING AFFINITY PREDICTED BY RF-SCORE:    0.00 PKD
ROOT
HETATM    1  C   UNL     1      -9.012   8.421  68.181  1.00  0.00    -0.139 C  
HETATM    2  C   UNL     1      -8.339   7.378  67.222  1.00  0.00    -0.119 C  
HETATM    3  C   UNL     1      -7.988   7.878  65.811  1.00  0.00    -0.109 C  
HETATM    4  C   UNL     1     -10.489   8.140  68.712  1.00  0.00    -0.198 C  
HETATM    5  C   UNL     1      -7.240   9.200  65.809  1.00  0.00    -0.089 C  
HETATM    6  C   UNL     1     -10.464   9.301  71.056  1.00  0.00    -0.384 C  
HETATM    7  C   UNL     1     -10.969   9.346  69.607  1.00  0.00    -0.216 C  
HETATM    8  C   UNL     1      -8.057  10.188  66.577  1.00  0.00    -0.121 C  
HETATM    9  C   UNL     1     -10.645  10.692  69.048  1.00  0.00    -0.249 C  
HETATM   10  C   UNL     1      -7.010   9.658  64.363  1.00  0.00    -0.118 C  
HETATM   11  C   UNL     1      -8.881   9.851  67.589  1.00  0.00    -0.126 C  
HETATM   12  C   UNL     1      -9.699  10.909  68.137  1.00  0.00    -0.174 C  
ENDROOT
BRANCH   2  13
HETATM   13  O   UNL     1      -9.176   6.253  66.947  1.00  0.00    -0.123 OA 
BRANCH  13  14
HETATM   14  C   UNL     1      -8.614   5.025  67.030  1.00  0.00    -0.105 C  
HETATM   15  C   UNL     1      -7.279   2.699  65.593  1.00  0.00    -0.066 C  
HETATM   16  C   UNL     1      -9.376   4.027  66.170  1.00  0.00    -0.174 C  
HETATM   17  O   UNL     1      -7.665   4.744  67.749  1.00  0.00    -0.082 OA 
HETATM   18  C   UNL     1      -8.464   3.496  65.061  1.00  0.00    -0.101 C  
HETATM   19  C   UNL     1     -10.659   4.627  65.572  1.00  0.00    -0.208 C  
ENDBRANCH  13  14
ENDBRANCH   2  13
BRANCH   4  20
HETATM   20  C   UNL     1     -10.837   6.800  69.485  1.00  0.00    -0.315 C  
BRANCH  20  21
HETATM   21  C   UNL     1      -9.584   6.264  70.221  1.00  0.00    -0.182 C  
BRANCH  21  22
HETATM   22  C   UNL     1      -9.602   5.888  71.705  1.00  0.00    -0.152 C  
HETATM   23  C   UNL     1      -8.256   5.847  72.403  1.00  0.00    -0.110 C  
HETATM   24  C   UNL     1      -8.510   5.784  73.905  1.00  0.00    -0.118 C  
HETATM   25  O   UNL     1      -8.919   7.061  74.410  1.00  0.00    -0.194 OA 
HETATM   26  C   UNL     1      -9.512   4.700  74.275  1.00  0.00    -0.132 C  
HETATM   27  C   UNL     1     -10.648   4.501  73.289  1.00  0.00    -0.216 C  
HETATM   28  H   UNL     1      -9.078   7.022  75.346  1.00  0.00     0.000 HD 
HETATM   29  O   UNL     1     -11.738   4.065  73.629  1.00  0.00    -0.126 OA 
HETATM   30  O   UNL     1     -10.325   4.681  71.972  1.00  0.00    -0.194 OA 
ENDBRANCH  21  22
ENDBRANCH  20  21
ENDBRANCH   4  20
TORSDOF 5
ENDMDL
MODEL      202
REMARK 921   NORMALIZED FREE ENERGY PREDICTED BY IDOCK:   -3.16 KCAL/MOL
REMARK 922        TOTAL FREE ENERGY PREDICTED BY IDOCK:   -5.67 KCAL/MOL
REMARK 923 INTER-LIGAND FREE ENERGY PREDICTED BY IDOCK:   -5.81 KCAL/MOL
REMARK 924 INTRA-LIGAND FREE ENERGY PREDICTED BY IDOCK:    0.14 KCAL/MOL
REMARK 927      BINDING AFFINITY PREDICTED BY RF-SCORE:    0.00 PKD
ROOT
HETATM    1  C   UNL     1      -9.802   8.878  70.604  1.00  0.00    -0.261 C  
HETATM    2  C   UNL     1      -9.110   9.292  69.259  1.00  0.00    -0.151 C  
HETATM    3  C   UNL     1      -9.982  10.057  68.251  1.00  0.00    -0.173 C  
HETATM    4  C   UNL     1      -9.948   7.328  70.951  1.00  0.00    -0.186 C  
HETATM    5  C   UNL     1     -10.739  11.220  68.869  1.00  0.00    -0.246 C  
HETATM    6  C   UNL     1      -9.847   7.335  73.565  1.00  0.00    -0.347 C  
HETATM    7  C   UNL     1     -10.721   7.160  72.315  1.00  0.00    -0.252 C  
HETATM    8  C   UNL     1     -11.530  10.689  70.021  1.00  0.00    -0.404 C  
HETATM    9  C   UNL     1     -11.912   8.049  72.458  1.00  0.00    -0.384 C  
HETATM   10  C   UNL     1     -11.643  11.865  67.811  1.00  0.00    -0.393 C  
HETATM   11  C   UNL     1     -11.154   9.626  70.760  1.00  0.00    -0.403 C  
HETATM   12  C   UNL     1     -12.098   9.161  71.750  1.00  0.00    -0.446 C  
ENDROOT
BRANCH   2  13
HETATM   13  O   UNL     1      -8.668   8.171  68.491  1.00  0.00    -0.133 OA 
BRANCH  13  14
HETATM   14  C   UNL     1      -9.584   7.553  67.710  1.00  0.00    -0.142 C  
HETATM   15  C   UNL     1     -10.264   5.199  65.906  1.00  0.00    -0.157 C  
HETATM   16  C   UNL     1      -9.069   7.418  66.284  1.00  0.00    -0.195 C  
HETATM   17  O   UNL     1     -10.697   7.210  68.085  1.00  0.00    -0.203 OA 
HETATM   18  C   UNL     1      -8.931   5.937  65.921  1.00  0.00    -0.149 C  
HETATM   19  C   UNL     1      -7.736   8.152  66.069  1.00  0.00    -0.090 C  
ENDBRANCH  13  14
ENDBRANCH   2  13
BRANCH   4  20
HETATM   20  C   UNL     1      -8.678   6.380  70.999  1.00  0.00    -0.135 C  
BRANCH  20  21
HETATM   21  C   UNL     1      -9.094   4.910  70.746  1.00  0.00    -0.181 C  
BRANCH  21  22
HETATM   22  C   UNL     1      -8.721   4.159  69.466  1.00  0.00    -0.083 C  
HETATM   23  C   UNL     1      -9.081   2.686  69.423  1.00  0.00    -0.188 C  
HETATM   24  C   UNL     1      -8.935   2.210  67.982  1.00  0.00    -0.148 C  
HETATM   25  O   UNL     1     -10.030   2.671  67.178  1.00  0.00    -0.149 OA 
HETATM   26  C   UNL     1      -7.600   2.613  67.374  1.00  0.00    -0.061 C  
HETATM   27  C   UNL     1      -7.076   3.973  67.797  1.00  0.00    -0.059 C  
HETATM   28  H   UNL     1      -9.940   2.375  66.280  1.00  0.00     0.000 HD 
HETATM   29  O   UNL     1      -6.333   4.635  67.088  1.00  0.00    -0.038 OA 
HETATM   30  O   UNL     1      -7.352   4.337  69.086  1.00  0.00    -0.054 OA 
ENDBRANCH  21  22
ENDBRANCH  20  21
ENDBRANCH   4  20
TORSDOF 5
ENDMDL
MODEL      203
REMARK 921   NORMALIZED FREE ENERGY PREDICTED BY IDOCK:   -3.16 KCAL/MOL
REMARK 922        TOTAL FREE ENERGY PREDICTED BY IDOCK:   -5.67 KCAL/MOL
REMARK 923 INTER-LIGAND FREE ENERGY PREDICTED BY IDOCK:   -4.18 KCAL/MOL
REMARK 924 INTRA-LIGAND FREE ENERGY PREDICTED BY IDOCK:   -1.49 KCAL/MOL
REMARK 927      BINDING AFFINITY PREDICTED BY RF-SCORE:    0.00 PKD
ROOT
HETATM    1  C   UNL     1      -7.785   9.661  67.133  1.00  0.00    -0.091 C  
HETATM    2  C   UNL     1      -8.199   9.266  68.593  1.00  0.00    -0.113 C  
HETATM    3  C   UNL     1      -7.221   9.665  69.710  1.00  0.00    -0.094 C  
HETATM    4  C   UNL     1      -7.532   8.504  66.063  1.00  0.00    -0.085 C  
HETATM    5  C   UNL     1      -6.774  11.114  69.630  1.00  0.00    -0.134 C  
HETATM    6  C   UNL     1      -8.225   9.663  63.822  1.00  0.00    -0.162 C  
HETATM    7  C   UNL     1      -7.075   9.139  64.694  1.00  0.00    -0.090 C  
HETATM    8  C   UNL     1      -6.207  11.342  68.266  1.00  0.00    -0.045 C  
HETATM    9  C   UNL     1      -6.067  10.232  64.831  1.00  0.00    -0.128 C  
HETATM   10  C   UNL     1      -5.739  11.394  70.728  1.00  0.00    -0.079 C  
HETATM   11  C   UNL     1      -6.607  10.671  67.167  1.00  0.00    -0.076 C  
HETATM   12  C   UNL     1      -5.863  10.917  65.953  1.00  0.00    -0.130 C  
ENDROOT
BRANCH   2  13
HETATM   13  O   UNL     1      -8.313   7.854  68.778  1.00  0.00    -0.125 OA 
BRANCH  13  14
HETATM   14  C   UNL     1      -9.462   7.388  69.321  1.00  0.00    -0.154 C  
HETATM   15  C   UNL     1     -10.806   5.840  71.569  1.00  0.00    -0.316 C  
HETATM   16  C   UNL     1      -9.429   5.870  69.425  1.00  0.00    -0.157 C  
HETATM   17  O   UNL     1     -10.419   8.088  69.625  1.00  0.00    -0.218 OA 
HETATM   18  C   UNL     1      -9.496   5.450  70.896  1.00  0.00    -0.214 C  
HETATM   19  C   UNL     1      -8.190   5.261  68.747  1.00  0.00    -0.089 C  
ENDBRANCH  13  14
ENDBRANCH   2  13
BRANCH   4  20
HETATM   20  C   UNL     1      -8.654   7.430  65.744  1.00  0.00    -0.150 C  
BRANCH  20  21
HETATM   21  C   UNL     1      -8.069   6.282  64.885  1.00  0.00    -0.130 C  
BRANCH  21  22
HETATM   22  C   UNL     1      -8.700   4.888  64.836  1.00  0.00    -0.150 C  
HETATM   23  C   UNL     1      -7.909   3.770  65.489  1.00  0.00    -0.093 C  
HETATM   24  C   UNL     1      -8.831   2.564  65.626  1.00  0.00    -0.127 C  
HETATM   25  O   UNL     1      -9.766   2.752  66.697  1.00  0.00    -0.396 OA 
HETATM   26  C   UNL     1      -9.546   2.234  64.325  1.00  0.00    -0.132 C  
HETATM   27  C   UNL     1      -9.958   3.430  63.487  1.00  0.00    -0.164 C  
HETATM   28  H   UNL     1     -10.340   2.001  66.783  1.00  0.00     0.000 HD 
HETATM   29  O   UNL     1     -10.909   3.395  62.720  1.00  0.00    -0.187 OA 
HETATM   30  O   UNL     1      -9.101   4.496  63.519  1.00  0.00    -0.145 OA 
ENDBRANCH  21  22
ENDBRANCH  20  21
ENDBRANCH   4  20
TORSDOF 5
ENDMDL
MODEL      204
REMARK 921   NORMALIZED FREE ENERGY PREDICTED BY IDOCK:   -3.14 KCAL/MOL
REMARK 922        TOTAL FREE ENERGY PREDICTED BY IDOCK:   -5.64 KCAL/MOL
REMARK 923 INTER-LIGAND FREE ENERGY PREDICTED BY IDOCK:   -5.71 KCAL/MOL
REMARK 924 INTRA-LIGAND FREE ENERGY PREDICTED BY IDOCK:    0.07 KCAL/MOL
REMARK 927      BINDING AFFINITY PREDICTED BY RF-SCORE:    0.00 PKD
ROOT
HETATM    1  C   UNL     1      -8.899   5.627  70.684  1.00  0.00    -0.145 C  
HETATM    2  C   UNL     1      -9.913   5.765  69.495  1.00  0.00    -0.191 C  
HETATM    3  C   UNL     1      -9.607   4.934  68.239  1.00  0.00    -0.196 C  
HETATM    4  C   UNL     1      -8.081   6.914  71.153  1.00  0.00    -0.110 C  
HETATM    5  C   UNL     1      -9.297   3.478  68.540  1.00  0.00    -0.229 C  
HETATM    6  C   UNL     1      -7.741   6.451  73.706  1.00  0.00    -0.091 C  
HETATM    7  C   UNL     1      -7.092   6.518  72.316  1.00  0.00    -0.077 C  
HETATM    8  C   UNL     1      -8.179   3.446  69.532  1.00  0.00    -0.071 C  
HETATM    9  C   UNL     1      -6.359   5.237  72.088  1.00  0.00    -0.039 C  
HETATM   10  C   UNL     1      -8.921   2.753  67.241  1.00  0.00    -0.183 C  
HETATM   11  C   UNL     1      -7.962   4.412  70.447  1.00  0.00    -0.056 C  
HETATM   12  C   UNL     1      -6.761   4.292  71.241  1.00  0.00    -0.031 C  
ENDROOT
BRANCH   2  13
HETATM   13  O   UNL     1      -9.982   7.093  68.973  1.00  0.00    -0.166 OA 
BRANCH  13  14
HETATM   14  C   UNL     1      -9.040   7.457  68.072  1.00  0.00    -0.130 C  
HETATM   15  C   UNL     1      -6.785   9.358  67.327  1.00  0.00    -0.075 C  
HETATM   16  C   UNL     1      -9.274   8.885  67.598  1.00  0.00    -0.151 C  
HETATM   17  O   UNL     1      -8.162   6.717  67.649  1.00  0.00    -0.120 OA 
HETATM   18  C   UNL     1      -8.088   9.765  68.002  1.00  0.00    -0.105 C  
HETATM   19  C   UNL     1     -10.589   9.473  68.133  1.00  0.00    -0.265 C  
ENDBRANCH  13  14
ENDBRANCH   2  13
BRANCH   4  20
HETATM   20  C   UNL     1      -8.830   8.241  71.591  1.00  0.00    -0.224 C  
BRANCH  20  21
HETATM   21  C   UNL     1     -10.071   7.899  72.451  1.00  0.00    -0.310 C  
BRANCH  21  22
HETATM   22  C   UNL     1     -11.478   8.386  72.094  1.00  0.00    -0.372 C  
HETATM   23  C   UNL     1     -12.317   7.450  71.246  1.00  0.00    -0.380 C  
HETATM   24  C   UNL     1     -13.756   7.951  71.279  1.00  0.00    -0.172 C  
HETATM   25  O   UNL     1     -14.378   7.640  72.533  1.00  0.00    -0.577 OA 
HETATM   26  C   UNL     1     -13.856   9.438  70.971  1.00  0.00    -0.011 C  
HETATM   27  C   UNL     1     -12.726  10.292  71.515  1.00  0.00    -0.452 C  
HETATM   28  H   UNL     1     -15.275   7.953  72.555  1.00  0.00     0.000 HD 
HETATM   29  O   UNL     1     -12.873  11.475  71.784  1.00  0.00    -0.399 OA 
HETATM   30  O   UNL     1     -11.492   9.701  71.528  1.00  0.00    -0.377 OA 
ENDBRANCH  21  22
ENDBRANCH  20  21
ENDBRANCH   4  20
TORSDOF 5
ENDMDL
MODEL      205
REMARK 921   NORMALIZED FREE ENERGY PREDICTED BY IDOCK:   -3.13 KCAL/MOL
REMARK 922        TOTAL FREE ENERGY PREDICTED BY IDOCK:   -5.63 KCAL/MOL
REMARK 923 INTER-LIGAND FREE ENERGY PREDICTED BY IDOCK:   -5.38 KCAL/MOL
REMARK 924 INTRA-LIGAND FREE ENERGY PREDICTED BY IDOCK:   -0.25 KCAL/MOL
REMARK 927      BINDING AFFINITY PREDICTED BY RF-SCORE:    0.00 PKD
ROOT
HETATM    1  C   UNL     1     -10.663  10.089  68.164  1.00  0.00    -0.282 C  
HETATM    2  C   UNL     1     -10.626   8.887  69.171  1.00  0.00    -0.195 C  
HETATM    3  C   UNL     1     -11.117   9.179  70.598  1.00  0.00    -0.320 C  
HETATM    4  C   UNL     1      -9.293  10.616  67.541  1.00  0.00    -0.158 C  
HETATM    5  C   UNL     1     -12.453   9.899  70.640  1.00  0.00    -0.268 C  
HETATM    6  C   UNL     1     -10.053  11.492  65.196  1.00  0.00    -0.313 C  
HETATM    7  C   UNL     1      -9.576  11.856  66.609  1.00  0.00    -0.220 C  
HETATM    8  C   UNL     1     -12.329  11.139  69.815  1.00  0.00    -0.315 C  
HETATM    9  C   UNL     1     -10.540  12.844  67.179  1.00  0.00    -0.246 C  
HETATM   10  C   UNL     1     -12.818  10.222  72.095  1.00  0.00    -0.351 C  
HETATM   11  C   UNL     1     -11.505  11.253  68.754  1.00  0.00    -0.359 C  
HETATM   12  C   UNL     1     -11.407  12.561  68.148  1.00  0.00    -0.343 C  
ENDROOT
BRANCH   2  13
HETATM   13  O   UNL     1      -9.305   8.391  69.398  1.00  0.00    -0.153 OA 
BRANCH  13  14
HETATM   14  C   UNL     1      -8.698   8.746  70.555  1.00  0.00    -0.174 C  
HETATM   15  C   UNL     1      -6.243   8.550  72.342  1.00  0.00    -0.072 C  
HETATM   16  C   UNL     1      -8.366   7.514  71.385  1.00  0.00    -0.108 C  
HETATM   17  O   UNL     1      -8.505   9.900  70.911  1.00  0.00    -0.064 OA 
HETATM   18  C   UNL     1      -6.848   7.396  71.553  1.00  0.00    -0.054 C  
HETATM   19  C   UNL     1      -8.943   6.224  70.780  1.00  0.00    -0.144 C  
ENDBRANCH  13  14
ENDBRANCH   2  13
BRANCH   4  20
HETATM   20  C   UNL     1      -8.324   9.637  66.755  1.00  0.00    -0.117 C  
BRANCH  20  21
HETATM   21  C   UNL     1      -9.145   8.582  65.973  1.00  0.00    -0.246 C  
BRANCH  21  22
HETATM   22  C   UNL     1      -8.620   7.171  65.698  1.00  0.00    -0.107 C  
HETATM   23  C   UNL     1      -9.316   6.041  66.431  1.00  0.00    -0.171 C  
HETATM   24  C   UNL     1      -8.883   4.728  65.787  1.00  0.00    -0.131 C  
HETATM   25  O   UNL     1      -9.538   4.535  64.527  1.00  0.00    -0.266 OA 
HETATM   26  C   UNL     1      -7.372   4.629  65.642  1.00  0.00    -0.077 C  
HETATM   27  C   UNL     1      -6.664   5.928  65.302  1.00  0.00    -0.044 C  
HETATM   28  H   UNL     1      -9.269   3.718  64.125  1.00  0.00     0.000 HD 
HETATM   29  O   UNL     1      -5.602   5.954  64.698  1.00  0.00    -0.016 OA 
HETATM   30  O   UNL     1      -7.202   7.056  65.859  1.00  0.00    -0.070 OA 
ENDBRANCH  21  22
ENDBRANCH  20  21
ENDBRANCH   4  20
TORSDOF 5
ENDMDL
MODEL      206
REMARK 921   NORMALIZED FREE ENERGY PREDICTED BY IDOCK:   -3.11 KCAL/MOL
REMARK 922        TOTAL FREE ENERGY PREDICTED BY IDOCK:   -5.60 KCAL/MOL
REMARK 923 INTER-LIGAND FREE ENERGY PREDICTED BY IDOCK:   -4.22 KCAL/MOL
REMARK 924 INTRA-LIGAND FREE ENERGY PREDICTED BY IDOCK:   -1.38 KCAL/MOL
REMARK 927      BINDING AFFINITY PREDICTED BY RF-SCORE:    0.00 PKD
ROOT
HETATM    1  C   UNL     1      -9.099   6.363  68.727  1.00  0.00    -0.125 C  
HETATM    2  C   UNL     1      -8.102   5.582  67.801  1.00  0.00    -0.101 C  
HETATM    3  C   UNL     1      -8.728   4.579  66.820  1.00  0.00    -0.111 C  
HETATM    4  C   UNL     1      -9.004   6.161  70.306  1.00  0.00    -0.154 C  
HETATM    5  C   UNL     1      -9.889   5.155  66.027  1.00  0.00    -0.184 C  
HETATM    6  C   UNL     1      -9.801   8.485  71.208  1.00  0.00    -0.279 C  
HETATM    7  C   UNL     1     -10.136   6.999  71.017  1.00  0.00    -0.206 C  
HETATM    8  C   UNL     1     -10.884   5.695  67.003  1.00  0.00    -0.265 C  
HETATM    9  C   UNL     1     -11.471   6.910  70.354  1.00  0.00    -0.387 C  
HETATM   10  C   UNL     1     -10.500   4.061  65.142  1.00  0.00    -0.116 C  
HETATM   11  C   UNL     1     -10.554   6.181  68.216  1.00  0.00    -0.324 C  
HETATM   12  C   UNL     1     -11.649   6.540  69.088  1.00  0.00    -0.115 C  
ENDROOT
BRANCH   2  13
HETATM   13  O   UNL     1      -7.188   4.763  68.532  1.00  0.00    -0.059 OA 
BRANCH  13  14
HETATM   14  C   UNL     1      -6.278   4.059  67.821  1.00  0.00    -0.036 C  
HETATM   15  C   UNL     1      -5.709   1.705  65.979  1.00  0.00    -0.014 C  
HETATM   16  C   UNL     1      -6.220   2.616  68.303  1.00  0.00    -0.028 C  
HETATM   17  O   UNL     1      -5.556   4.534  66.955  1.00  0.00    -0.013 OA 
HETATM   18  C   UNL     1      -6.652   1.675  67.176  1.00  0.00    -0.031 C  
HETATM   19  C   UNL     1      -7.076   2.382  69.559  1.00  0.00    -0.040 C  
ENDBRANCH  13  14
ENDBRANCH   2  13
BRANCH   4  20
HETATM   20  C   UNL     1      -7.648   6.432  71.083  1.00  0.00    -0.090 C  
BRANCH  20  21
HETATM   21  C   UNL     1      -7.561   5.533  72.341  1.00  0.00    -0.101 C  
BRANCH  21  22
HETATM   22  C   UNL     1      -8.765   4.757  72.881  1.00  0.00    -0.114 C  
HETATM   23  C   UNL     1      -9.406   5.305  74.142  1.00  0.00    -0.126 C  
HETATM   24  C   UNL     1     -10.750   4.609  74.324  1.00  0.00    -0.221 C  
HETATM   25  O   UNL     1     -11.723   5.125  73.406  1.00  0.00    -0.498 OA 
HETATM   26  C   UNL     1     -10.635   3.096  74.210  1.00  0.00    -0.241 C  
HETATM   27  C   UNL     1      -9.637   2.594  73.182  1.00  0.00    -0.094 C  
HETATM   28  H   UNL     1     -12.560   4.691  73.520  1.00  0.00     0.000 HD 
HETATM   29  O   UNL     1      -9.756   1.510  72.632  1.00  0.00    -0.075 OA 
HETATM   30  O   UNL     1      -8.511   3.356  73.034  1.00  0.00    -0.080 OA 
ENDBRANCH  21  22
ENDBRANCH  20  21
ENDBRANCH   4  20
TORSDOF 5
ENDMDL
MODEL      207
REMARK 921   NORMALIZED FREE ENERGY PREDICTED BY IDOCK:   -2.92 KCAL/MOL
REMARK 922        TOTAL FREE ENERGY PREDICTED BY IDOCK:   -5.35 KCAL/MOL
REMARK 923 INTER-LIGAND FREE ENERGY PREDICTED BY IDOCK:   -4.93 KCAL/MOL
REMARK 924 INTRA-LIGAND FREE ENERGY PREDICTED BY IDOCK:   -0.42 KCAL/MOL
REMARK 927      BINDING AFFINITY PREDICTED BY RF-SCORE:    0.00 PKD
ROOT
HETATM    1  C   UNL     1      -9.066   9.021  70.991  1.00  0.00    -0.322 C  
HETATM    2  C   UNL     1      -8.491   9.556  69.634  1.00  0.00    -0.169 C  
HETATM    3  C   UNL     1      -9.515  10.118  68.634  1.00  0.00    -0.164 C  
HETATM    4  C   UNL     1      -8.888   7.477  71.349  1.00  0.00    -0.138 C  
HETATM    5  C   UNL     1     -10.484  11.108  69.257  1.00  0.00    -0.183 C  
HETATM    6  C   UNL     1      -8.755   7.527  73.962  1.00  0.00    -0.283 C  
HETATM    7  C   UNL     1      -9.592   7.167  72.726  1.00  0.00    -0.183 C  
HETATM    8  C   UNL     1     -11.134  10.437  70.424  1.00  0.00    -0.371 C  
HETATM    9  C   UNL     1     -10.937   7.796  72.882  1.00  0.00    -0.467 C  
HETATM   10  C   UNL     1     -11.516  11.546  68.209  1.00  0.00    -0.368 C  
HETATM   11  C   UNL     1     -10.540   9.479  71.163  1.00  0.00    -0.388 C  
HETATM   12  C   UNL     1     -11.355   8.840  72.170  1.00  0.00    -0.411 C  
ENDROOT
BRANCH   2  13
HETATM   13  O   UNL     1      -7.840   8.542  68.866  1.00  0.00    -0.105 OA 
BRANCH  13  14
HETATM   14  C   UNL     1      -8.604   7.824  68.010  1.00  0.00    -0.123 C  
HETATM   15  C   UNL     1      -8.943   5.284  66.369  1.00  0.00    -0.128 C  
HETATM   16  C   UNL     1      -7.853   7.562  66.712  1.00  0.00    -0.110 C  
HETATM   17  O   UNL     1      -9.761   7.490  68.226  1.00  0.00    -0.150 OA 
HETATM   18  C   UNL     1      -7.640   6.056  66.532  1.00  0.00    -0.094 C  
HETATM   19  C   UNL     1      -6.510   8.308  66.649  1.00  0.00    -0.056 C  
ENDBRANCH  13  14
ENDBRANCH   2  13
BRANCH   4  20
HETATM   20  C   UNL     1      -7.450   6.809  71.384  1.00  0.00    -0.087 C  
BRANCH  20  21
HETATM   21  C   UNL     1      -7.340   5.714  70.294  1.00  0.00    -0.076 C  
BRANCH  21  22
HETATM   22  C   UNL     1      -7.551   4.229  70.598  1.00  0.00    -0.052 C  
HETATM   23  C   UNL     1      -6.757   3.251  69.753  1.00  0.00    -0.034 C  
HETATM   24  C   UNL     1      -6.849   1.879  70.413  1.00  0.00    -0.033 C  
HETATM   25  O   UNL     1      -6.011   1.812  71.574  1.00  0.00    -0.012 OA 
HETATM   26  C   UNL     1      -8.283   1.496  70.747  1.00  0.00    -0.058 C  
HETATM   27  C   UNL     1      -9.171   2.637  71.207  1.00  0.00    -0.123 C  
HETATM   28  H   UNL     1      -6.069   0.958  71.986  1.00  0.00     0.000 HD 
HETATM   29  O   UNL     1     -10.132   2.462  71.942  1.00  0.00    -0.164 OA 
HETATM   30  O   UNL     1      -8.931   3.847  70.616  1.00  0.00    -0.080 OA 
ENDBRANCH  21  22
ENDBRANCH  20  21
ENDBRANCH   4  20
TORSDOF 5
ENDMDL
MODEL      208
REMARK 921   NORMALIZED FREE ENERGY PREDICTED BY IDOCK:   -2.88 KCAL/MOL
REMARK 922        TOTAL FREE ENERGY PREDICTED BY IDOCK:   -5.30 KCAL/MOL
REMARK 923 INTER-LIGAND FREE ENERGY PREDICTED BY IDOCK:   -4.46 KCAL/MOL
REMARK 924 INTRA-LIGAND FREE ENERGY PREDICTED BY IDOCK:   -0.84 KCAL/MOL
REMARK 927      BINDING AFFINITY PREDICTED BY RF-SCORE:    0.00 PKD
ROOT
HETATM    1  C   UNL     1      -9.052   5.974  69.401  1.00  0.00    -0.135 C  
HETATM    2  C   UNL     1      -8.455   6.440  70.774  1.00  0.00    -0.135 C  
HETATM    3  C   UNL     1      -9.346   7.356  71.629  1.00  0.00    -0.162 C  
HETATM    4  C   UNL     1      -8.319   6.409  68.053  1.00  0.00    -0.115 C  
HETATM    5  C   UNL     1     -10.766   6.839  71.786  1.00  0.00    -0.250 C  
HETATM    6  C   UNL     1      -8.855   4.403  66.460  1.00  0.00    -0.114 C  
HETATM    7  C   UNL     1      -9.130   5.873  66.811  1.00  0.00    -0.130 C  
HETATM    8  C   UNL     1     -11.324   6.615  70.417  1.00  0.00    -0.421 C  
HETATM    9  C   UNL     1     -10.608   6.051  66.921  1.00  0.00    -0.384 C  
HETATM   10  C   UNL     1     -11.599   7.855  72.577  1.00  0.00    -0.443 C  
HETATM   11  C   UNL     1     -10.573   6.285  69.348  1.00  0.00    -0.330 C  
HETATM   12  C   UNL     1     -11.250   6.237  68.072  1.00  0.00    -0.223 C  
ENDROOT
BRANCH   2  13
HETATM   13  O   UNL     1      -7.268   7.221  70.629  1.00  0.00    -0.064 OA 
BRANCH  13  14
HETATM   14  C   UNL     1      -7.398   8.567  70.679  1.00  0.00    -0.061 C  
HETATM   15  C   UNL     1      -6.137  11.297  70.214  1.00  0.00    -0.146 C  
HETATM   16  C   UNL     1      -6.353   9.173  71.605  1.00  0.00    -0.037 C  
HETATM   17  O   UNL     1      -8.276   9.200  70.109  1.00  0.00    -0.120 OA 
HETATM   18  C   UNL     1      -5.422  10.090  70.807  1.00  0.00    -0.069 C  
HETATM   19  C   UNL     1      -5.543   8.104  72.356  1.00  0.00    -0.039 C  
ENDBRANCH  13  14
ENDBRANCH   2  13
BRANCH   4  20
HETATM   20  C   UNL     1      -6.789   6.068  67.811  1.00  0.00    -0.060 C  
BRANCH  20  21
HETATM   21  C   UNL     1      -5.985   7.365  67.547  1.00  0.00    -0.038 C  
BRANCH  21  22
HETATM   22  C   UNL     1      -6.323   8.323  66.403  1.00  0.00    -0.050 C  
HETATM   23  C   UNL     1      -7.332   9.412  66.714  1.00  0.00    -0.086 C  
HETATM   24  C   UNL     1      -7.283  10.433  65.583  1.00  0.00    -0.146 C  
HETATM   25  O   UNL     1      -6.114  11.256  65.686  1.00  0.00    -0.378 OA 
HETATM   26  C   UNL     1      -7.375   9.779  64.212  1.00  0.00    -0.129 C  
HETATM   27  C   UNL     1      -6.667   8.443  64.080  1.00  0.00    -0.075 C  
HETATM   28  H   UNL     1      -6.083  11.893  64.982  1.00  0.00     0.000 HD 
HETATM   29  O   UNL     1      -6.234   8.037  63.012  1.00  0.00    -0.074 OA 
HETATM   30  O   UNL     1      -6.691   7.650  65.194  1.00  0.00    -0.047 OA 
ENDBRANCH  21  22
ENDBRANCH  20  21
ENDBRANCH   4  20
TORSDOF 5
ENDMDL
MODEL      209
REMARK 921   NORMALIZED FREE ENERGY PREDICTED BY IDOCK:   -2.71 KCAL/MOL
REMARK 922        TOTAL FREE ENERGY PREDICTED BY IDOCK:   -5.09 KCAL/MOL
REMARK 923 INTER-LIGAND FREE ENERGY PREDICTED BY IDOCK:   -4.84 KCAL/MOL
REMARK 924 INTRA-LIGAND FREE ENERGY PREDICTED BY IDOCK:   -0.25 KCAL/MOL
REMARK 927      BINDING AFFINITY PREDICTED BY RF-SCORE:    0.00 PKD
ROOT
HETATM    1  C   UNL     1      -9.309   6.368  69.267  1.00  0.00    -0.138 C  
HETATM    2  C   UNL     1      -9.192   6.782  70.775  1.00  0.00    -0.158 C  
HETATM    3  C   UNL     1     -10.423   7.463  71.392  1.00  0.00    -0.218 C  
HETATM    4  C   UNL     1      -8.326   7.039  68.204  1.00  0.00    -0.123 C  
HETATM    5  C   UNL     1     -11.722   6.726  71.116  1.00  0.00    -0.394 C  
HETATM    6  C   UNL     1      -8.062   5.142  66.421  1.00  0.00    -0.108 C  
HETATM    7  C   UNL     1      -8.669   6.512  66.758  1.00  0.00    -0.123 C  
HETATM    8  C   UNL     1     -11.845   6.556  69.636  1.00  0.00    -0.063 C  
HETATM    9  C   UNL     1     -10.130   6.454  66.457  1.00  0.00    -0.155 C  
HETATM   10  C   UNL     1     -12.899   7.523  71.694  1.00  0.00    -0.392 C  
HETATM   11  C   UNL     1     -10.789   6.450  68.804  1.00  0.00    -0.378 C  
HETATM   12  C   UNL     1     -11.080   6.427  67.389  1.00  0.00    -0.412 C  
ENDROOT
BRANCH   2  13
HETATM   13  O   UNL     1      -8.161   7.742  71.011  1.00  0.00    -0.100 OA 
BRANCH  13  14
HETATM   14  C   UNL     1      -7.812   7.977  72.297  1.00  0.00    -0.118 C  
HETATM   15  C   UNL     1      -5.602   8.599  74.294  1.00  0.00    -0.115 C  
HETATM   16  C   UNL     1      -6.803   6.942  72.776  1.00  0.00    -0.070 C  
HETATM   17  O   UNL     1      -8.291   8.859  72.996  1.00  0.00    -0.358 OA 
HETATM   18  C   UNL     1      -5.481   7.630  73.125  1.00  0.00    -0.044 C  
HETATM   19  C   UNL     1      -6.574   5.824  71.745  1.00  0.00    -0.054 C  
ENDBRANCH  13  14
ENDBRANCH   2  13
BRANCH   4  20
HETATM   20  C   UNL     1      -6.753   6.958  68.384  1.00  0.00    -0.068 C  
BRANCH  20  21
HETATM   21  C   UNL     1      -6.068   8.144  67.661  1.00  0.00    -0.051 C  
BRANCH  21  22
HETATM   22  C   UNL     1      -6.296   9.600  68.073  1.00  0.00    -0.056 C  
HETATM   23  C   UNL     1      -7.567   9.886  68.850  1.00  0.00    -0.083 C  
HETATM   24  C   UNL     1      -7.450  11.287  69.439  1.00  0.00     0.018 C  
HETATM   25  O   UNL     1      -6.562  11.297  70.565  1.00  0.00    -0.499 OA 
HETATM   26  C   UNL     1      -7.030  12.316  68.400  1.00  0.00    -0.082 C  
HETATM   27  C   UNL     1      -6.035  11.826  67.364  1.00  0.00    -0.105 C  
HETATM   28  H   UNL     1      -6.489  12.170  70.932  1.00  0.00     0.000 HD 
HETATM   29  O   UNL     1      -5.257  12.580  66.799  1.00  0.00    -0.331 OA 
HETATM   30  O   UNL     1      -6.175  10.520  66.983  1.00  0.00    -0.060 OA 
ENDBRANCH  21  22
ENDBRANCH  20  21
ENDBRANCH   4  20
TORSDOF 5
ENDMDL
MODEL      210
REMARK 921   NORMALIZED FREE ENERGY PREDICTED BY IDOCK:   -2.67 KCAL/MOL
REMARK 922        TOTAL FREE ENERGY PREDICTED BY IDOCK:   -5.04 KCAL/MOL
REMARK 923 INTER-LIGAND FREE ENERGY PREDICTED BY IDOCK:   -4.87 KCAL/MOL
REMARK 924 INTRA-LIGAND FREE ENERGY PREDICTED BY IDOCK:   -0.17 KCAL/MOL
REMARK 927      BINDING AFFINITY PREDICTED BY RF-SCORE:    0.00 PKD
ROOT
HETATM    1  C   UNL     1      -7.704   7.570  68.296  1.00  0.00    -0.120 C  
HETATM    2  C   UNL     1      -7.632   6.998  69.755  1.00  0.00    -0.104 C  
HETATM    3  C   UNL     1      -7.724   5.470  69.892  1.00  0.00    -0.082 C  
HETATM    4  C   UNL     1      -8.917   8.529  67.902  1.00  0.00    -0.139 C  
HETATM    5  C   UNL     1      -6.791   4.724  68.955  1.00  0.00    -0.051 C  
HETATM    6  C   UNL     1      -7.831  10.080  66.096  1.00  0.00    -0.114 C  
HETATM    7  C   UNL     1      -8.805   8.927  66.380  1.00  0.00    -0.178 C  
HETATM    8  C   UNL     1      -7.073   5.189  67.563  1.00  0.00    -0.066 C  
HETATM    9  C   UNL     1      -8.454   7.794  65.474  1.00  0.00    -0.146 C  
HETATM   10  C   UNL     1      -7.014   3.213  69.102  1.00  0.00    -0.041 C  
HETATM   11  C   UNL     1      -7.527   6.423  67.264  1.00  0.00    -0.088 C  
HETATM   12  C   UNL     1      -7.876   6.667  65.884  1.00  0.00    -0.102 C  
ENDROOT
BRANCH   2  13
HETATM   13  O   UNL     1      -8.709   7.444  70.581  1.00  0.00    -0.140 OA 
BRANCH  13  14
HETATM   14  C   UNL     1      -9.748   6.595  70.760  1.00  0.00    -0.179 C  
HETATM   15  C   UNL     1     -12.453   6.070  72.050  1.00  0.00     0.108 C  
HETATM   16  C   UNL     1      -9.919   6.260  72.235  1.00  0.00    -0.182 C  
HETATM   17  O   UNL     1     -10.415   6.114  69.854  1.00  0.00    -0.194 OA 
HETATM   18  C   UNL     1     -11.278   6.764  72.727  1.00  0.00    -0.267 C  
HETATM   19  C   UNL     1      -8.786   6.832  73.103  1.00  0.00    -0.137 C  
ENDBRANCH  13  14
ENDBRANCH   2  13
BRANCH   4  20
HETATM   20  C   UNL     1      -9.211   9.852  68.725  1.00  0.00    -0.147 C  
BRANCH  20  21
HETATM   21  C   UNL     1     -10.393  10.627  68.091  1.00  0.00    -0.203 C  
BRANCH  21  22
HETATM   22  C   UNL     1     -10.547  12.144  68.226  1.00  0.00    -0.217 C  
HETATM   23  C   UNL     1     -11.734  12.764  67.514  1.00  0.00    -0.422 C  
HETATM   24  C   UNL     1     -11.897  14.189  68.031  1.00  0.00    -0.365 C  
HETATM   25  O   UNL     1     -12.471  14.195  69.345  1.00  0.00    -0.489 OA 
HETATM   26  C   UNL     1     -10.590  14.967  67.999  1.00  0.00    -0.248 C  
HETATM   27  C   UNL     1      -9.346  14.163  68.328  1.00  0.00    -0.203 C  
HETATM   28  H   UNL     1     -12.573  15.083  69.667  1.00  0.00     0.000 HD 
HETATM   29  O   UNL     1      -8.346  14.674  68.809  1.00  0.00    -0.159 OA 
HETATM   30  O   UNL     1      -9.353  12.864  67.900  1.00  0.00    -0.193 OA 
ENDBRANCH  21  22
ENDBRANCH  20  21
ENDBRANCH   4  20
TORSDOF 5
ENDMDL
MODEL      211
REMARK 921   NORMALIZED FREE ENERGY PREDICTED BY IDOCK:   -2.61 KCAL/MOL
REMARK 922        TOTAL FREE ENERGY PREDICTED BY IDOCK:   -4.96 KCAL/MOL
REMARK 923 INTER-LIGAND FREE ENERGY PREDICTED BY IDOCK:   -4.28 KCAL/MOL
REMARK 924 INTRA-LIGAND FREE ENERGY PREDICTED BY IDOCK:   -0.68 KCAL/MOL
REMARK 927      BINDING AFFINITY PREDICTED BY RF-SCORE:    0.00 PKD
ROOT
HETATM    1  C   UNL     1      -9.627   4.954  70.516  1.00  0.00    -0.253 C  
HETATM    2  C   UNL     1      -8.714   4.199  69.489  1.00  0.00    -0.083 C  
HETATM    3  C   UNL     1      -7.324   3.779  69.995  1.00  0.00    -0.042 C  
HETATM    4  C   UNL     1     -10.072   6.453  70.196  1.00  0.00    -0.209 C  
HETATM    5  C   UNL     1      -7.361   3.068  71.337  1.00  0.00    -0.036 C  
HETATM    6  C   UNL     1     -12.409   6.597  71.363  1.00  0.00    -0.348 C  
HETATM    7  C   UNL     1     -10.933   7.017  71.391  1.00  0.00    -0.266 C  
HETATM    8  C   UNL     1      -8.076   3.955  72.304  1.00  0.00    -0.085 C  
HETATM    9  C   UNL     1     -10.389   6.696  72.744  1.00  0.00    -0.226 C  
HETATM   10  C   UNL     1      -5.929   2.766  71.798  1.00  0.00    -0.013 C  
HETATM   11  C   UNL     1      -9.039   4.828  71.948  1.00  0.00    -0.163 C  
HETATM   12  C   UNL     1      -9.533   5.705  72.984  1.00  0.00    -0.155 C  
ENDROOT
BRANCH   2  13
HETATM   13  O   UNL     1      -8.395   4.987  68.342  1.00  0.00    -0.089 OA 
BRANCH  13  14
HETATM   14  C   UNL     1      -7.808   4.357  67.298  1.00  0.00    -0.096 C  
HETATM   15  C   UNL     1      -7.211   4.321  64.314  1.00  0.00    -0.054 C  
HETATM   16  C   UNL     1      -8.842   3.988  66.244  1.00  0.00    -0.121 C  
HETATM   17  O   UNL     1      -6.620   4.067  67.241  1.00  0.00    -0.044 OA 
HETATM   18  C   UNL     1      -8.540   4.729  64.939  1.00  0.00    -0.145 C  
HETATM   19  C   UNL     1     -10.280   4.274  66.706  1.00  0.00     0.000 C  
ENDBRANCH  13  14
ENDBRANCH   2  13
BRANCH   4  20
HETATM   20  C   UNL     1     -10.828   6.809  68.849  1.00  0.00    -0.288 C  
BRANCH  20  21
HETATM   21  C   UNL     1     -10.704   8.323  68.547  1.00  0.00    -0.065 C  
BRANCH  21  22
HETATM   22  C   UNL     1      -9.855   8.864  67.395  1.00  0.00    -0.193 C  
HETATM   23  C   UNL     1      -8.491   8.227  67.210  1.00  0.00    -0.124 C  
HETATM   24  C   UNL     1      -7.955   8.657  65.848  1.00  0.00    -0.105 C  
HETATM   25  O   UNL     1      -8.614   7.947  64.791  1.00  0.00    -0.364 OA 
HETATM   26  C   UNL     1      -8.048  10.161  65.641  1.00  0.00    -0.149 C  
HETATM   27  C   UNL     1      -9.277  10.825  66.233  1.00  0.00    -0.173 C  
HETATM   28  H   UNL     1      -8.280   8.215  63.943  1.00  0.00     0.000 HD 
HETATM   29  O   UNL     1      -9.747  11.856  65.776  1.00  0.00    -0.233 OA 
HETATM   30  O   UNL     1      -9.728  10.290  67.409  1.00  0.00    -0.155 OA 
ENDBRANCH  21  22
ENDBRANCH  20  21
ENDBRANCH   4  20
TORSDOF 5
ENDMDL
MODEL      212
REMARK 921   NORMALIZED FREE ENERGY PREDICTED BY IDOCK:   -2.42 KCAL/MOL
REMARK 922        TOTAL FREE ENERGY PREDICTED BY IDOCK:   -4.71 KCAL/MOL
REMARK 923 INTER-LIGAND FREE ENERGY PREDICTED BY IDOCK:   -4.05 KCAL/MOL
REMARK 924 INTRA-LIGAND FREE ENERGY PREDICTED BY IDOCK:   -0.66 KCAL/MOL
REMARK 927      BINDING AFFINITY PREDICTED BY RF-SCORE:    0.00 PKD
ROOT
HETATM    1  C   UNL     1      -8.477   9.352  70.525  1.00  0.00    -0.251 C  
HETATM    2  C   UNL     1      -8.679   8.354  71.718  1.00  0.00    -0.180 C  
HETATM    3  C   UNL     1      -7.400   7.818  72.380  1.00  0.00    -0.094 C  
HETATM    4  C   UNL     1      -9.001   8.939  69.076  1.00  0.00    -0.137 C  
HETATM    5  C   UNL     1      -6.399   8.906  72.728  1.00  0.00     0.034 C  
HETATM    6  C   UNL     1      -9.611  11.257  68.027  1.00  0.00    -0.182 C  
HETATM    7  C   UNL     1      -8.638  10.070  68.039  1.00  0.00    -0.121 C  
HETATM    8  C   UNL     1      -6.115   9.680  71.482  1.00  0.00     0.045 C  
HETATM    9  C   UNL     1      -7.253  10.611  68.181  1.00  0.00    -0.086 C  
HETATM   10  C   UNL     1      -5.127   8.270  73.303  1.00  0.00    -0.042 C  
HETATM   11  C   UNL     1      -7.003   9.839  70.480  1.00  0.00    -0.131 C  
HETATM   12  C   UNL     1      -6.524  10.501  69.289  1.00  0.00    -0.055 C  
ENDROOT
BRANCH   2  13
HETATM   13  O   UNL     1      -9.349   7.153  71.332  1.00  0.00    -0.154 OA 
BRANCH  13  14
HETATM   14  C   UNL     1      -9.561   6.223  72.292  1.00  0.00    -0.151 C  
HETATM   15  C   UNL     1     -11.418   4.129  73.485  1.00  0.00    -0.228 C  
HETATM   16  C   UNL     1     -10.794   6.572  73.113  1.00  0.00    -0.286 C  
HETATM   17  O   UNL     1      -8.825   5.270  72.509  1.00  0.00    -0.126 OA 
HETATM   18  C   UNL     1     -11.857   5.482  72.941  1.00  0.00    -0.134 C  
HETATM   19  C   UNL     1     -11.371   7.950  72.750  1.00  0.00    -0.453 C  
ENDBRANCH  13  14
ENDBRANCH   2  13
BRANCH   4  20
HETATM   20  C   UNL     1     -10.517   8.540  68.840  1.00  0.00    -0.207 C  
BRANCH  20  21
HETATM   21  C   UNL     1     -10.619   7.421  67.774  1.00  0.00    -0.278 C  
BRANCH  21  22
HETATM   22  C   UNL     1      -9.485   6.426  67.518  1.00  0.00    -0.117 C  
HETATM   23  C   UNL     1      -8.916   6.404  66.112  1.00  0.00    -0.162 C  
HETATM   24  C   UNL     1      -7.614   5.611  66.146  1.00  0.00    -0.091 C  
HETATM   25  O   UNL     1      -6.561   6.382  66.739  1.00  0.00    -0.048 OA 
HETATM   26  C   UNL     1      -7.774   4.270  66.846  1.00  0.00    -0.093 C  
HETATM   27  C   UNL     1      -8.714   4.266  68.038  1.00  0.00    -0.105 C  
HETATM   28  H   UNL     1      -5.750   5.889  66.760  1.00  0.00     0.000 HD 
HETATM   29  O   UNL     1      -8.595   3.474  68.961  1.00  0.00    -0.074 OA 
HETATM   30  O   UNL     1      -9.799   5.093  67.936  1.00  0.00    -0.142 OA 
ENDBRANCH  21  22
ENDBRANCH  20  21
ENDBRANCH   4  20
TORSDOF 5
ENDMDL
MODEL      213
REMARK 921   NORMALIZED FREE ENERGY PREDICTED BY IDOCK:   -2.41 KCAL/MOL
REMARK 922        TOTAL FREE ENERGY PREDICTED BY IDOCK:   -4.70 KCAL/MOL
REMARK 923 INTER-LIGAND FREE ENERGY PREDICTED BY IDOCK:   -4.26 KCAL/MOL
REMARK 924 INTRA-LIGAND FREE ENERGY PREDICTED BY IDOCK:   -0.44 KCAL/MOL
REMARK 927      BINDING AFFINITY PREDICTED BY RF-SCORE:    0.00 PKD
ROOT
HETATM    1  C   UNL     1      -7.611   7.356  67.379  1.00  0.00    -0.112 C  
HETATM    2  C   UNL     1      -8.161   6.659  68.672  1.00  0.00    -0.119 C  
HETATM    3  C   UNL     1      -8.785   5.267  68.482  1.00  0.00    -0.099 C  
HETATM    4  C   UNL     1      -8.270   8.728  66.902  1.00  0.00    -0.108 C  
HETATM    5  C   UNL     1      -7.916   4.324  67.668  1.00  0.00    -0.091 C  
HETATM    6  C   UNL     1      -6.256   9.936  65.748  1.00  0.00    -0.082 C  
HETATM    7  C   UNL     1      -7.592   9.203  65.559  1.00  0.00    -0.090 C  
HETATM    8  C   UNL     1      -7.609   4.994  66.368  1.00  0.00    -0.088 C  
HETATM    9  C   UNL     1      -7.382   8.114  64.560  1.00  0.00    -0.088 C  
HETATM   10  C   UNL     1      -8.655   2.996  67.460  1.00  0.00    -0.120 C  
HETATM   11  C   UNL     1      -7.524   6.331  66.216  1.00  0.00    -0.086 C  
HETATM   12  C   UNL     1      -7.353   6.819  64.867  1.00  0.00    -0.087 C  
ENDROOT
BRANCH   2  13
HETATM   13  O   UNL     1      -9.225   7.388  69.288  1.00  0.00    -0.148 OA 
BRANCH  13  14
HETATM   14  C   UNL     1      -9.424   7.197  70.613  1.00  0.00    -0.161 C  
HETATM   15  C   UNL     1     -11.261   6.201  72.824  1.00  0.00    -0.278 C  
HETATM   16  C   UNL     1     -10.653   7.962  71.085  1.00  0.00    -0.238 C  
HETATM   17  O   UNL     1      -8.681   6.552  71.340  1.00  0.00    -0.130 OA 
HETATM   18  C   UNL     1     -11.711   6.978  71.594  1.00  0.00    -0.332 C  
HETATM   19  C   UNL     1     -11.240   8.866  69.989  1.00  0.00    -0.120 C  
ENDBRANCH  13  14
ENDBRANCH   2  13
BRANCH   4  20
HETATM   20  C   UNL     1      -8.341   9.980  67.873  1.00  0.00    -0.117 C  
BRANCH  20  21
HETATM   21  C   UNL     1      -8.477  11.287  67.054  1.00  0.00    -0.150 C  
BRANCH  21  22
HETATM   22  C   UNL     1      -8.105  12.657  67.626  1.00  0.00    -0.173 C  
HETATM   23  C   UNL     1      -9.140  13.755  67.467  1.00  0.00    -0.209 C  
HETATM   24  C   UNL     1      -8.735  14.915  68.369  1.00  0.00    -0.172 C  
HETATM   25  O   UNL     1      -9.019  14.619  69.743  1.00  0.00    -0.369 OA 
HETATM   26  C   UNL     1      -7.278  15.309  68.182  1.00  0.00    -0.126 C  
HETATM   27  C   UNL     1      -6.321  14.159  67.923  1.00  0.00    -0.164 C  
HETATM   28  H   UNL     1      -8.766  15.341  70.306  1.00  0.00     0.000 HD 
HETATM   29  O   UNL     1      -5.138  14.214  68.223  1.00  0.00    -0.098 OA 
HETATM   30  O   UNL     1      -6.827  13.126  67.183  1.00  0.00    -0.107 OA 
ENDBRANCH  21  22
ENDBRANCH  20  21
ENDBRANCH   4  20
TORSDOF 5
ENDMDL
MODEL      214
REMARK 921   NORMALIZED FREE ENERGY PREDICTED BY IDOCK:   -2.41 KCAL/MOL
REMARK 922        TOTAL FREE ENERGY PREDICTED BY IDOCK:   -4.70 KCAL/MOL
REMARK 923 INTER-LIGAND FREE ENERGY PREDICTED BY IDOCK:   -4.82 KCAL/MOL
REMARK 924 INTRA-LIGAND FREE ENERGY PREDICTED BY IDOCK:    0.12 KCAL/MOL
REMARK 927      BINDING AFFINITY PREDICTED BY RF-SCORE:    0.00 PKD
ROOT
HETATM    1  C   UNL     1      -8.708   7.803  69.382  1.00  0.00    -0.135 C  
HETATM    2  C   UNL     1      -8.342   8.882  68.305  1.00  0.00    -0.125 C  
HETATM    3  C   UNL     1      -7.782  10.211  68.835  1.00  0.00    -0.093 C  
HETATM    4  C   UNL     1     -10.226   7.329  69.516  1.00  0.00    -0.200 C  
HETATM    5  C   UNL     1      -6.664  10.033  69.848  1.00  0.00    -0.099 C  
HETATM    6  C   UNL     1      -9.964   4.854  70.320  1.00  0.00    -0.321 C  
HETATM    7  C   UNL     1     -10.356   6.290  70.695  1.00  0.00    -0.254 C  
HETATM    8  C   UNL     1      -7.175   9.152  70.941  1.00  0.00    -0.118 C  
HETATM    9  C   UNL     1      -9.603   6.665  71.929  1.00  0.00    -0.152 C  
HETATM   10  C   UNL     1      -6.230  11.405  70.381  1.00  0.00    -0.048 C  
HETATM   11  C   UNL     1      -8.113   8.201  70.760  1.00  0.00    -0.102 C  
HETATM   12  C   UNL     1      -8.592   7.530  71.947  1.00  0.00    -0.122 C  
ENDROOT
BRANCH   2  13
HETATM   13  O   UNL     1      -9.470   9.310  67.539  1.00  0.00    -0.130 OA 
BRANCH  13  14
HETATM   14  C   UNL     1      -9.961  10.545  67.793  1.00  0.00    -0.171 C  
HETATM   15  C   UNL     1     -12.008  12.693  67.118  1.00  0.00    -0.326 C  
HETATM   16  C   UNL     1      -9.872  11.423  66.552  1.00  0.00    -0.237 C  
HETATM   17  O   UNL     1     -10.360  10.922  68.887  1.00  0.00    -0.188 OA 
HETATM   18  C   UNL     1     -11.279  11.825  66.100  1.00  0.00    -0.363 C  
HETATM   19  C   UNL     1      -9.111  10.741  65.404  1.00  0.00    -0.216 C  
ENDBRANCH  13  14
ENDBRANCH   2  13
BRANCH   4  20
HETATM   20  C   UNL     1     -11.009   6.741  68.269  1.00  0.00    -0.270 C  
BRANCH  20  21
HETATM   21  C   UNL     1     -10.058   6.602  67.054  1.00  0.00    -0.247 C  
BRANCH  21  22
HETATM   22  C   UNL     1      -9.434   5.266  66.648  1.00  0.00    -0.144 C  
HETATM   23  C   UNL     1      -8.117   4.911  67.312  1.00  0.00    -0.106 C  
HETATM   24  C   UNL     1      -7.836   3.438  67.038  1.00  0.00    -0.079 C  
HETATM   25  O   UNL     1      -8.664   2.597  67.853  1.00  0.00    -0.089 OA 
HETATM   26  C   UNL     1      -7.981   3.088  65.564  1.00  0.00    -0.086 C  
HETATM   27  C   UNL     1      -9.094   3.814  64.830  1.00  0.00    -0.140 C  
HETATM   28  H   UNL     1      -8.489   1.680  67.682  1.00  0.00     0.000 HD 
HETATM   29  O   UNL     1      -9.649   3.338  63.851  1.00  0.00    -0.121 OA 
HETATM   30  O   UNL     1      -9.323   5.102  65.230  1.00  0.00    -0.135 OA 
ENDBRANCH  21  22
ENDBRANCH  20  21
ENDBRANCH   4  20
TORSDOF 5
ENDMDL
MODEL      215
REMARK 921   NORMALIZED FREE ENERGY PREDICTED BY IDOCK:   -2.40 KCAL/MOL
REMARK 922        TOTAL FREE ENERGY PREDICTED BY IDOCK:   -4.68 KCAL/MOL
REMARK 923 INTER-LIGAND FREE ENERGY PREDICTED BY IDOCK:   -3.79 KCAL/MOL
REMARK 924 INTRA-LIGAND FREE ENERGY PREDICTED BY IDOCK:   -0.89 KCAL/MOL
REMARK 927      BINDING AFFINITY PREDICTED BY RF-SCORE:    0.00 PKD
ROOT
HETATM    1  C   UNL     1     -10.086   5.515  70.790  1.00  0.00    -0.277 C  
HETATM    2  C   UNL     1      -9.020   5.104  69.716  1.00  0.00    -0.110 C  
HETATM    3  C   UNL     1      -7.666   4.614  70.252  1.00  0.00    -0.057 C  
HETATM    4  C   UNL     1     -10.596   7.026  70.832  1.00  0.00    -0.238 C  
HETATM    5  C   UNL     1      -7.793   3.563  71.341  1.00  0.00    -0.060 C  
HETATM    6  C   UNL     1     -13.047   6.757  71.708  1.00  0.00    -0.244 C  
HETATM    7  C   UNL     1     -11.614   7.209  72.023  1.00  0.00    -0.317 C  
HETATM    8  C   UNL     1      -8.665   4.124  72.418  1.00  0.00    -0.117 C  
HETATM    9  C   UNL     1     -11.194   6.551  73.296  1.00  0.00    -0.032 C  
HETATM   10  C   UNL     1      -6.400   3.201  71.872  1.00  0.00    -0.015 C  
HETATM   11  C   UNL     1      -9.643   5.024  72.196  1.00  0.00    -0.191 C  
HETATM   12  C   UNL     1     -10.302   5.565  73.362  1.00  0.00    -0.243 C  
ENDROOT
BRANCH   2  13
HETATM   13  O   UNL     1      -8.638   6.187  68.867  1.00  0.00    -0.120 OA 
BRANCH  13  14
HETATM   14  C   UNL     1      -7.835   5.901  67.816  1.00  0.00    -0.098 C  
HETATM   15  C   UNL     1      -7.004   6.538  64.959  1.00  0.00    -0.051 C  
HETATM   16  C   UNL     1      -8.662   5.510  66.599  1.00  0.00    -0.116 C  
HETATM   17  O   UNL     1      -6.612   5.894  67.859  1.00  0.00    -0.048 OA 
HETATM   18  C   UNL     1      -8.438   6.524  65.473  1.00  0.00    -0.139 C  
HETATM   19  C   UNL     1     -10.160   5.386  66.923  1.00  0.00    -0.240 C  
ENDBRANCH  13  14
ENDBRANCH   2  13
BRANCH   4  20
HETATM   20  C   UNL     1     -11.231   7.708  69.549  1.00  0.00     0.063 C  
BRANCH  20  21
HETATM   21  C   UNL     1     -10.605   9.105  69.318  1.00  0.00    -0.229 C  
BRANCH  21  22
HETATM   22  C   UNL     1      -9.103   9.365  69.450  1.00  0.00    -0.161 C  
HETATM   23  C   UNL     1      -8.533   9.313  70.855  1.00  0.00    -0.203 C  
HETATM   24  C   UNL     1      -7.013   9.265  70.742  1.00  0.00    -0.109 C  
HETATM   25  O   UNL     1      -6.570   7.964  70.336  1.00  0.00    -0.037 OA 
HETATM   26  C   UNL     1      -6.470  10.344  69.817  1.00  0.00    -0.089 C  
HETATM   27  C   UNL     1      -7.327  10.651  68.602  1.00  0.00    -0.094 C  
HETATM   28  H   UNL     1      -5.623   7.934  70.265  1.00  0.00     0.000 HD 
HETATM   29  O   UNL     1      -6.854  11.090  67.564  1.00  0.00    -0.078 OA 
HETATM   30  O   UNL     1      -8.678  10.566  68.797  1.00  0.00    -0.137 OA 
ENDBRANCH  21  22
ENDBRANCH  20  21
ENDBRANCH   4  20
TORSDOF 5
ENDMDL
MODEL      216
REMARK 921   NORMALIZED FREE ENERGY PREDICTED BY IDOCK:   -2.34 KCAL/MOL
REMARK 922        TOTAL FREE ENERGY PREDICTED BY IDOCK:   -4.61 KCAL/MOL
REMARK 923 INTER-LIGAND FREE ENERGY PREDICTED BY IDOCK:   -4.49 KCAL/MOL
REMARK 924 INTRA-LIGAND FREE ENERGY PREDICTED BY IDOCK:   -0.12 KCAL/MOL
REMARK 927      BINDING AFFINITY PREDICTED BY RF-SCORE:    0.00 PKD
ROOT
HETATM    1  C   UNL     1      -9.094   7.131  69.242  1.00  0.00    -0.137 C  
HETATM    2  C   UNL     1      -8.641   8.092  70.396  1.00  0.00    -0.131 C  
HETATM    3  C   UNL     1      -9.763   8.802  71.170  1.00  0.00    -0.315 C  
HETATM    4  C   UNL     1      -8.660   7.466  67.744  1.00  0.00    -0.120 C  
HETATM    5  C   UNL     1     -10.867   7.864  71.627  1.00  0.00    -0.275 C  
HETATM    6  C   UNL     1      -8.484   5.085  66.673  1.00  0.00    -0.106 C  
HETATM    7  C   UNL     1      -9.276   6.397  66.762  1.00  0.00    -0.154 C  
HETATM    8  C   UNL     1     -11.375   7.137  70.424  1.00  0.00    -0.325 C  
HETATM    9  C   UNL     1     -10.702   6.055  67.043  1.00  0.00    -0.412 C  
HETATM   10  C   UNL     1     -11.977   8.672  72.312  1.00  0.00    -0.438 C  
HETATM   11  C   UNL     1     -10.619   6.855  69.345  1.00  0.00    -0.254 C  
HETATM   12  C   UNL     1     -11.299   6.266  68.214  1.00  0.00    -0.071 C  
ENDROOT
BRANCH   2  13
HETATM   13  O   UNL     1      -7.851   9.187  69.930  1.00  0.00    -0.073 OA 
BRANCH  13  14
HETATM   14  C   UNL     1      -8.509  10.272  69.457  1.00  0.00    -0.142 C  
HETATM   15  C   UNL     1      -8.718  12.429  67.322  1.00  0.00    -0.191 C  
HETATM   16  C   UNL     1      -7.580  11.476  69.393  1.00  0.00     0.156 C  
HETATM   17  O   UNL     1      -9.700  10.294  69.182  1.00  0.00    -0.195 OA 
HETATM   18  C   UNL     1      -7.418  11.929  67.940  1.00  0.00    -0.114 C  
HETATM   19  C   UNL     1      -6.207  11.194  70.025  1.00  0.00    -0.143 C  
ENDBRANCH  13  14
ENDBRANCH   2  13
BRANCH   4  20
HETATM   20  C   UNL     1      -7.133   7.649  67.358  1.00  0.00    -0.086 C  
BRANCH  20  21
HETATM   21  C   UNL     1      -6.935   8.957  66.554  1.00  0.00    -0.080 C  
BRANCH  21  22
HETATM   22  C   UNL     1      -7.155   9.033  65.042  1.00  0.00    -0.087 C  
HETATM   23  C   UNL     1      -7.520  10.396  64.484  1.00  0.00    -0.024 C  
HETATM   24  C   UNL     1      -7.371  10.336  62.967  1.00  0.00    -0.125 C  
HETATM   25  O   UNL     1      -5.990  10.366  62.586  1.00  0.00    -0.121 OA 
HETATM   26  C   UNL     1      -8.081   9.132  62.366  1.00  0.00    -0.143 C  
HETATM   27  C   UNL     1      -8.031   7.864  63.199  1.00  0.00    -0.130 C  
HETATM   28  H   UNL     1      -5.897  10.328  61.642  1.00  0.00     0.000 HD 
HETATM   29  O   UNL     1      -8.101   6.751  62.699  1.00  0.00    -0.106 OA 
HETATM   30  O   UNL     1      -8.071   8.047  64.554  1.00  0.00    -0.147 OA 
ENDBRANCH  21  22
ENDBRANCH  20  21
ENDBRANCH   4  20
TORSDOF 5
ENDMDL
MODEL      217
REMARK 921   NORMALIZED FREE ENERGY PREDICTED BY IDOCK:   -2.25 KCAL/MOL
REMARK 922        TOTAL FREE ENERGY PREDICTED BY IDOCK:   -4.49 KCAL/MOL
REMARK 923 INTER-LIGAND FREE ENERGY PREDICTED BY IDOCK:   -3.87 KCAL/MOL
REMARK 924 INTRA-LIGAND FREE ENERGY PREDICTED BY IDOCK:   -0.62 KCAL/MOL
REMARK 927      BINDING AFFINITY PREDICTED BY RF-SCORE:    0.00 PKD
ROOT
HETATM    1  C   UNL     1      -8.422   6.012  68.637  1.00  0.00    -0.113 C  
HETATM    2  C   UNL     1      -8.060   7.464  68.166  1.00  0.00    -0.124 C  
HETATM    3  C   UNL     1      -7.776   8.489  69.276  1.00  0.00    -0.093 C  
HETATM    4  C   UNL     1      -9.860   5.422  68.281  1.00  0.00    -0.196 C  
HETATM    5  C   UNL     1      -6.802   7.985  70.327  1.00  0.00    -0.037 C  
HETATM    6  C   UNL     1      -9.370   2.860  68.073  1.00  0.00    -0.258 C  
HETATM    7  C   UNL     1     -10.011   3.981  68.903  1.00  0.00     0.094 C  
HETATM    8  C   UNL     1      -7.336   6.696  70.864  1.00  0.00    -0.082 C  
HETATM    9  C   UNL     1      -9.506   3.862  70.304  1.00  0.00    -0.255 C  
HETATM   10  C   UNL     1      -6.649   9.038  71.433  1.00  0.00    -0.081 C  
HETATM   11  C   UNL     1      -8.095   5.844  70.146  1.00  0.00    -0.110 C  
HETATM   12  C   UNL     1      -8.640   4.709  70.855  1.00  0.00    -0.124 C  
ENDROOT
BRANCH   2  13
HETATM   13  O   UNL     1      -9.114   8.091  67.434  1.00  0.00    -0.132 OA 
BRANCH  13  14
HETATM   14  C   UNL     1      -8.905   9.358  67.005  1.00  0.00    -0.127 C  
HETATM   15  C   UNL     1      -8.452  12.279  67.724  1.00  0.00    -0.163 C  
HETATM   16  C   UNL     1     -10.014  10.279  67.494  1.00  0.00    -0.226 C  
HETATM   17  O   UNL     1      -7.987   9.699  66.272  1.00  0.00    -0.107 OA 
HETATM   18  C   UNL     1      -9.429  11.345  68.425  1.00  0.00    -0.194 C  
HETATM   19  C   UNL     1     -11.147   9.513  68.196  1.00  0.00    -0.052 C  
ENDBRANCH  13  14
ENDBRANCH   2  13
BRANCH   4  20
HETATM   20  C   UNL     1     -10.363   5.351  66.779  1.00  0.00    -0.321 C  
BRANCH  20  21
HETATM   21  C   UNL     1      -9.176   5.064  65.827  1.00  0.00    -0.159 C  
BRANCH  21  22
HETATM   22  C   UNL     1      -9.257   4.030  64.701  1.00  0.00    -0.151 C  
HETATM   23  C   UNL     1      -8.279   4.209  63.555  1.00  0.00    -0.093 C  
HETATM   24  C   UNL     1      -8.292   2.929  62.726  1.00  0.00    -0.074 C  
HETATM   25  O   UNL     1      -7.576   1.880  63.392  1.00  0.00    -0.052 OA 
HETATM   26  C   UNL     1      -9.703   2.488  62.367  1.00  0.00    -0.088 C  
HETATM   27  C   UNL     1     -10.751   2.726  63.439  1.00  0.00    -0.232 C  
HETATM   28  H   UNL     1      -7.583   1.083  62.876  1.00  0.00     0.000 HD 
HETATM   29  O   UNL     1     -11.758   2.040  63.531  1.00  0.00    -0.062 OA 
HETATM   30  O   UNL     1     -10.583   3.858  64.188  1.00  0.00    -0.257 OA 
ENDBRANCH  21  22
ENDBRANCH  20  21
ENDBRANCH   4  20
TORSDOF 5
ENDMDL
MODEL      218
REMARK 921   NORMALIZED FREE ENERGY PREDICTED BY IDOCK:   -2.18 KCAL/MOL
REMARK 922        TOTAL FREE ENERGY PREDICTED BY IDOCK:   -4.40 KCAL/MOL
REMARK 923 INTER-LIGAND FREE ENERGY PREDICTED BY IDOCK:   -3.78 KCAL/MOL
REMARK 924 INTRA-LIGAND FREE ENERGY PREDICTED BY IDOCK:   -0.62 KCAL/MOL
REMARK 927      BINDING AFFINITY PREDICTED BY RF-SCORE:    0.00 PKD
ROOT
HETATM    1  C   UNL     1      -8.310   9.328  69.937  1.00  0.00    -0.161 C  
HETATM    2  C   UNL     1      -8.698   8.201  70.957  1.00  0.00    -0.139 C  
HETATM    3  C   UNL     1      -7.534   7.511  71.685  1.00  0.00    -0.083 C  
HETATM    4  C   UNL     1      -8.671   9.131  68.396  1.00  0.00    -0.129 C  
HETATM    5  C   UNL     1      -6.537   8.487  72.287  1.00  0.00    -0.091 C  
HETATM    6  C   UNL     1      -9.047  11.594  67.598  1.00  0.00    -0.174 C  
HETATM    7  C   UNL     1      -8.135  10.360  67.565  1.00  0.00    -0.107 C  
HETATM    8  C   UNL     1      -6.069   9.393  71.194  1.00  0.00    -0.078 C  
HETATM    9  C   UNL     1      -6.756  10.797  67.936  1.00  0.00    -0.064 C  
HETATM   10  C   UNL     1      -5.372   7.710  72.915  1.00  0.00    -0.037 C  
HETATM   11  C   UNL     1      -6.822   9.729  70.127  1.00  0.00    -0.109 C  
HETATM   12  C   UNL     1      -6.172  10.506  69.096  1.00  0.00    -0.045 C  
ENDROOT
BRANCH   2  13
HETATM   13  O   UNL     1      -9.367   7.099  70.341  1.00  0.00    -0.159 OA 
BRANCH  13  14
HETATM   14  C   UNL     1      -8.658   5.960  70.165  1.00  0.00    -0.134 C  
HETATM   15  C   UNL     1      -8.629   3.057  69.252  1.00  0.00    -0.113 C  
HETATM   16  C   UNL     1      -9.259   4.823  70.979  1.00  0.00    -0.194 C  
HETATM   17  O   UNL     1      -7.637   5.875  69.495  1.00  0.00    -0.084 OA 
HETATM   18  C   UNL     1      -9.753   3.718  70.041  1.00  0.00    -0.211 C  
HETATM   19  C   UNL     1     -10.395   5.296  71.900  1.00  0.00    -0.275 C  
ENDBRANCH  13  14
ENDBRANCH   2  13
BRANCH   4  20
HETATM   20  C   UNL     1     -10.163   8.855  67.936  1.00  0.00    -0.274 C  
BRANCH  20  21
HETATM   21  C   UNL     1     -10.194   7.759  66.843  1.00  0.00    -0.373 C  
BRANCH  21  22
HETATM   22  C   UNL     1      -8.960   6.935  66.470  1.00  0.00    -0.150 C  
HETATM   23  C   UNL     1      -7.838   7.684  65.775  1.00  0.00    -0.106 C  
HETATM   24  C   UNL     1      -6.601   6.792  65.788  1.00  0.00    -0.051 C  
HETATM   25  O   UNL     1      -6.002   6.767  67.091  1.00  0.00    -0.020 OA 
HETATM   26  C   UNL     1      -6.901   5.385  65.294  1.00  0.00    -0.053 C  
HETATM   27  C   UNL     1      -8.258   4.832  65.688  1.00  0.00    -0.113 C  
HETATM   28  H   UNL     1      -5.232   6.211  67.099  1.00  0.00     0.000 HD 
HETATM   29  O   UNL     1      -8.465   3.633  65.807  1.00  0.00    -0.107 OA 
HETATM   30  O   UNL     1      -9.275   5.745  65.739  1.00  0.00    -0.148 OA 
ENDBRANCH  21  22
ENDBRANCH  20  21
ENDBRANCH   4  20
TORSDOF 5
ENDMDL
MODEL      219
REMARK 921   NORMALIZED FREE ENERGY PREDICTED BY IDOCK:   -2.07 KCAL/MOL
REMARK 922        TOTAL FREE ENERGY PREDICTED BY IDOCK:   -4.26 KCAL/MOL
REMARK 923 INTER-LIGAND FREE ENERGY PREDICTED BY IDOCK:   -3.81 KCAL/MOL
REMARK 924 INTRA-LIGAND FREE ENERGY PREDICTED BY IDOCK:   -0.45 KCAL/MOL
REMARK 927      BINDING AFFINITY PREDICTED BY RF-SCORE:    0.00 PKD
ROOT
HETATM    1  C   UNL     1      -8.111  12.746  68.515  1.00  0.00    -0.080 C  
HETATM    2  C   UNL     1      -9.670  12.643  68.653  1.00  0.00    -0.042 C  
HETATM    3  C   UNL     1     -10.345  11.482  67.906  1.00  0.00    -0.203 C  
HETATM    4  C   UNL     1      -7.482  14.038  67.823  1.00  0.00    -0.169 C  
HETATM    5  C   UNL     1      -9.675  10.140  68.145  1.00  0.00    -0.155 C  
HETATM    6  C   UNL     1      -5.179  14.253  69.046  1.00  0.00    -0.081 C  
HETATM    7  C   UNL     1      -5.914  13.889  67.748  1.00  0.00    -0.117 C  
HETATM    8  C   UNL     1      -8.229  10.283  67.793  1.00  0.00    -0.110 C  
HETATM    9  C   UNL     1      -5.446  12.537  67.319  1.00  0.00    -0.052 C  
HETATM   10  C   UNL     1     -10.361   9.063  67.295  1.00  0.00    -0.342 C  
HETATM   11  C   UNL     1      -7.543  11.438  67.901  1.00  0.00    -0.108 C  
HETATM   12  C   UNL     1      -6.191  11.437  67.392  1.00  0.00    -0.078 C  
ENDROOT
BRANCH   2  13
HETATM   13  O   UNL     1     -10.352  13.782  68.127  1.00  0.00    -0.238 OA 
BRANCH  13  14
HETATM   14  C   UNL     1     -10.797  14.705  69.012  1.00  0.00    -0.245 C  
HETATM   15  C   UNL     1     -13.072  15.704  70.768  1.00  0.00    -0.347 C  
HETATM   16  C   UNL     1     -12.019  15.428  68.463  1.00  0.00    -0.205 C  
HETATM   17  O   UNL     1     -10.251  14.965  70.075  1.00  0.00    -0.086 OA 
HETATM   18  C   UNL     1     -13.231  15.150  69.358  1.00  0.00     1.103 C  
HETATM   19  C   UNL     1     -12.325  15.044  67.007  1.00  0.00     0.471 C  
ENDBRANCH  13  14
ENDBRANCH   2  13
BRANCH   4  20
HETATM   20  C   UNL     1      -7.800  15.492  68.370  1.00  0.00    -0.126 C  
BRANCH  20  21
HETATM   21  C   UNL     1      -7.092  16.560  67.499  1.00  0.00    -0.169 C  
BRANCH  21  22
HETATM   22  C   UNL     1      -7.647  17.976  67.323  1.00  0.00    -0.200 C  
HETATM   23  C   UNL     1      -6.627  19.069  67.067  1.00  0.00    -0.200 C  
HETATM   24  C   UNL     1      -7.379  20.310  66.600  1.00  0.00    -0.274 C  
HETATM   25  O   UNL     1      -7.812  20.166  65.240  1.00  0.00    -0.439 OA 
HETATM   26  C   UNL     1      -8.546  20.655  67.513  1.00  0.00    -0.260 C  
HETATM   27  C   UNL     1      -9.295  19.467  68.089  1.00  0.00    -0.350 C  
HETATM   28  H   UNL     1      -8.281  20.939  64.949  1.00  0.00     0.000 HD 
HETATM   29  O   UNL     1     -10.472  19.531  68.412  1.00  0.00    -0.395 OA 
HETATM   30  O   UNL     1      -8.530  18.371  68.379  1.00  0.00    -0.310 OA 
ENDBRANCH  21  22
ENDBRANCH  20  21
ENDBRANCH   4  20
TORSDOF 5
ENDMDL
MODEL      220
REMARK 921   NORMALIZED FREE ENERGY PREDICTED BY IDOCK:   -2.05 KCAL/MOL
REMARK 922        TOTAL FREE ENERGY PREDICTED BY IDOCK:   -4.23 KCAL/MOL
REMARK 923 INTER-LIGAND FREE ENERGY PREDICTED BY IDOCK:   -4.63 KCAL/MOL
REMARK 924 INTRA-LIGAND FREE ENERGY PREDICTED BY IDOCK:    0.40 KCAL/MOL
REMARK 927      BINDING AFFINITY PREDICTED BY RF-SCORE:    0.00 PKD
ROOT
HETATM    1  C   UNL     1      -9.801   9.521  68.882  1.00  0.00    -0.179 C  
HETATM    2  C   UNL     1     -10.328  10.302  70.136  1.00  0.00    -0.153 C  
HETATM    3  C   UNL     1     -10.565   9.469  71.407  1.00  0.00    -0.307 C  
HETATM    4  C   UNL     1     -10.706   9.467  67.570  1.00  0.00    -0.311 C  
HETATM    5  C   UNL     1      -9.396   8.568  71.763  1.00  0.00    -0.323 C  
HETATM    6  C   UNL     1      -8.914   9.321  65.669  1.00  0.00    -0.243 C  
HETATM    7  C   UNL     1      -9.997   8.585  66.472  1.00  0.00    -0.350 C  
HETATM    8  C   UNL     1      -9.096   7.717  70.571  1.00  0.00    -0.151 C  
HETATM    9  C   UNL     1      -9.401   7.319  66.993  1.00  0.00    -0.181 C  
HETATM   10  C   UNL     1      -9.757   7.718  72.988  1.00  0.00    -0.329 C  
HETATM   11  C   UNL     1      -9.319   8.105  69.300  1.00  0.00    -0.151 C  
HETATM   12  C   UNL     1      -9.099   7.112  68.273  1.00  0.00    -0.134 C  
ENDROOT
BRANCH   2  13
HETATM   13  O   UNL     1     -11.607  10.902  69.922  1.00  0.00    -0.273 OA 
BRANCH  13  14
HETATM   14  C   UNL     1     -12.253  11.392  71.005  1.00  0.00    -0.285 C  
HETATM   15  C   UNL     1     -14.371  13.279  72.107  1.00  0.00    -0.100 C  
HETATM   16  C   UNL     1     -12.056  12.897  71.112  1.00  0.00     0.081 C  
HETATM   17  O   UNL     1     -12.857  10.708  71.820  1.00  0.00    -0.437 OA 
HETATM   18  C   UNL     1     -13.405  13.608  70.975  1.00  0.00    -0.111 C  
HETATM   19  C   UNL     1     -11.056  13.434  70.074  1.00  0.00     0.268 C  
ENDBRANCH  13  14
ENDBRANCH   2  13
BRANCH   4  20
HETATM   20  C   UNL     1     -11.204  10.799  66.868  1.00  0.00    -0.109 C  
BRANCH  20  21
HETATM   21  C   UNL     1     -10.074  11.859  66.864  1.00  0.00    -0.229 C  
BRANCH  21  22
HETATM   22  C   UNL     1     -10.349  13.351  66.666  1.00  0.00    -0.269 C  
HETATM   23  C   UNL     1      -9.488  14.306  67.471  1.00  0.00    -0.209 C  
HETATM   24  C   UNL     1      -9.681  15.706  66.900  1.00  0.00    -0.230 C  
HETATM   25  O   UNL     1      -8.977  15.855  65.659  1.00  0.00    -0.281 OA 
HETATM   26  C   UNL     1     -11.150  16.067  66.744  1.00  0.00    -0.022 C  
HETATM   27  C   UNL     1     -12.059  14.928  66.322  1.00  0.00     0.025 C  
HETATM   28  H   UNL     1      -9.097  16.727  65.303  1.00  0.00     0.000 HD 
HETATM   29  O   UNL     1     -13.098  15.115  65.706  1.00  0.00     0.716 OA 
HETATM   30  O   UNL     1     -11.730  13.696  66.818  1.00  0.00    -0.351 OA 
ENDBRANCH  21  22
ENDBRANCH  20  21
ENDBRANCH   4  20
TORSDOF 5
ENDMDL
MODEL      221
REMARK 921   NORMALIZED FREE ENERGY PREDICTED BY IDOCK:   -2.01 KCAL/MOL
REMARK 922        TOTAL FREE ENERGY PREDICTED BY IDOCK:   -4.18 KCAL/MOL
REMARK 923 INTER-LIGAND FREE ENERGY PREDICTED BY IDOCK:   -3.33 KCAL/MOL
REMARK 924 INTRA-LIGAND FREE ENERGY PREDICTED BY IDOCK:   -0.85 KCAL/MOL
REMARK 927      BINDING AFFINITY PREDICTED BY RF-SCORE:    0.00 PKD
ROOT
HETATM    1  C   UNL     1      -8.782   6.566  67.013  1.00  0.00    -0.112 C  
HETATM    2  C   UNL     1      -7.779   6.029  65.934  1.00  0.00    -0.096 C  
HETATM    3  C   UNL     1      -8.125   4.673  65.298  1.00  0.00    -0.104 C  
HETATM    4  C   UNL     1      -8.268   6.773  68.509  1.00  0.00    -0.120 C  
HETATM    5  C   UNL     1      -9.562   4.581  64.817  1.00  0.00    -0.103 C  
HETATM    6  C   UNL     1      -9.747   8.768  69.331  1.00  0.00    -0.172 C  
HETATM    7  C   UNL     1      -9.461   7.262  69.417  1.00  0.00    -0.154 C  
HETATM    8  C   UNL     1     -10.452   4.914  65.971  1.00  0.00    -0.327 C  
HETATM    9  C   UNL     1     -10.746   6.536  69.186  1.00  0.00    -0.323 C  
HETATM   10  C   UNL     1      -9.836   3.171  64.279  1.00  0.00    -0.158 C  
HETATM   11  C   UNL     1     -10.100   5.745  66.972  1.00  0.00    -0.224 C  
HETATM   12  C   UNL     1     -11.024   5.854  68.078  1.00  0.00    -0.252 C  
ENDROOT
BRANCH   2  13
HETATM   13  O   UNL     1      -6.470   5.796  66.456  1.00  0.00    -0.044 OA 
BRANCH  13  14
HETATM   14  C   UNL     1      -5.697   4.889  65.816  1.00  0.00    -0.018 C  
HETATM   15  C   UNL     1      -5.240   1.983  65.040  1.00  0.00    -0.005 C  
HETATM   16  C   UNL     1      -5.188   3.835  66.789  1.00  0.00    -0.012 C  
HETATM   17  O   UNL     1      -5.396   4.947  64.631  1.00  0.00    -0.012 OA 
HETATM   18  C   UNL     1      -5.738   2.460  66.398  1.00  0.00    -0.021 C  
HETATM   19  C   UNL     1      -5.544   4.162  68.248  1.00  0.00    -0.017 C  
ENDBRANCH  13  14
ENDBRANCH   2  13
BRANCH   4  20
HETATM   20  C   UNL     1      -7.017   7.696  68.821  1.00  0.00    -0.071 C  
BRANCH  20  21
HETATM   21  C   UNL     1      -6.184   7.096  69.981  1.00  0.00    -0.027 C  
BRANCH  21  22
HETATM   22  C   UNL     1      -6.687   7.069  71.426  1.00  0.00    -0.052 C  
HETATM   23  C   UNL     1      -6.142   8.143  72.347  1.00  0.00    -0.055 C  
HETATM   24  C   UNL     1      -6.992   8.150  73.613  1.00  0.00    -0.128 C  
HETATM   25  O   UNL     1      -8.263   8.769  73.372  1.00  0.00    -0.389 OA 
HETATM   26  C   UNL     1      -7.162   6.758  74.201  1.00  0.00    -0.093 C  
HETATM   27  C   UNL     1      -7.291   5.635  73.188  1.00  0.00    -0.095 C  
HETATM   28  H   UNL     1      -8.793   8.774  74.160  1.00  0.00     0.000 HD 
HETATM   29  O   UNL     1      -7.890   4.599  73.435  1.00  0.00    -0.093 OA 
HETATM   30  O   UNL     1      -6.556   5.784  72.045  1.00  0.00    -0.054 OA 
ENDBRANCH  21  22
ENDBRANCH  20  21
ENDBRANCH   4  20
TORSDOF 5
ENDMDL
MODEL      222
REMARK 921   NORMALIZED FREE ENERGY PREDICTED BY IDOCK:   -1.96 KCAL/MOL
REMARK 922        TOTAL FREE ENERGY PREDICTED BY IDOCK:   -4.12 KCAL/MOL
REMARK 923 INTER-LIGAND FREE ENERGY PREDICTED BY IDOCK:   -3.48 KCAL/MOL
REMARK 924 INTRA-LIGAND FREE ENERGY PREDICTED BY IDOCK:   -0.64 KCAL/MOL
REMARK 927      BINDING AFFINITY PREDICTED BY RF-SCORE:    0.00 PKD
ROOT
HETATM    1  C   UNL     1      -6.572   8.935  67.734  1.00  0.00    -0.061 C  
HETATM    2  C   UNL     1      -6.906   9.734  66.427  1.00  0.00    -0.088 C  
HETATM    3  C   UNL     1      -7.572  11.106  66.619  1.00  0.00    -0.147 C  
HETATM    4  C   UNL     1      -7.284   7.529  67.982  1.00  0.00    -0.090 C  
HETATM    5  C   UNL     1      -6.866  11.980  67.641  1.00  0.00    -0.115 C  
HETATM    6  C   UNL     1      -5.478   6.231  69.360  1.00  0.00    -0.013 C  
HETATM    7  C   UNL     1      -6.836   6.946  69.377  1.00  0.00    -0.054 C  
HETATM    8  C   UNL     1      -6.774  11.207  68.917  1.00  0.00    -0.077 C  
HETATM    9  C   UNL     1      -6.812   7.951  70.482  1.00  0.00    -0.041 C  
HETATM   10  C   UNL     1      -7.647  13.288  67.827  1.00  0.00    -0.161 C  
HETATM   11  C   UNL     1      -6.697   9.862  68.973  1.00  0.00    -0.053 C  
HETATM   12  C   UNL     1      -6.750   9.266  70.288  1.00  0.00    -0.066 C  
ENDROOT
BRANCH   2  13
HETATM   13  O   UNL     1      -7.841   9.058  65.584  1.00  0.00    -0.098 OA 
BRANCH  13  14
HETATM   14  C   UNL     1      -8.459   9.790  64.627  1.00  0.00    -0.172 C  
HETATM   15  C   UNL     1     -10.075  12.269  63.923  1.00  0.00    -0.374 C  
HETATM   16  C   UNL     1      -9.942   9.936  64.939  1.00  0.00    -0.190 C  
HETATM   17  O   UNL     1      -7.912  10.217  63.620  1.00  0.00    -0.160 OA 
HETATM   18  C   UNL     1     -10.280  11.412  65.166  1.00  0.00    -0.328 C  
HETATM   19  C   UNL     1     -10.374   9.092  66.149  1.00  0.00    -0.059 C  
ENDBRANCH  13  14
ENDBRANCH   2  13
BRANCH   4  20
HETATM   20  C   UNL     1      -7.173   6.360  66.916  1.00  0.00    -0.074 C  
BRANCH  20  21
HETATM   21  C   UNL     1      -8.551   5.679  66.721  1.00  0.00    -0.111 C  
BRANCH  21  22
HETATM   22  C   UNL     1      -8.754   4.493  65.775  1.00  0.00    -0.121 C  
HETATM   23  C   UNL     1      -7.503   3.741  65.362  1.00  0.00    -0.077 C  
HETATM   24  C   UNL     1      -7.937   2.433  64.710  1.00  0.00    -0.081 C  
HETATM   25  O   UNL     1      -8.378   1.491  65.696  1.00  0.00    -0.080 OA 
HETATM   26  C   UNL     1      -8.998   2.646  63.641  1.00  0.00    -0.093 C  
HETATM   27  C   UNL     1     -10.011   3.736  63.938  1.00  0.00    -0.189 C  
HETATM   28  H   UNL     1      -8.648   0.676  65.290  1.00  0.00     0.000 HD 
HETATM   29  O   UNL     1     -11.143   3.719  63.477  1.00  0.00    -0.199 OA 
HETATM   30  O   UNL     1      -9.529   4.822  64.617  1.00  0.00    -0.105 OA 
ENDBRANCH  21  22
ENDBRANCH  20  21
ENDBRANCH   4  20
TORSDOF 5
ENDMDL
MODEL      223
REMARK 921   NORMALIZED FREE ENERGY PREDICTED BY IDOCK:   -1.82 KCAL/MOL
REMARK 922        TOTAL FREE ENERGY PREDICTED BY IDOCK:   -3.93 KCAL/MOL
REMARK 923 INTER-LIGAND FREE ENERGY PREDICTED BY IDOCK:   -3.97 KCAL/MOL
REMARK 924 INTRA-LIGAND FREE ENERGY PREDICTED BY IDOCK:    0.04 KCAL/MOL
REMARK 927      BINDING AFFINITY PREDICTED BY RF-SCORE:    0.00 PKD
ROOT
HETATM    1  C   UNL     1     -10.162  16.653  67.990  1.00  0.00    -0.280 C  
HETATM    2  C   UNL     1     -10.841  17.035  69.351  1.00  0.00    -0.092 C  
HETATM    3  C   UNL     1     -10.287  18.279  70.063  1.00  0.00     1.125 C  
HETATM    4  C   UNL     1      -9.406  15.254  67.870  1.00  0.00    -0.189 C  
HETATM    5  C   UNL     1     -10.152  19.486  69.151  1.00  0.00    -0.371 C  
HETATM    6  C   UNL     1      -9.734  14.662  65.343  1.00  0.00    -0.176 C  
HETATM    7  C   UNL     1      -8.760  15.120  66.438  1.00  0.00    -0.219 C  
HETATM    8  C   UNL     1      -9.318  19.081  67.978  1.00  0.00    -0.365 C  
HETATM    9  C   UNL     1      -8.075  16.357  65.956  1.00  0.00     0.004 C  
HETATM   10  C   UNL     1      -9.514  20.647  69.924  1.00  0.00     1.342 C  
HETATM   11  C   UNL     1      -9.273  17.825  67.490  1.00  0.00    -0.244 C  
HETATM   12  C   UNL     1      -8.314  17.574  66.439  1.00  0.00    -0.297 C  
ENDROOT
BRANCH   2  13
HETATM   13  O   UNL     1     -10.696  16.023  70.349  1.00  0.00    -0.295 OA 
BRANCH  13  14
HETATM   14  C   UNL     1     -11.677  15.919  71.276  1.00  0.00    -0.448 C  
HETATM   15  C   UNL     1     -13.504  14.108  72.901  1.00  0.00    -0.466 C  
HETATM   16  C   UNL     1     -12.896  15.220  70.690  1.00  0.00    -0.462 C  
HETATM   17  O   UNL     1     -11.614  16.381  72.407  1.00  0.00    -0.435 OA 
HETATM   18  C   UNL     1     -13.147  13.905  71.434  1.00  0.00    -0.413 C  
HETATM   19  C   UNL     1     -12.759  14.967  69.180  1.00  0.00     0.327 C  
ENDBRANCH  13  14
ENDBRANCH   2  13
BRANCH   4  20
HETATM   20  C   UNL     1     -10.155  13.893  68.188  1.00  0.00    -0.250 C  
BRANCH  20  21
HETATM   21  C   UNL     1      -9.132  12.740  68.340  1.00  0.00    -0.129 C  
BRANCH  21  22
HETATM   22  C   UNL     1      -9.406  11.325  67.824  1.00  0.00    -0.163 C  
HETATM   23  C   UNL     1     -10.411  11.206  66.694  1.00  0.00    -0.298 C  
HETATM   24  C   UNL     1     -10.298   9.801  66.113  1.00  0.00    -0.144 C  
HETATM   25  O   UNL     1      -9.122   9.674  65.303  1.00  0.00    -0.187 OA 
HETATM   26  C   UNL     1     -10.341   8.727  67.190  1.00  0.00    -0.364 C  
HETATM   27  C   UNL     1      -9.649   9.084  68.493  1.00  0.00    -0.153 C  
HETATM   28  H   UNL     1      -9.051   8.799  64.941  1.00  0.00     0.000 HD 
HETATM   29  O   UNL     1      -9.176   8.236  69.235  1.00  0.00    -0.150 OA 
HETATM   30  O   UNL     1      -9.733  10.398  68.865  1.00  0.00    -0.179 OA 
ENDBRANCH  21  22
ENDBRANCH  20  21
ENDBRANCH   4  20
TORSDOF 5
ENDMDL
MODEL      224
REMARK 921   NORMALIZED FREE ENERGY PREDICTED BY IDOCK:   -1.82 KCAL/MOL
REMARK 922        TOTAL FREE ENERGY PREDICTED BY IDOCK:   -3.93 KCAL/MOL
REMARK 923 INTER-LIGAND FREE ENERGY PREDICTED BY IDOCK:   -6.03 KCAL/MOL
REMARK 924 INTRA-LIGAND FREE ENERGY PREDICTED BY IDOCK:    2.10 KCAL/MOL
REMARK 927      BINDING AFFINITY PREDICTED BY RF-SCORE:    0.00 PKD
ROOT
HETATM    1  C   UNL     1      -9.235  14.862  68.619  1.00  0.00    -0.193 C  
HETATM    2  C   UNL     1      -7.866  15.576  68.340  1.00  0.00    -0.126 C  
HETATM    3  C   UNL     1      -7.945  17.015  67.806  1.00  0.00    -0.192 C  
HETATM    4  C   UNL     1      -9.606  13.554  67.786  1.00  0.00    -0.219 C  
HETATM    5  C   UNL     1      -8.884  17.903  68.603  1.00  0.00    -0.267 C  
HETATM    6  C   UNL     1     -11.078  12.216  69.485  1.00  0.00    -0.117 C  
HETATM    7  C   UNL     1     -11.043  13.052  68.198  1.00  0.00    -0.285 C  
HETATM    8  C   UNL     1     -10.221  17.235  68.642  1.00  0.00    -0.351 C  
HETATM    9  C   UNL     1     -12.058  14.140  68.329  1.00  0.00    -0.297 C  
HETATM   10  C   UNL     1      -8.963  19.288  67.947  1.00  0.00    -0.357 C  
HETATM   11  C   UNL     1     -10.391  15.899  68.597  1.00  0.00    -0.229 C  
HETATM   12  C   UNL     1     -11.752  15.423  68.508  1.00  0.00    -0.355 C  
ENDROOT
BRANCH   2  13
HETATM   13  O   UNL     1      -7.090  14.920  67.337  1.00  0.00    -0.194 OA 
BRANCH  13  14
HETATM   14  C   UNL     1      -6.253  13.937  67.741  1.00  0.00    -0.145 C  
HETATM   15  C   UNL     1      -5.454  11.967  69.919  1.00  0.00    -0.098 C  
HETATM   16  C   UNL     1      -5.517  14.347  69.010  1.00  0.00    -0.084 C  
HETATM   17  O   UNL     1      -6.066  12.891  67.134  1.00  0.00    -0.304 OA 
HETATM   18  C   UNL     1      -5.896  13.405  70.156  1.00  0.00    -0.148 C  
HETATM   19  C   UNL     1      -5.790  15.809  69.400  1.00  0.00    -0.124 C  
ENDBRANCH  13  14
ENDBRANCH   2  13
BRANCH   4  20
HETATM   20  C   UNL     1      -8.643  12.294  67.774  1.00  0.00    -0.170 C  
BRANCH  20  21
HETATM   21  C   UNL     1      -9.199  11.202  66.827  1.00  0.00    -0.183 C  
BRANCH  21  22
HETATM   22  C   UNL     1      -9.215   9.719  67.204  1.00  0.00    -0.138 C  
HETATM   23  C   UNL     1     -10.582   9.079  67.353  1.00  0.00    -0.309 C  
HETATM   24  C   UNL     1     -10.389   7.567  67.400  1.00  0.00    -0.276 C  
HETATM   25  O   UNL     1     -10.104   7.046  66.095  1.00  0.00    -0.431 OA 
HETATM   26  C   UNL     1      -9.321   7.153  68.401  1.00  0.00    -0.135 C  
HETATM   27  C   UNL     1      -8.131   8.089  68.507  1.00  0.00    -0.125 C  
HETATM   28  H   UNL     1      -9.983   6.105  66.123  1.00  0.00     0.000 HD 
HETATM   29  O   UNL     1      -7.025   7.703  68.856  1.00  0.00    -0.066 OA 
HETATM   30  O   UNL     1      -8.410   9.419  68.350  1.00  0.00    -0.116 OA 
ENDBRANCH  21  22
ENDBRANCH  20  21
ENDBRANCH   4  20
TORSDOF 5
ENDMDL
MODEL      225
REMARK 921   NORMALIZED FREE ENERGY PREDICTED BY IDOCK:   -1.76 KCAL/MOL
REMARK 922        TOTAL FREE ENERGY PREDICTED BY IDOCK:   -3.86 KCAL/MOL
REMARK 923 INTER-LIGAND FREE ENERGY PREDICTED BY IDOCK:   -4.45 KCAL/MOL
REMARK 924 INTRA-LIGAND FREE ENERGY PREDICTED BY IDOCK:    0.59 KCAL/MOL
REMARK 927      BINDING AFFINITY PREDICTED BY RF-SCORE:    0.00 PKD
ROOT
HETATM    1  C   UNL     1      -8.792   6.008  70.888  1.00  0.00    -0.136 C  
HETATM    2  C   UNL     1      -9.011   7.561  70.879  1.00  0.00    -0.149 C  
HETATM    3  C   UNL     1      -8.858   8.278  72.229  1.00  0.00    -0.274 C  
HETATM    4  C   UNL     1     -10.007   5.055  70.489  1.00  0.00    -0.312 C  
HETATM    5  C   UNL     1      -7.589   7.899  72.972  1.00  0.00    -0.154 C  
HETATM    6  C   UNL     1      -8.776   3.006  69.425  1.00  0.00    -0.131 C  
HETATM    7  C   UNL     1      -9.565   3.547  70.626  1.00  0.00    -0.247 C  
HETATM    8  C   UNL     1      -7.568   6.411  73.111  1.00  0.00    -0.094 C  
HETATM    9  C   UNL     1      -8.785   3.247  71.863  1.00  0.00    -0.113 C  
HETATM   10  C   UNL     1      -7.566   8.595  74.340  1.00  0.00    -0.122 C  
HETATM   11  C   UNL     1      -8.140   5.569  72.227  1.00  0.00    -0.108 C  
HETATM   12  C   UNL     1      -8.145   4.168  72.579  1.00  0.00    -0.095 C  
ENDROOT
BRANCH   2  13
HETATM   13  O   UNL     1     -10.332   7.935  70.483  1.00  0.00    -0.201 OA 
BRANCH  13  14
HETATM   14  C   UNL     1     -10.566   9.249  70.261  1.00  0.00    -0.235 C  
HETATM   15  C   UNL     1     -11.672  11.392  68.405  1.00  0.00    -0.373 C  
HETATM   16  C   UNL     1      -9.847   9.718  69.004  1.00  0.00    -0.183 C  
HETATM   17  O   UNL     1     -11.213   9.974  71.005  1.00  0.00    -0.341 OA 
HETATM   18  C   UNL     1     -10.870  10.175  67.961  1.00  0.00    -0.320 C  
HETATM   19  C   UNL     1      -8.926   8.636  68.417  1.00  0.00    -0.142 C  
ENDBRANCH  13  14
ENDBRANCH   2  13
BRANCH   4  20
HETATM   20  C   UNL     1     -10.745   5.215  69.094  1.00  0.00     0.086 C  
BRANCH  20  21
HETATM   21  C   UNL     1      -9.718   5.516  67.975  1.00  0.00    -0.159 C  
BRANCH  21  22
HETATM   22  C   UNL     1      -9.606   4.659  66.711  1.00  0.00    -0.181 C  
HETATM   23  C   UNL     1      -8.203   4.275  66.283  1.00  0.00    -0.102 C  
HETATM   24  C   UNL     1      -8.318   3.178  65.230  1.00  0.00    -0.096 C  
HETATM   25  O   UNL     1      -8.657   1.922  65.833  1.00  0.00    -0.101 OA 
HETATM   26  C   UNL     1      -9.301   3.540  64.127  1.00  0.00    -0.135 C  
HETATM   27  C   UNL     1     -10.527   4.315  64.575  1.00  0.00    -0.081 C  
HETATM   28  H   UNL     1      -8.730   1.239  65.177  1.00  0.00     0.000 HD 
HETATM   29  O   UNL     1     -11.588   4.264  63.972  1.00  0.00     0.129 OA 
HETATM   30  O   UNL     1     -10.323   5.202  65.597  1.00  0.00    -0.081 OA 
ENDBRANCH  21  22
ENDBRANCH  20  21
ENDBRANCH   4  20
TORSDOF 5
ENDMDL
MODEL      226
REMARK 921   NORMALIZED FREE ENERGY PREDICTED BY IDOCK:   -1.68 KCAL/MOL
REMARK 922        TOTAL FREE ENERGY PREDICTED BY IDOCK:   -3.76 KCAL/MOL
REMARK 923 INTER-LIGAND FREE ENERGY PREDICTED BY IDOCK:   -3.33 KCAL/MOL
REMARK 924 INTRA-LIGAND FREE ENERGY PREDICTED BY IDOCK:   -0.42 KCAL/MOL
REMARK 927      BINDING AFFINITY PREDICTED BY RF-SCORE:    0.00 PKD
ROOT
HETATM    1  C   UNL     1      -8.782   6.568  67.013  1.00  0.00    -0.112 C  
HETATM    2  C   UNL     1      -7.773   6.025  65.942  1.00  0.00    -0.096 C  
HETATM    3  C   UNL     1      -8.119   4.669  65.306  1.00  0.00    -0.104 C  
HETATM    4  C   UNL     1      -8.279   6.775  68.512  1.00  0.00    -0.120 C  
HETATM    5  C   UNL     1      -9.553   4.583  64.813  1.00  0.00    -0.103 C  
HETATM    6  C   UNL     1      -9.756   8.778  69.320  1.00  0.00    -0.172 C  
HETATM    7  C   UNL     1      -9.477   7.271  69.410  1.00  0.00    -0.154 C  
HETATM    8  C   UNL     1     -10.450   4.921  65.960  1.00  0.00    -0.327 C  
HETATM    9  C   UNL     1     -10.762   6.550  69.170  1.00  0.00    -0.323 C  
HETATM   10  C   UNL     1      -9.828   3.173  64.276  1.00  0.00    -0.158 C  
HETATM   11  C   UNL     1     -10.103   5.753  66.963  1.00  0.00    -0.224 C  
HETATM   12  C   UNL     1     -11.034   5.867  68.061  1.00  0.00    -0.252 C  
ENDROOT
BRANCH   2  13
HETATM   13  O   UNL     1      -6.469   5.787  66.476  1.00  0.00    -0.044 OA 
BRANCH  13  14
HETATM   14  C   UNL     1      -5.695   4.875  65.843  1.00  0.00    -0.018 C  
HETATM   15  C   UNL     1      -5.245   1.964  65.080  1.00  0.00    -0.005 C  
HETATM   16  C   UNL     1      -5.198   3.821  66.824  1.00  0.00    -0.012 C  
HETATM   17  O   UNL     1      -5.385   4.928  64.661  1.00  0.00    -0.012 OA 
HETATM   18  C   UNL     1      -5.751   2.448  66.433  1.00  0.00    -0.021 C  
HETATM   19  C   UNL     1      -5.563   4.155  68.280  1.00  0.00    -0.017 C  
ENDBRANCH  13  14
ENDBRANCH   2  13
BRANCH   4  20
HETATM   20  C   UNL     1      -7.026   7.693  68.833  1.00  0.00    -0.070 C  
BRANCH  20  21
HETATM   21  C   UNL     1      -7.167   9.061  68.121  1.00  0.00    -0.079 C  
BRANCH  21  22
HETATM   22  C   UNL     1      -7.045   9.213  66.603  1.00  0.00    -0.082 C  
HETATM   23  C   UNL     1      -5.713   9.723  66.084  1.00  0.00    -0.057 C  
HETATM   24  C   UNL     1      -5.679   9.493  64.577  1.00  0.00    -0.072 C  
HETATM   25  O   UNL     1      -5.455   8.109  64.275  1.00  0.00    -0.043 OA 
HETATM   26  C   UNL     1      -6.933  10.009  63.887  1.00  0.00    -0.124 C  
HETATM   27  C   UNL     1      -8.223   9.837  64.667  1.00  0.00    -0.150 C  
HETATM   28  H   UNL     1      -5.434   7.965  63.337  1.00  0.00     0.000 HD 
HETATM   29  O   UNL     1      -9.310   9.737  64.117  1.00  0.00    -0.266 OA 
HETATM   30  O   UNL     1      -8.114   9.969  66.024  1.00  0.00    -0.117 OA 
ENDBRANCH  21  22
ENDBRANCH  20  21
ENDBRANCH   4  20
TORSDOF 5
ENDMDL
MODEL      227
REMARK 921   NORMALIZED FREE ENERGY PREDICTED BY IDOCK:   -1.63 KCAL/MOL
REMARK 922        TOTAL FREE ENERGY PREDICTED BY IDOCK:   -3.69 KCAL/MOL
REMARK 923 INTER-LIGAND FREE ENERGY PREDICTED BY IDOCK:   -4.76 KCAL/MOL
REMARK 924 INTRA-LIGAND FREE ENERGY PREDICTED BY IDOCK:    1.08 KCAL/MOL
REMARK 927      BINDING AFFINITY PREDICTED BY RF-SCORE:    0.00 PKD
ROOT
HETATM    1  C   UNL     1      -7.805   8.853  70.074  1.00  0.00    -0.095 C  
HETATM    2  C   UNL     1      -8.069   7.331  70.346  1.00  0.00    -0.116 C  
HETATM    3  C   UNL     1      -6.953   6.566  71.075  1.00  0.00    -0.068 C  
HETATM    4  C   UNL     1      -7.730   9.365  68.565  1.00  0.00    -0.085 C  
HETATM    5  C   UNL     1      -6.449   7.276  72.320  1.00  0.00    -0.051 C  
HETATM    6  C   UNL     1      -8.617  11.818  68.769  1.00  0.00     0.013 C  
HETATM    7  C   UNL     1      -7.402  10.907  68.543  1.00  0.00    -0.098 C  
HETATM    8  C   UNL     1      -6.030   8.654  71.921  1.00  0.00    -0.059 C  
HETATM    9  C   UNL     1      -6.333  11.320  69.501  1.00  0.00    -0.109 C  
HETATM   10  C   UNL     1      -5.285   6.484  72.927  1.00  0.00    -0.036 C  
HETATM   11  C   UNL     1      -6.583   9.339  70.900  1.00  0.00    -0.089 C  
HETATM   12  C   UNL     1      -5.971  10.603  70.563  1.00  0.00    -0.121 C  
ENDROOT
BRANCH   2  13
HETATM   13  O   UNL     1      -8.229   6.570  69.148  1.00  0.00    -0.114 OA 
BRANCH  13  14
HETATM   14  C   UNL     1      -8.568   5.267  69.280  1.00  0.00    -0.101 C  
HETATM   15  C   UNL     1      -9.275   2.638  67.920  1.00  0.00    -0.252 C  
HETATM   16  C   UNL     1      -9.921   4.997  68.637  1.00  0.00    -0.215 C  
HETATM   17  O   UNL     1      -7.907   4.437  69.889  1.00  0.00    -0.053 OA 
HETATM   18  C   UNL     1      -9.756   4.013  67.475  1.00  0.00    -0.177 C  
HETATM   19  C   UNL     1     -10.612   6.284  68.159  1.00  0.00    -0.318 C  
ENDBRANCH  13  14
ENDBRANCH   2  13
BRANCH   4  20
HETATM   20  C   UNL     1      -8.931   9.116  67.559  1.00  0.00    -0.131 C  
BRANCH  20  21
HETATM   21  C   UNL     1      -9.301  10.430  66.828  1.00  0.00    -0.181 C  
BRANCH  21  22
HETATM   22  C   UNL     1      -9.418  10.519  65.305  1.00  0.00    -0.229 C  
HETATM   23  C   UNL     1      -8.134  10.323  64.521  1.00  0.00    -0.150 C  
HETATM   24  C   UNL     1      -8.507  10.120  63.056  1.00  0.00    -0.180 C  
HETATM   25  O   UNL     1      -9.035   8.805  62.840  1.00  0.00    -0.430 OA 
HETATM   26  C   UNL     1      -9.466  11.187  62.553  1.00  0.00    -0.233 C  
HETATM   27  C   UNL     1     -10.503  11.657  63.557  1.00  0.00    -0.443 C  
HETATM   28  H   UNL     1      -9.268   8.678  61.928  1.00  0.00     0.000 HD 
HETATM   29  O   UNL     1     -11.588  12.103  63.215  1.00  0.00    -0.403 OA 
HETATM   30  O   UNL     1     -10.084  11.705  64.858  1.00  0.00    -0.241 OA 
ENDBRANCH  21  22
ENDBRANCH  20  21
ENDBRANCH   4  20
TORSDOF 5
ENDMDL
MODEL      228
REMARK 921   NORMALIZED FREE ENERGY PREDICTED BY IDOCK:   -1.60 KCAL/MOL
REMARK 922        TOTAL FREE ENERGY PREDICTED BY IDOCK:   -3.65 KCAL/MOL
REMARK 923 INTER-LIGAND FREE ENERGY PREDICTED BY IDOCK:   -3.50 KCAL/MOL
REMARK 924 INTRA-LIGAND FREE ENERGY PREDICTED BY IDOCK:   -0.15 KCAL/MOL
REMARK 927      BINDING AFFINITY PREDICTED BY RF-SCORE:    0.00 PKD
ROOT
HETATM    1  C   UNL     1      -7.985   6.518  67.710  1.00  0.00    -0.115 C  
HETATM    2  C   UNL     1      -8.507   7.980  67.936  1.00  0.00    -0.125 C  
HETATM    3  C   UNL     1      -8.715   8.410  69.397  1.00  0.00    -0.137 C  
HETATM    4  C   UNL     1      -8.907   5.484  66.919  1.00  0.00    -0.112 C  
HETATM    5  C   UNL     1      -7.529   8.097  70.292  1.00  0.00    -0.067 C  
HETATM    6  C   UNL     1      -7.139   3.938  65.766  1.00  0.00    -0.067 C  
HETATM    7  C   UNL     1      -8.200   4.075  66.867  1.00  0.00    -0.100 C  
HETATM    8  C   UNL     1      -7.233   6.638  70.164  1.00  0.00    -0.080 C  
HETATM    9  C   UNL     1      -7.580   3.652  68.158  1.00  0.00    -0.061 C  
HETATM   10  C   UNL     1      -7.861   8.481  71.740  1.00  0.00    -0.161 C  
HETATM   11  C   UNL     1      -7.478   5.919  69.050  1.00  0.00    -0.085 C  
HETATM   12  C   UNL     1      -7.258   4.494  69.138  1.00  0.00    -0.052 C  
ENDROOT
BRANCH   2  13
HETATM   13  O   UNL     1      -9.797   8.206  67.365  1.00  0.00    -0.157 OA 
BRANCH  13  14
HETATM   14  C   UNL     1      -9.959   9.321  66.616  1.00  0.00    -0.264 C  
HETATM   15  C   UNL     1      -9.438  12.301  66.286  1.00  0.00    -0.234 C  
HETATM   16  C   UNL     1     -10.704  10.391  67.402  1.00  0.00    -0.338 C  
HETATM   17  O   UNL     1      -9.611   9.429  65.448  1.00  0.00    -0.273 OA 
HETATM   18  C   UNL     1      -9.803  11.614  67.596  1.00  0.00    -0.195 C  
HETATM   19  C   UNL     1     -11.213   9.876  68.758  1.00  0.00    -0.122 C  
ENDBRANCH  13  14
ENDBRANCH   2  13
BRANCH   4  20
HETATM   20  C   UNL     1      -9.433   5.811  65.459  1.00  0.00     0.145 C  
BRANCH  20  21
HETATM   21  C   UNL     1      -8.242   6.073  64.505  1.00  0.00    -0.095 C  
BRANCH  21  22
HETATM   22  C   UNL     1      -7.744   7.484  64.182  1.00  0.00    -0.132 C  
HETATM   23  C   UNL     1      -7.574   7.815  62.711  1.00  0.00    -0.124 C  
HETATM   24  C   UNL     1      -7.398   9.325  62.589  1.00  0.00    -0.099 C  
HETATM   25  O   UNL     1      -8.649  10.003  62.768  1.00  0.00    -0.155 OA 
HETATM   26  C   UNL     1      -6.341   9.861  63.543  1.00  0.00    -0.124 C  
HETATM   27  C   UNL     1      -6.285   9.183  64.900  1.00  0.00    -0.066 C  
HETATM   28  H   UNL     1      -8.539  10.943  62.693  1.00  0.00     0.000 HD 
HETATM   29  O   UNL     1      -5.880   9.755  65.900  1.00  0.00    -0.055 OA 
HETATM   30  O   UNL     1      -6.558   7.842  64.901  1.00  0.00    -0.050 OA 
ENDBRANCH  21  22
ENDBRANCH  20  21
ENDBRANCH   4  20
TORSDOF 5
ENDMDL
MODEL      229
REMARK 921   NORMALIZED FREE ENERGY PREDICTED BY IDOCK:   -1.27 KCAL/MOL
REMARK 922        TOTAL FREE ENERGY PREDICTED BY IDOCK:   -3.22 KCAL/MOL
REMARK 923 INTER-LIGAND FREE ENERGY PREDICTED BY IDOCK:   -3.37 KCAL/MOL
REMARK 924 INTRA-LIGAND FREE ENERGY PREDICTED BY IDOCK:    0.15 KCAL/MOL
REMARK 927      BINDING AFFINITY PREDICTED BY RF-SCORE:    0.00 PKD
ROOT
HETATM    1  C   UNL     1      -8.311  15.104  67.552  1.00  0.00    -0.188 C  
HETATM    2  C   UNL     1      -7.149  14.611  68.483  1.00  0.00    -0.112 C  
HETATM    3  C   UNL     1      -7.003  13.089  68.642  1.00  0.00    -0.102 C  
HETATM    4  C   UNL     1      -9.484  15.982  68.183  1.00  0.00    -0.208 C  
HETATM    5  C   UNL     1      -7.013  12.342  67.320  1.00  0.00    -0.142 C  
HETATM    6  C   UNL     1     -10.192  17.490  66.164  1.00  0.00    -0.339 C  
HETATM    7  C   UNL     1     -10.557  16.308  67.074  1.00  0.00    -0.284 C  
HETATM    8  C   UNL     1      -8.260  12.722  66.590  1.00  0.00     0.166 C  
HETATM    9  C   UNL     1     -10.910  15.149  66.202  1.00  0.00    -0.330 C  
HETATM   10  C   UNL     1      -6.949  10.832  67.582  1.00  0.00    -0.082 C  
HETATM   11  C   UNL     1      -8.872  13.916  66.724  1.00  0.00    -0.170 C  
HETATM   12  C   UNL     1     -10.141  14.072  66.051  1.00  0.00    -0.327 C  
ENDROOT
BRANCH   2  13
HETATM   13  O   UNL     1      -7.296  15.046  69.836  1.00  0.00    -0.190 OA 
BRANCH  13  14
HETATM   14  C   UNL     1      -6.496  14.472  70.764  1.00  0.00     0.076 C  
HETATM   15  C   UNL     1      -5.142  14.678  73.481  1.00  0.00    -0.099 C  
HETATM   16  C   UNL     1      -5.269  15.334  71.022  1.00  0.00    -0.132 C  
HETATM   17  O   UNL     1      -6.700  13.379  71.275  1.00  0.00     0.809 OA 
HETATM   18  C   UNL     1      -5.269  15.815  72.476  1.00  0.00     0.686 C  
HETATM   19  C   UNL     1      -5.177  16.529  70.059  1.00  0.00    -0.174 C  
ENDBRANCH  13  14
ENDBRANCH   2  13
BRANCH   4  20
HETATM   20  C   UNL     1      -9.169  17.330  68.956  1.00  0.00    -0.109 C  
BRANCH  20  21
HETATM   21  C   UNL     1     -10.224  17.574  70.063  1.00  0.00     0.681 C  
BRANCH  21  22
HETATM   22  C   UNL     1     -11.070  16.444  70.654  1.00  0.00    -0.159 C  
HETATM   23  C   UNL     1     -12.127  15.849  69.742  1.00  0.00    -0.231 C  
HETATM   24  C   UNL     1     -12.620  14.555  70.380  1.00  0.00    -0.346 C  
HETATM   25  O   UNL     1     -11.655  13.506  70.223  1.00  0.00    -0.496 OA 
HETATM   26  C   UNL     1     -12.996  14.740  71.843  1.00  0.00    -0.405 C  
HETATM   27  C   UNL     1     -12.119  15.702  72.623  1.00  0.00    -0.460 C  
HETATM   28  H   UNL     1     -11.962  12.700  70.620  1.00  0.00     0.000 HD 
HETATM   29  O   UNL     1     -11.961  15.608  73.831  1.00  0.00    -0.443 OA 
HETATM   30  O   UNL     1     -11.652  16.778  71.920  1.00  0.00    -0.266 OA 
ENDBRANCH  21  22
ENDBRANCH  20  21
ENDBRANCH   4  20
TORSDOF 5
ENDMDL
MODEL      230
REMARK 921   NORMALIZED FREE ENERGY PREDICTED BY IDOCK:   -1.16 KCAL/MOL
REMARK 922        TOTAL FREE ENERGY PREDICTED BY IDOCK:   -3.09 KCAL/MOL
REMARK 923 INTER-LIGAND FREE ENERGY PREDICTED BY IDOCK:   -2.76 KCAL/MOL
REMARK 924 INTRA-LIGAND FREE ENERGY PREDICTED BY IDOCK:   -0.33 KCAL/MOL
REMARK 927      BINDING AFFINITY PREDICTED BY RF-SCORE:    0.00 PKD
ROOT
HETATM    1  C   UNL     1      -8.975   6.223  65.274  1.00  0.00     0.143 C  
HETATM    2  C   UNL     1      -8.010   5.407  64.345  1.00  0.00    -0.117 C  
HETATM    3  C   UNL     1      -8.192   3.881  64.347  1.00  0.00    -0.090 C  
HETATM    4  C   UNL     1      -8.356   7.072  66.474  1.00  0.00    -0.121 C  
HETATM    5  C   UNL     1      -9.636   3.446  64.167  1.00  0.00    -0.146 C  
HETATM    6  C   UNL     1     -10.050   9.056  66.677  1.00  0.00    -0.355 C  
HETATM    7  C   UNL     1      -9.517   7.755  67.294  1.00  0.00    -0.187 C  
HETATM    8  C   UNL     1     -10.450   4.119  65.225  1.00  0.00    -0.156 C  
HETATM    9  C   UNL     1     -10.684   6.863  67.565  1.00  0.00    -0.368 C  
HETATM   10  C   UNL     1      -9.730   1.918  64.268  1.00  0.00    -0.086 C  
HETATM   11  C   UNL     1     -10.140   5.318  65.759  1.00  0.00    -0.031 C  
HETATM   12  C   UNL     1     -10.955   5.764  66.865  1.00  0.00    -0.242 C  
ENDROOT
BRANCH   2  13
HETATM   13  O   UNL     1      -6.635   5.550  64.708  1.00  0.00    -0.040 OA 
BRANCH  13  14
HETATM   14  C   UNL     1      -5.844   4.459  64.588  1.00  0.00    -0.014 C  
HETATM   15  C   UNL     1      -5.410   1.510  65.201  1.00  0.00    -0.005 C  
HETATM   16  C   UNL     1      -5.431   3.943  65.960  1.00  0.00    -0.013 C  
HETATM   17  O   UNL     1      -5.461   3.993  63.524  1.00  0.00    -0.012 OA 
HETATM   18  C   UNL     1      -5.988   2.532  66.172  1.00  0.00    -0.023 C  
HETATM   19  C   UNL     1      -5.878   4.876  67.097  1.00  0.00    -0.022 C  
ENDBRANCH  13  14
ENDBRANCH   2  13
BRANCH   4  20
HETATM   20  C   UNL     1      -7.246   8.173  66.206  1.00  0.00    -0.078 C  
BRANCH  20  21
HETATM   21  C   UNL     1      -6.077   8.012  67.209  1.00  0.00    -0.054 C  
BRANCH  21  22
HETATM   22  C   UNL     1      -6.227   8.317  68.701  1.00  0.00    -0.045 C  
HETATM   23  C   UNL     1      -6.966   7.282  69.528  1.00  0.00    -0.057 C  
HETATM   24  C   UNL     1      -6.724   7.598  71.000  1.00  0.00    -0.042 C  
HETATM   25  O   UNL     1      -5.401   7.213  71.396  1.00  0.00    -0.027 OA 
HETATM   26  C   UNL     1      -6.990   9.060  71.326  1.00  0.00    -0.089 C  
HETATM   27  C   UNL     1      -6.595  10.051  70.247  1.00  0.00    -0.127 C  
HETATM   28  H   UNL     1      -5.249   7.410  72.313  1.00  0.00     0.000 HD 
HETATM   29  O   UNL     1      -6.288  11.206  70.501  1.00  0.00    -0.303 OA 
HETATM   30  O   UNL     1      -6.764   9.619  68.959  1.00  0.00    -0.049 OA 
ENDBRANCH  21  22
ENDBRANCH  20  21
ENDBRANCH   4  20
TORSDOF 5
ENDMDL
MODEL      231
REMARK 921   NORMALIZED FREE ENERGY PREDICTED BY IDOCK:   -0.96 KCAL/MOL
REMARK 922        TOTAL FREE ENERGY PREDICTED BY IDOCK:   -2.82 KCAL/MOL
REMARK 923 INTER-LIGAND FREE ENERGY PREDICTED BY IDOCK:   -4.55 KCAL/MOL
REMARK 924 INTRA-LIGAND FREE ENERGY PREDICTED BY IDOCK:    1.73 KCAL/MOL
REMARK 927      BINDING AFFINITY PREDICTED BY RF-SCORE:    0.00 PKD
ROOT
HETATM    1  C   UNL     1      -8.068  14.268  67.834  1.00  0.00    -0.152 C  
HETATM    2  C   UNL     1      -8.965  13.367  66.916  1.00  0.00    -0.209 C  
HETATM    3  C   UNL     1      -8.452  11.943  66.649  1.00  0.00    -0.143 C  
HETATM    4  C   UNL     1      -7.433  15.600  67.226  1.00  0.00    -0.257 C  
HETATM    5  C   UNL     1      -8.030  11.208  67.910  1.00  0.00    -0.114 C  
HETATM    6  C   UNL     1      -7.309  17.161  69.322  1.00  0.00    -0.098 C  
HETATM    7  C   UNL     1      -6.533  16.303  68.313  1.00  0.00    -0.130 C  
HETATM    8  C   UNL     1      -7.022  12.056  68.616  1.00  0.00    -0.096 C  
HETATM    9  C   UNL     1      -5.657  15.369  69.081  1.00  0.00    -0.099 C  
HETATM   10  C   UNL     1      -7.455   9.836  67.537  1.00  0.00    -0.091 C  
HETATM   11  C   UNL     1      -6.995  13.402  68.548  1.00  0.00    -0.102 C  
HETATM   12  C   UNL     1      -5.875  14.060  69.180  1.00  0.00    -0.087 C  
ENDROOT
BRANCH   2  13
HETATM   13  O   UNL     1      -9.112  13.890  65.595  1.00  0.00     0.271 OA 
BRANCH  13  14
HETATM   14  C   UNL     1     -10.368  13.982  65.098  1.00  0.00    -0.400 C  
HETATM   15  C   UNL     1     -13.109  12.702  64.773  1.00  0.00     0.023 C  
HETATM   16  C   UNL     1     -10.647  12.839  64.132  1.00  0.00    -0.441 C  
HETATM   17  O   UNL     1     -11.146  14.893  65.343  1.00  0.00    -0.333 OA 
HETATM   18  C   UNL     1     -11.780  11.964  64.677  1.00  0.00    -0.306 C  
HETATM   19  C   UNL     1      -9.397  11.988  63.852  1.00  0.00     0.193 C  
ENDBRANCH  13  14
ENDBRANCH   2  13
BRANCH   4  20
HETATM   20  C   UNL     1      -8.351  16.714  66.569  1.00  0.00    -0.322 C  
BRANCH  20  21
HETATM   21  C   UNL     1      -9.413  17.202  67.584  1.00  0.00    -0.241 C  
BRANCH  21  22
HETATM   22  C   UNL     1     -10.387  16.247  68.278  1.00  0.00    -0.272 C  
HETATM   23  C   UNL     1     -11.721  16.031  67.588  1.00  0.00     0.223 C  
HETATM   24  C   UNL     1     -12.394  14.827  68.238  1.00  0.00     0.113 C  
HETATM   25  O   UNL     1     -11.784  13.603  67.807  1.00  0.00    -0.320 OA 
HETATM   26  C   UNL     1     -12.411  14.926  69.756  1.00  0.00    -0.283 C  
HETATM   27  C   UNL     1     -11.178  15.555  70.381  1.00  0.00    -0.337 C  
HETATM   28  H   UNL     1     -12.203  12.853  68.212  1.00  0.00     0.000 HD 
HETATM   29  O   UNL     1     -10.813  15.287  71.516  1.00  0.00    -0.226 OA 
HETATM   30  O   UNL     1     -10.599  16.562  69.659  1.00  0.00    -0.316 OA 
ENDBRANCH  21  22
ENDBRANCH  20  21
ENDBRANCH   4  20
TORSDOF 5
ENDMDL
MODEL      232
REMARK 921   NORMALIZED FREE ENERGY PREDICTED BY IDOCK:   -0.68 KCAL/MOL
REMARK 922        TOTAL FREE ENERGY PREDICTED BY IDOCK:   -2.46 KCAL/MOL
REMARK 923 INTER-LIGAND FREE ENERGY PREDICTED BY IDOCK:   -3.22 KCAL/MOL
REMARK 924 INTRA-LIGAND FREE ENERGY PREDICTED BY IDOCK:    0.76 KCAL/MOL
REMARK 927      BINDING AFFINITY PREDICTED BY RF-SCORE:    0.00 PKD
ROOT
HETATM    1  C   UNL     1      -9.976   6.398  71.772  1.00  0.00    -0.195 C  
HETATM    2  C   UNL     1      -8.684   5.534  71.977  1.00  0.00    -0.131 C  
HETATM    3  C   UNL     1      -7.462   6.262  72.559  1.00  0.00    -0.093 C  
HETATM    4  C   UNL     1     -10.545   6.599  70.295  1.00  0.00    -0.265 C  
HETATM    5  C   UNL     1      -7.784   7.084  73.795  1.00  0.00    -0.117 C  
HETATM    6  C   UNL     1     -13.115   6.839  70.720  1.00  0.00     0.274 C  
HETATM    7  C   UNL     1     -11.806   7.544  70.337  1.00  0.00    -0.062 C  
HETATM    8  C   UNL     1      -8.893   8.022  73.444  1.00  0.00    -0.334 C  
HETATM    9  C   UNL     1     -11.651   8.737  71.221  1.00  0.00    -0.353 C  
HETATM   10  C   UNL     1      -6.528   7.839  74.252  1.00  0.00    -0.106 C  
HETATM   11  C   UNL     1      -9.835   7.754  72.517  1.00  0.00    -0.271 C  
HETATM   12  C   UNL     1     -10.756   8.821  72.203  1.00  0.00    -0.383 C  
ENDROOT
BRANCH   2  13
HETATM   13  O   UNL     1      -8.169   5.004  70.754  1.00  0.00    -0.095 OA 
BRANCH  13  14
HETATM   14  C   UNL     1      -7.046   4.251  70.826  1.00  0.00    -0.037 C  
HETATM   15  C   UNL     1      -5.152   2.311  69.445  1.00  0.00    -0.007 C  
HETATM   16  C   UNL     1      -7.373   2.781  70.605  1.00  0.00    -0.033 C  
HETATM   17  O   UNL     1      -5.936   4.686  71.097  1.00  0.00    -0.016 OA 
HETATM   18  C   UNL     1      -6.672   2.279  69.339  1.00  0.00    -0.033 C  
HETATM   19  C   UNL     1      -8.886   2.520  70.522  1.00  0.00    -0.143 C  
ENDBRANCH  13  14
ENDBRANCH   2  13
BRANCH   4  20
HETATM   20  C   UNL     1     -10.908   5.353  69.385  1.00  0.00    -0.103 C  
BRANCH  20  21
HETATM   21  C   UNL     1      -9.650   4.853  68.632  1.00  0.00    -0.215 C  
BRANCH  21  22
HETATM   22  C   UNL     1      -9.664   4.524  67.137  1.00  0.00    -0.197 C  
HETATM   23  C   UNL     1     -10.696   5.254  66.298  1.00  0.00    -0.260 C  
HETATM   24  C   UNL     1     -10.338   5.046  64.831  1.00  0.00     0.521 C  
HETATM   25  O   UNL     1      -9.216   5.857  64.457  1.00  0.00    -0.189 OA 
HETATM   26  C   UNL     1     -10.091   3.582  64.500  1.00  0.00    -0.156 C  
HETATM   27  C   UNL     1      -9.402   2.776  65.586  1.00  0.00    -0.047 C  
HETATM   28  H   UNL     1      -8.992   5.728  63.543  1.00  0.00     0.000 HD 
HETATM   29  O   UNL     1      -8.721   1.793  65.337  1.00  0.00    -0.106 OA 
HETATM   30  O   UNL     1      -9.727   3.118  66.870  1.00  0.00    -0.068 OA 
ENDBRANCH  21  22
ENDBRANCH  20  21
ENDBRANCH   4  20
TORSDOF 5
ENDMDL
MODEL      233
REMARK 921   NORMALIZED FREE ENERGY PREDICTED BY IDOCK:   -0.41 KCAL/MOL
REMARK 922        TOTAL FREE ENERGY PREDICTED BY IDOCK:   -2.12 KCAL/MOL
REMARK 923 INTER-LIGAND FREE ENERGY PREDICTED BY IDOCK:   -5.38 KCAL/MOL
REMARK 924 INTRA-LIGAND FREE ENERGY PREDICTED BY IDOCK:    3.26 KCAL/MOL
REMARK 927      BINDING AFFINITY PREDICTED BY RF-SCORE:    0.00 PKD
ROOT
HETATM    1  C   UNL     1      -9.025  14.062  66.625  1.00  0.00    -0.177 C  
HETATM    2  C   UNL     1      -9.632  12.645  66.914  1.00  0.00    -0.232 C  
HETATM    3  C   UNL     1     -11.098  12.435  66.502  1.00  0.00    -0.346 C  
HETATM    4  C   UNL     1      -8.538  14.958  67.852  1.00  0.00    -0.160 C  
HETATM    5  C   UNL     1     -11.397  12.890  65.084  1.00  0.00    -0.331 C  
HETATM    6  C   UNL     1      -6.582  16.333  66.789  1.00  0.00    -0.010 C  
HETATM    7  C   UNL     1      -8.022  16.350  67.320  1.00  0.00    -0.196 C  
HETATM    8  C   UNL     1     -10.969  14.317  64.963  1.00  0.00    -0.394 C  
HETATM    9  C   UNL     1      -8.891  16.967  66.274  1.00  0.00    -0.314 C  
HETATM   10  C   UNL     1     -12.894  12.722  64.795  1.00  0.00    -0.374 C  
HETATM   11  C   UNL     1      -9.960  14.859  65.675  1.00  0.00    -0.389 C  
HETATM   12  C   UNL     1      -9.763  16.284  65.536  1.00  0.00    -0.075 C  
ENDROOT
BRANCH   2  13
HETATM   13  O   UNL     1      -9.658  12.324  68.306  1.00  0.00    -0.211 OA 
BRANCH  13  14
HETATM   14  C   UNL     1     -10.852  11.984  68.844  1.00  0.00    -0.211 C  
HETATM   15  C   UNL     1     -12.367  10.654  71.123  1.00  0.00    -0.505 C  
HETATM   16  C   UNL     1     -10.957  10.474  69.008  1.00  0.00    -0.289 C  
HETATM   17  O   UNL     1     -11.747  12.777  69.101  1.00  0.00    -0.290 OA 
HETATM   18  C   UNL     1     -11.086  10.122  70.493  1.00  0.00    -0.400 C  
HETATM   19  C   UNL     1      -9.767   9.731  68.379  1.00  0.00    -0.162 C  
ENDBRANCH  13  14
ENDBRANCH   2  13
BRANCH   4  20
HETATM   20  C   UNL     1      -7.466  14.411  68.885  1.00  0.00    -0.132 C  
BRANCH  20  21
HETATM   21  C   UNL     1      -7.733  12.918  69.197  1.00  0.00     0.324 C  
BRANCH  21  22
HETATM   22  C   UNL     1      -6.995  11.785  68.481  1.00  0.00    -0.083 C  
HETATM   23  C   UNL     1      -6.291  10.776  69.369  1.00  0.00    -0.068 C  
HETATM   24  C   UNL     1      -5.911   9.578  68.506  1.00  0.00    -0.040 C  
HETATM   25  O   UNL     1      -7.059   8.770  68.216  1.00  0.00    -0.075 OA 
HETATM   26  C   UNL     1      -5.194   9.991  67.229  1.00  0.00    -0.041 C  
HETATM   27  C   UNL     1      -5.689  11.277  66.593  1.00  0.00    -0.130 C  
HETATM   28  H   UNL     1      -6.823   8.024  67.678  1.00  0.00     0.000 HD 
HETATM   29  O   UNL     1      -5.590  11.492  65.394  1.00  0.00     0.036 OA 
HETATM   30  O   UNL     1      -6.098  12.248  67.466  1.00  0.00    -0.107 OA 
ENDBRANCH  21  22
ENDBRANCH  20  21
ENDBRANCH   4  20
TORSDOF 5
ENDMDL
MODEL      234
REMARK 921   NORMALIZED FREE ENERGY PREDICTED BY IDOCK:   -0.20 KCAL/MOL
REMARK 922        TOTAL FREE ENERGY PREDICTED BY IDOCK:   -1.85 KCAL/MOL
REMARK 923 INTER-LIGAND FREE ENERGY PREDICTED BY IDOCK:   -3.85 KCAL/MOL
REMARK 924 INTRA-LIGAND FREE ENERGY PREDICTED BY IDOCK:    2.00 KCAL/MOL
REMARK 927      BINDING AFFINITY PREDICTED BY RF-SCORE:    0.00 PKD
ROOT
HETATM    1  C   UNL     1      -8.345   7.722  68.109  1.00  0.00    -0.124 C  
HETATM    2  C   UNL     1      -7.261   7.970  69.215  1.00  0.00    -0.076 C  
HETATM    3  C   UNL     1      -7.177   6.919  70.334  1.00  0.00    -0.076 C  
HETATM    4  C   UNL     1      -9.524   8.782  67.934  1.00  0.00    -0.160 C  
HETATM    5  C   UNL     1      -7.130   5.492  69.817  1.00  0.00    -0.063 C  
HETATM    6  C   UNL     1     -10.051   8.605  65.377  1.00  0.00     1.116 C  
HETATM    7  C   UNL     1     -10.513   8.293  66.807  1.00  0.00    -0.313 C  
HETATM    8  C   UNL     1      -8.316   5.288  68.931  1.00  0.00    -0.092 C  
HETATM    9  C   UNL     1     -10.850   6.840  66.875  1.00  0.00    -0.402 C  
HETATM   10  C   UNL     1      -7.135   4.516  71.002  1.00  0.00    -0.037 C  
HETATM   11  C   UNL     1      -8.893   6.273  68.214  1.00  0.00    -0.114 C  
HETATM   12  C   UNL     1     -10.111   5.936  67.514  1.00  0.00    -0.197 C  
ENDROOT
BRANCH   2  13
HETATM   13  O   UNL     1      -7.477   9.178  69.946  1.00  0.00    -0.058 OA 
BRANCH  13  14
HETATM   14  C   UNL     1      -6.437  10.038  70.048  1.00  0.00    -0.092 C  
HETATM   15  C   UNL     1      -5.132  12.624  69.115  1.00  0.00    -0.068 C  
HETATM   16  C   UNL     1      -5.725  10.179  68.709  1.00  0.00    -0.038 C  
HETATM   17  O   UNL     1      -6.081  10.576  71.087  1.00  0.00    -0.324 OA 
HETATM   18  C   UNL     1      -5.839  11.622  68.211  1.00  0.00    -0.045 C  
HETATM   19  C   UNL     1      -6.262   9.200  67.653  1.00  0.00    -0.058 C  
ENDBRANCH  13  14
ENDBRANCH   2  13
BRANCH   4  20
HETATM   20  C   UNL     1      -9.211  10.314  67.666  1.00  0.00    -0.154 C  
BRANCH  20  21
HETATM   21  C   UNL     1     -10.072  11.208  68.592  1.00  0.00    -0.208 C  
BRANCH  21  22
HETATM   22  C   UNL     1     -10.312  12.693  68.309  1.00  0.00    -0.241 C  
HETATM   23  C   UNL     1     -11.586  13.287  68.878  1.00  0.00    -0.357 C  
HETATM   24  C   UNL     1     -11.480  14.805  68.777  1.00  0.00    -0.301 C  
HETATM   25  O   UNL     1     -10.594  15.324  69.778  1.00  0.00    -0.256 OA 
HETATM   26  C   UNL     1     -11.067  15.262  67.387  1.00  0.00    -0.326 C  
HETATM   27  C   UNL     1     -10.066  14.368  66.678  1.00  0.00    -0.274 C  
HETATM   28  H   UNL     1     -10.527  16.270  69.715  1.00  0.00     0.000 HD 
HETATM   29  O   UNL     1      -9.294  14.794  65.833  1.00  0.00    -0.271 OA 
HETATM   30  O   UNL     1     -10.196  13.028  66.922  1.00  0.00    -0.239 OA 
ENDBRANCH  21  22
ENDBRANCH  20  21
ENDBRANCH   4  20
TORSDOF 5
ENDMDL
MODEL      235
REMARK 921   NORMALIZED FREE ENERGY PREDICTED BY IDOCK:    0.06 KCAL/MOL
REMARK 922        TOTAL FREE ENERGY PREDICTED BY IDOCK:   -1.51 KCAL/MOL
REMARK 923 INTER-LIGAND FREE ENERGY PREDICTED BY IDOCK:   -3.81 KCAL/MOL
REMARK 924 INTRA-LIGAND FREE ENERGY PREDICTED BY IDOCK:    2.31 KCAL/MOL
REMARK 927      BINDING AFFINITY PREDICTED BY RF-SCORE:    0.00 PKD
ROOT
HETATM    1  C   UNL     1      -8.067  16.578  66.798  1.00  0.00    -0.286 C  
HETATM    2  C   UNL     1      -8.526  17.976  66.256  1.00  0.00    -0.184 C  
HETATM    3  C   UNL     1      -7.410  18.988  65.951  1.00  0.00    -0.268 C  
HETATM    4  C   UNL     1      -8.524  16.129  68.259  1.00  0.00    -0.180 C  
HETATM    5  C   UNL     1      -6.283  18.408  65.114  1.00  0.00    -0.191 C  
HETATM    6  C   UNL     1      -8.666  13.527  68.019  1.00  0.00    -0.181 C  
HETATM    7  C   UNL     1      -7.898  14.723  68.602  1.00  0.00    -0.140 C  
HETATM    8  C   UNL     1      -5.774  17.190  65.815  1.00  0.00     0.607 C  
HETATM    9  C   UNL     1      -6.463  14.579  68.215  1.00  0.00    -0.118 C  
HETATM   10  C   UNL     1      -5.181  19.461  64.935  1.00  0.00    -0.196 C  
HETATM   11  C   UNL     1      -6.537  16.405  66.602  1.00  0.00     0.034 C  
HETATM   12  C   UNL     1      -5.858  15.345  67.311  1.00  0.00     0.220 C  
ENDROOT
BRANCH   2  13
HETATM   13  O   UNL     1      -9.342  18.693  67.183  1.00  0.00    -0.282 OA 
BRANCH  13  14
HETATM   14  C   UNL     1      -8.772  19.727  67.844  1.00  0.00    -0.317 C  
HETATM   15  C   UNL     1      -6.760  20.657  69.928  1.00  0.00     0.504 C  
HETATM   16  C   UNL     1      -9.002  19.598  69.343  1.00  0.00     0.145 C  
HETATM   17  O   UNL     1      -8.207  20.668  67.304  1.00  0.00    -0.336 OA 
HETATM   18  C   UNL     1      -7.660  19.436  70.062  1.00  0.00     0.527 C  
HETATM   19  C   UNL     1      -9.946  18.436  69.695  1.00  0.00     0.396 C  
ENDBRANCH  13  14
ENDBRANCH   2  13
BRANCH   4  20
HETATM   20  C   UNL     1     -10.059  16.081  68.655  1.00  0.00    -0.220 C  
BRANCH  20  21
HETATM   21  C   UNL     1     -10.321  14.920  69.646  1.00  0.00    -0.144 C  
BRANCH  21  22
HETATM   22  C   UNL     1     -11.474  14.944  70.652  1.00  0.00    -0.266 C  
HETATM   23  C   UNL     1     -12.828  14.499  70.133  1.00  0.00    -0.166 C  
HETATM   24  C   UNL     1     -13.741  14.282  71.335  1.00  0.00    -0.311 C  
HETATM   25  O   UNL     1     -13.415  13.061  72.012  1.00  0.00    -0.481 OA 
HETATM   26  C   UNL     1     -13.724  15.463  72.294  1.00  0.00    -0.629 C  
HETATM   27  C   UNL     1     -12.380  16.148  72.458  1.00  0.00    -0.480 C  
HETATM   28  H   UNL     1     -13.983  12.925  72.761  1.00  0.00     0.000 HD 
HETATM   29  O   UNL     1     -12.072  16.746  73.478  1.00  0.00    -0.426 OA 
HETATM   30  O   UNL     1     -11.602  16.197  71.334  1.00  0.00    -0.445 OA 
ENDBRANCH  21  22
ENDBRANCH  20  21
ENDBRANCH   4  20
TORSDOF 5
ENDMDL
MODEL      236
REMARK 921   NORMALIZED FREE ENERGY PREDICTED BY IDOCK:    0.22 KCAL/MOL
REMARK 922        TOTAL FREE ENERGY PREDICTED BY IDOCK:   -1.30 KCAL/MOL
REMARK 923 INTER-LIGAND FREE ENERGY PREDICTED BY IDOCK:   -1.44 KCAL/MOL
REMARK 924 INTRA-LIGAND FREE ENERGY PREDICTED BY IDOCK:    0.14 KCAL/MOL
REMARK 927      BINDING AFFINITY PREDICTED BY RF-SCORE:    0.00 PKD
ROOT
HETATM    1  C   UNL     1      -9.650   6.204  65.207  1.00  0.00     0.667 C  
HETATM    2  C   UNL     1      -8.909   5.602  63.963  1.00  0.00     0.277 C  
HETATM    3  C   UNL     1      -8.992   4.077  63.793  1.00  0.00    -0.125 C  
HETATM    4  C   UNL     1      -8.796   6.957  66.324  1.00  0.00    -0.161 C  
HETATM    5  C   UNL     1     -10.404   3.532  63.917  1.00  0.00    -0.244 C  
HETATM    6  C   UNL     1     -10.498   8.731  67.219  1.00  0.00    -0.353 C  
HETATM    7  C   UNL     1      -9.746   7.422  67.494  1.00  0.00    -0.186 C  
HETATM    8  C   UNL     1     -10.957   3.991  65.228  1.00  0.00     0.335 C  
HETATM    9  C   UNL     1     -10.746   6.397  67.916  1.00  0.00    -0.372 C  
HETATM   10  C   UNL     1     -10.375   2.001  63.821  1.00  0.00    -0.070 C  
HETATM   11  C   UNL     1     -10.594   5.141  65.832  1.00  0.00    -0.164 C  
HETATM   12  C   UNL     1     -11.122   5.370  67.157  1.00  0.00     0.378 C  
ENDROOT
BRANCH   2  13
HETATM   13  O   UNL     1      -7.499   5.830  63.990  1.00  0.00    -0.059 OA 
BRANCH  13  14
HETATM   14  C   UNL     1      -6.746   4.979  64.725  1.00  0.00    -0.048 C  
HETATM   15  C   UNL     1      -5.192   4.471  67.291  1.00  0.00    -0.012 C  
HETATM   16  C   UNL     1      -5.375   5.580  65.003  1.00  0.00    -0.010 C  
HETATM   17  O   UNL     1      -7.096   3.856  65.060  1.00  0.00    -0.063 OA 
HETATM   18  C   UNL     1      -5.194   5.780  66.511  1.00  0.00    -0.009 C  
HETATM   19  C   UNL     1      -5.150   6.902  64.253  1.00  0.00    -0.027 C  
ENDBRANCH  13  14
ENDBRANCH   2  13
BRANCH   4  20
HETATM   20  C   UNL     1      -7.862   8.182  65.949  1.00  0.00    -0.094 C  
BRANCH  20  21
HETATM   21  C   UNL     1      -6.802   8.408  67.055  1.00  0.00    -0.070 C  
BRANCH  21  22
HETATM   22  C   UNL     1      -6.877   9.578  68.038  1.00  0.00    -0.074 C  
HETATM   23  C   UNL     1      -6.744  10.966  67.442  1.00  0.00    -0.078 C  
HETATM   24  C   UNL     1      -7.168  11.975  68.504  1.00  0.00    -0.101 C  
HETATM   25  O   UNL     1      -8.594  11.994  68.651  1.00  0.00    -0.295 OA 
HETATM   26  C   UNL     1      -6.481  11.729  69.839  1.00  0.00    -0.063 C  
HETATM   27  C   UNL     1      -6.263  10.271  70.200  1.00  0.00    -0.099 C  
HETATM   28  H   UNL     1      -8.859  12.622  69.313  1.00  0.00     0.000 HD 
HETATM   29  O   UNL     1      -6.191   9.889  71.358  1.00  0.00    -0.278 OA 
HETATM   30  O   UNL     1      -5.985   9.439  69.150  1.00  0.00    -0.041 OA 
ENDBRANCH  21  22
ENDBRANCH  20  21
ENDBRANCH   4  20
TORSDOF 5
ENDMDL
MODEL      237
REMARK 921   NORMALIZED FREE ENERGY PREDICTED BY IDOCK:    1.43 KCAL/MOL
REMARK 922        TOTAL FREE ENERGY PREDICTED BY IDOCK:    0.26 KCAL/MOL
REMARK 923 INTER-LIGAND FREE ENERGY PREDICTED BY IDOCK:    0.67 KCAL/MOL
REMARK 924 INTRA-LIGAND FREE ENERGY PREDICTED BY IDOCK:   -0.41 KCAL/MOL
REMARK 927      BINDING AFFINITY PREDICTED BY RF-SCORE:    0.00 PKD
ROOT
HETATM    1  C   UNL     1     -12.066  11.443  68.336  1.00  0.00    -0.118 C  
HETATM    2  C   UNL     1     -12.035  12.287  67.015  1.00  0.00    -0.143 C  
HETATM    3  C   UNL     1     -10.881  11.990  66.044  1.00  0.00    -0.329 C  
HETATM    4  C   UNL     1     -11.915  12.194  69.735  1.00  0.00    -0.372 C  
HETATM    5  C   UNL     1     -10.696  10.509  65.763  1.00  0.00    -0.055 C  
HETATM    6  C   UNL     1     -13.318  10.670  71.334  1.00  0.00    -0.299 C  
HETATM    7  C   UNL     1     -11.920  11.139  70.907  1.00  0.00    -0.362 C  
HETATM    8  C   UNL     1     -10.531   9.813  67.075  1.00  0.00    -0.295 C  
HETATM    9  C   UNL     1     -11.089   9.926  70.644  1.00  0.00    -0.409 C  
HETATM   10  C   UNL     1      -9.474  10.306  64.858  1.00  0.00    -0.337 C  
HETATM   11  C   UNL     1     -11.086  10.244  68.226  1.00  0.00    -0.311 C  
HETATM   12  C   UNL     1     -10.718   9.531  69.428  1.00  0.00    -0.244 C  
ENDROOT
BRANCH   2  13
HETATM   13  O   UNL     1     -11.881  13.688  67.252  1.00  0.00    -0.355 OA 
BRANCH  13  14
HETATM   14  C   UNL     1     -12.021  14.517  66.191  1.00  0.00    -0.312 C  
HETATM   15  C   UNL     1     -10.682  16.305  64.125  1.00  0.00     1.313 C  
HETATM   16  C   UNL     1     -11.468  15.898  66.515  1.00  0.00     0.347 C  
HETATM   17  O   UNL     1     -12.574  14.215  65.143  1.00  0.00    -0.524 OA 
HETATM   18  C   UNL     1     -10.286  16.212  65.593  1.00  0.00    -0.405 C  
HETATM   19  C   UNL     1     -11.053  16.035  67.989  1.00  0.00    -0.334 C  
ENDBRANCH  13  14
ENDBRANCH   2  13
BRANCH   4  20
HETATM   20  C   UNL     1     -12.903  13.367  70.142  1.00  0.00     0.122 C  
BRANCH  20  21
HETATM   21  C   UNL     1     -12.910  13.555  71.679  1.00  0.00    -0.419 C  
BRANCH  21  22
HETATM   22  C   UNL     1     -12.625  14.904  72.343  1.00  0.00    -0.343 C  
HETATM   23  C   UNL     1     -11.164  15.265  72.532  1.00  0.00    -0.112 C  
HETATM   24  C   UNL     1     -11.090  16.744  72.891  1.00  0.00     1.862 C  
HETATM   25  O   UNL     1     -11.315  17.564  71.736  1.00  0.00     0.334 OA 
HETATM   26  C   UNL     1     -12.042  17.112  74.019  1.00  0.00     0.049 C  
HETATM   27  C   UNL     1     -13.374  16.384  74.010  1.00  0.00     0.450 C  
HETATM   28  H   UNL     1     -11.269  18.486  71.960  1.00  0.00     0.000 HD 
HETATM   29  O   UNL     1     -14.386  16.867  74.496  1.00  0.00     2.754 OA 
HETATM   30  O   UNL     1     -13.335  15.088  73.573  1.00  0.00    -0.482 OA 
ENDBRANCH  21  22
ENDBRANCH  20  21
ENDBRANCH   4  20
TORSDOF 5
ENDMDL
MODEL      238
REMARK 921   NORMALIZED FREE ENERGY PREDICTED BY IDOCK:    1.69 KCAL/MOL
REMARK 922        TOTAL FREE ENERGY PREDICTED BY IDOCK:    0.60 KCAL/MOL
REMARK 923 INTER-LIGAND FREE ENERGY PREDICTED BY IDOCK:   -2.60 KCAL/MOL
REMARK 924 INTRA-LIGAND FREE ENERGY PREDICTED BY IDOCK:    3.20 KCAL/MOL
REMARK 927      BINDING AFFINITY PREDICTED BY RF-SCORE:    0.00 PKD
ROOT
HETATM    1  C   UNL     1     -10.123   6.412  71.589  1.00  0.00    -0.209 C  
HETATM    2  C   UNL     1      -8.714   5.722  71.603  1.00  0.00    -0.136 C  
HETATM    3  C   UNL     1      -7.569   6.524  72.242  1.00  0.00    -0.096 C  
HETATM    4  C   UNL     1     -10.804   6.748  70.187  1.00  0.00    -0.311 C  
HETATM    5  C   UNL     1      -7.922   7.097  73.604  1.00  0.00    -0.130 C  
HETATM    6  C   UNL     1     -13.352   6.548  70.748  1.00  0.00     1.065 C  
HETATM    7  C   UNL     1     -12.178   7.484  70.427  1.00  0.00     0.145 C  
HETATM    8  C   UNL     1      -9.169   7.906  73.450  1.00  0.00    -0.351 C  
HETATM    9  C   UNL     1     -12.131   8.541  71.481  1.00  0.00    -0.351 C  
HETATM   10  C   UNL     1      -6.755   7.948  74.122  1.00  0.00    -0.129 C  
HETATM   11  C   UNL     1     -10.121   7.647  72.531  1.00  0.00    -0.284 C  
HETATM   12  C   UNL     1     -11.197   8.605  72.426  1.00  0.00    -0.339 C  
ENDROOT
BRANCH   2  13
HETATM   13  O   UNL     1      -8.209   5.462  70.292  1.00  0.00    -0.097 OA 
BRANCH  13  14
HETATM   14  C   UNL     1      -7.195   6.242  69.850  1.00  0.00    -0.074 C  
HETATM   15  C   UNL     1      -5.391   7.059  67.540  1.00  0.00    -0.016 C  
HETATM   16  C   UNL     1      -6.039   5.386  69.350  1.00  0.00    -0.025 C  
HETATM   17  O   UNL     1      -7.185   7.464  69.906  1.00  0.00    -0.076 OA 
HETATM   18  C   UNL     1      -5.822   5.631  67.854  1.00  0.00    -0.017 C  
HETATM   19  C   UNL     1      -6.255   3.889  69.625  1.00  0.00    -0.028 C  
ENDBRANCH  13  14
ENDBRANCH   2  13
BRANCH   4  20
HETATM   20  C   UNL     1     -11.050   5.612  69.107  1.00  0.00    -0.054 C  
BRANCH  20  21
HETATM   21  C   UNL     1      -9.770   4.760  68.922  1.00  0.00    -0.244 C  
BRANCH  21  22
HETATM   22  C   UNL     1      -9.159   4.484  67.546  1.00  0.00    -0.121 C  
HETATM   23  C   UNL     1      -8.227   3.291  67.453  1.00  0.00    -0.084 C  
HETATM   24  C   UNL     1      -7.995   2.993  65.976  1.00  0.00    -0.085 C  
HETATM   25  O   UNL     1      -9.140   2.354  65.395  1.00  0.00    -0.133 OA 
HETATM   26  C   UNL     1      -7.604   4.237  65.191  1.00  0.00    -0.078 C  
HETATM   27  C   UNL     1      -8.289   5.521  65.623  1.00  0.00    -0.133 C  
HETATM   28  H   UNL     1      -8.996   2.169  64.475  1.00  0.00     0.000 HD 
HETATM   29  O   UNL     1      -8.473   6.453  64.855  1.00  0.00    -0.101 OA 
HETATM   30  O   UNL     1      -8.537   5.635  66.964  1.00  0.00    -0.111 OA 
ENDBRANCH  21  22
ENDBRANCH  20  21
ENDBRANCH   4  20
TORSDOF 5
ENDMDL
MODEL      239
REMARK 921   NORMALIZED FREE ENERGY PREDICTED BY IDOCK:    1.89 KCAL/MOL
REMARK 922        TOTAL FREE ENERGY PREDICTED BY IDOCK:    0.86 KCAL/MOL
REMARK 923 INTER-LIGAND FREE ENERGY PREDICTED BY IDOCK:   -2.86 KCAL/MOL
REMARK 924 INTRA-LIGAND FREE ENERGY PREDICTED BY IDOCK:    3.71 KCAL/MOL
REMARK 927      BINDING AFFINITY PREDICTED BY RF-SCORE:    0.00 PKD
ROOT
HETATM    1  C   UNL     1      -9.923  12.805  66.050  1.00  0.00    -0.277 C  
HETATM    2  C   UNL     1      -8.664  12.211  66.772  1.00  0.00    -0.183 C  
HETATM    3  C   UNL     1      -8.526  10.680  66.752  1.00  0.00    -0.134 C  
HETATM    4  C   UNL     1     -10.995  13.617  66.909  1.00  0.00    -0.296 C  
HETATM    5  C   UNL     1      -8.712  10.077  65.370  1.00  0.00    -0.176 C  
HETATM    6  C   UNL     1     -11.917  15.333  65.162  1.00  0.00     0.047 C  
HETATM    7  C   UNL     1     -12.190  14.063  65.982  1.00  0.00    -0.484 C  
HETATM    8  C   UNL     1     -10.033  10.538  64.845  1.00  0.00    -0.401 C  
HETATM    9  C   UNL     1     -12.667  13.004  65.043  1.00  0.00    -0.475 C  
HETATM   10  C   UNL     1      -8.643   8.547  65.464  1.00  0.00    -0.204 C  
HETATM   11  C   UNL     1     -10.602  11.714  65.177  1.00  0.00    -0.343 C  
HETATM   12  C   UNL     1     -11.941  11.946  64.687  1.00  0.00    -0.251 C  
ENDROOT
BRANCH   2  13
HETATM   13  O   UNL     1      -8.636  12.501  68.171  1.00  0.00    -0.177 OA 
BRANCH  13  14
HETATM   14  C   UNL     1      -8.093  13.680  68.551  1.00  0.00    -0.118 C  
HETATM   15  C   UNL     1      -6.955  16.379  67.724  1.00  0.00    -0.157 C  
HETATM   16  C   UNL     1      -6.707  13.852  67.944  1.00  0.00    -0.165 C  
HETATM   17  O   UNL     1      -8.617  14.468  69.327  1.00  0.00    -0.041 OA 
HETATM   18  C   UNL     1      -6.699  15.061  67.004  1.00  0.00     0.475 C  
HETATM   19  C   UNL     1      -6.229  12.591  67.206  1.00  0.00    -0.124 C  
ENDBRANCH  13  14
ENDBRANCH   2  13
BRANCH   4  20
HETATM   20  C   UNL     1     -10.563  14.874  67.774  1.00  0.00    -0.262 C  
BRANCH  20  21
HETATM   21  C   UNL     1     -10.155  16.047  66.849  1.00  0.00    -0.266 C  
BRANCH  21  22
HETATM   22  C   UNL     1     -10.447  17.508  67.199  1.00  0.00    -0.312 C  
HETATM   23  C   UNL     1     -10.343  18.505  66.061  1.00  0.00    -0.423 C  
HETATM   24  C   UNL     1     -10.978  19.812  66.523  1.00  0.00    -0.156 C  
HETATM   25  O   UNL     1     -12.408  19.714  66.526  1.00  0.00     2.609 OA 
HETATM   26  C   UNL     1     -10.455  20.258  67.881  1.00  0.00    -0.321 C  
HETATM   27  C   UNL     1     -10.176  19.141  68.869  1.00  0.00    -0.236 C  
HETATM   28  H   UNL     1     -12.804  20.528  66.814  1.00  0.00     0.000 HD 
HETATM   29  O   UNL     1     -10.228  19.311  70.078  1.00  0.00     0.291 OA 
HETATM   30  O   UNL     1      -9.701  17.978  68.327  1.00  0.00    -0.298 OA 
ENDBRANCH  21  22
ENDBRANCH  20  21
ENDBRANCH   4  20
TORSDOF 5
ENDMDL
MODEL      240
REMARK 921   NORMALIZED FREE ENERGY PREDICTED BY IDOCK:    2.21 KCAL/MOL
REMARK 922        TOTAL FREE ENERGY PREDICTED BY IDOCK:    1.27 KCAL/MOL
REMARK 923 INTER-LIGAND FREE ENERGY PREDICTED BY IDOCK:   -0.94 KCAL/MOL
REMARK 924 INTRA-LIGAND FREE ENERGY PREDICTED BY IDOCK:    2.22 KCAL/MOL
REMARK 927      BINDING AFFINITY PREDICTED BY RF-SCORE:    0.00 PKD
ROOT
HETATM    1  C   UNL     1      -9.867  13.227  65.731  1.00  0.00    -0.210 C  
HETATM    2  C   UNL     1      -9.300  12.299  66.861  1.00  0.00    -0.210 C  
HETATM    3  C   UNL     1      -9.837  10.859  66.893  1.00  0.00    -0.222 C  
HETATM    4  C   UNL     1     -10.699  14.525  66.143  1.00  0.00    -0.310 C  
HETATM    5  C   UNL     1      -9.802  10.173  65.538  1.00  0.00    -0.365 C  
HETATM    6  C   UNL     1     -10.166  16.170  64.180  1.00  0.00     2.824 C  
HETATM    7  C   UNL     1     -11.209  15.262  64.846  1.00  0.00    -0.422 C  
HETATM    8  C   UNL     1     -10.543  11.037  64.569  1.00  0.00    -0.383 C  
HETATM    9  C   UNL     1     -11.761  14.351  63.800  1.00  0.00     0.202 C  
HETATM   10  C   UNL     1     -10.434   8.779  65.651  1.00  0.00     1.488 C  
HETATM   11  C   UNL     1     -10.624  12.379  64.673  1.00  0.00    -0.339 C  
HETATM   12  C   UNL     1     -11.490  13.049  63.731  1.00  0.00    -0.486 C  
ENDROOT
BRANCH   2  13
HETATM   13  O   UNL     1      -9.608  12.768  68.174  1.00  0.00    -0.214 OA 
BRANCH  13  14
HETATM   14  C   UNL     1      -8.626  13.405  68.854  1.00  0.00     0.240 C  
HETATM   15  C   UNL     1      -5.702  14.238  68.979  1.00  0.00    -0.088 C  
HETATM   16  C   UNL     1      -7.497  12.442  69.193  1.00  0.00     0.166 C  
HETATM   17  O   UNL     1      -8.672  14.577  69.203  1.00  0.00    -0.095 OA 
HETATM   18  C   UNL     1      -6.209  12.886  68.494  1.00  0.00    -0.077 C  
HETATM   19  C   UNL     1      -7.836  10.988  68.826  1.00  0.00    -0.138 C  
ENDBRANCH  13  14
ENDBRANCH   2  13
BRANCH   4  20
HETATM   20  C   UNL     1     -10.076  15.621  67.105  1.00  0.00    -0.256 C  
BRANCH  20  21
HETATM   21  C   UNL     1      -8.619  15.937  66.687  1.00  0.00    -0.320 C  
BRANCH  21  22
HETATM   22  C   UNL     1      -7.943  17.271  67.011  1.00  0.00    -0.214 C  
HETATM   23  C   UNL     1      -6.594  17.515  66.361  1.00  0.00    -0.290 C  
HETATM   24  C   UNL     1      -6.251  18.991  66.534  1.00  0.00    -0.178 C  
HETATM   25  O   UNL     1      -7.017  19.804  65.636  1.00  0.00    -0.278 OA 
HETATM   26  C   UNL     1      -6.418  19.456  67.973  1.00  0.00    -0.252 C  
HETATM   27  C   UNL     1      -7.582  18.838  68.726  1.00  0.00    -0.311 C  
HETATM   28  H   UNL     1      -6.804  20.723  65.744  1.00  0.00     0.000 HD 
HETATM   29  O   UNL     1      -8.139  19.411  69.651  1.00  0.00     0.038 OA 
HETATM   30  O   UNL     1      -7.861  17.536  68.416  1.00  0.00    -0.243 OA 
ENDBRANCH  21  22
ENDBRANCH  20  21
ENDBRANCH   4  20
TORSDOF 5
ENDMDL
MODEL      241
REMARK 921   NORMALIZED FREE ENERGY PREDICTED BY IDOCK:    2.52 KCAL/MOL
REMARK 922        TOTAL FREE ENERGY PREDICTED BY IDOCK:    1.67 KCAL/MOL
REMARK 923 INTER-LIGAND FREE ENERGY PREDICTED BY IDOCK:    0.76 KCAL/MOL
REMARK 924 INTRA-LIGAND FREE ENERGY PREDICTED BY IDOCK:    0.91 KCAL/MOL
REMARK 927      BINDING AFFINITY PREDICTED BY RF-SCORE:    0.00 PKD
ROOT
HETATM    1  C   UNL     1      -7.147  11.913  66.919  1.00  0.00    -0.068 C  
HETATM    2  C   UNL     1      -8.041  12.986  67.633  1.00  0.00    -0.172 C  
HETATM    3  C   UNL     1      -7.876  13.106  69.156  1.00  0.00     0.362 C  
HETATM    4  C   UNL     1      -7.853  10.696  66.168  1.00  0.00    -0.152 C  
HETATM    5  C   UNL     1      -6.426  13.206  69.599  1.00  0.00    -0.047 C  
HETATM    6  C   UNL     1      -6.161  10.179  64.240  1.00  0.00    -0.137 C  
HETATM    7  C   UNL     1      -6.757   9.727  65.581  1.00  0.00    -0.092 C  
HETATM    8  C   UNL     1      -5.695  12.029  69.036  1.00  0.00    -0.057 C  
HETATM    9  C   UNL     1      -5.626   9.443  66.514  1.00  0.00    -0.053 C  
HETATM   10  C   UNL     1      -6.357  13.235  71.131  1.00  0.00     0.943 C  
HETATM   11  C   UNL     1      -6.035  11.418  67.884  1.00  0.00    -0.044 C  
HETATM   12  C   UNL     1      -5.309  10.214  67.552  1.00  0.00    -0.038 C  
ENDROOT
BRANCH   2  13
HETATM   13  O   UNL     1      -9.439  12.724  67.498  1.00  0.00    -0.178 OA 
BRANCH  13  14
HETATM   14  C   UNL     1     -10.162  12.601  68.635  1.00  0.00    -0.154 C  
HETATM   15  C   UNL     1     -11.002  10.850  70.978  1.00  0.00     1.128 C  
HETATM   16  C   UNL     1     -11.170  11.467  68.511  1.00  0.00    -0.315 C  
HETATM   17  O   UNL     1     -10.062  13.342  69.604  1.00  0.00     0.595 OA 
HETATM   18  C   UNL     1     -10.852  10.376  69.537  1.00  0.00    -0.295 C  
HETATM   19  C   UNL     1     -11.216  10.876  67.093  1.00  0.00    -0.258 C  
ENDBRANCH  13  14
ENDBRANCH   2  13
BRANCH   4  20
HETATM   20  C   UNL     1      -8.926  10.953  65.028  1.00  0.00    -0.184 C  
BRANCH  20  21
HETATM   21  C   UNL     1      -8.941  12.450  64.633  1.00  0.00     1.103 C  
BRANCH  21  22
HETATM   22  C   UNL     1     -10.231  13.195  64.283  1.00  0.00    -0.261 C  
HETATM   23  C   UNL     1     -10.606  14.352  65.189  1.00  0.00    -0.429 C  
HETATM   24  C   UNL     1     -11.708  15.149  64.499  1.00  0.00    -0.328 C  
HETATM   25  O   UNL     1     -11.174  15.942  63.430  1.00  0.00    -0.133 OA 
HETATM   26  C   UNL     1     -12.842  14.261  64.010  1.00  0.00     0.476 C  
HETATM   27  C   UNL     1     -12.422  12.902  63.480  1.00  0.00    -0.338 C  
HETATM   28  H   UNL     1     -11.860  16.438  63.000  1.00  0.00     0.000 HD 
HETATM   29  O   UNL     1     -13.078  12.296  62.646  1.00  0.00     0.210 OA 
HETATM   30  O   UNL     1     -11.357  12.325  64.114  1.00  0.00    -0.326 OA 
ENDBRANCH  21  22
ENDBRANCH  20  21
ENDBRANCH   4  20
TORSDOF 5
ENDMDL
MODEL      242
REMARK 921   NORMALIZED FREE ENERGY PREDICTED BY IDOCK:    2.56 KCAL/MOL
REMARK 922        TOTAL FREE ENERGY PREDICTED BY IDOCK:    1.72 KCAL/MOL
REMARK 923 INTER-LIGAND FREE ENERGY PREDICTED BY IDOCK:    0.33 KCAL/MOL
REMARK 924 INTRA-LIGAND FREE ENERGY PREDICTED BY IDOCK:    1.39 KCAL/MOL
REMARK 927      BINDING AFFINITY PREDICTED BY RF-SCORE:    0.00 PKD
ROOT
HETATM    1  C   UNL     1      -9.217  15.149  67.363  1.00  0.00    -0.199 C  
HETATM    2  C   UNL     1     -10.622  14.669  67.870  1.00  0.00    -0.244 C  
HETATM    3  C   UNL     1     -11.836  15.134  67.050  1.00  0.00    -0.026 C  
HETATM    4  C   UNL     1      -8.335  16.086  68.306  1.00  0.00    -0.164 C  
HETATM    5  C   UNL     1     -11.676  14.910  65.556  1.00  0.00    -0.211 C  
HETATM    6  C   UNL     1      -5.898  15.413  67.631  1.00  0.00    -0.115 C  
HETATM    7  C   UNL     1      -7.001  16.480  67.564  1.00  0.00    -0.174 C  
HETATM    8  C   UNL     1     -10.409  15.577  65.127  1.00  0.00    -0.388 C  
HETATM    9  C   UNL     1      -7.185  16.861  66.132  1.00  0.00    -0.109 C  
HETATM   10  C   UNL     1     -12.894  15.480  64.818  1.00  0.00     0.826 C  
HETATM   11  C   UNL     1      -9.338  15.735  65.930  1.00  0.00    -0.356 C  
HETATM   12  C   UNL     1      -8.245  16.520  65.403  1.00  0.00     1.908 C  
ENDROOT
BRANCH   2  13
HETATM   13  O   UNL     1     -10.935  15.149  69.178  1.00  0.00    -0.235 OA 
BRANCH  13  14
HETATM   14  C   UNL     1     -12.096  14.729  69.733  1.00  0.00    -0.319 C  
HETATM   15  C   UNL     1     -13.473  13.095  71.900  1.00  0.00    -0.513 C  
HETATM   16  C   UNL     1     -12.184  13.209  69.704  1.00  0.00    -0.241 C  
HETATM   17  O   UNL     1     -12.978  15.471  70.141  1.00  0.00    -0.241 OA 
HETATM   18  C   UNL     1     -12.228  12.665  71.135  1.00  0.00    -0.094 C  
HETATM   19  C   UNL     1     -11.029  12.568  68.918  1.00  0.00    -0.272 C  
ENDBRANCH  13  14
ENDBRANCH   2  13
BRANCH   4  20
HETATM   20  C   UNL     1      -7.951  15.633  69.776  1.00  0.00     0.038 C  
BRANCH  20  21
HETATM   21  C   UNL     1      -8.313  14.142  69.991  1.00  0.00     1.388 C  
BRANCH  21  22
HETATM   22  C   UNL     1      -7.284  13.018  69.853  1.00  0.00     0.853 C  
HETATM   23  C   UNL     1      -5.998  13.185  70.641  1.00  0.00    -0.070 C  
HETATM   24  C   UNL     1      -5.269  11.846  70.635  1.00  0.00    -0.134 C  
HETATM   25  O   UNL     1      -5.893  10.919  71.533  1.00  0.00    -0.338 OA 
HETATM   26  C   UNL     1      -5.150  11.260  69.236  1.00  0.00    -0.044 C  
HETATM   27  C   UNL     1      -6.344  11.495  68.329  1.00  0.00    -0.046 C  
HETATM   28  H   UNL     1      -5.440  10.085  71.530  1.00  0.00     0.000 HD 
HETATM   29  O   UNL     1      -6.628  10.736  67.414  1.00  0.00    -0.067 OA 
HETATM   30  O   UNL     1      -6.982  12.694  68.491  1.00  0.00    -0.082 OA 
ENDBRANCH  21  22
ENDBRANCH  20  21
ENDBRANCH   4  20
TORSDOF 5
ENDMDL
MODEL      243
REMARK 921   NORMALIZED FREE ENERGY PREDICTED BY IDOCK:    3.20 KCAL/MOL
REMARK 922        TOTAL FREE ENERGY PREDICTED BY IDOCK:    2.55 KCAL/MOL
REMARK 923 INTER-LIGAND FREE ENERGY PREDICTED BY IDOCK:    1.70 KCAL/MOL
REMARK 924 INTRA-LIGAND FREE ENERGY PREDICTED BY IDOCK:    0.85 KCAL/MOL
REMARK 927      BINDING AFFINITY PREDICTED BY RF-SCORE:    0.00 PKD
ROOT
HETATM    1  C   UNL     1      -8.686  12.147  68.358  1.00  0.00    -0.141 C  
HETATM    2  C   UNL     1     -10.241  12.337  68.434  1.00  0.00    -0.217 C  
HETATM    3  C   UNL     1     -11.089  11.061  68.315  1.00  0.00    -0.316 C  
HETATM    4  C   UNL     1      -7.884  12.828  67.159  1.00  0.00    -0.097 C  
HETATM    5  C   UNL     1     -10.620   9.938  69.224  1.00  0.00    -0.245 C  
HETATM    6  C   UNL     1      -5.557  13.309  68.255  1.00  0.00    -0.095 C  
HETATM    7  C   UNL     1      -6.356  12.452  67.263  1.00  0.00    -0.142 C  
HETATM    8  C   UNL     1      -9.175   9.691  68.936  1.00  0.00    -0.147 C  
HETATM    9  C   UNL     1      -6.097  11.017  67.583  1.00  0.00    -0.048 C  
HETATM   10  C   UNL     1     -11.469   8.685  68.974  1.00  0.00     0.716 C  
HETATM   11  C   UNL     1      -8.324  10.644  68.503  1.00  0.00    -0.130 C  
HETATM   12  C   UNL     1      -6.995  10.209  68.143  1.00  0.00    -0.075 C  
ENDROOT
BRANCH   2  13
HETATM   13  O   UNL     1     -10.756  13.145  67.375  1.00  0.00    -0.249 OA 
BRANCH  13  14
HETATM   14  C   UNL     1     -10.928  14.464  67.626  1.00  0.00    -0.286 C  
HETATM   15  C   UNL     1     -12.648  16.950  67.282  1.00  0.00     4.002 C  
HETATM   16  C   UNL     1     -11.007  15.251  66.325  1.00  0.00    -0.300 C  
HETATM   17  O   UNL     1     -10.949  14.960  68.744  1.00  0.00    -0.235 OA 
HETATM   18  C   UNL     1     -12.384  15.909  66.201  1.00  0.00     1.815 C  
HETATM   19  C   UNL     1     -10.713  14.381  65.092  1.00  0.00    -0.413 C  
ENDBRANCH  13  14
ENDBRANCH   2  13
BRANCH   4  20
HETATM   20  C   UNL     1      -7.977  14.390  66.899  1.00  0.00     0.099 C  
BRANCH  20  21
HETATM   21  C   UNL     1      -7.244  15.166  68.020  1.00  0.00    -0.137 C  
BRANCH  21  22
HETATM   22  C   UNL     1      -6.817  16.627  67.864  1.00  0.00    -0.144 C  
HETATM   23  C   UNL     1      -7.576  17.642  68.697  1.00  0.00    -0.276 C  
HETATM   24  C   UNL     1      -6.803  18.956  68.654  1.00  0.00    -0.276 C  
HETATM   25  O   UNL     1      -5.639  18.893  69.489  1.00  0.00    -0.204 OA 
HETATM   26  C   UNL     1      -6.439  19.363  67.234  1.00  0.00    -0.204 C  
HETATM   27  C   UNL     1      -6.077  18.222  66.302  1.00  0.00    -0.184 C  
HETATM   28  H   UNL     1      -5.158  19.711  69.462  1.00  0.00     0.000 HD 
HETATM   29  O   UNL     1      -5.331  18.371  65.346  1.00  0.00    -0.152 OA 
HETATM   30  O   UNL     1      -6.768  17.058  66.499  1.00  0.00    -0.217 OA 
ENDBRANCH  21  22
ENDBRANCH  20  21
ENDBRANCH   4  20
TORSDOF 5
ENDMDL
MODEL      244
REMARK 921   NORMALIZED FREE ENERGY PREDICTED BY IDOCK:    4.28 KCAL/MOL
REMARK 922        TOTAL FREE ENERGY PREDICTED BY IDOCK:    3.94 KCAL/MOL
REMARK 923 INTER-LIGAND FREE ENERGY PREDICTED BY IDOCK:    0.29 KCAL/MOL
REMARK 924 INTRA-LIGAND FREE ENERGY PREDICTED BY IDOCK:    3.65 KCAL/MOL
REMARK 927      BINDING AFFINITY PREDICTED BY RF-SCORE:    0.00 PKD
ROOT
HETATM    1  C   UNL     1      -9.091  14.078  66.196  1.00  0.00     0.043 C  
HETATM    2  C   UNL     1      -8.608  12.761  66.898  1.00  0.00    -0.137 C  
HETATM    3  C   UNL     1      -9.289  11.460  66.446  1.00  0.00    -0.219 C  
HETATM    4  C   UNL     1      -9.780  15.214  67.079  1.00  0.00    -0.237 C  
HETATM    5  C   UNL     1      -9.342  11.299  64.937  1.00  0.00    -0.181 C  
HETATM    6  C   UNL     1      -9.105  17.394  65.799  1.00  0.00     0.197 C  
HETATM    7  C   UNL     1     -10.228  16.408  66.151  1.00  0.00    -0.363 C  
HETATM    8  C   UNL     1     -10.003  12.515  64.372  1.00  0.00    -0.206 C  
HETATM    9  C   UNL     1     -10.883  15.983  64.879  1.00  0.00    -0.391 C  
HETATM   10  C   UNL     1     -10.112  10.021  64.582  1.00  0.00    -0.067 C  
HETATM   11  C   UNL     1      -9.944  13.734  64.945  1.00  0.00    -0.178 C  
HETATM   12  C   UNL     1     -10.748  14.772  64.343  1.00  0.00     0.090 C  
ENDROOT
BRANCH   2  13
HETATM   13  O   UNL     1      -8.849  12.759  68.306  1.00  0.00    -0.186 OA 
BRANCH  13  14
HETATM   14  C   UNL     1      -8.895  11.557  68.927  1.00  0.00     0.040 C  
HETATM   15  C   UNL     1      -9.928   8.695  68.928  1.00  0.00    -0.197 C  
HETATM   16  C   UNL     1     -10.331  11.188  69.273  1.00  0.00    -0.148 C  
HETATM   17  O   UNL     1      -7.912  10.893  69.226  1.00  0.00    -0.138 OA 
HETATM   18  C   UNL     1     -10.736   9.919  68.517  1.00  0.00    -0.260 C  
HETATM   19  C   UNL     1     -11.319  12.329  68.980  1.00  0.00    -0.333 C  
ENDBRANCH  13  14
ENDBRANCH   2  13
BRANCH   4  20
HETATM   20  C   UNL     1      -9.035  15.835  68.334  1.00  0.00    -0.187 C  
BRANCH  20  21
HETATM   21  C   UNL     1      -8.495  17.246  67.995  1.00  0.00    -0.229 C  
BRANCH  21  22
HETATM   22  C   UNL     1      -9.231  18.526  68.399  1.00  0.00    -0.324 C  
HETATM   23  C   UNL     1      -9.260  19.638  67.367  1.00  0.00    -0.412 C  
HETATM   24  C   UNL     1     -10.292  20.666  67.816  1.00  0.00     0.067 C  
HETATM   25  O   UNL     1     -11.624  20.190  67.583  1.00  0.00     0.657 OA 
HETATM   26  C   UNL     1     -10.103  21.077  69.268  1.00  0.00     1.025 C  
HETATM   27  C   UNL     1      -9.655  19.971  70.205  1.00  0.00     0.802 C  
HETATM   28  H   UNL     1     -12.268  20.830  67.862  1.00  0.00     0.000 HD 
HETATM   29  O   UNL     1      -9.914  19.982  71.399  1.00  0.00     1.476 OA 
HETATM   30  O   UNL     1      -8.804  19.047  69.663  1.00  0.00     0.290 OA 
ENDBRANCH  21  22
ENDBRANCH  20  21
ENDBRANCH   4  20
TORSDOF 5
ENDMDL
MODEL      245
REMARK 921   NORMALIZED FREE ENERGY PREDICTED BY IDOCK:    5.27 KCAL/MOL
REMARK 922        TOTAL FREE ENERGY PREDICTED BY IDOCK:    5.23 KCAL/MOL
REMARK 923 INTER-LIGAND FREE ENERGY PREDICTED BY IDOCK:    3.91 KCAL/MOL
REMARK 924 INTRA-LIGAND FREE ENERGY PREDICTED BY IDOCK:    1.32 KCAL/MOL
REMARK 927      BINDING AFFINITY PREDICTED BY RF-SCORE:    0.00 PKD
ROOT
HETATM    1  C   UNL     1      -8.250  13.633  67.191  1.00  0.00    -0.123 C  
HETATM    2  C   UNL     1      -8.231  14.915  68.094  1.00  0.00    -0.139 C  
HETATM    3  C   UNL     1      -7.342  14.853  69.347  1.00  0.00    -0.181 C  
HETATM    4  C   UNL     1      -9.622  12.843  67.002  1.00  0.00    -0.231 C  
HETATM    5  C   UNL     1      -5.937  14.350  69.064  1.00  0.00    -0.089 C  
HETATM    6  C   UNL     1      -9.360  11.849  64.595  1.00  0.00     0.161 C  
HETATM    7  C   UNL     1      -9.381  11.569  66.105  1.00  0.00    -0.230 C  
HETATM    8  C   UNL     1      -6.055  13.026  68.382  1.00  0.00    -0.081 C  
HETATM    9  C   UNL     1      -8.146  10.802  66.448  1.00  0.00    -0.153 C  
HETATM   10  C   UNL     1      -5.156  14.241  70.380  1.00  0.00    -0.096 C  
HETATM   11  C   UNL     1      -7.094  12.678  67.597  1.00  0.00    -0.139 C  
HETATM   12  C   UNL     1      -7.119  11.314  67.122  1.00  0.00    -0.125 C  
ENDROOT
BRANCH   2  13
HETATM   13  O   UNL     1      -9.511  15.228  68.645  1.00  0.00    -0.189 OA 
BRANCH  13  14
HETATM   14  C   UNL     1      -9.545  15.701  69.912  1.00  0.00    -0.080 C  
HETATM   15  C   UNL     1     -10.820  15.585  72.673  1.00  0.00     1.024 C  
HETATM   16  C   UNL     1     -10.911  16.294  70.227  1.00  0.00    -0.314 C  
HETATM   17  O   UNL     1      -8.589  15.708  70.675  1.00  0.00     1.269 OA 
HETATM   18  C   UNL     1     -11.576  15.497  71.353  1.00  0.00    -0.481 C  
HETATM   19  C   UNL     1     -11.826  16.349  68.993  1.00  0.00     0.059 C  
ENDBRANCH  13  14
ENDBRANCH   2  13
BRANCH   4  20
HETATM   20  C   UNL     1     -10.917  13.577  66.454  1.00  0.00    -0.297 C  
BRANCH  20  21
HETATM   21  C   UNL     1     -12.144  13.229  67.332  1.00  0.00    -0.327 C  
BRANCH  21  22
HETATM   22  C   UNL     1     -12.010  12.769  68.785  1.00  0.00    -0.240 C  
HETATM   23  C   UNL     1     -11.477  11.365  69.000  1.00  0.00    -0.366 C  
HETATM   24  C   UNL     1     -11.112  11.223  70.473  1.00  0.00     0.579 C  
HETATM   25  O   UNL     1      -9.889  11.911  70.767  1.00  0.00     3.807 OA 
HETATM   26  C   UNL     1     -12.235  11.682  71.392  1.00  0.00    -0.029 C  
HETATM   27  C   UNL     1     -13.026  12.881  70.903  1.00  0.00    -0.022 C  
HETATM   28  H   UNL     1      -9.662  11.822  71.685  1.00  0.00     0.000 HD 
HETATM   29  O   UNL     1     -13.592  13.647  71.669  1.00  0.00    -0.348 OA 
HETATM   30  O   UNL     1     -13.207  12.957  69.549  1.00  0.00     1.293 OA 
ENDBRANCH  21  22
ENDBRANCH  20  21
ENDBRANCH   4  20
TORSDOF 5
ENDMDL
MODEL      246
REMARK 921   NORMALIZED FREE ENERGY PREDICTED BY IDOCK:    6.49 KCAL/MOL
REMARK 922        TOTAL FREE ENERGY PREDICTED BY IDOCK:    6.80 KCAL/MOL
REMARK 923 INTER-LIGAND FREE ENERGY PREDICTED BY IDOCK:    5.84 KCAL/MOL
REMARK 924 INTRA-LIGAND FREE ENERGY PREDICTED BY IDOCK:    0.96 KCAL/MOL
REMARK 927      BINDING AFFINITY PREDICTED BY RF-SCORE:    0.00 PKD
ROOT
HETATM    1  C   UNL     1     -10.695  18.459  68.339  1.00  0.00    -0.016 C  
HETATM    2  C   UNL     1     -11.001  17.680  69.666  1.00  0.00     0.985 C  
HETATM    3  C   UNL     1     -10.159  18.066  70.892  1.00  0.00     3.083 C  
HETATM    4  C   UNL     1     -10.155  17.648  67.076  1.00  0.00    -0.330 C  
HETATM    5  C   UNL     1     -10.091  19.565  71.129  1.00  0.00     2.248 C  
HETATM    6  C   UNL     1     -11.111  19.041  65.077  1.00  0.00     1.424 C  
HETATM    7  C   UNL     1      -9.869  18.646  65.888  1.00  0.00    -0.049 C  
HETATM    8  C   UNL     1      -9.596  20.204  69.872  1.00  0.00     0.571 C  
HETATM    9  C   UNL     1      -9.169  19.900  66.297  1.00  0.00    -0.457 C  
HETATM   10  C   UNL     1      -9.164  19.857  72.316  1.00  0.00     3.188 C  
HETATM   11  C   UNL     1      -9.809  19.698  68.641  1.00  0.00    -0.519 C  
HETATM   12  C   UNL     1      -9.148  20.366  67.543  1.00  0.00    -0.447 C  
ENDROOT
BRANCH   2  13
HETATM   13  O   UNL     1     -10.756  16.277  69.557  1.00  0.00    -0.278 OA 
BRANCH  13  14
HETATM   14  C   UNL     1     -11.787  15.443  69.826  1.00  0.00    -0.347 C  
HETATM   15  C   UNL     1     -14.400  14.971  71.312  1.00  0.00    -0.503 C  
HETATM   16  C   UNL     1     -11.857  15.139  71.316  1.00  0.00    -0.403 C  
HETATM   17  O   UNL     1     -12.520  14.951  68.978  1.00  0.00    -0.083 OA 
HETATM   18  C   UNL     1     -13.174  15.666  71.891  1.00  0.00    -0.537 C  
HETATM   19  C   UNL     1     -10.661  15.716  72.090  1.00  0.00     0.910 C  
ENDBRANCH  13  14
ENDBRANCH   2  13
BRANCH   4  20
HETATM   20  C   UNL     1     -10.969  16.421  66.486  1.00  0.00     0.037 C  
BRANCH  20  21
HETATM   21  C   UNL     1     -10.295  15.087  66.889  1.00  0.00    -0.266 C  
BRANCH  21  22
HETATM   22  C   UNL     1     -10.514  13.788  66.109  1.00  0.00    -0.297 C  
HETATM   23  C   UNL     1     -10.724  13.930  64.614  1.00  0.00    -0.422 C  
HETATM   24  C   UNL     1     -10.593  12.545  63.989  1.00  0.00    -0.421 C  
HETATM   25  O   UNL     1      -9.219  12.139  63.925  1.00  0.00    -0.377 OA 
HETATM   26  C   UNL     1     -11.439  11.506  64.709  1.00  0.00    -0.142 C  
HETATM   27  C   UNL     1     -11.530  11.670  66.215  1.00  0.00    -0.145 C  
HETATM   28  H   UNL     1      -9.137  11.277  63.537  1.00  0.00     0.000 HD 
HETATM   29  O   UNL     1     -11.729  10.725  66.964  1.00  0.00    -0.237 OA 
HETATM   30  O   UNL     1     -11.540  12.961  66.668  1.00  0.00    -0.333 OA 
ENDBRANCH  21  22
ENDBRANCH  20  21
ENDBRANCH   4  20
TORSDOF 5
ENDMDL
MODEL      247
REMARK 921   NORMALIZED FREE ENERGY PREDICTED BY IDOCK:    6.91 KCAL/MOL
REMARK 922        TOTAL FREE ENERGY PREDICTED BY IDOCK:    7.34 KCAL/MOL
REMARK 923 INTER-LIGAND FREE ENERGY PREDICTED BY IDOCK:    6.62 KCAL/MOL
REMARK 924 INTRA-LIGAND FREE ENERGY PREDICTED BY IDOCK:    0.72 KCAL/MOL
REMARK 927      BINDING AFFINITY PREDICTED BY RF-SCORE:    0.00 PKD
ROOT
HETATM    1  C   UNL     1      -8.104  18.438  68.790  1.00  0.00    -0.267 C  
HETATM    2  C   UNL     1      -6.570  18.232  68.538  1.00  0.00    -0.222 C  
HETATM    3  C   UNL     1      -6.024  18.754  67.200  1.00  0.00    -0.167 C  
HETATM    4  C   UNL     1      -9.037  17.155  68.961  1.00  0.00    -0.123 C  
HETATM    5  C   UNL     1      -6.454  20.177  66.887  1.00  0.00    -0.230 C  
HETATM    6  C   UNL     1     -10.898  18.035  70.576  1.00  0.00     2.098 C  
HETATM    7  C   UNL     1     -10.536  17.609  69.146  1.00  0.00    -0.128 C  
HETATM    8  C   UNL     1      -7.946  20.227  66.953  1.00  0.00    -0.349 C  
HETATM    9  C   UNL     1     -10.965  18.698  68.219  1.00  0.00     0.267 C  
HETATM   10  C   UNL     1      -5.935  20.578  65.500  1.00  0.00    -0.250 C  
HETATM   11  C   UNL     1      -8.688  19.430  67.748  1.00  0.00    -0.352 C  
HETATM   12  C   UNL     1     -10.122  19.515  67.592  1.00  0.00    -0.526 C  
ENDROOT
BRANCH   2  13
HETATM   13  O   UNL     1      -6.190  16.855  68.507  1.00  0.00    -0.140 OA 
BRANCH  13  14
HETATM   14  C   UNL     1      -6.508  16.148  67.397  1.00  0.00    -0.182 C  
HETATM   15  C   UNL     1      -8.057  13.833  66.172  1.00  0.00     1.660 C  
HETATM   16  C   UNL     1      -6.094  14.691  67.554  1.00  0.00     0.032 C  
HETATM   17  O   UNL     1      -6.998  16.629  66.385  1.00  0.00    -0.200 OA 
HETATM   18  C   UNL     1      -7.334  13.794  67.513  1.00  0.00    -0.176 C  
HETATM   19  C   UNL     1      -5.291  14.443  68.841  1.00  0.00    -0.087 C  
ENDBRANCH  13  14
ENDBRANCH   2  13
BRANCH   4  20
HETATM   20  C   UNL     1      -8.726  16.063  70.069  1.00  0.00     0.772 C  
BRANCH  20  21
HETATM   21  C   UNL     1      -9.639  14.827  69.875  1.00  0.00     0.334 C  
BRANCH  21  22
HETATM   22  C   UNL     1     -11.093  14.797  70.352  1.00  0.00    -0.118 C  
HETATM   23  C   UNL     1     -11.306  14.746  71.853  1.00  0.00     0.053 C  
HETATM   24  C   UNL     1     -12.775  15.052  72.128  1.00  0.00    -0.331 C  
HETATM   25  O   UNL     1     -13.045  16.452  71.970  1.00  0.00    -0.181 OA 
HETATM   26  C   UNL     1     -13.709  14.213  71.270  1.00  0.00    -0.278 C  
HETATM   27  C   UNL     1     -13.227  13.941  69.857  1.00  0.00     0.924 C  
HETATM   28  H   UNL     1     -13.959  16.643  72.141  1.00  0.00     0.000 HD 
HETATM   29  O   UNL     1     -13.998  13.732  68.932  1.00  0.00     5.082 OA 
HETATM   30  O   UNL     1     -11.875  13.781  69.715  1.00  0.00    -0.293 OA 
ENDBRANCH  21  22
ENDBRANCH  20  21
ENDBRANCH   4  20
TORSDOF 5
ENDMDL
MODEL      248
REMARK 921   NORMALIZED FREE ENERGY PREDICTED BY IDOCK:   18.20 KCAL/MOL
REMARK 922        TOTAL FREE ENERGY PREDICTED BY IDOCK:   21.93 KCAL/MOL
REMARK 923 INTER-LIGAND FREE ENERGY PREDICTED BY IDOCK:   11.11 KCAL/MOL
REMARK 924 INTRA-LIGAND FREE ENERGY PREDICTED BY IDOCK:   10.82 KCAL/MOL
REMARK 927      BINDING AFFINITY PREDICTED BY RF-SCORE:    0.00 PKD
ROOT
HETATM    1  C   UNL     1      -8.469  15.346  67.537  1.00  0.00    -0.188 C  
HETATM    2  C   UNL     1      -9.987  15.485  67.908  1.00  0.00    -0.218 C  
HETATM    3  C   UNL     1     -10.878  16.196  66.876  1.00  0.00    -0.175 C  
HETATM    4  C   UNL     1      -7.382  16.064  68.457  1.00  0.00    -0.146 C  
HETATM    5  C   UNL     1     -10.695  15.674  65.461  1.00  0.00    -0.403 C  
HETATM    6  C   UNL     1      -5.318  14.474  68.215  1.00  0.00    -0.114 C  
HETATM    7  C   UNL     1      -5.942  15.830  67.857  1.00  0.00    -0.156 C  
HETATM    8  C   UNL     1      -9.242  15.769  65.123  1.00  0.00     1.048 C  
HETATM    9  C   UNL     1      -5.861  15.997  66.376  1.00  0.00     1.480 C  
HETATM   10  C   UNL     1     -11.556  16.496  64.494  1.00  0.00     0.163 C  
HETATM   11  C   UNL     1      -8.254  15.680  66.036  1.00  0.00     0.539 C  
HETATM   12  C   UNL     1      -6.912  15.928  65.562  1.00  0.00     5.071 C  
ENDROOT
BRANCH   2  13
HETATM   13  O   UNL     1     -10.204  16.264  69.085  1.00  0.00    -0.234 OA 
BRANCH  13  14
HETATM   14  C   UNL     1      -9.358  17.296  69.313  1.00  0.00     0.091 C  
HETATM   15  C   UNL     1      -8.950  20.094  70.435  1.00  0.00     1.471 C  
HETATM   16  C   UNL     1      -9.846  18.555  68.612  1.00  0.00    -0.419 C  
HETATM   17  O   UNL     1      -8.312  17.208  69.942  1.00  0.00     0.943 OA 
HETATM   18  C   UNL     1     -10.172  19.633  69.650  1.00  0.00     0.109 C  
HETATM   19  C   UNL     1     -11.063  18.291  67.710  1.00  0.00     0.065 C  
ENDBRANCH  13  14
ENDBRANCH   2  13
BRANCH   4  20
HETATM   20  C   UNL     1      -7.307  15.768  70.013  1.00  0.00     0.284 C  
BRANCH  20  21
HETATM   21  C   UNL     1      -7.935  14.388  70.329  1.00  0.00     1.208 C  
BRANCH  21  22
HETATM   22  C   UNL     1      -7.118  13.094  70.324  1.00  0.00     1.291 C  
HETATM   23  C   UNL     1      -5.671  13.212  70.763  1.00  0.00    -0.170 C  
HETATM   24  C   UNL     1      -5.138  11.803  71.004  1.00  0.00    -0.131 C  
HETATM   25  O   UNL     1      -5.642  11.269  72.235  1.00  0.00    -0.030 OA 
HETATM   26  C   UNL     1      -5.432  10.870  69.839  1.00  0.00    -0.050 C  
HETATM   27  C   UNL     1      -6.769  11.085  69.153  1.00  0.00    -0.084 C  
HETATM   28  H   UNL     1      -5.311  10.391  72.385  1.00  0.00     0.000 HD 
HETATM   29  O   UNL     1      -7.357  10.185  68.572  1.00  0.00    -0.078 OA 
HETATM   30  O   UNL     1      -7.193  12.383  69.083  1.00  0.00    -0.053 OA 
ENDBRANCH  21  22
ENDBRANCH  20  21
ENDBRANCH   4  20
TORSDOF 5
ENDMDL
MODEL      249
REMARK 921   NORMALIZED FREE ENERGY PREDICTED BY IDOCK:   20.62 KCAL/MOL
REMARK 922        TOTAL FREE ENERGY PREDICTED BY IDOCK:   25.06 KCAL/MOL
REMARK 923 INTER-LIGAND FREE ENERGY PREDICTED BY IDOCK:   17.32 KCAL/MOL
REMARK 924 INTRA-LIGAND FREE ENERGY PREDICTED BY IDOCK:    7.74 KCAL/MOL
REMARK 927      BINDING AFFINITY PREDICTED BY RF-SCORE:    0.00 PKD
ROOT
HETATM    1  C   UNL     1      -8.018  15.323  68.491  1.00  0.00    -0.141 C  
HETATM    2  C   UNL     1      -8.481  13.944  69.079  1.00  0.00     0.198 C  
HETATM    3  C   UNL     1      -7.367  13.003  69.565  1.00  0.00     0.473 C  
HETATM    4  C   UNL     1      -8.334  15.655  66.963  1.00  0.00    -0.261 C  
HETATM    5  C   UNL     1      -6.356  13.684  70.471  1.00  0.00     0.066 C  
HETATM    6  C   UNL     1      -8.593  18.258  67.005  1.00  0.00    -0.259 C  
HETATM    7  C   UNL     1      -7.727  17.061  66.589  1.00  0.00    -0.302 C  
HETATM    8  C   UNL     1      -5.820  14.874  69.743  1.00  0.00    -0.116 C  
HETATM    9  C   UNL     1      -6.346  17.290  67.109  1.00  0.00    -0.195 C  
HETATM   10  C   UNL     1      -5.242  12.693  70.834  1.00  0.00    -0.158 C  
HETATM   11  C   UNL     1      -6.523  15.572  68.830  1.00  0.00    -0.107 C  
HETATM   12  C   UNL     1      -5.812  16.612  68.122  1.00  0.00    -0.119 C  
ENDROOT
BRANCH   2  13
HETATM   13  O   UNL     1      -9.169  13.134  68.124  1.00  0.00    -0.206 OA 
BRANCH  13  14
HETATM   14  C   UNL     1     -10.459  12.820  68.390  1.00  0.00    -0.243 C  
HETATM   15  C   UNL     1     -12.993  13.443  69.955  1.00  0.00     0.565 C  
HETATM   16  C   UNL     1     -10.635  12.480  69.863  1.00  0.00     1.023 C  
HETATM   17  O   UNL     1     -11.344  12.755  67.548  1.00  0.00    -0.276 OA 
HETATM   18  C   UNL     1     -11.578  13.492  70.519  1.00  0.00     0.003 C  
HETATM   19  C   UNL     1      -9.297  12.423  70.618  1.00  0.00     7.375 C  
ENDBRANCH  13  14
ENDBRANCH   2  13
BRANCH   4  20
HETATM   20  C   UNL     1      -9.820  15.611  66.409  1.00  0.00    -0.295 C  
BRANCH  20  21
HETATM   21  C   UNL     1     -10.791  16.258  67.427  1.00  0.00    -0.242 C  
BRANCH  21  22
HETATM   22  C   UNL     1     -10.304  16.949  68.702  1.00  0.00    -0.332 C  
HETATM   23  C   UNL     1     -11.093  16.661  69.965  1.00  0.00    -0.105 C  
HETATM   24  C   UNL     1     -10.276  17.159  71.152  1.00  0.00     2.988 C  
HETATM   25  O   UNL     1      -9.185  16.272  71.432  1.00  0.00     4.203 OA 
HETATM   26  C   UNL     1      -9.786  18.586  70.956  1.00  0.00     3.962 C  
HETATM   27  C   UNL     1      -9.390  18.949  69.536  1.00  0.00     0.319 C  
HETATM   28  H   UNL     1      -8.675  16.582  72.171  1.00  0.00     0.000 HD 
HETATM   29  O   UNL     1      -8.565  19.816  69.290  1.00  0.00    -0.133 OA 
HETATM   30  O   UNL     1     -10.133  18.363  68.548  1.00  0.00    -0.362 OA 
ENDBRANCH  21  22
ENDBRANCH  20  21
ENDBRANCH   4  20
TORSDOF 5
ENDMDL
MODEL      250
REMARK 921   NORMALIZED FREE ENERGY PREDICTED BY IDOCK:   25.33 KCAL/MOL
REMARK 922        TOTAL FREE ENERGY PREDICTED BY IDOCK:   31.15 KCAL/MOL
REMARK 923 INTER-LIGAND FREE ENERGY PREDICTED BY IDOCK:   19.08 KCAL/MOL
REMARK 924 INTRA-LIGAND FREE ENERGY PREDICTED BY IDOCK:   12.07 KCAL/MOL
REMARK 927      BINDING AFFINITY PREDICTED BY RF-SCORE:    0.00 PKD
ROOT
HETATM    1  C   UNL     1      -7.857  17.027  67.584  1.00  0.00    -0.183 C  
HETATM    2  C   UNL     1      -6.912  16.286  68.593  1.00  0.00    -0.148 C  
HETATM    3  C   UNL     1      -6.400  14.904  68.157  1.00  0.00    -0.142 C  
HETATM    4  C   UNL     1      -9.355  17.352  68.025  1.00  0.00    -0.276 C  
HETATM    5  C   UNL     1      -5.833  14.888  66.748  1.00  0.00     1.869 C  
HETATM    6  C   UNL     1      -9.858  19.550  66.698  1.00  0.00    -0.494 C  
HETATM    7  C   UNL     1     -10.121  18.044  66.833  1.00  0.00    -0.350 C  
HETATM    8  C   UNL     1      -6.881  15.424  65.828  1.00  0.00     5.504 C  
HETATM    9  C   UNL     1      -9.880  17.414  65.501  1.00  0.00     0.283 C  
HETATM   10  C   UNL     1      -5.429  13.456  66.373  1.00  0.00     3.229 C  
HETATM   11  C   UNL     1      -7.811  16.327  66.198  1.00  0.00     0.045 C  
HETATM   12  C   UNL     1      -8.833  16.640  65.225  1.00  0.00     1.597 C  
ENDROOT
BRANCH   2  13
HETATM   13  O   UNL     1      -7.546  15.998  69.840  1.00  0.00     0.049 OA 
BRANCH  13  14
HETATM   14  C   UNL     1      -7.432  14.736  70.318  1.00  0.00     0.464 C  
HETATM   15  C   UNL     1      -8.140  11.793  70.016  1.00  0.00     2.207 C  
HETATM   16  C   UNL     1      -8.802  14.168  70.661  1.00  0.00     3.498 C  
HETATM   17  O   UNL     1      -6.370  14.160  70.509  1.00  0.00    -0.160 OA 
HETATM   18  C   UNL     1      -9.096  12.954  69.774  1.00  0.00     2.451 C  
HETATM   19  C   UNL     1      -9.922  15.213  70.531  1.00  0.00     0.399 C  
ENDBRANCH  13  14
ENDBRANCH   2  13
BRANCH   4  20
HETATM   20  C   UNL     1      -9.654  18.189  69.339  1.00  0.00     0.198 C  
BRANCH  20  21
HETATM   21  C   UNL     1     -10.902  17.625  70.062  1.00  0.00     1.115 C  
BRANCH  21  22
HETATM   22  C   UNL     1     -11.497  16.256  69.727  1.00  0.00    -0.202 C  
HETATM   23  C   UNL     1     -11.706  15.311  70.895  1.00  0.00    -0.386 C  
HETATM   24  C   UNL     1     -12.590  14.164  70.417  1.00  0.00    -0.332 C  
HETATM   25  O   UNL     1     -13.956  14.585  70.298  1.00  0.00     0.067 OA 
HETATM   26  C   UNL     1     -12.089  13.553  69.116  1.00  0.00    -0.331 C  
HETATM   27  C   UNL     1     -11.490  14.534  68.125  1.00  0.00    -0.312 C  
HETATM   28  H   UNL     1     -14.507  13.871  70.000  1.00  0.00     0.000 HD 
HETATM   29  O   UNL     1     -11.493  14.329  66.920  1.00  0.00    -0.331 OA 
HETATM   30  O   UNL     1     -10.800  15.580  68.673  1.00  0.00    -0.246 OA 
ENDBRANCH  21  22
ENDBRANCH  20  21
ENDBRANCH   4  20
TORSDOF 5
ENDMDL
MODEL      251
REMARK 921   NORMALIZED FREE ENERGY PREDICTED BY IDOCK:   60.74 KCAL/MOL
REMARK 922        TOTAL FREE ENERGY PREDICTED BY IDOCK:   76.91 KCAL/MOL
REMARK 923 INTER-LIGAND FREE ENERGY PREDICTED BY IDOCK:   76.22 KCAL/MOL
REMARK 924 INTRA-LIGAND FREE ENERGY PREDICTED BY IDOCK:    0.69 KCAL/MOL
REMARK 927      BINDING AFFINITY PREDICTED BY RF-SCORE:    0.00 PKD
ROOT
HETATM    1  C   UNL     1     -13.323  10.112  68.217  1.00  0.00     8.122 C  
HETATM    2  C   UNL     1     -13.332  10.604  66.728  1.00  0.00    12.810 C  
HETATM    3  C   UNL     1     -12.325   9.932  65.783  1.00  0.00     8.390 C  
HETATM    4  C   UNL     1     -12.947  11.148  69.370  1.00  0.00     0.883 C  
HETATM    5  C   UNL     1     -12.337   8.415  65.868  1.00  0.00    12.426 C  
HETATM    6  C   UNL     1     -14.342  10.252  71.395  1.00  0.00     1.183 C  
HETATM    7  C   UNL     1     -12.950  10.413  70.766  1.00  0.00    -0.422 C  
HETATM    8  C   UNL     1     -12.119   8.037  67.297  1.00  0.00     5.084 C  
HETATM    9  C   UNL     1     -12.293   9.072  70.754  1.00  0.00    -0.064 C  
HETATM   10  C   UNL     1     -11.245   7.840  64.957  1.00  0.00     9.668 C  
HETATM   11  C   UNL     1     -12.501   8.800  68.340  1.00  0.00     5.642 C  
HETATM   12  C   UNL     1     -12.095   8.352  69.653  1.00  0.00     1.328 C  
ENDROOT
BRANCH   2  13
HETATM   13  O   UNL     1     -12.998  11.987  66.597  1.00  0.00     1.842 OA 
BRANCH  13  14
HETATM   14  C   UNL     1     -12.783  12.458  65.346  1.00  0.00     0.309 C  
HETATM   15  C   UNL     1     -11.295  14.413  63.551  1.00  0.00     1.188 C  
HETATM   16  C   UNL     1     -13.118  13.941  65.268  1.00  0.00    -0.205 C  
HETATM   17  O   UNL     1     -12.430  11.771  64.398  1.00  0.00    -0.161 OA 
HETATM   18  C   UNL     1     -11.857  14.741  64.928  1.00  0.00    -0.377 C  
HETATM   19  C   UNL     1     -13.759  14.468  66.562  1.00  0.00     4.276 C  
ENDBRANCH  13  14
ENDBRANCH   2  13
BRANCH   4  20
HETATM   20  C   UNL     1     -13.749  12.505  69.541  1.00  0.00     4.669 C  
BRANCH  20  21
HETATM   21  C   UNL     1     -13.600  13.040  70.986  1.00  0.00     0.519 C  
BRANCH  21  22
HETATM   22  C   UNL     1     -12.951  14.390  71.300  1.00  0.00    -0.344 C  
HETATM   23  C   UNL     1     -11.742  14.764  70.464  1.00  0.00    -0.350 C  
HETATM   24  C   UNL     1     -11.454  16.244  70.694  1.00  0.00    -0.272 C  
HETATM   25  O   UNL     1     -12.399  17.064  69.993  1.00  0.00     1.291 OA 
HETATM   26  C   UNL     1     -11.408  16.600  72.172  1.00  0.00     0.311 C  
HETATM   27  C   UNL     1     -12.399  15.859  73.051  1.00  0.00    -0.498 C  
HETATM   28  H   UNL     1     -12.220  17.986  70.136  1.00  0.00     0.000 HD 
HETATM   29  O   UNL     1     -12.827  16.331  74.094  1.00  0.00    -0.689 OA 
HETATM   30  O   UNL     1     -12.655  14.565  72.690  1.00  0.00    -0.339 OA 
ENDBRANCH  21  22
ENDBRANCH  20  21
ENDBRANCH   4  20
TORSDOF 5
ENDMDL
MODEL      252
REMARK 921   NORMALIZED FREE ENERGY PREDICTED BY IDOCK:   67.97 KCAL/MOL
REMARK 922        TOTAL FREE ENERGY PREDICTED BY IDOCK:   86.25 KCAL/MOL
REMARK 923 INTER-LIGAND FREE ENERGY PREDICTED BY IDOCK:   60.36 KCAL/MOL
REMARK 924 INTRA-LIGAND FREE ENERGY PREDICTED BY IDOCK:   25.89 KCAL/MOL
REMARK 927      BINDING AFFINITY PREDICTED BY RF-SCORE:    0.00 PKD
ROOT
HETATM    1  C   UNL     1      -7.851  17.003  67.618  1.00  0.00    -0.183 C  
HETATM    2  C   UNL     1      -6.916  16.309  68.669  1.00  0.00    -0.148 C  
HETATM    3  C   UNL     1      -6.580  14.832  68.411  1.00  0.00    -0.101 C  
HETATM    4  C   UNL     1      -9.273  17.549  68.091  1.00  0.00    -0.277 C  
HETATM    5  C   UNL     1      -6.118  14.558  66.990  1.00  0.00     1.118 C  
HETATM    6  C   UNL     1      -9.644  19.585  66.490  1.00  0.00    -0.462 C  
HETATM    7  C   UNL     1     -10.048  18.150  66.856  1.00  0.00    -0.362 C  
HETATM    8  C   UNL     1      -7.170  15.075  66.062  1.00  0.00     3.829 C  
HETATM    9  C   UNL     1      -9.967  17.319  65.618  1.00  0.00     0.003 C  
HETATM   10  C   UNL     1      -5.890  13.053  66.804  1.00  0.00     1.231 C  
HETATM   11  C   UNL     1      -7.975  16.117  66.348  1.00  0.00    -0.252 C  
HETATM   12  C   UNL     1      -9.026  16.403  65.399  1.00  0.00     0.879 C  
ENDROOT
BRANCH   2  13
HETATM   13  O   UNL     1      -7.486  16.267  69.979  1.00  0.00     0.322 OA 
BRANCH  13  14
HETATM   14  C   UNL     1      -7.190  15.197  70.752  1.00  0.00     0.988 C  
HETATM   15  C   UNL     1      -7.631  12.244  71.342  1.00  0.00     8.461 C  
HETATM   16  C   UNL     1      -8.445  14.658  71.424  1.00  0.00     4.279 C  
HETATM   17  O   UNL     1      -6.060  14.764  70.935  1.00  0.00    -0.121 OA 
HETATM   18  C   UNL     1      -8.720  13.231  70.941  1.00  0.00     8.261 C  
HETATM   19  C   UNL     1      -9.671  15.554  71.184  1.00  0.00     1.869 C  
ENDBRANCH  13  14
ENDBRANCH   2  13
BRANCH   4  20
HETATM   20  C   UNL     1      -9.392  18.588  69.284  1.00  0.00     0.084 C  
BRANCH  20  21
HETATM   21  C   UNL     1     -10.739  19.347  69.203  1.00  0.00     0.690 C  
BRANCH  21  22
HETATM   22  C   UNL     1     -11.453  19.613  67.876  1.00  0.00     1.036 C  
HETATM   23  C   UNL     1     -12.893  19.144  67.782  1.00  0.00     6.321 C  
HETATM   24  C   UNL     1     -13.513  19.780  66.543  1.00  0.00     8.938 C  
HETATM   25  O   UNL     1     -13.805  21.166  66.770  1.00  0.00     4.778 OA 
HETATM   26  C   UNL     1     -12.646  19.598  65.306  1.00  0.00     8.644 C  
HETATM   27  C   UNL     1     -11.149  19.667  65.545  1.00  0.00     0.147 C  
HETATM   28  H   UNL     1     -14.191  21.563  65.999  1.00  0.00     0.000 HD 
HETATM   29  O   UNL     1     -10.365  20.018  64.676  1.00  0.00     0.814 OA 
HETATM   30  O   UNL     1     -10.717  19.153  66.737  1.00  0.00    -0.425 OA 
ENDBRANCH  21  22
ENDBRANCH  20  21
ENDBRANCH   4  20
TORSDOF 5
ENDMDL
