MODEL        1
REMARK 921   NORMALIZED FREE ENERGY PREDICTED BY IDOCK:   -7.64 KCAL/MOL
REMARK 922        TOTAL FREE ENERGY PREDICTED BY IDOCK:   -8.48 KCAL/MOL
REMARK 923 INTER-LIGAND FREE ENERGY PREDICTED BY IDOCK:   -8.09 KCAL/MOL
REMARK 924 INTRA-LIGAND FREE ENERGY PREDICTED BY IDOCK:   -0.39 KCAL/MOL
REMARK 927      BINDING AFFINITY PREDICTED BY RF-SCORE:    0.00 PKD
ROOT
HETATM    1  C   UNL     1     -10.541  12.924  63.969  1.00  0.00    -0.389 C  
HETATM    2  N   UNL     1     -11.295  13.935  64.706  1.00  0.00    -0.348 NA 
HETATM    3  C   UNL     1     -12.467  13.353  65.392  1.00  0.00    -0.494 C  
HETATM    4  C   UNL     1     -12.142  12.467  66.615  1.00  0.00    -0.142 C  
HETATM    5  N   UNL     1     -11.261  13.163  67.566  1.00  0.00    -0.271 NA 
HETATM    6  C   UNL     1     -10.083  13.799  66.958  1.00  0.00    -0.256 C  
HETATM    7  C   UNL     1     -10.458  14.630  65.712  1.00  0.00    -0.325 C  
ENDROOT
BRANCH   5   8
HETATM    8  C   UNL     1     -11.547  13.292  68.926  1.00  0.00    -0.314 C  
HETATM    9  N   UNL     1     -11.779  14.479  69.420  1.00  0.00    -0.298 NA 
HETATM   10  C   UNL     1     -12.100  14.706  70.771  1.00  0.00    -0.320 A  
HETATM   11  H   UNL     1     -11.724  15.283  68.795  1.00  0.00     0.000 HD 
HETATM   12  C   UNL     1     -11.601  15.867  71.371  1.00  0.00    -0.529 A  
HETATM   13  C   UNL     1     -11.915  16.193  72.694  1.00  0.00    -0.653 A  
HETATM   14  C   UNL     1     -12.758  15.368  73.436  1.00  0.00    -0.656 A  
HETATM   15  C   UNL     1     -13.286  14.219  72.852  1.00  0.00    -0.593 A  
HETATM   16  C   UNL     1     -12.948  13.890  71.535  1.00  0.00    -0.358 A  
HETATM   17  O   UNL     1     -13.489  12.729  71.030  1.00  0.00     0.149 OA 
HETATM   18  C   UNL     1     -12.529  11.801  70.711  1.00  0.00    -0.312 A  
HETATM   19  C   UNL     1     -11.541  12.047  69.759  1.00  0.00    -0.348 A  
HETATM   20  C   UNL     1     -10.544  11.089  69.533  1.00  0.00    -0.182 A  
HETATM   21  C   UNL     1     -10.589   9.871  70.204  1.00  0.00    -0.297 A  
HETATM   22  C   UNL     1     -11.609   9.604  71.117  1.00  0.00    -0.456 A  
HETATM   23 CL   UNL     1      -9.393   8.678  69.880  1.00  0.00    -0.157 Cl 
HETATM   24  C   UNL     1     -12.579  10.573  71.374  1.00  0.00    -0.539 A  
ENDBRANCH   5   8
TORSDOF 1
ENDMDL
MODEL        2
REMARK 921   NORMALIZED FREE ENERGY PREDICTED BY IDOCK:   -7.60 KCAL/MOL
REMARK 922        TOTAL FREE ENERGY PREDICTED BY IDOCK:   -8.44 KCAL/MOL
REMARK 923 INTER-LIGAND FREE ENERGY PREDICTED BY IDOCK:   -8.02 KCAL/MOL
REMARK 924 INTRA-LIGAND FREE ENERGY PREDICTED BY IDOCK:   -0.41 KCAL/MOL
REMARK 927      BINDING AFFINITY PREDICTED BY RF-SCORE:    0.00 PKD
ROOT
HETATM    1  C   UNL     1     -11.320  12.240  63.811  1.00  0.00    -0.459 C  
HETATM    2  N   UNL     1     -11.025  13.631  64.145  1.00  0.00    -0.284 NA 
HETATM    3  C   UNL     1     -12.229  14.350  64.607  1.00  0.00    -0.464 C  
HETATM    4  C   UNL     1     -12.739  13.951  66.008  1.00  0.00    -0.362 C  
HETATM    5  N   UNL     1     -11.665  14.015  67.011  1.00  0.00    -0.376 NA 
HETATM    6  C   UNL     1     -10.416  13.347  66.616  1.00  0.00    -0.280 C  
HETATM    7  C   UNL     1      -9.980  13.744  65.189  1.00  0.00    -0.211 C  
ENDROOT
BRANCH   5   8
HETATM    8  C   UNL     1     -11.773  14.720  68.211  1.00  0.00    -0.311 C  
HETATM    9  N   UNL     1     -12.476  14.214  69.189  1.00  0.00    -0.497 NA 
HETATM   10  C   UNL     1     -12.622  14.837  70.441  1.00  0.00    -0.346 A  
HETATM   11  H   UNL     1     -12.943  13.320  69.036  1.00  0.00     0.000 HD 
HETATM   12  C   UNL     1     -13.858  14.718  71.086  1.00  0.00    -0.388 A  
HETATM   13  C   UNL     1     -14.070  15.264  72.356  1.00  0.00    -0.622 A  
HETATM   14  C   UNL     1     -13.034  15.924  73.015  1.00  0.00    -0.630 A  
HETATM   15  C   UNL     1     -11.788  16.034  72.403  1.00  0.00    -0.639 A  
HETATM   16  C   UNL     1     -11.592  15.503  71.123  1.00  0.00    -0.397 A  
HETATM   17  O   UNL     1     -10.342  15.668  70.571  1.00  0.00    -0.240 OA 
HETATM   18  C   UNL     1     -10.371  16.430  69.430  1.00  0.00    -0.290 A  
HETATM   19  C   UNL     1     -11.092  16.052  68.298  1.00  0.00    -0.351 A  
HETATM   20  C   UNL     1     -11.145  16.911  67.193  1.00  0.00     0.145 A  
HETATM   21  C   UNL     1     -10.417  18.097  67.201  1.00  0.00    -0.378 A  
HETATM   22  C   UNL     1      -9.652  18.448  68.312  1.00  0.00    -0.355 A  
HETATM   23 CL   UNL     1     -10.443  19.118  65.817  1.00  0.00    -0.489 Cl 
HETATM   24  C   UNL     1      -9.632  17.615  69.432  1.00  0.00     0.198 A  
ENDBRANCH   5   8
TORSDOF 1
ENDMDL
MODEL        3
REMARK 921   NORMALIZED FREE ENERGY PREDICTED BY IDOCK:   -7.53 KCAL/MOL
REMARK 922        TOTAL FREE ENERGY PREDICTED BY IDOCK:   -8.36 KCAL/MOL
REMARK 923 INTER-LIGAND FREE ENERGY PREDICTED BY IDOCK:   -8.15 KCAL/MOL
REMARK 924 INTRA-LIGAND FREE ENERGY PREDICTED BY IDOCK:   -0.21 KCAL/MOL
REMARK 927      BINDING AFFINITY PREDICTED BY RF-SCORE:    0.00 PKD
ROOT
HETATM    1  C   UNL     1     -13.364  16.249  73.432  1.00  0.00    -0.262 C  
HETATM    2  N   UNL     1     -12.706  14.962  73.223  1.00  0.00    -0.491 NA 
HETATM    3  C   UNL     1     -13.560  14.027  72.463  1.00  0.00    -0.566 C  
HETATM    4  C   UNL     1     -13.738  14.365  70.966  1.00  0.00    -0.144 C  
HETATM    5  N   UNL     1     -12.441  14.561  70.300  1.00  0.00    -0.347 NA 
HETATM    6  C   UNL     1     -11.516  15.457  71.010  1.00  0.00    -0.364 C  
HETATM    7  C   UNL     1     -11.415  15.106  72.511  1.00  0.00    -0.265 C  
ENDROOT
BRANCH   5   8
HETATM    8  C   UNL     1     -12.067  13.894  69.132  1.00  0.00    -0.338 C  
HETATM    9  N   UNL     1     -12.288  14.458  67.975  1.00  0.00    -0.589 NA 
HETATM   10  C   UNL     1     -11.924  13.875  66.748  1.00  0.00    -0.438 A  
HETATM   11  H   UNL     1     -12.749  15.368  67.961  1.00  0.00     0.000 HD 
HETATM   12  C   UNL     1     -12.781  14.068  65.658  1.00  0.00    -0.515 A  
HETATM   13  C   UNL     1     -12.467  13.566  64.391  1.00  0.00    -0.324 A  
HETATM   14  C   UNL     1     -11.273  12.877  64.188  1.00  0.00    -0.432 A  
HETATM   15  C   UNL     1     -10.394  12.694  65.252  1.00  0.00    -0.309 A  
HETATM   16  C   UNL     1     -10.727  13.181  66.521  1.00  0.00    -0.279 A  
HETATM   17  O   UNL     1      -9.821  12.944  67.531  1.00  0.00    -0.202 OA 
HETATM   18  C   UNL     1     -10.342  12.154  68.525  1.00  0.00    -0.221 A  
HETATM   19  C   UNL     1     -11.453  12.534  69.275  1.00  0.00    -0.353 A  
HETATM   20  C   UNL     1     -11.984  11.650  70.223  1.00  0.00    -0.445 A  
HETATM   21  C   UNL     1     -11.354  10.433  70.464  1.00  0.00    -0.341 A  
HETATM   22  C   UNL     1     -10.211  10.075  69.751  1.00  0.00    -0.286 A  
HETATM   23 CL   UNL     1     -11.980   9.377  71.669  1.00  0.00    -0.441 Cl 
HETATM   24  C   UNL     1      -9.705  10.936  68.775  1.00  0.00    -0.196 A  
ENDBRANCH   5   8
TORSDOF 1
ENDMDL
MODEL        4
REMARK 921   NORMALIZED FREE ENERGY PREDICTED BY IDOCK:   -7.47 KCAL/MOL
REMARK 922        TOTAL FREE ENERGY PREDICTED BY IDOCK:   -8.30 KCAL/MOL
REMARK 923 INTER-LIGAND FREE ENERGY PREDICTED BY IDOCK:   -7.97 KCAL/MOL
REMARK 924 INTRA-LIGAND FREE ENERGY PREDICTED BY IDOCK:   -0.34 KCAL/MOL
REMARK 927      BINDING AFFINITY PREDICTED BY RF-SCORE:    0.00 PKD
ROOT
HETATM    1  C   UNL     1      -8.381  19.819  66.104  1.00  0.00    -0.345 C  
HETATM    2  N   UNL     1      -9.311  19.961  67.221  1.00  0.00    -0.337 NA 
HETATM    3  C   UNL     1     -10.582  19.252  66.969  1.00  0.00    -0.470 C  
HETATM    4  C   UNL     1     -10.499  17.711  67.020  1.00  0.00    -0.305 C  
HETATM    5  N   UNL     1      -9.871  17.246  68.266  1.00  0.00    -0.289 NA 
HETATM    6  C   UNL     1      -8.612  17.924  68.607  1.00  0.00    -0.266 C  
HETATM    7  C   UNL     1      -8.737  19.460  68.492  1.00  0.00    -0.367 C  
ENDROOT
BRANCH   5   8
HETATM    8  C   UNL     1     -10.449  16.299  69.113  1.00  0.00    -0.280 C  
HETATM    9  N   UNL     1     -11.133  16.701  70.150  1.00  0.00    -0.437 NA 
HETATM   10  C   UNL     1     -11.772  15.823  71.044  1.00  0.00    -0.422 A  
HETATM   11  H   UNL     1     -11.208  17.704  70.320  1.00  0.00     0.000 HD 
HETATM   12  C   UNL     1     -11.792  16.176  72.398  1.00  0.00    -0.637 A  
HETATM   13  C   UNL     1     -12.450  15.385  73.345  1.00  0.00    -0.633 A  
HETATM   14  C   UNL     1     -13.123  14.232  72.946  1.00  0.00    -0.589 A  
HETATM   15  C   UNL     1     -13.138  13.874  71.600  1.00  0.00    -0.446 A  
HETATM   16  C   UNL     1     -12.457  14.660  70.663  1.00  0.00    -0.344 A  
HETATM   17  O   UNL     1     -12.496  14.234  69.354  1.00  0.00    -0.263 OA 
HETATM   18  C   UNL     1     -11.251  13.917  68.871  1.00  0.00    -0.271 A  
HETATM   19  C   UNL     1     -10.220  14.852  68.796  1.00  0.00    -0.243 A  
HETATM   20  C   UNL     1      -8.949  14.448  68.366  1.00  0.00    -0.188 A  
HETATM   21  C   UNL     1      -8.744  13.138  67.945  1.00  0.00    -0.192 A  
HETATM   22  C   UNL     1      -9.790  12.216  67.970  1.00  0.00    -0.202 A  
HETATM   23 CL   UNL     1      -7.196  12.664  67.365  1.00  0.00    -0.148 Cl 
HETATM   24  C   UNL     1     -11.046  12.606  68.438  1.00  0.00    -0.297 A  
ENDBRANCH   5   8
TORSDOF 1
ENDMDL
MODEL        5
REMARK 921   NORMALIZED FREE ENERGY PREDICTED BY IDOCK:   -7.33 KCAL/MOL
REMARK 922        TOTAL FREE ENERGY PREDICTED BY IDOCK:   -8.15 KCAL/MOL
REMARK 923 INTER-LIGAND FREE ENERGY PREDICTED BY IDOCK:   -7.72 KCAL/MOL
REMARK 924 INTRA-LIGAND FREE ENERGY PREDICTED BY IDOCK:   -0.43 KCAL/MOL
REMARK 927      BINDING AFFINITY PREDICTED BY RF-SCORE:    0.00 PKD
ROOT
HETATM    1  C   UNL     1      -8.151   7.852  67.830  1.00  0.00    -0.128 C  
HETATM    2  N   UNL     1      -9.009   8.690  66.995  1.00  0.00    -0.130 NA 
HETATM    3  C   UNL     1     -10.426   8.600  67.402  1.00  0.00    -0.281 C  
HETATM    4  C   UNL     1     -10.773   9.292  68.738  1.00  0.00    -0.154 C  
HETATM    5  N   UNL     1     -10.301  10.684  68.763  1.00  0.00    -0.182 NA 
HETATM    6  C   UNL     1      -8.904  10.866  68.342  1.00  0.00    -0.147 C  
HETATM    7  C   UNL     1      -8.599  10.113  67.028  1.00  0.00    -0.129 C  
ENDROOT
BRANCH   5   8
HETATM    8  C   UNL     1     -11.121  11.770  69.078  1.00  0.00    -0.246 C  
HETATM    9  N   UNL     1     -11.514  11.937  70.312  1.00  0.00    -0.506 NA 
HETATM   10  C   UNL     1     -12.319  13.012  70.729  1.00  0.00    -0.310 A  
HETATM   11  H   UNL     1     -11.222  11.252  71.010  1.00  0.00     0.000 HD 
HETATM   12  C   UNL     1     -13.272  12.763  71.723  1.00  0.00    -0.471 A  
HETATM   13  C   UNL     1     -14.077  13.788  72.230  1.00  0.00    -0.627 A  
HETATM   14  C   UNL     1     -13.925  15.092  71.764  1.00  0.00    -0.627 A  
HETATM   15  C   UNL     1     -12.965  15.369  70.792  1.00  0.00    -0.510 A  
HETATM   16  C   UNL     1     -12.180  14.332  70.276  1.00  0.00    -0.342 A  
HETATM   17  O   UNL     1     -11.268  14.675  69.303  1.00  0.00    -0.257 OA 
HETATM   18  C   UNL     1     -11.529  14.062  68.103  1.00  0.00    -0.309 A  
HETATM   19  C   UNL     1     -11.534  12.676  67.958  1.00  0.00    -0.366 A  
HETATM   20  C   UNL     1     -11.884  12.109  66.726  1.00  0.00    -0.304 A  
HETATM   21  C   UNL     1     -12.149  12.932  65.635  1.00  0.00    -0.458 A  
HETATM   22  C   UNL     1     -12.091  14.319  65.766  1.00  0.00    -0.414 A  
HETATM   23 CL   UNL     1     -12.522  12.228  64.112  1.00  0.00    -0.548 Cl 
HETATM   24  C   UNL     1     -11.784  14.886  67.005  1.00  0.00    -0.274 A  
ENDBRANCH   5   8
TORSDOF 1
ENDMDL
MODEL        6
REMARK 921   NORMALIZED FREE ENERGY PREDICTED BY IDOCK:   -7.24 KCAL/MOL
REMARK 922        TOTAL FREE ENERGY PREDICTED BY IDOCK:   -8.06 KCAL/MOL
REMARK 923 INTER-LIGAND FREE ENERGY PREDICTED BY IDOCK:   -7.66 KCAL/MOL
REMARK 924 INTRA-LIGAND FREE ENERGY PREDICTED BY IDOCK:   -0.40 KCAL/MOL
REMARK 927      BINDING AFFINITY PREDICTED BY RF-SCORE:    0.00 PKD
ROOT
HETATM    1  C   UNL     1      -8.226   7.819  68.410  1.00  0.00    -0.124 C  
HETATM    2  N   UNL     1      -8.519   8.545  69.643  1.00  0.00    -0.127 NA 
HETATM    3  C   UNL     1      -8.091   9.956  69.563  1.00  0.00    -0.152 C  
HETATM    4  C   UNL     1      -8.945  10.852  68.640  1.00  0.00    -0.162 C  
HETATM    5  N   UNL     1     -10.376  10.749  68.961  1.00  0.00    -0.207 NA 
HETATM    6  C   UNL     1     -10.878   9.373  69.089  1.00  0.00    -0.155 C  
HETATM    7  C   UNL     1      -9.961   8.509  69.982  1.00  0.00    -0.188 C  
ENDROOT
BRANCH   5   8
HETATM    8  C   UNL     1     -11.191  11.855  69.211  1.00  0.00    -0.242 C  
HETATM    9  N   UNL     1     -11.612  12.077  70.427  1.00  0.00    -0.496 NA 
HETATM   10  C   UNL     1     -12.414  13.177  70.779  1.00  0.00    -0.308 A  
HETATM   11  H   UNL     1     -11.346  11.418  71.159  1.00  0.00     0.000 HD 
HETATM   12  C   UNL     1     -13.395  12.979  71.758  1.00  0.00    -0.468 A  
HETATM   13  C   UNL     1     -14.200  14.032  72.203  1.00  0.00    -0.628 A  
HETATM   14  C   UNL     1     -14.021  15.315  71.688  1.00  0.00    -0.627 A  
HETATM   15  C   UNL     1     -13.035  15.541  70.731  1.00  0.00    -0.490 A  
HETATM   16  C   UNL     1     -12.249  14.476  70.276  1.00  0.00    -0.330 A  
HETATM   17  O   UNL     1     -11.309  14.769  69.313  1.00  0.00    -0.263 OA 
HETATM   18  C   UNL     1     -11.548  14.110  68.133  1.00  0.00    -0.331 A  
HETATM   19  C   UNL     1     -11.565  12.719  68.045  1.00  0.00    -0.388 A  
HETATM   20  C   UNL     1     -11.892  12.107  66.828  1.00  0.00    -0.304 A  
HETATM   21  C   UNL     1     -12.120  12.887  65.699  1.00  0.00    -0.458 A  
HETATM   22  C   UNL     1     -12.049  14.278  65.775  1.00  0.00    -0.414 A  
HETATM   23 CL   UNL     1     -12.464  12.126  64.196  1.00  0.00    -0.520 Cl 
HETATM   24  C   UNL     1     -11.766  14.891  66.997  1.00  0.00    -0.274 A  
ENDBRANCH   5   8
TORSDOF 1
ENDMDL
MODEL        7
REMARK 921   NORMALIZED FREE ENERGY PREDICTED BY IDOCK:   -7.11 KCAL/MOL
REMARK 922        TOTAL FREE ENERGY PREDICTED BY IDOCK:   -7.92 KCAL/MOL
REMARK 923 INTER-LIGAND FREE ENERGY PREDICTED BY IDOCK:   -7.52 KCAL/MOL
REMARK 924 INTRA-LIGAND FREE ENERGY PREDICTED BY IDOCK:   -0.40 KCAL/MOL
REMARK 927      BINDING AFFINITY PREDICTED BY RF-SCORE:    0.00 PKD
ROOT
HETATM    1  C   UNL     1      -7.751  19.799  69.008  1.00  0.00    -0.199 C  
HETATM    2  N   UNL     1      -7.701  19.075  67.739  1.00  0.00    -0.243 NA 
HETATM    3  C   UNL     1      -7.327  17.659  67.931  1.00  0.00    -0.202 C  
HETATM    4  C   UNL     1      -8.412  16.774  68.582  1.00  0.00    -0.259 C  
HETATM    5  N   UNL     1      -9.699  16.892  67.880  1.00  0.00    -0.249 NA 
HETATM    6  C   UNL     1     -10.131  18.274  67.622  1.00  0.00    -0.356 C  
HETATM    7  C   UNL     1      -8.995  19.128  67.018  1.00  0.00    -0.298 C  
ENDROOT
BRANCH   5   8
HETATM    8  C   UNL     1     -10.425  15.795  67.413  1.00  0.00    -0.297 C  
HETATM    9  N   UNL     1     -10.451  15.544  66.132  1.00  0.00    -0.301 NA 
HETATM   10  C   UNL     1     -11.133  14.449  65.572  1.00  0.00    -0.326 A  
HETATM   11  H   UNL     1      -9.951  16.174  65.506  1.00  0.00     0.000 HD 
HETATM   12  C   UNL     1     -11.752  14.636  64.331  1.00  0.00    -0.358 A  
HETATM   13  C   UNL     1     -12.408  13.585  63.681  1.00  0.00    -0.377 A  
HETATM   14  C   UNL     1     -12.435  12.316  64.256  1.00  0.00    -0.508 A  
HETATM   15  C   UNL     1     -11.805  12.101  65.479  1.00  0.00    -0.350 A  
HETATM   16  C   UNL     1     -11.171  13.164  66.132  1.00  0.00    -0.295 A  
HETATM   17  O   UNL     1     -10.588  12.883  67.347  1.00  0.00    -0.231 OA 
HETATM   18  C   UNL     1     -11.165  13.582  68.377  1.00  0.00    -0.278 A  
HETATM   19  C   UNL     1     -11.170  14.975  68.423  1.00  0.00    -0.303 A  
HETATM   20  C   UNL     1     -11.843  15.632  69.461  1.00  0.00    -0.387 A  
HETATM   21  C   UNL     1     -12.435  14.892  70.480  1.00  0.00    -0.363 A  
HETATM   22  C   UNL     1     -12.384  13.499  70.463  1.00  0.00    -0.412 A  
HETATM   23 CL   UNL     1     -13.211  15.707  71.781  1.00  0.00    -0.548 Cl 
HETATM   24  C   UNL     1     -11.750  12.842  69.406  1.00  0.00    -0.380 A  
ENDBRANCH   5   8
TORSDOF 1
ENDMDL
MODEL        8
REMARK 921   NORMALIZED FREE ENERGY PREDICTED BY IDOCK:   -7.04 KCAL/MOL
REMARK 922        TOTAL FREE ENERGY PREDICTED BY IDOCK:   -7.85 KCAL/MOL
REMARK 923 INTER-LIGAND FREE ENERGY PREDICTED BY IDOCK:   -7.45 KCAL/MOL
REMARK 924 INTRA-LIGAND FREE ENERGY PREDICTED BY IDOCK:   -0.40 KCAL/MOL
REMARK 927      BINDING AFFINITY PREDICTED BY RF-SCORE:    0.00 PKD
ROOT
HETATM    1  C   UNL     1      -8.945   9.519  66.144  1.00  0.00    -0.158 C  
HETATM    2  N   UNL     1      -9.184  10.925  65.828  1.00  0.00    -0.194 NA 
HETATM    3  C   UNL     1     -10.621  11.262  65.883  1.00  0.00    -0.253 C  
HETATM    4  C   UNL     1     -11.233  11.308  67.300  1.00  0.00    -0.296 C  
HETATM    5  N   UNL     1     -10.451  12.170  68.198  1.00  0.00    -0.205 NA 
HETATM    6  C   UNL     1      -9.002  11.918  68.181  1.00  0.00    -0.185 C  
HETATM    7  C   UNL     1      -8.452  11.833  66.741  1.00  0.00    -0.177 C  
ENDROOT
BRANCH   5   8
HETATM    8  C   UNL     1     -11.009  13.205  68.952  1.00  0.00    -0.230 C  
HETATM    9  N   UNL     1     -11.637  12.921  70.061  1.00  0.00    -0.525 NA 
HETATM   10  C   UNL     1     -12.209  13.896  70.898  1.00  0.00    -0.361 A  
HETATM   11  H   UNL     1     -11.718  11.941  70.334  1.00  0.00     0.000 HD 
HETATM   12  C   UNL     1     -13.410  13.576  71.541  1.00  0.00    -0.363 A  
HETATM   13  C   UNL     1     -14.017  14.469  72.430  1.00  0.00    -0.580 A  
HETATM   14  C   UNL     1     -13.417  15.695  72.708  1.00  0.00    -0.662 A  
HETATM   15  C   UNL     1     -12.209  16.025  72.098  1.00  0.00    -0.597 A  
HETATM   16  C   UNL     1     -11.621  15.134  71.193  1.00  0.00    -0.360 A  
HETATM   17  O   UNL     1     -10.439  15.535  70.612  1.00  0.00    -0.265 OA 
HETATM   18  C   UNL     1     -10.546  15.668  69.250  1.00  0.00    -0.238 A  
HETATM   19  C   UNL     1     -10.878  14.599  68.420  1.00  0.00    -0.250 A  
HETATM   20  C   UNL     1     -11.048  14.816  67.046  1.00  0.00    -0.333 A  
HETATM   21  C   UNL     1     -10.808  16.077  66.509  1.00  0.00    -0.167 A  
HETATM   22  C   UNL     1     -10.423  17.134  67.333  1.00  0.00    -0.334 A  
HETATM   23 CL   UNL     1     -10.964  16.322  64.814  1.00  0.00    -0.394 Cl 
HETATM   24  C   UNL     1     -10.295  16.931  68.708  1.00  0.00    -0.324 A  
ENDBRANCH   5   8
TORSDOF 1
ENDMDL
MODEL        9
REMARK 921   NORMALIZED FREE ENERGY PREDICTED BY IDOCK:   -6.70 KCAL/MOL
REMARK 922        TOTAL FREE ENERGY PREDICTED BY IDOCK:   -7.48 KCAL/MOL
REMARK 923 INTER-LIGAND FREE ENERGY PREDICTED BY IDOCK:   -7.15 KCAL/MOL
REMARK 924 INTRA-LIGAND FREE ENERGY PREDICTED BY IDOCK:   -0.34 KCAL/MOL
REMARK 927      BINDING AFFINITY PREDICTED BY RF-SCORE:    0.00 PKD
ROOT
HETATM    1  C   UNL     1     -12.523  12.124  63.347  1.00  0.00    -0.512 C  
HETATM    2  N   UNL     1     -12.694  12.345  64.780  1.00  0.00    -0.707 NA 
HETATM    3  C   UNL     1     -11.484  11.974  65.540  1.00  0.00    -0.313 C  
HETATM    4  C   UNL     1     -10.280  12.926  65.370  1.00  0.00    -0.287 C  
HETATM    5  N   UNL     1     -10.659  14.324  65.626  1.00  0.00    -0.304 NA 
HETATM    6  C   UNL     1     -11.875  14.767  64.928  1.00  0.00    -0.377 C  
HETATM    7  C   UNL     1     -13.030  13.755  65.090  1.00  0.00    -0.229 C  
ENDROOT
BRANCH   5   8
HETATM    8  C   UNL     1      -9.980  15.155  66.520  1.00  0.00    -0.266 C  
HETATM    9  N   UNL     1      -8.920  15.800  66.113  1.00  0.00    -0.340 NA 
HETATM   10  C   UNL     1      -8.186  16.677  66.932  1.00  0.00    -0.212 A  
HETATM   11  H   UNL     1      -8.607  15.660  65.152  1.00  0.00     0.000 HD 
HETATM   12  C   UNL     1      -6.797  16.708  66.770  1.00  0.00    -0.252 A  
HETATM   13  C   UNL     1      -5.999  17.588  67.508  1.00  0.00    -0.158 A  
HETATM   14  C   UNL     1      -6.585  18.474  68.410  1.00  0.00    -0.235 A  
HETATM   15  C   UNL     1      -7.969  18.478  68.571  1.00  0.00    -0.346 A  
HETATM   16  C   UNL     1      -8.756  17.578  67.844  1.00  0.00    -0.247 A  
HETATM   17  O   UNL     1     -10.114  17.623  68.069  1.00  0.00    -0.307 OA 
HETATM   18  C   UNL     1     -10.595  16.451  68.597  1.00  0.00    -0.305 A  
HETATM   19  C   UNL     1     -10.498  15.235  67.923  1.00  0.00    -0.253 A  
HETATM   20  C   UNL     1     -10.938  14.060  68.548  1.00  0.00    -0.274 A  
HETATM   21  C   UNL     1     -11.539  14.126  69.801  1.00  0.00    -0.290 A  
HETATM   22  C   UNL     1     -11.685  15.350  70.452  1.00  0.00    -0.349 A  
HETATM   23 CL   UNL     1     -12.128  12.687  70.537  1.00  0.00    -0.425 Cl 
HETATM   24  C   UNL     1     -11.208  16.516  69.850  1.00  0.00    -0.159 A  
ENDBRANCH   5   8
TORSDOF 1
ENDMDL
MODEL       10
REMARK 921   NORMALIZED FREE ENERGY PREDICTED BY IDOCK:   -6.63 KCAL/MOL
REMARK 922        TOTAL FREE ENERGY PREDICTED BY IDOCK:   -7.41 KCAL/MOL
REMARK 923 INTER-LIGAND FREE ENERGY PREDICTED BY IDOCK:   -7.46 KCAL/MOL
REMARK 924 INTRA-LIGAND FREE ENERGY PREDICTED BY IDOCK:    0.05 KCAL/MOL
REMARK 927      BINDING AFFINITY PREDICTED BY RF-SCORE:    0.00 PKD
ROOT
HETATM    1  C   UNL     1     -13.501  13.637  72.674  1.00  0.00    -0.498 C  
HETATM    2  N   UNL     1     -13.339  15.076  72.484  1.00  0.00    -0.384 NA 
HETATM    3  C   UNL     1     -11.918  15.477  72.519  1.00  0.00    -0.455 C  
HETATM    4  C   UNL     1     -11.084  15.054  71.289  1.00  0.00    -0.133 C  
HETATM    5  N   UNL     1     -11.723  15.475  70.034  1.00  0.00    -0.319 NA 
HETATM    6  C   UNL     1     -13.151  15.140  69.931  1.00  0.00     0.233 C  
HETATM    7  C   UNL     1     -13.927  15.538  71.205  1.00  0.00    -0.292 C  
ENDROOT
BRANCH   5   8
HETATM    8  C   UNL     1     -11.066  16.208  69.043  1.00  0.00    -0.336 C  
HETATM    9  N   UNL     1     -10.734  17.448  69.281  1.00  0.00    -0.352 NA 
HETATM   10  C   UNL     1     -10.049  18.256  68.355  1.00  0.00    -0.391 A  
HETATM   11  H   UNL     1     -10.984  17.851  70.184  1.00  0.00     0.000 HD 
HETATM   12  C   UNL     1     -10.386  19.613  68.304  1.00  0.00    -0.539 A  
HETATM   13  C   UNL     1      -9.717  20.496  67.450  1.00  0.00    -0.587 A  
HETATM   14  C   UNL     1      -8.679  20.035  66.643  1.00  0.00    -0.397 A  
HETATM   15  C   UNL     1      -8.310  18.693  66.694  1.00  0.00    -0.297 A  
HETATM   16  C   UNL     1      -8.999  17.814  67.537  1.00  0.00    -0.244 A  
HETATM   17  O   UNL     1      -8.595  16.498  67.520  1.00  0.00    -0.175 OA 
HETATM   18  C   UNL     1      -9.582  15.654  67.077  1.00  0.00    -0.223 A  
HETATM   19  C   UNL     1     -10.806  15.527  67.734  1.00  0.00    -0.309 A  
HETATM   20  C   UNL     1     -11.802  14.707  67.189  1.00  0.00    -0.367 A  
HETATM   21  C   UNL     1     -11.539  13.966  66.041  1.00  0.00    -0.349 A  
HETATM   22  C   UNL     1     -10.296  14.051  65.415  1.00  0.00    -0.377 A  
HETATM   23 CL   UNL     1     -12.748  12.919  65.411  1.00  0.00    -0.450 Cl 
HETATM   24  C   UNL     1      -9.316  14.901  65.932  1.00  0.00    -0.216 A  
ENDBRANCH   5   8
TORSDOF 1
ENDMDL
MODEL       11
REMARK 921   NORMALIZED FREE ENERGY PREDICTED BY IDOCK:   -6.50 KCAL/MOL
REMARK 922        TOTAL FREE ENERGY PREDICTED BY IDOCK:   -7.27 KCAL/MOL
REMARK 923 INTER-LIGAND FREE ENERGY PREDICTED BY IDOCK:   -6.92 KCAL/MOL
REMARK 924 INTRA-LIGAND FREE ENERGY PREDICTED BY IDOCK:   -0.36 KCAL/MOL
REMARK 927      BINDING AFFINITY PREDICTED BY RF-SCORE:    0.00 PKD
ROOT
HETATM    1  C   UNL     1      -8.649  10.180  65.223  1.00  0.00    -0.158 C  
HETATM    2  N   UNL     1      -9.298  11.446  65.556  1.00  0.00    -0.222 NA 
HETATM    3  C   UNL     1     -10.738  11.268  65.832  1.00  0.00    -0.232 C  
HETATM    4  C   UNL     1     -11.071  10.558  67.163  1.00  0.00    -0.160 C  
HETATM    5  N   UNL     1     -10.387  11.195  68.299  1.00  0.00    -0.173 NA 
HETATM    6  C   UNL     1      -8.952  11.436  68.094  1.00  0.00    -0.169 C  
HETATM    7  C   UNL     1      -8.671  12.101  66.728  1.00  0.00    -0.183 C  
ENDROOT
BRANCH   5   8
HETATM    8  C   UNL     1     -11.046  11.619  69.454  1.00  0.00    -0.206 C  
HETATM    9  N   UNL     1     -11.358  12.880  69.586  1.00  0.00    -0.474 NA 
HETATM   10  C   UNL     1     -12.044  13.396  70.700  1.00  0.00    -0.295 A  
HETATM   11  H   UNL     1     -11.091  13.525  68.841  1.00  0.00     0.000 HD 
HETATM   12  C   UNL     1     -11.688  14.674  71.147  1.00  0.00    -0.332 A  
HETATM   13  C   UNL     1     -12.355  15.281  72.216  1.00  0.00    -0.450 A  
HETATM   14  C   UNL     1     -13.411  14.624  72.845  1.00  0.00    -0.585 A  
HETATM   15  C   UNL     1     -13.798  13.361  72.402  1.00  0.00    -0.665 A  
HETATM   16  C   UNL     1     -13.110  12.754  71.346  1.00  0.00    -0.227 A  
HETATM   17  O   UNL     1     -13.534  11.497  70.975  1.00  0.00     0.199 OA 
HETATM   18  C   UNL     1     -12.564  10.543  71.161  1.00  0.00    -0.417 A  
HETATM   19  C   UNL     1     -11.335  10.592  70.507  1.00  0.00    -0.400 A  
HETATM   20  C   UNL     1     -10.357   9.631  70.797  1.00  0.00    -0.356 A  
HETATM   21  C   UNL     1     -10.647   8.593  71.677  1.00  0.00    -0.303 A  
HETATM   22  C   UNL     1     -11.896   8.514  72.291  1.00  0.00    -0.453 A  
HETATM   23 CL   UNL     1      -9.461   7.386  71.986  1.00  0.00    -0.155 Cl 
HETATM   24  C   UNL     1     -12.857   9.494  72.035  1.00  0.00    -0.499 A  
ENDBRANCH   5   8
TORSDOF 1
ENDMDL
MODEL       12
REMARK 921   NORMALIZED FREE ENERGY PREDICTED BY IDOCK:   -6.45 KCAL/MOL
REMARK 922        TOTAL FREE ENERGY PREDICTED BY IDOCK:   -7.22 KCAL/MOL
REMARK 923 INTER-LIGAND FREE ENERGY PREDICTED BY IDOCK:   -7.26 KCAL/MOL
REMARK 924 INTRA-LIGAND FREE ENERGY PREDICTED BY IDOCK:    0.05 KCAL/MOL
REMARK 927      BINDING AFFINITY PREDICTED BY RF-SCORE:    0.00 PKD
ROOT
HETATM    1  C   UNL     1     -13.781  15.954  73.086  1.00  0.00    -0.421 C  
HETATM    2  N   UNL     1     -12.931  14.771  73.196  1.00  0.00    -0.504 NA 
HETATM    3  C   UNL     1     -13.530  13.601  72.521  1.00  0.00    -0.570 C  
HETATM    4  C   UNL     1     -13.530  13.660  70.977  1.00  0.00     0.042 C  
HETATM    5  N   UNL     1     -12.188  13.948  70.449  1.00  0.00    -0.347 NA 
HETATM    6  C   UNL     1     -11.508  15.083  71.090  1.00  0.00    -0.309 C  
HETATM    7  C   UNL     1     -11.581  15.000  72.630  1.00  0.00    -0.230 C  
ENDROOT
BRANCH   5   8
HETATM    8  C   UNL     1     -11.560  13.168  69.476  1.00  0.00    -0.283 C  
HETATM    9  N   UNL     1     -11.168  11.960  69.780  1.00  0.00    -0.483 NA 
HETATM   10  C   UNL     1     -10.550  11.093  68.862  1.00  0.00    -0.207 A  
HETATM   11  H   UNL     1     -11.318  11.629  70.733  1.00  0.00     0.000 HD 
HETATM   12  C   UNL     1      -9.541  10.250  69.342  1.00  0.00    -0.237 A  
HETATM   13  C   UNL     1      -8.912   9.322  68.506  1.00  0.00    -0.129 A  
HETATM   14  C   UNL     1      -9.301   9.205  67.173  1.00  0.00    -0.178 A  
HETATM   15  C   UNL     1     -10.319  10.016  66.679  1.00  0.00    -0.281 A  
HETATM   16  C   UNL     1     -10.927  10.957  67.518  1.00  0.00    -0.293 A  
HETATM   17  O   UNL     1     -11.912  11.740  66.956  1.00  0.00    -0.610 OA 
HETATM   18  C   UNL     1     -11.581  13.072  66.953  1.00  0.00    -0.366 A  
HETATM   19  C   UNL     1     -11.341  13.784  68.127  1.00  0.00    -0.315 A  
HETATM   20  C   UNL     1     -10.932  15.122  68.055  1.00  0.00    -0.295 A  
HETATM   21  C   UNL     1     -10.843  15.753  66.818  1.00  0.00    -0.254 A  
HETATM   22  C   UNL     1     -11.136  15.056  65.646  1.00  0.00    -0.349 A  
HETATM   23 CL   UNL     1     -10.395  17.411  66.741  1.00  0.00    -0.317 Cl 
HETATM   24  C   UNL     1     -11.502  13.710  65.714  1.00  0.00    -0.326 A  
ENDBRANCH   5   8
TORSDOF 1
ENDMDL
MODEL       13
REMARK 921   NORMALIZED FREE ENERGY PREDICTED BY IDOCK:   -6.44 KCAL/MOL
REMARK 922        TOTAL FREE ENERGY PREDICTED BY IDOCK:   -7.21 KCAL/MOL
REMARK 923 INTER-LIGAND FREE ENERGY PREDICTED BY IDOCK:   -6.79 KCAL/MOL
REMARK 924 INTRA-LIGAND FREE ENERGY PREDICTED BY IDOCK:   -0.43 KCAL/MOL
REMARK 927      BINDING AFFINITY PREDICTED BY RF-SCORE:    0.00 PKD
ROOT
HETATM    1  C   UNL     1      -8.419   9.240  65.298  1.00  0.00    -0.154 C  
HETATM    2  N   UNL     1      -8.401   8.775  66.682  1.00  0.00    -0.107 NA 
HETATM    3  C   UNL     1      -7.906   9.818  67.604  1.00  0.00    -0.095 C  
HETATM    4  C   UNL     1      -8.870  11.000  67.841  1.00  0.00    -0.134 C  
HETATM    5  N   UNL     1     -10.208  10.535  68.237  1.00  0.00    -0.157 NA 
HETATM    6  C   UNL     1     -10.763   9.472  67.386  1.00  0.00    -0.227 C  
HETATM    7  C   UNL     1      -9.742   8.340  67.141  1.00  0.00    -0.195 C  
ENDROOT
BRANCH   5   8
HETATM    8  C   UNL     1     -10.877  10.992  69.373  1.00  0.00    -0.231 C  
HETATM    9  N   UNL     1     -11.385  12.195  69.375  1.00  0.00    -0.385 NA 
HETATM   10  C   UNL     1     -12.097  12.733  70.462  1.00  0.00    -0.285 A  
HETATM   11  H   UNL     1     -11.258  12.775  68.545  1.00  0.00     0.000 HD 
HETATM   12  C   UNL     1     -11.936  14.097  70.733  1.00  0.00    -0.377 A  
HETATM   13  C   UNL     1     -12.646  14.721  71.764  1.00  0.00    -0.400 A  
HETATM   14  C   UNL     1     -13.553  13.991  72.530  1.00  0.00    -0.670 A  
HETATM   15  C   UNL     1     -13.747  12.638  72.263  1.00  0.00    -0.429 A  
HETATM   16  C   UNL     1     -13.015  12.017  71.244  1.00  0.00    -0.217 A  
HETATM   17  O   UNL     1     -13.243  10.673  71.050  1.00  0.00    -0.332 OA 
HETATM   18  C   UNL     1     -12.124   9.915  71.286  1.00  0.00    -0.394 A  
HETATM   19  C   UNL     1     -10.948  10.073  70.555  1.00  0.00    -0.392 A  
HETATM   20  C   UNL     1      -9.815   9.322  70.894  1.00  0.00    -0.363 A  
HETATM   21  C   UNL     1      -9.893   8.370  71.906  1.00  0.00    -0.258 A  
HETATM   22  C   UNL     1     -11.085   8.174  72.601  1.00  0.00    -0.450 A  
HETATM   23 CL   UNL     1      -8.514   7.412  72.279  1.00  0.00    -0.124 Cl 
HETATM   24  C   UNL     1     -12.203   8.951  72.293  1.00  0.00    -0.413 A  
ENDBRANCH   5   8
TORSDOF 1
ENDMDL
MODEL       14
REMARK 921   NORMALIZED FREE ENERGY PREDICTED BY IDOCK:   -6.40 KCAL/MOL
REMARK 922        TOTAL FREE ENERGY PREDICTED BY IDOCK:   -7.16 KCAL/MOL
REMARK 923 INTER-LIGAND FREE ENERGY PREDICTED BY IDOCK:   -6.74 KCAL/MOL
REMARK 924 INTRA-LIGAND FREE ENERGY PREDICTED BY IDOCK:   -0.43 KCAL/MOL
REMARK 927      BINDING AFFINITY PREDICTED BY RF-SCORE:    0.00 PKD
ROOT
HETATM    1  C   UNL     1     -12.244  13.712  63.475  1.00  0.00    -0.268 C  
HETATM    2  N   UNL     1     -11.095  13.830  64.369  1.00  0.00    -0.371 NA 
HETATM    3  C   UNL     1     -11.487  14.337  65.700  1.00  0.00    -0.329 C  
HETATM    4  C   UNL     1     -12.276  13.342  66.579  1.00  0.00    -0.327 C  
HETATM    5  N   UNL     1     -11.582  12.049  66.686  1.00  0.00    -0.513 NA 
HETATM    6  C   UNL     1     -11.131  11.488  65.404  1.00  0.00    -0.186 C  
HETATM    7  C   UNL     1     -10.392  12.538  64.546  1.00  0.00    -0.336 C  
ENDROOT
BRANCH   5   8
HETATM    8  C   UNL     1     -11.292  11.430  67.903  1.00  0.00    -0.303 C  
HETATM    9  N   UNL     1     -12.266  10.927  68.613  1.00  0.00    -0.810 NA 
HETATM   10  C   UNL     1     -12.069  10.263  69.837  1.00  0.00    -0.108 A  
HETATM   11  H   UNL     1     -13.219  11.020  68.261  1.00  0.00     0.000 HD 
HETATM   12  C   UNL     1     -13.034  10.440  70.834  1.00  0.00    -0.475 A  
HETATM   13  C   UNL     1     -12.941   9.775  72.061  1.00  0.00    -0.515 A  
HETATM   14  C   UNL     1     -11.884   8.900  72.303  1.00  0.00    -0.365 A  
HETATM   15  C   UNL     1     -10.924   8.690  71.316  1.00  0.00    -0.333 A  
HETATM   16  C   UNL     1     -11.014   9.376  70.100  1.00  0.00    -0.246 A  
HETATM   17  O   UNL     1     -10.019   9.136  69.180  1.00  0.00    -0.177 OA 
HETATM   18  C   UNL     1      -9.287  10.262  68.897  1.00  0.00    -0.178 A  
HETATM   19  C   UNL     1      -9.861  11.406  68.346  1.00  0.00    -0.205 A  
HETATM   20  C   UNL     1      -9.075  12.550  68.152  1.00  0.00    -0.204 A  
HETATM   21  C   UNL     1      -7.714  12.512  68.438  1.00  0.00    -0.136 A  
HETATM   22  C   UNL     1      -7.129  11.350  68.939  1.00  0.00    -0.109 A  
HETATM   23 CL   UNL     1      -6.746  13.903  68.144  1.00  0.00    -0.108 Cl 
HETATM   24  C   UNL     1      -7.918  10.222  69.173  1.00  0.00    -0.135 A  
ENDBRANCH   5   8
TORSDOF 1
ENDMDL
MODEL       15
REMARK 921   NORMALIZED FREE ENERGY PREDICTED BY IDOCK:   -6.38 KCAL/MOL
REMARK 922        TOTAL FREE ENERGY PREDICTED BY IDOCK:   -7.14 KCAL/MOL
REMARK 923 INTER-LIGAND FREE ENERGY PREDICTED BY IDOCK:   -6.80 KCAL/MOL
REMARK 924 INTRA-LIGAND FREE ENERGY PREDICTED BY IDOCK:   -0.35 KCAL/MOL
REMARK 927      BINDING AFFINITY PREDICTED BY RF-SCORE:    0.00 PKD
ROOT
HETATM    1  C   UNL     1     -13.523  13.744  72.671  1.00  0.00    -0.530 C  
HETATM    2  N   UNL     1     -13.546  15.155  72.291  1.00  0.00    -0.416 NA 
HETATM    3  C   UNL     1     -12.289  15.840  72.653  1.00  0.00    -0.461 C  
HETATM    4  C   UNL     1     -11.061  15.460  71.798  1.00  0.00    -0.181 C  
HETATM    5  N   UNL     1     -11.342  15.593  70.360  1.00  0.00    -0.324 NA 
HETATM    6  C   UNL     1     -12.595  14.962  69.921  1.00  0.00    -0.167 C  
HETATM    7  C   UNL     1     -13.780  15.336  70.839  1.00  0.00    -0.293 C  
ENDROOT
BRANCH   5   8
HETATM    8  C   UNL     1     -10.541  16.326  69.483  1.00  0.00    -0.314 C  
HETATM    9  N   UNL     1     -10.885  17.547  69.173  1.00  0.00    -0.269 NA 
HETATM   10  C   UNL     1     -10.129  18.371  68.320  1.00  0.00    -0.383 A  
HETATM   11  H   UNL     1     -11.746  17.923  69.570  1.00  0.00     0.000 HD 
HETATM   12  C   UNL     1     -10.824  19.235  67.467  1.00  0.00    -0.524 A  
HETATM   13  C   UNL     1     -10.148  20.124  66.624  1.00  0.00    -0.584 A  
HETATM   14  C   UNL     1      -8.756  20.177  66.637  1.00  0.00    -0.367 A  
HETATM   15  C   UNL     1      -8.043  19.343  67.495  1.00  0.00    -0.315 A  
HETATM   16  C   UNL     1      -8.728  18.442  68.318  1.00  0.00    -0.302 A  
HETATM   17  O   UNL     1      -7.958  17.634  69.124  1.00  0.00    -0.136 OA 
HETATM   18  C   UNL     1      -8.104  16.303  68.822  1.00  0.00    -0.227 A  
HETATM   19  C   UNL     1      -9.331  15.648  68.916  1.00  0.00    -0.223 A  
HETATM   20  C   UNL     1      -9.433  14.308  68.519  1.00  0.00    -0.206 A  
HETATM   21  C   UNL     1      -8.295  13.619  68.108  1.00  0.00    -0.166 A  
HETATM   22  C   UNL     1      -7.058  14.260  68.066  1.00  0.00    -0.145 A  
HETATM   23 CL   UNL     1      -8.418  11.959  67.677  1.00  0.00    -0.148 Cl 
HETATM   24  C   UNL     1      -6.963  15.607  68.420  1.00  0.00    -0.115 A  
ENDBRANCH   5   8
TORSDOF 1
ENDMDL
MODEL       16
REMARK 921   NORMALIZED FREE ENERGY PREDICTED BY IDOCK:   -6.37 KCAL/MOL
REMARK 922        TOTAL FREE ENERGY PREDICTED BY IDOCK:   -7.14 KCAL/MOL
REMARK 923 INTER-LIGAND FREE ENERGY PREDICTED BY IDOCK:   -6.74 KCAL/MOL
REMARK 924 INTRA-LIGAND FREE ENERGY PREDICTED BY IDOCK:   -0.40 KCAL/MOL
REMARK 927      BINDING AFFINITY PREDICTED BY RF-SCORE:    0.00 PKD
ROOT
HETATM    1  C   UNL     1      -6.919   8.465  65.450  1.00  0.00    -0.074 C  
HETATM    2  N   UNL     1      -8.005   9.306  64.955  1.00  0.00    -0.115 NA 
HETATM    3  C   UNL     1      -9.327   8.801  65.380  1.00  0.00    -0.024 C  
HETATM    4  C   UNL     1      -9.651   8.982  66.878  1.00  0.00    -0.185 C  
HETATM    5  N   UNL     1      -9.451  10.374  67.309  1.00  0.00    -0.153 NA 
HETATM    6  C   UNL     1      -8.168  10.964  66.900  1.00  0.00    -0.135 C  
HETATM    7  C   UNL     1      -7.871  10.711  65.405  1.00  0.00    -0.070 C  
ENDROOT
BRANCH   5   8
HETATM    8  C   UNL     1     -10.422  11.119  67.981  1.00  0.00    -0.188 C  
HETATM    9  N   UNL     1     -10.610  10.921  69.258  1.00  0.00    -0.242 NA 
HETATM   10  C   UNL     1     -11.545  11.640  70.023  1.00  0.00    -0.255 A  
HETATM   11  H   UNL     1     -10.048  10.209  69.725  1.00  0.00     0.000 HD 
HETATM   12  C   UNL     1     -12.219  10.952  71.039  1.00  0.00    -0.464 A  
HETATM   13  C   UNL     1     -13.127  11.605  71.879  1.00  0.00    -0.490 A  
HETATM   14  C   UNL     1     -13.361  12.971  71.729  1.00  0.00    -0.468 A  
HETATM   15  C   UNL     1     -12.683  13.681  70.741  1.00  0.00    -0.338 A  
HETATM   16  C   UNL     1     -11.793  13.015  69.892  1.00  0.00    -0.307 A  
HETATM   17  O   UNL     1     -11.176  13.775  68.924  1.00  0.00    -0.248 OA 
HETATM   18  C   UNL     1     -11.508  13.375  67.654  1.00  0.00    -0.319 A  
HETATM   19  C   UNL     1     -11.227  12.096  67.178  1.00  0.00    -0.372 A  
HETATM   20  C   UNL     1     -11.660  11.722  65.899  1.00  0.00    -0.200 A  
HETATM   21  C   UNL     1     -12.299  12.652  65.085  1.00  0.00    -0.484 A  
HETATM   22  C   UNL     1     -12.532  13.949  65.542  1.00  0.00    -0.541 A  
HETATM   23 CL   UNL     1     -12.777  12.203  63.495  1.00  0.00    -0.623 Cl 
HETATM   24  C   UNL     1     -12.139  14.310  66.831  1.00  0.00    -0.440 A  
ENDBRANCH   5   8
TORSDOF 1
ENDMDL
MODEL       17
REMARK 921   NORMALIZED FREE ENERGY PREDICTED BY IDOCK:   -6.32 KCAL/MOL
REMARK 922        TOTAL FREE ENERGY PREDICTED BY IDOCK:   -7.08 KCAL/MOL
REMARK 923 INTER-LIGAND FREE ENERGY PREDICTED BY IDOCK:   -6.71 KCAL/MOL
REMARK 924 INTRA-LIGAND FREE ENERGY PREDICTED BY IDOCK:   -0.37 KCAL/MOL
REMARK 927      BINDING AFFINITY PREDICTED BY RF-SCORE:    0.00 PKD
ROOT
HETATM    1  C   UNL     1     -10.321  19.304  66.330  1.00  0.00    -0.480 C  
HETATM    2  N   UNL     1      -9.317  18.353  66.801  1.00  0.00    -0.287 NA 
HETATM    3  C   UNL     1      -9.431  18.111  68.254  1.00  0.00    -0.307 C  
HETATM    4  C   UNL     1     -10.659  17.281  68.689  1.00  0.00    -0.329 C  
HETATM    5  N   UNL     1     -10.756  16.024  67.932  1.00  0.00    -0.307 NA 
HETATM    6  C   UNL     1     -10.621  16.174  66.475  1.00  0.00    -0.268 C  
HETATM    7  C   UNL     1      -9.408  17.052  66.098  1.00  0.00    -0.214 C  
ENDROOT
BRANCH   5   8
HETATM    8  C   UNL     1     -10.881  14.770  68.533  1.00  0.00    -0.252 C  
HETATM    9  N   UNL     1     -11.924  14.521  69.279  1.00  0.00    -0.382 NA 
HETATM   10  C   UNL     1     -12.149  13.282  69.905  1.00  0.00    -0.308 A  
HETATM   11  H   UNL     1     -12.610  15.264  69.415  1.00  0.00     0.000 HD 
HETATM   12  C   UNL     1     -12.740  13.293  71.174  1.00  0.00    -0.404 A  
HETATM   13  C   UNL     1     -13.045  12.103  71.843  1.00  0.00    -0.475 A  
HETATM   14  C   UNL     1     -12.783  10.875  71.239  1.00  0.00    -0.542 A  
HETATM   15  C   UNL     1     -12.218  10.839  69.967  1.00  0.00    -0.409 A  
HETATM   16  C   UNL     1     -11.896  12.035  69.315  1.00  0.00    -0.318 A  
HETATM   17  O   UNL     1     -11.320  11.924  68.069  1.00  0.00    -0.244 OA 
HETATM   18  C   UNL     1     -10.049  12.440  68.033  1.00  0.00    -0.214 A  
HETATM   19  C   UNL     1      -9.780  13.779  68.310  1.00  0.00    -0.231 A  
HETATM   20  C   UNL     1      -8.453  14.229  68.333  1.00  0.00    -0.166 A  
HETATM   21  C   UNL     1      -7.420  13.355  68.004  1.00  0.00    -0.139 A  
HETATM   22  C   UNL     1      -7.695  12.029  67.674  1.00  0.00    -0.144 A  
HETATM   23 CL   UNL     1      -5.799  13.929  67.980  1.00  0.00    -0.127 Cl 
HETATM   24  C   UNL     1      -9.012  11.568  67.693  1.00  0.00    -0.160 A  
ENDBRANCH   5   8
TORSDOF 1
ENDMDL
MODEL       18
REMARK 921   NORMALIZED FREE ENERGY PREDICTED BY IDOCK:   -6.25 KCAL/MOL
REMARK 922        TOTAL FREE ENERGY PREDICTED BY IDOCK:   -7.01 KCAL/MOL
REMARK 923 INTER-LIGAND FREE ENERGY PREDICTED BY IDOCK:   -6.60 KCAL/MOL
REMARK 924 INTRA-LIGAND FREE ENERGY PREDICTED BY IDOCK:   -0.41 KCAL/MOL
REMARK 927      BINDING AFFINITY PREDICTED BY RF-SCORE:    0.00 PKD
ROOT
HETATM    1  C   UNL     1     -12.736  11.812  63.830  1.00  0.00    -0.255 C  
HETATM    2  N   UNL     1     -11.504  11.871  64.613  1.00  0.00    -0.307 NA 
HETATM    3  C   UNL     1     -10.542  12.840  64.049  1.00  0.00    -0.416 C  
HETATM    4  C   UNL     1     -10.922  14.326  64.229  1.00  0.00    -0.028 C  
HETATM    5  N   UNL     1     -11.229  14.639  65.633  1.00  0.00    -0.335 NA 
HETATM    6  C   UNL     1     -12.159  13.702  66.280  1.00  0.00    -0.434 C  
HETATM    7  C   UNL     1     -11.761  12.231  66.027  1.00  0.00    -0.388 C  
ENDROOT
BRANCH   5   8
HETATM    8  C   UNL     1     -10.631  15.686  66.337  1.00  0.00    -0.308 C  
HETATM    9  N   UNL     1     -11.032  16.910  66.123  1.00  0.00     0.045 NA 
HETATM   10  C   UNL     1     -10.509  18.026  66.801  1.00  0.00    -0.328 A  
HETATM   11  H   UNL     1     -11.763  17.066  65.428  1.00  0.00     0.000 HD 
HETATM   12  C   UNL     1     -10.373  19.218  66.082  1.00  0.00    -0.578 A  
HETATM   13  C   UNL     1      -9.909  20.387  66.695  1.00  0.00    -0.496 A  
HETATM   14  C   UNL     1      -9.593  20.386  68.052  1.00  0.00    -0.323 A  
HETATM   15  C   UNL     1      -9.744  19.217  68.794  1.00  0.00    -0.510 A  
HETATM   16  C   UNL     1     -10.188  18.048  68.167  1.00  0.00    -0.384 A  
HETATM   17  O   UNL     1     -10.292  16.925  68.957  1.00  0.00    -0.297 OA 
HETATM   18  C   UNL     1      -9.446  15.922  68.554  1.00  0.00    -0.209 A  
HETATM   19  C   UNL     1      -9.527  15.342  67.289  1.00  0.00    -0.212 A  
HETATM   20  C   UNL     1      -8.585  14.377  66.909  1.00  0.00    -0.191 A  
HETATM   21  C   UNL     1      -7.625  13.948  67.821  1.00  0.00    -0.169 A  
HETATM   22  C   UNL     1      -7.579  14.490  69.105  1.00  0.00    -0.102 A  
HETATM   23 CL   UNL     1      -6.509  12.722  67.366  1.00  0.00    -0.160 Cl 
HETATM   24  C   UNL     1      -8.490  15.483  69.471  1.00  0.00    -0.211 A  
ENDBRANCH   5   8
TORSDOF 1
ENDMDL
MODEL       19
REMARK 921   NORMALIZED FREE ENERGY PREDICTED BY IDOCK:   -6.24 KCAL/MOL
REMARK 922        TOTAL FREE ENERGY PREDICTED BY IDOCK:   -7.00 KCAL/MOL
REMARK 923 INTER-LIGAND FREE ENERGY PREDICTED BY IDOCK:   -6.61 KCAL/MOL
REMARK 924 INTRA-LIGAND FREE ENERGY PREDICTED BY IDOCK:   -0.39 KCAL/MOL
REMARK 927      BINDING AFFINITY PREDICTED BY RF-SCORE:    0.00 PKD
ROOT
HETATM    1  C   UNL     1     -10.594   8.951  72.007  1.00  0.00    -0.318 C  
HETATM    2  N   UNL     1     -11.444   8.841  70.824  1.00  0.00    -0.277 NA 
HETATM    3  C   UNL     1     -12.384   9.975  70.718  1.00  0.00    -0.303 C  
HETATM    4  C   UNL     1     -11.745  11.327  70.333  1.00  0.00    -0.304 C  
HETATM    5  N   UNL     1     -10.918  11.208  69.123  1.00  0.00    -0.227 NA 
HETATM    6  C   UNL     1      -9.973  10.082  69.135  1.00  0.00    -0.204 C  
HETATM    7  C   UNL     1     -10.653   8.766  69.574  1.00  0.00    -0.219 C  
ENDROOT
BRANCH   5   8
HETATM    8  C   UNL     1     -11.061  12.035  68.008  1.00  0.00    -0.241 C  
HETATM    9  N   UNL     1     -11.668  11.577  66.946  1.00  0.00    -0.513 NA 
HETATM   10  C   UNL     1     -11.882  12.343  65.786  1.00  0.00    -0.406 A  
HETATM   11  H   UNL     1     -12.004  10.614  66.958  1.00  0.00     0.000 HD 
HETATM   12  C   UNL     1     -11.798  11.690  64.551  1.00  0.00    -0.138 A  
HETATM   13  C   UNL     1     -12.047  12.366  63.353  1.00  0.00    -0.620 A  
HETATM   14  C   UNL     1     -12.410  13.712  63.373  1.00  0.00    -0.167 A  
HETATM   15  C   UNL     1     -12.524  14.377  64.591  1.00  0.00    -0.364 A  
HETATM   16  C   UNL     1     -12.250  13.697  65.783  1.00  0.00    -0.464 A  
HETATM   17  O   UNL     1     -12.362  14.422  66.948  1.00  0.00    -0.371 OA 
HETATM   18  C   UNL     1     -11.167  14.527  67.614  1.00  0.00    -0.322 A  
HETATM   19  C   UNL     1     -10.475  13.412  68.084  1.00  0.00    -0.250 A  
HETATM   20  C   UNL     1      -9.222  13.579  68.689  1.00  0.00    -0.022 A  
HETATM   21  C   UNL     1      -8.712  14.859  68.885  1.00  0.00    -0.180 A  
HETATM   22  C   UNL     1      -9.430  15.977  68.463  1.00  0.00    -0.216 A  
HETATM   23 CL   UNL     1      -7.200  15.058  69.679  1.00  0.00    -0.194 Cl 
HETATM   24  C   UNL     1     -10.659  15.811  67.822  1.00  0.00    -0.292 A  
ENDBRANCH   5   8
TORSDOF 1
ENDMDL
MODEL       20
REMARK 921   NORMALIZED FREE ENERGY PREDICTED BY IDOCK:   -6.20 KCAL/MOL
REMARK 922        TOTAL FREE ENERGY PREDICTED BY IDOCK:   -6.96 KCAL/MOL
REMARK 923 INTER-LIGAND FREE ENERGY PREDICTED BY IDOCK:   -6.78 KCAL/MOL
REMARK 924 INTRA-LIGAND FREE ENERGY PREDICTED BY IDOCK:   -0.18 KCAL/MOL
REMARK 927      BINDING AFFINITY PREDICTED BY RF-SCORE:    0.00 PKD
ROOT
HETATM    1  C   UNL     1     -12.018   8.300  72.083  1.00  0.00    -0.369 C  
HETATM    2  N   UNL     1     -11.330   9.561  71.816  1.00  0.00    -0.330 NA 
HETATM    3  C   UNL     1     -10.115   9.360  71.001  1.00  0.00    -0.283 C  
HETATM    4  C   UNL     1     -10.366   8.995  69.522  1.00  0.00    -0.209 C  
HETATM    5  N   UNL     1     -11.284   9.947  68.880  1.00  0.00    -0.136 NA 
HETATM    6  C   UNL     1     -12.510  10.227  69.643  1.00  0.00     0.195 C  
HETATM    7  C   UNL     1     -12.205  10.537  71.125  1.00  0.00    -0.391 C  
ENDROOT
BRANCH   5   8
HETATM    8  C   UNL     1     -10.996  10.608  67.683  1.00  0.00    -0.310 C  
HETATM    9  N   UNL     1     -10.554   9.920  66.665  1.00  0.00    -0.159 NA 
HETATM   10  C   UNL     1     -10.261  10.493  65.414  1.00  0.00    -0.270 A  
HETATM   11  H   UNL     1     -10.413   8.917  66.783  1.00  0.00     0.000 HD 
HETATM   12  C   UNL     1      -9.170   9.978  64.704  1.00  0.00    -0.310 A  
HETATM   13  C   UNL     1      -8.843  10.456  63.431  1.00  0.00    -0.218 A  
HETATM   14  C   UNL     1      -9.620  11.447  62.834  1.00  0.00    -0.366 A  
HETATM   15  C   UNL     1     -10.724  11.957  63.512  1.00  0.00    -0.504 A  
HETATM   16  C   UNL     1     -11.031  11.488  64.795  1.00  0.00    -0.273 A  
HETATM   17  O   UNL     1     -12.124  12.053  65.414  1.00  0.00    -0.444 OA 
HETATM   18  C   UNL     1     -11.785  12.726  66.560  1.00  0.00    -0.400 A  
HETATM   19  C   UNL     1     -11.185  12.094  67.648  1.00  0.00    -0.345 A  
HETATM   20  C   UNL     1     -10.792  12.851  68.759  1.00  0.00    -0.277 A  
HETATM   21  C   UNL     1     -11.071  14.214  68.802  1.00  0.00    -0.262 A  
HETATM   22  C   UNL     1     -11.719  14.836  67.737  1.00  0.00    -0.368 A  
HETATM   23 CL   UNL     1     -10.636  15.125  70.194  1.00  0.00    -0.261 Cl 
HETATM   24  C   UNL     1     -12.074  14.092  66.610  1.00  0.00    -0.487 A  
ENDBRANCH   5   8
TORSDOF 1
ENDMDL
MODEL       21
REMARK 921   NORMALIZED FREE ENERGY PREDICTED BY IDOCK:   -6.10 KCAL/MOL
REMARK 922        TOTAL FREE ENERGY PREDICTED BY IDOCK:   -6.85 KCAL/MOL
REMARK 923 INTER-LIGAND FREE ENERGY PREDICTED BY IDOCK:   -6.54 KCAL/MOL
REMARK 924 INTRA-LIGAND FREE ENERGY PREDICTED BY IDOCK:   -0.31 KCAL/MOL
REMARK 927      BINDING AFFINITY PREDICTED BY RF-SCORE:    0.00 PKD
ROOT
HETATM    1  C   UNL     1      -8.587   7.035  67.246  1.00  0.00    -0.121 C  
HETATM    2  N   UNL     1      -8.920   7.660  68.524  1.00  0.00    -0.130 NA 
HETATM    3  C   UNL     1      -8.218   8.947  68.704  1.00  0.00    -0.116 C  
HETATM    4  C   UNL     1      -8.727  10.105  67.819  1.00  0.00    -0.121 C  
HETATM    5  N   UNL     1     -10.183  10.274  67.937  1.00  0.00    -0.173 NA 
HETATM    6  C   UNL     1     -10.958   9.031  67.800  1.00  0.00     0.067 C  
HETATM    7  C   UNL     1     -10.376   7.893  68.668  1.00  0.00    -0.201 C  
ENDROOT
BRANCH   5   8
HETATM    8  C   UNL     1     -10.795  11.492  68.239  1.00  0.00    -0.216 C  
HETATM    9  N   UNL     1     -11.079  11.774  69.482  1.00  0.00    -0.439 NA 
HETATM   10  C   UNL     1     -11.671  12.984  69.885  1.00  0.00    -0.256 A  
HETATM   11  H   UNL     1     -10.860  11.081  70.197  1.00  0.00     0.000 HD 
HETATM   12  C   UNL     1     -12.589  12.938  70.940  1.00  0.00    -0.355 A  
HETATM   13  C   UNL     1     -13.185  14.103  71.436  1.00  0.00    -0.418 A  
HETATM   14  C   UNL     1     -12.851  15.343  70.894  1.00  0.00    -0.536 A  
HETATM   15  C   UNL     1     -11.922  15.416  69.860  1.00  0.00    -0.384 A  
HETATM   16  C   UNL     1     -11.349  14.243  69.356  1.00  0.00    -0.282 A  
HETATM   17  O   UNL     1     -10.454  14.388  68.319  1.00  0.00    -0.234 OA 
HETATM   18  C   UNL     1     -10.885  13.777  67.169  1.00  0.00    -0.283 A  
HETATM   19  C   UNL     1     -11.124  12.405  67.097  1.00  0.00    -0.328 A  
HETATM   20  C   UNL     1     -11.637  11.852  65.917  1.00  0.00    -0.291 A  
HETATM   21  C   UNL     1     -11.831  12.660  64.800  1.00  0.00    -0.380 A  
HETATM   22  C   UNL     1     -11.541  14.023  64.855  1.00  0.00    -0.369 A  
HETATM   23 CL   UNL     1     -12.407  11.963  63.338  1.00  0.00    -0.647 Cl 
HETATM   24  C   UNL     1     -11.070  14.584  66.044  1.00  0.00    -0.329 A  
ENDBRANCH   5   8
TORSDOF 1
ENDMDL
MODEL       22
REMARK 921   NORMALIZED FREE ENERGY PREDICTED BY IDOCK:   -5.93 KCAL/MOL
REMARK 922        TOTAL FREE ENERGY PREDICTED BY IDOCK:   -6.67 KCAL/MOL
REMARK 923 INTER-LIGAND FREE ENERGY PREDICTED BY IDOCK:   -6.26 KCAL/MOL
REMARK 924 INTRA-LIGAND FREE ENERGY PREDICTED BY IDOCK:   -0.40 KCAL/MOL
REMARK 927      BINDING AFFINITY PREDICTED BY RF-SCORE:    0.00 PKD
ROOT
HETATM    1  C   UNL     1     -11.963  14.402  63.854  1.00  0.00    -0.124 C  
HETATM    2  N   UNL     1     -12.841  13.498  64.594  1.00  0.00    -0.680 NA 
HETATM    3  C   UNL     1     -12.326  12.114  64.595  1.00  0.00    -0.272 C  
HETATM    4  C   UNL     1     -11.074  11.877  65.468  1.00  0.00    -0.304 C  
HETATM    5  N   UNL     1     -11.270  12.371  66.839  1.00  0.00    -0.287 NA 
HETATM    6  C   UNL     1     -11.810  13.735  66.927  1.00  0.00    -0.413 C  
HETATM    7  C   UNL     1     -13.029  13.931  65.999  1.00  0.00    -0.090 C  
ENDROOT
BRANCH   5   8
HETATM    8  C   UNL     1     -11.047  11.593  67.977  1.00  0.00    -0.242 C  
HETATM    9  N   UNL     1     -12.069  11.162  68.667  1.00  0.00    -0.679 NA 
HETATM   10  C   UNL     1     -11.945  10.353  69.810  1.00  0.00    -0.171 A  
HETATM   11  H   UNL     1     -13.005  11.426  68.360  1.00  0.00     0.000 HD 
HETATM   12  C   UNL     1     -12.854  10.561  70.854  1.00  0.00    -0.485 A  
HETATM   13  C   UNL     1     -12.832   9.765  72.004  1.00  0.00    -0.491 A  
HETATM   14  C   UNL     1     -11.908   8.729  72.120  1.00  0.00    -0.436 A  
HETATM   15  C   UNL     1     -11.009   8.488  71.084  1.00  0.00    -0.306 A  
HETATM   16  C   UNL     1     -11.025   9.303  69.946  1.00  0.00    -0.213 A  
HETATM   17  O   UNL     1     -10.094   9.021  68.971  1.00  0.00    -0.184 OA 
HETATM   18  C   UNL     1      -9.212  10.055  68.777  1.00  0.00    -0.159 A  
HETATM   19  C   UNL     1      -9.626  11.320  68.364  1.00  0.00    -0.195 A  
HETATM   20  C   UNL     1      -8.687  12.355  68.258  1.00  0.00    -0.175 A  
HETATM   21  C   UNL     1      -7.340  12.095  68.490  1.00  0.00    -0.105 A  
HETATM   22  C   UNL     1      -6.919  10.815  68.851  1.00  0.00    -0.077 A  
HETATM   23 CL   UNL     1      -6.187  13.357  68.303  1.00  0.00    -0.090 Cl 
HETATM   24  C   UNL     1      -7.859   9.793  68.999  1.00  0.00    -0.087 A  
ENDBRANCH   5   8
TORSDOF 1
ENDMDL
MODEL       23
REMARK 921   NORMALIZED FREE ENERGY PREDICTED BY IDOCK:   -5.88 KCAL/MOL
REMARK 922        TOTAL FREE ENERGY PREDICTED BY IDOCK:   -6.62 KCAL/MOL
REMARK 923 INTER-LIGAND FREE ENERGY PREDICTED BY IDOCK:   -6.20 KCAL/MOL
REMARK 924 INTRA-LIGAND FREE ENERGY PREDICTED BY IDOCK:   -0.42 KCAL/MOL
REMARK 927      BINDING AFFINITY PREDICTED BY RF-SCORE:    0.00 PKD
ROOT
HETATM    1  C   UNL     1     -10.398   7.335  73.700  1.00  0.00    -0.352 C  
HETATM    2  N   UNL     1     -10.570   6.986  72.292  1.00  0.00    -0.208 NA 
HETATM    3  C   UNL     1     -11.781   7.607  71.718  1.00  0.00    -0.283 C  
HETATM    4  C   UNL     1     -11.699   9.133  71.499  1.00  0.00    -0.363 C  
HETATM    5  N   UNL     1     -10.499   9.504  70.734  1.00  0.00    -0.296 NA 
HETATM    6  C   UNL     1      -9.250   8.903  71.224  1.00  0.00    -0.258 C  
HETATM    7  C   UNL     1      -9.402   7.386  71.473  1.00  0.00    -0.144 C  
ENDROOT
BRANCH   5   8
HETATM    8  C   UNL     1     -10.533  10.295  69.584  1.00  0.00    -0.253 C  
HETATM    9  N   UNL     1     -10.887  11.548  69.680  1.00  0.00    -0.458 NA 
HETATM   10  C   UNL     1     -10.927  12.428  68.583  1.00  0.00    -0.247 A  
HETATM   11  H   UNL     1     -11.148  11.908  70.598  1.00  0.00     0.000 HD 
HETATM   12  C   UNL     1     -11.947  13.386  68.556  1.00  0.00    -0.363 A  
HETATM   13  C   UNL     1     -12.027  14.331  67.528  1.00  0.00    -0.411 A  
HETATM   14  C   UNL     1     -11.070  14.346  66.516  1.00  0.00    -0.331 A  
HETATM   15  C   UNL     1     -10.032  13.418  66.535  1.00  0.00    -0.286 A  
HETATM   16  C   UNL     1      -9.972  12.462  67.556  1.00  0.00    -0.196 A  
HETATM   17  O   UNL     1      -8.931  11.562  67.500  1.00  0.00    -0.154 OA 
HETATM   18  C   UNL     1      -9.366  10.270  67.345  1.00  0.00    -0.145 A  
HETATM   19  C   UNL     1     -10.185   9.641  68.281  1.00  0.00    -0.216 A  
HETATM   20  C   UNL     1     -10.659   8.347  68.028  1.00  0.00    -0.191 A  
HETATM   21  C   UNL     1     -10.248   7.670  66.884  1.00  0.00    -0.294 A  
HETATM   22  C   UNL     1      -9.385   8.280  65.974  1.00  0.00    -0.217 A  
HETATM   23 CL   UNL     1     -10.789   6.061  66.609  1.00  0.00    -0.343 Cl 
HETATM   24  C   UNL     1      -8.946   9.585  66.203  1.00  0.00    -0.191 A  
ENDBRANCH   5   8
TORSDOF 1
ENDMDL
MODEL       24
REMARK 921   NORMALIZED FREE ENERGY PREDICTED BY IDOCK:   -5.84 KCAL/MOL
REMARK 922        TOTAL FREE ENERGY PREDICTED BY IDOCK:   -6.57 KCAL/MOL
REMARK 923 INTER-LIGAND FREE ENERGY PREDICTED BY IDOCK:   -6.20 KCAL/MOL
REMARK 924 INTRA-LIGAND FREE ENERGY PREDICTED BY IDOCK:   -0.37 KCAL/MOL
REMARK 927      BINDING AFFINITY PREDICTED BY RF-SCORE:    0.00 PKD
ROOT
HETATM    1  C   UNL     1      -8.510   5.517  66.715  1.00  0.00    -0.111 C  
HETATM    2  N   UNL     1      -9.214   5.840  67.954  1.00  0.00    -0.109 NA 
HETATM    3  C   UNL     1      -8.436   6.767  68.801  1.00  0.00    -0.124 C  
HETATM    4  C   UNL     1      -8.346   8.218  68.281  1.00  0.00    -0.132 C  
HETATM    5  N   UNL     1      -9.677   8.766  67.979  1.00  0.00    -0.153 NA 
HETATM    6  C   UNL     1     -10.530   7.890  67.162  1.00  0.00    -0.344 C  
HETATM    7  C   UNL     1     -10.544   6.441  67.698  1.00  0.00    -0.274 C  
ENDROOT
BRANCH   5   8
HETATM    8  C   UNL     1     -10.143   9.980  68.487  1.00  0.00    -0.169 C  
HETATM    9  N   UNL     1      -9.803  11.093  67.895  1.00  0.00    -0.170 NA 
HETATM   10  C   UNL     1     -10.243  12.361  68.317  1.00  0.00    -0.229 A  
HETATM   11  H   UNL     1      -9.186  11.041  67.084  1.00  0.00     0.000 HD 
HETATM   12  C   UNL     1      -9.346  13.429  68.208  1.00  0.00    -0.205 A  
HETATM   13  C   UNL     1      -9.721  14.730  68.558  1.00  0.00    -0.218 A  
HETATM   14  C   UNL     1     -11.015  14.989  69.005  1.00  0.00    -0.253 A  
HETATM   15  C   UNL     1     -11.932  13.945  69.099  1.00  0.00    -0.404 A  
HETATM   16  C   UNL     1     -11.541  12.643  68.767  1.00  0.00    -0.313 A  
HETATM   17  O   UNL     1     -12.493  11.658  68.905  1.00  0.00    -0.266 OA 
HETATM   18  C   UNL     1     -12.141  10.719  69.842  1.00  0.00    -0.337 A  
HETATM   19  C   UNL     1     -10.994   9.937  69.720  1.00  0.00    -0.304 A  
HETATM   20  C   UNL     1     -10.648   9.050  70.747  1.00  0.00    -0.300 A  
HETATM   21  C   UNL     1     -11.490   8.899  71.845  1.00  0.00    -0.372 A  
HETATM   22  C   UNL     1     -12.665   9.642  71.941  1.00  0.00    -0.499 A  
HETATM   23 CL   UNL     1     -11.086   7.767  73.075  1.00  0.00    -0.463 Cl 
HETATM   24  C   UNL     1     -12.990  10.558  70.939  1.00  0.00    -0.455 A  
ENDBRANCH   5   8
TORSDOF 1
ENDMDL
MODEL       25
REMARK 921   NORMALIZED FREE ENERGY PREDICTED BY IDOCK:   -5.81 KCAL/MOL
REMARK 922        TOTAL FREE ENERGY PREDICTED BY IDOCK:   -6.54 KCAL/MOL
REMARK 923 INTER-LIGAND FREE ENERGY PREDICTED BY IDOCK:   -6.12 KCAL/MOL
REMARK 924 INTRA-LIGAND FREE ENERGY PREDICTED BY IDOCK:   -0.42 KCAL/MOL
REMARK 927      BINDING AFFINITY PREDICTED BY RF-SCORE:    0.00 PKD
ROOT
HETATM    1  C   UNL     1      -9.021   5.463  65.715  1.00  0.00    -0.158 C  
HETATM    2  N   UNL     1      -8.787   5.508  67.156  1.00  0.00    -0.107 NA 
HETATM    3  C   UNL     1      -8.141   6.771  67.567  1.00  0.00    -0.115 C  
HETATM    4  C   UNL     1      -9.043   8.023  67.509  1.00  0.00    -0.137 C  
HETATM    5  N   UNL     1     -10.306   7.812  68.234  1.00  0.00    -0.201 NA 
HETATM    6  C   UNL     1     -11.000   6.559  67.904  1.00  0.00    -0.294 C  
HETATM    7  C   UNL     1     -10.041   5.348  67.929  1.00  0.00    -0.168 C  
ENDROOT
BRANCH   5   8
HETATM    8  C   UNL     1     -10.781   8.678  69.220  1.00  0.00    -0.136 C  
HETATM    9  N   UNL     1     -11.297   9.825  68.868  1.00  0.00    -0.471 NA 
HETATM   10  C   UNL     1     -11.824  10.751  69.787  1.00  0.00    -0.335 A  
HETATM   11  H   UNL     1     -11.320  10.061  67.876  1.00  0.00     0.000 HD 
HETATM   12  C   UNL     1     -11.638  12.111  69.516  1.00  0.00    -0.382 A  
HETATM   13  C   UNL     1     -12.175  13.097  70.351  1.00  0.00    -0.389 A  
HETATM   14  C   UNL     1     -12.929  12.735  71.465  1.00  0.00    -0.388 A  
HETATM   15  C   UNL     1     -13.148  11.387  71.741  1.00  0.00    -0.523 A  
HETATM   16  C   UNL     1     -12.589  10.408  70.912  1.00  0.00    -0.383 A  
HETATM   17  O   UNL     1     -12.827   9.097  71.257  1.00  0.00    -0.315 OA 
HETATM   18  C   UNL     1     -11.675   8.420  71.567  1.00  0.00    -0.290 A  
HETATM   19  C   UNL     1     -10.640   8.249  70.648  1.00  0.00    -0.235 A  
HETATM   20  C   UNL     1      -9.456   7.616  71.049  1.00  0.00    -0.164 A  
HETATM   21  C   UNL     1      -9.350   7.095  72.335  1.00  0.00    -0.134 A  
HETATM   22  C   UNL     1     -10.406   7.219  73.237  1.00  0.00    -0.389 A  
HETATM   23 CL   UNL     1      -7.915   6.270  72.801  1.00  0.00    -0.105 Cl 
HETATM   24  C   UNL     1     -11.570   7.887  72.853  1.00  0.00    -0.303 A  
ENDBRANCH   5   8
TORSDOF 1
ENDMDL
MODEL       26
REMARK 921   NORMALIZED FREE ENERGY PREDICTED BY IDOCK:   -5.77 KCAL/MOL
REMARK 922        TOTAL FREE ENERGY PREDICTED BY IDOCK:   -6.50 KCAL/MOL
REMARK 923 INTER-LIGAND FREE ENERGY PREDICTED BY IDOCK:   -6.07 KCAL/MOL
REMARK 924 INTRA-LIGAND FREE ENERGY PREDICTED BY IDOCK:   -0.43 KCAL/MOL
REMARK 927      BINDING AFFINITY PREDICTED BY RF-SCORE:    0.00 PKD
ROOT
HETATM    1  C   UNL     1     -13.035  13.600  65.271  1.00  0.00    -0.259 C  
HETATM    2  N   UNL     1     -11.685  13.277  65.725  1.00  0.00    -0.342 NA 
HETATM    3  C   UNL     1     -10.655  13.891  64.863  1.00  0.00    -0.419 C  
HETATM    4  C   UNL     1     -10.510  15.422  64.998  1.00  0.00    -0.381 C  
HETATM    5  N   UNL     1     -10.337  15.826  66.401  1.00  0.00    -0.289 NA 
HETATM    6  C   UNL     1     -11.307  15.233  67.334  1.00  0.00    -0.284 C  
HETATM    7  C   UNL     1     -11.449  13.710  67.122  1.00  0.00    -0.342 C  
ENDROOT
BRANCH   5   8
HETATM    8  C   UNL     1      -9.292  16.639  66.845  1.00  0.00    -0.231 C  
HETATM    9  N   UNL     1      -9.303  17.911  66.551  1.00  0.00    -0.281 NA 
HETATM   10  C   UNL     1      -8.309  18.812  66.974  1.00  0.00    -0.272 A  
HETATM   11  H   UNL     1     -10.071  18.270  65.984  1.00  0.00     0.000 HD 
HETATM   12  C   UNL     1      -7.944  19.837  66.094  1.00  0.00    -0.351 A  
HETATM   13  C   UNL     1      -7.001  20.804  66.457  1.00  0.00    -0.278 A  
HETATM   14  C   UNL     1      -6.422  20.775  67.724  1.00  0.00    -0.380 A  
HETATM   15  C   UNL     1      -6.788  19.778  68.626  1.00  0.00    -0.357 A  
HETATM   16  C   UNL     1      -7.715  18.802  68.245  1.00  0.00    -0.299 A  
HETATM   17  O   UNL     1      -8.014  17.835  69.179  1.00  0.00    -0.124 OA 
HETATM   18  C   UNL     1      -7.652  16.578  68.764  1.00  0.00    -0.219 A  
HETATM   19  C   UNL     1      -8.187  15.988  67.620  1.00  0.00    -0.162 A  
HETATM   20  C   UNL     1      -7.720  14.734  67.205  1.00  0.00    -0.214 A  
HETATM   21  C   UNL     1      -6.784  14.053  67.978  1.00  0.00    -0.144 A  
HETATM   22  C   UNL     1      -6.290  14.620  69.152  1.00  0.00    -0.106 A  
HETATM   23 CL   UNL     1      -6.259  12.489  67.492  1.00  0.00    -0.143 Cl 
HETATM   24  C   UNL     1      -6.722  15.889  69.544  1.00  0.00    -0.192 A  
ENDBRANCH   5   8
TORSDOF 1
ENDMDL
MODEL       27
REMARK 921   NORMALIZED FREE ENERGY PREDICTED BY IDOCK:   -5.76 KCAL/MOL
REMARK 922        TOTAL FREE ENERGY PREDICTED BY IDOCK:   -6.50 KCAL/MOL
REMARK 923 INTER-LIGAND FREE ENERGY PREDICTED BY IDOCK:   -6.15 KCAL/MOL
REMARK 924 INTRA-LIGAND FREE ENERGY PREDICTED BY IDOCK:   -0.34 KCAL/MOL
REMARK 927      BINDING AFFINITY PREDICTED BY RF-SCORE:    0.00 PKD
ROOT
HETATM    1  C   UNL     1      -9.028  19.838  66.194  1.00  0.00    -0.336 C  
HETATM    2  N   UNL     1     -10.340  19.260  66.477  1.00  0.00    -0.414 NA 
HETATM    3  C   UNL     1     -10.502  17.935  65.845  1.00  0.00    -0.253 C  
HETATM    4  C   UNL     1      -9.680  16.795  66.485  1.00  0.00    -0.283 C  
HETATM    5  N   UNL     1      -9.899  16.721  67.937  1.00  0.00    -0.251 NA 
HETATM    6  C   UNL     1      -9.785  18.007  68.640  1.00  0.00    -0.350 C  
HETATM    7  C   UNL     1     -10.586  19.122  67.931  1.00  0.00    -0.365 C  
ENDROOT
BRANCH   5   8
HETATM    8  C   UNL     1     -10.269  15.550  68.602  1.00  0.00    -0.216 C  
HETATM    9  N   UNL     1     -11.373  15.532  69.299  1.00  0.00    -0.300 NA 
HETATM   10  C   UNL     1     -11.840  14.394  69.980  1.00  0.00    -0.315 A  
HETATM   11  H   UNL     1     -11.926  16.389  69.352  1.00  0.00     0.000 HD 
HETATM   12  C   UNL     1     -12.479  14.590  71.210  1.00  0.00    -0.416 A  
HETATM   13  C   UNL     1     -13.018  13.517  71.927  1.00  0.00    -0.431 A  
HETATM   14  C   UNL     1     -12.945  12.224  71.411  1.00  0.00    -0.354 A  
HETATM   15  C   UNL     1     -12.335  12.008  70.178  1.00  0.00    -0.230 A  
HETATM   16  C   UNL     1     -11.780  13.086  69.478  1.00  0.00    -0.317 A  
HETATM   17  O   UNL     1     -11.174  12.795  68.276  1.00  0.00    -0.237 OA 
HETATM   18  C   UNL     1      -9.832  13.084  68.285  1.00  0.00    -0.225 A  
HETATM   19  C   UNL     1      -9.348  14.373  68.500  1.00  0.00    -0.204 A  
HETATM   20  C   UNL     1      -7.966  14.590  68.574  1.00  0.00    -0.142 A  
HETATM   21  C   UNL     1      -7.086  13.534  68.357  1.00  0.00    -0.107 A  
HETATM   22  C   UNL     1      -7.571  12.254  68.088  1.00  0.00    -0.127 A  
HETATM   23 CL   UNL     1      -5.390  13.820  68.393  1.00  0.00    -0.092 Cl 
HETATM   24  C   UNL     1      -8.948  12.028  68.056  1.00  0.00    -0.187 A  
ENDBRANCH   5   8
TORSDOF 1
ENDMDL
MODEL       28
REMARK 921   NORMALIZED FREE ENERGY PREDICTED BY IDOCK:   -5.70 KCAL/MOL
REMARK 922        TOTAL FREE ENERGY PREDICTED BY IDOCK:   -6.42 KCAL/MOL
REMARK 923 INTER-LIGAND FREE ENERGY PREDICTED BY IDOCK:   -6.00 KCAL/MOL
REMARK 924 INTRA-LIGAND FREE ENERGY PREDICTED BY IDOCK:   -0.42 KCAL/MOL
REMARK 927      BINDING AFFINITY PREDICTED BY RF-SCORE:    0.00 PKD
ROOT
HETATM    1  C   UNL     1     -10.965   7.017  70.848  1.00  0.00    -0.253 C  
HETATM    2  N   UNL     1      -9.862   7.938  70.581  1.00  0.00    -0.184 NA 
HETATM    3  C   UNL     1      -9.507   7.966  69.147  1.00  0.00    -0.155 C  
HETATM    4  C   UNL     1     -10.531   8.667  68.228  1.00  0.00    -0.184 C  
HETATM    5  N   UNL     1     -10.865  10.012  68.719  1.00  0.00    -0.221 NA 
HETATM    6  C   UNL     1     -11.202  10.077  70.149  1.00  0.00    -0.304 C  
HETATM    7  C   UNL     1     -10.173   9.319  71.016  1.00  0.00    -0.314 C  
ENDROOT
BRANCH   5   8
HETATM    8  C   UNL     1     -10.791  11.161  67.928  1.00  0.00    -0.235 C  
HETATM    9  N   UNL     1     -11.710  11.375  67.025  1.00  0.00    -0.508 NA 
HETATM   10  C   UNL     1     -11.734  12.513  66.200  1.00  0.00    -0.409 A  
HETATM   11  H   UNL     1     -12.449  10.680  66.913  1.00  0.00     0.000 HD 
HETATM   12  C   UNL     1     -12.173  12.351  64.882  1.00  0.00    -0.485 A  
HETATM   13  C   UNL     1     -12.276  13.441  64.011  1.00  0.00    -0.466 A  
HETATM   14  C   UNL     1     -11.961  14.723  64.456  1.00  0.00    -0.451 A  
HETATM   15  C   UNL     1     -11.545  14.913  65.772  1.00  0.00    -0.234 A  
HETATM   16  C   UNL     1     -11.424  13.813  66.628  1.00  0.00    -0.345 A  
HETATM   17  O   UNL     1     -10.987  14.072  67.908  1.00  0.00    -0.240 OA 
HETATM   18  C   UNL     1      -9.788  13.463  68.184  1.00  0.00    -0.234 A  
HETATM   19  C   UNL     1      -9.627  12.079  68.144  1.00  0.00    -0.200 A  
HETATM   20  C   UNL     1      -8.360  11.523  68.359  1.00  0.00    -0.154 A  
HETATM   21  C   UNL     1      -7.288  12.347  68.686  1.00  0.00    -0.102 A  
HETATM   22  C   UNL     1      -7.461  13.728  68.779  1.00  0.00    -0.098 A  
HETATM   23 CL   UNL     1      -5.748  11.651  69.004  1.00  0.00    -0.050 Cl 
HETATM   24  C   UNL     1      -8.713  14.288  68.523  1.00  0.00    -0.175 A  
ENDBRANCH   5   8
TORSDOF 1
ENDMDL
MODEL       29
REMARK 921   NORMALIZED FREE ENERGY PREDICTED BY IDOCK:   -5.69 KCAL/MOL
REMARK 922        TOTAL FREE ENERGY PREDICTED BY IDOCK:   -6.42 KCAL/MOL
REMARK 923 INTER-LIGAND FREE ENERGY PREDICTED BY IDOCK:   -6.16 KCAL/MOL
REMARK 924 INTRA-LIGAND FREE ENERGY PREDICTED BY IDOCK:   -0.26 KCAL/MOL
REMARK 927      BINDING AFFINITY PREDICTED BY RF-SCORE:    0.00 PKD
ROOT
HETATM    1  C   UNL     1     -11.926  14.832  64.226  1.00  0.00    -0.368 C  
HETATM    2  N   UNL     1     -12.728  13.941  65.061  1.00  0.00    -0.691 NA 
HETATM    3  C   UNL     1     -12.636  12.537  64.610  1.00  0.00    -0.426 C  
HETATM    4  C   UNL     1     -11.283  11.844  64.884  1.00  0.00    -0.292 C  
HETATM    5  N   UNL     1     -10.886  11.976  66.294  1.00  0.00    -0.267 NA 
HETATM    6  C   UNL     1     -10.978  13.341  66.832  1.00  0.00    -0.283 C  
HETATM    7  C   UNL     1     -12.329  14.004  66.487  1.00  0.00    -0.404 C  
ENDROOT
BRANCH   5   8
HETATM    8  C   UNL     1     -10.528  10.891  67.098  1.00  0.00    -0.237 C  
HETATM    9  N   UNL     1     -11.085  10.754  68.271  1.00  0.00    -0.250 NA 
HETATM   10  C   UNL     1     -10.807   9.683  69.139  1.00  0.00    -0.190 A  
HETATM   11  H   UNL     1     -11.755  11.461  68.574  1.00  0.00     0.000 HD 
HETATM   12  C   UNL     1     -10.779   9.950  70.512  1.00  0.00    -0.382 A  
HETATM   13  C   UNL     1     -10.561   8.931  71.445  1.00  0.00    -0.374 A  
HETATM   14  C   UNL     1     -10.390   7.616  71.018  1.00  0.00    -0.208 A  
HETATM   15  C   UNL     1     -10.438   7.323  69.657  1.00  0.00    -0.239 A  
HETATM   16  C   UNL     1     -10.634   8.352  68.730  1.00  0.00    -0.125 A  
HETATM   17  O   UNL     1     -10.649   7.992  67.401  1.00  0.00    -0.282 OA 
HETATM   18  C   UNL     1      -9.625   8.569  66.692  1.00  0.00    -0.227 A  
HETATM   19  C   UNL     1      -9.487   9.951  66.571  1.00  0.00    -0.230 A  
HETATM   20  C   UNL     1      -8.377  10.480  65.900  1.00  0.00    -0.161 A  
HETATM   21  C   UNL     1      -7.462   9.625  65.293  1.00  0.00    -0.113 A  
HETATM   22  C   UNL     1      -7.630   8.243  65.368  1.00  0.00    -0.096 A  
HETATM   23 CL   UNL     1      -6.133  10.283  64.422  1.00  0.00    -0.135 Cl 
HETATM   24  C   UNL     1      -8.712   7.713  66.073  1.00  0.00    -0.178 A  
ENDBRANCH   5   8
TORSDOF 1
ENDMDL
MODEL       30
REMARK 921   NORMALIZED FREE ENERGY PREDICTED BY IDOCK:   -5.59 KCAL/MOL
REMARK 922        TOTAL FREE ENERGY PREDICTED BY IDOCK:   -6.31 KCAL/MOL
REMARK 923 INTER-LIGAND FREE ENERGY PREDICTED BY IDOCK:   -5.91 KCAL/MOL
REMARK 924 INTRA-LIGAND FREE ENERGY PREDICTED BY IDOCK:   -0.40 KCAL/MOL
REMARK 927      BINDING AFFINITY PREDICTED BY RF-SCORE:    0.00 PKD
ROOT
HETATM    1  C   UNL     1     -10.216  17.910  68.776  1.00  0.00    -0.360 C  
HETATM    2  N   UNL     1     -10.609  16.633  69.366  1.00  0.00    -0.329 NA 
HETATM    3  C   UNL     1     -11.621  15.938  68.545  1.00  0.00    -0.349 C  
HETATM    4  C   UNL     1     -11.099  15.349  67.216  1.00  0.00    -0.302 C  
HETATM    5  N   UNL     1      -9.915  14.503  67.429  1.00  0.00    -0.227 NA 
HETATM    6  C   UNL     1      -8.869  15.111  68.264  1.00  0.00    -0.173 C  
HETATM    7  C   UNL     1      -9.452  15.727  69.555  1.00  0.00    -0.248 C  
ENDROOT
BRANCH   5   8
HETATM    8  C   UNL     1      -9.809  13.194  66.954  1.00  0.00    -0.249 C  
HETATM    9  N   UNL     1      -9.517  12.992  65.698  1.00  0.00    -0.469 NA 
HETATM   10  C   UNL     1      -9.364  11.712  65.135  1.00  0.00    -0.061 A  
HETATM   11  H   UNL     1      -9.393  13.804  65.093  1.00  0.00     0.000 HD 
HETATM   12  C   UNL     1      -9.808  11.522  63.822  1.00  0.00    -0.348 A  
HETATM   13  C   UNL     1      -9.647  10.294  63.171  1.00  0.00    -0.295 A  
HETATM   14  C   UNL     1      -9.014   9.237  63.821  1.00  0.00    -0.080 A  
HETATM   15  C   UNL     1      -8.541   9.410  65.119  1.00  0.00    -0.188 A  
HETATM   16  C   UNL     1      -8.728  10.635  65.770  1.00  0.00    -0.182 A  
HETATM   17  O   UNL     1      -8.255  10.727  67.060  1.00  0.00    -0.121 OA 
HETATM   18  C   UNL     1      -9.258  10.949  67.969  1.00  0.00    -0.156 A  
HETATM   19  C   UNL     1     -10.070  12.081  67.923  1.00  0.00    -0.199 A  
HETATM   20  C   UNL     1     -11.128  12.213  68.832  1.00  0.00    -0.292 A  
HETATM   21  C   UNL     1     -11.313  11.253  69.823  1.00  0.00    -0.271 A  
HETATM   22  C   UNL     1     -10.467  10.147  69.902  1.00  0.00    -0.322 A  
HETATM   23 CL   UNL     1     -12.578  11.450  70.970  1.00  0.00    -0.501 Cl 
HETATM   24  C   UNL     1      -9.439   9.993  68.970  1.00  0.00    -0.190 A  
ENDBRANCH   5   8
TORSDOF 1
ENDMDL
MODEL       31
REMARK 921   NORMALIZED FREE ENERGY PREDICTED BY IDOCK:   -5.56 KCAL/MOL
REMARK 922        TOTAL FREE ENERGY PREDICTED BY IDOCK:   -6.28 KCAL/MOL
REMARK 923 INTER-LIGAND FREE ENERGY PREDICTED BY IDOCK:   -5.94 KCAL/MOL
REMARK 924 INTRA-LIGAND FREE ENERGY PREDICTED BY IDOCK:   -0.34 KCAL/MOL
REMARK 927      BINDING AFFINITY PREDICTED BY RF-SCORE:    0.00 PKD
ROOT
HETATM    1  C   UNL     1      -7.867   8.107  63.730  1.00  0.00    -0.147 C  
HETATM    2  N   UNL     1      -7.859   9.536  63.431  1.00  0.00    -0.125 NA 
HETATM    3  C   UNL     1      -9.223  10.102  63.424  1.00  0.00    -0.291 C  
HETATM    4  C   UNL     1      -9.891  10.229  64.811  1.00  0.00    -0.334 C  
HETATM    5  N   UNL     1      -9.026  10.942  65.763  1.00  0.00    -0.189 NA 
HETATM    6  C   UNL     1      -7.639  10.459  65.810  1.00  0.00    -0.147 C  
HETATM    7  C   UNL     1      -7.036  10.303  64.396  1.00  0.00    -0.064 C  
ENDROOT
BRANCH   5   8
HETATM    8  C   UNL     1      -9.447  12.044  66.509  1.00  0.00    -0.228 C  
HETATM    9  N   UNL     1      -9.170  13.247  66.083  1.00  0.00    -0.472 NA 
HETATM   10  C   UNL     1      -9.574  14.417  66.752  1.00  0.00    -0.268 A  
HETATM   11  H   UNL     1      -8.635  13.344  65.221  1.00  0.00     0.000 HD 
HETATM   12  C   UNL     1      -8.696  15.507  66.741  1.00  0.00    -0.302 A  
HETATM   13  C   UNL     1      -9.042  16.724  67.338  1.00  0.00    -0.221 A  
HETATM   14  C   UNL     1     -10.289  16.877  67.941  1.00  0.00    -0.332 A  
HETATM   15  C   UNL     1     -11.188  15.813  67.944  1.00  0.00    -0.313 A  
HETATM   16  C   UNL     1     -10.824  14.593  67.363  1.00  0.00    -0.298 A  
HETATM   17  O   UNL     1     -11.754  13.579  67.422  1.00  0.00    -0.337 OA 
HETATM   18  C   UNL     1     -11.309  12.505  68.150  1.00  0.00    -0.295 A  
HETATM   19  C   UNL     1     -10.175  11.778  67.791  1.00  0.00    -0.205 A  
HETATM   20  C   UNL     1      -9.728  10.739  68.618  1.00  0.00    -0.187 A  
HETATM   21  C   UNL     1     -10.460  10.390  69.749  1.00  0.00    -0.240 A  
HETATM   22  C   UNL     1     -11.624  11.082  70.079  1.00  0.00    -0.427 A  
HETATM   23 CL   UNL     1      -9.935   9.077  70.728  1.00  0.00    -0.279 Cl 
HETATM   24  C   UNL     1     -12.048  12.145  69.279  1.00  0.00    -0.234 A  
ENDBRANCH   5   8
TORSDOF 1
ENDMDL
MODEL       32
REMARK 921   NORMALIZED FREE ENERGY PREDICTED BY IDOCK:   -5.56 KCAL/MOL
REMARK 922        TOTAL FREE ENERGY PREDICTED BY IDOCK:   -6.27 KCAL/MOL
REMARK 923 INTER-LIGAND FREE ENERGY PREDICTED BY IDOCK:   -5.88 KCAL/MOL
REMARK 924 INTRA-LIGAND FREE ENERGY PREDICTED BY IDOCK:   -0.39 KCAL/MOL
REMARK 927      BINDING AFFINITY PREDICTED BY RF-SCORE:    0.00 PKD
ROOT
HETATM    1  C   UNL     1      -6.030   6.965  66.612  1.00  0.00    -0.029 C  
HETATM    2  N   UNL     1      -6.649   6.506  67.853  1.00  0.00    -0.062 NA 
HETATM    3  C   UNL     1      -6.695   7.576  68.871  1.00  0.00    -0.049 C  
HETATM    4  C   UNL     1      -7.708   8.708  68.592  1.00  0.00    -0.099 C  
HETATM    5  N   UNL     1      -9.052   8.174  68.322  1.00  0.00    -0.136 NA 
HETATM    6  C   UNL     1      -9.091   7.081  67.339  1.00  0.00    -0.123 C  
HETATM    7  C   UNL     1      -8.026   6.003  67.636  1.00  0.00    -0.102 C  
ENDROOT
BRANCH   5   8
HETATM    8  C   UNL     1     -10.199   8.600  68.995  1.00  0.00    -0.207 C  
HETATM    9  N   UNL     1     -10.719   7.835  69.917  1.00  0.00    -0.246 NA 
HETATM   10  C   UNL     1     -11.857   8.189  70.664  1.00  0.00    -0.088 A  
HETATM   11  H   UNL     1     -10.278   6.934  70.104  1.00  0.00     0.000 HD 
HETATM   12  C   UNL     1     -12.754   7.170  71.004  1.00  0.00    -0.303 A  
HETATM   13  C   UNL     1     -13.882   7.428  71.789  1.00  0.00    -0.438 A  
HETATM   14  C   UNL     1     -14.121   8.714  72.268  1.00  0.00    -0.491 A  
HETATM   15  C   UNL     1     -13.229   9.740  71.963  1.00  0.00    -0.557 A  
HETATM   16  C   UNL     1     -12.115   9.476  71.159  1.00  0.00    -0.347 A  
HETATM   17  O   UNL     1     -11.288  10.541  70.880  1.00  0.00    -0.306 OA 
HETATM   18  C   UNL     1     -11.244  10.832  69.540  1.00  0.00    -0.281 A  
HETATM   19  C   UNL     1     -10.793   9.915  68.592  1.00  0.00    -0.244 A  
HETATM   20  C   UNL     1     -10.845  10.243  67.231  1.00  0.00    -0.312 A  
HETATM   21  C   UNL     1     -11.275  11.508  66.840  1.00  0.00    -0.298 A  
HETATM   22  C   UNL     1     -11.676  12.444  67.792  1.00  0.00    -0.413 A  
HETATM   23 CL   UNL     1     -11.283  11.923  65.171  1.00  0.00    -0.361 Cl 
HETATM   24  C   UNL     1     -11.665  12.104  69.146  1.00  0.00    -0.384 A  
ENDBRANCH   5   8
TORSDOF 1
ENDMDL
MODEL       33
REMARK 921   NORMALIZED FREE ENERGY PREDICTED BY IDOCK:   -5.54 KCAL/MOL
REMARK 922        TOTAL FREE ENERGY PREDICTED BY IDOCK:   -6.25 KCAL/MOL
REMARK 923 INTER-LIGAND FREE ENERGY PREDICTED BY IDOCK:   -5.88 KCAL/MOL
REMARK 924 INTRA-LIGAND FREE ENERGY PREDICTED BY IDOCK:   -0.37 KCAL/MOL
REMARK 927      BINDING AFFINITY PREDICTED BY RF-SCORE:    0.00 PKD
ROOT
HETATM    1  C   UNL     1     -10.166  19.843  66.301  1.00  0.00    -0.502 C  
HETATM    2  N   UNL     1      -9.371  19.193  67.341  1.00  0.00    -0.301 NA 
HETATM    3  C   UNL     1     -10.166  18.207  68.101  1.00  0.00    -0.388 C  
HETATM    4  C   UNL     1     -10.521  16.914  67.335  1.00  0.00    -0.310 C  
HETATM    5  N   UNL     1      -9.326  16.292  66.745  1.00  0.00    -0.225 NA 
HETATM    6  C   UNL     1      -8.462  17.214  65.994  1.00  0.00    -0.119 C  
HETATM    7  C   UNL     1      -8.180  18.510  66.785  1.00  0.00    -0.257 C  
ENDROOT
BRANCH   5   8
HETATM    8  C   UNL     1      -8.978  14.954  66.942  1.00  0.00    -0.253 C  
HETATM    9  N   UNL     1      -7.851  14.667  67.536  1.00  0.00    -0.178 NA 
HETATM   10  C   UNL     1      -7.429  13.352  67.800  1.00  0.00    -0.160 A  
HETATM   11  H   UNL     1      -7.246  15.436  67.823  1.00  0.00     0.000 HD 
HETATM   12  C   UNL     1      -6.061  13.076  67.696  1.00  0.00    -0.151 A  
HETATM   13  C   UNL     1      -5.551  11.807  67.992  1.00  0.00    -0.046 A  
HETATM   14  C   UNL     1      -6.406  10.794  68.421  1.00  0.00    -0.053 A  
HETATM   15  C   UNL     1      -7.768  11.052  68.555  1.00  0.00    -0.122 A  
HETATM   16  C   UNL     1      -8.271  12.318  68.236  1.00  0.00    -0.167 A  
HETATM   17  O   UNL     1      -9.630  12.495  68.371  1.00  0.00    -0.217 OA 
HETATM   18  C   UNL     1     -10.241  12.780  67.176  1.00  0.00    -0.233 A  
HETATM   19  C   UNL     1      -9.919  13.909  66.424  1.00  0.00    -0.303 A  
HETATM   20  C   UNL     1     -10.523  14.104  65.175  1.00  0.00    -0.422 A  
HETATM   21  C   UNL     1     -11.494  13.212  64.728  1.00  0.00    -0.323 A  
HETATM   22  C   UNL     1     -11.855  12.113  65.505  1.00  0.00    -0.350 A  
HETATM   23 CL   UNL     1     -12.271  13.490  63.219  1.00  0.00    -0.417 Cl 
HETATM   24  C   UNL     1     -11.223  11.893  66.731  1.00  0.00    -0.384 A  
ENDBRANCH   5   8
TORSDOF 1
ENDMDL
MODEL       34
REMARK 921   NORMALIZED FREE ENERGY PREDICTED BY IDOCK:   -5.50 KCAL/MOL
REMARK 922        TOTAL FREE ENERGY PREDICTED BY IDOCK:   -6.22 KCAL/MOL
REMARK 923 INTER-LIGAND FREE ENERGY PREDICTED BY IDOCK:   -5.81 KCAL/MOL
REMARK 924 INTRA-LIGAND FREE ENERGY PREDICTED BY IDOCK:   -0.40 KCAL/MOL
REMARK 927      BINDING AFFINITY PREDICTED BY RF-SCORE:    0.00 PKD
ROOT
HETATM    1  C   UNL     1     -10.175  18.016  69.058  1.00  0.00    -0.253 C  
HETATM    2  N   UNL     1      -9.470  17.453  67.909  1.00  0.00    -0.260 NA 
HETATM    3  C   UNL     1      -8.460  16.457  68.320  1.00  0.00    -0.195 C  
HETATM    4  C   UNL     1      -9.028  15.116  68.835  1.00  0.00    -0.206 C  
HETATM    5  N   UNL     1      -9.989  14.537  67.885  1.00  0.00    -0.224 NA 
HETATM    6  C   UNL     1     -11.014  15.473  67.402  1.00  0.00    -0.306 C  
HETATM    7  C   UNL     1     -10.397  16.814  66.946  1.00  0.00    -0.294 C  
ENDROOT
BRANCH   5   8
HETATM    8  C   UNL     1      -9.903  13.229  67.404  1.00  0.00    -0.227 C  
HETATM    9  N   UNL     1      -9.554  13.026  66.162  1.00  0.00    -0.388 NA 
HETATM   10  C   UNL     1      -9.416  11.746  65.596  1.00  0.00    -0.192 A  
HETATM   11  H   UNL     1      -9.373  13.839  65.572  1.00  0.00     0.000 HD 
HETATM   12  C   UNL     1      -9.799  11.582  64.260  1.00  0.00    -0.279 A  
HETATM   13  C   UNL     1      -9.646  10.355  63.606  1.00  0.00    -0.364 A  
HETATM   14  C   UNL     1      -9.083   9.272  64.277  1.00  0.00    -0.076 A  
HETATM   15  C   UNL     1      -8.672   9.418  65.599  1.00  0.00    -0.179 A  
HETATM   16  C   UNL     1      -8.849  10.643  66.251  1.00  0.00    -0.161 A  
HETATM   17  O   UNL     1      -8.440  10.709  67.564  1.00  0.00    -0.121 OA 
HETATM   18  C   UNL     1      -9.480  10.958  68.424  1.00  0.00    -0.178 A  
HETATM   19  C   UNL     1     -10.250  12.117  68.348  1.00  0.00    -0.212 A  
HETATM   20  C   UNL     1     -11.347  12.278  69.204  1.00  0.00    -0.330 A  
HETATM   21  C   UNL     1     -11.615  11.317  70.174  1.00  0.00    -0.305 A  
HETATM   22  C   UNL     1     -10.812  10.182  70.286  1.00  0.00    -0.370 A  
HETATM   23 CL   UNL     1     -12.930  11.548  71.258  1.00  0.00    -0.454 Cl 
HETATM   24  C   UNL     1      -9.744  10.000  69.405  1.00  0.00    -0.240 A  
ENDBRANCH   5   8
TORSDOF 1
ENDMDL
MODEL       35
REMARK 921   NORMALIZED FREE ENERGY PREDICTED BY IDOCK:   -5.49 KCAL/MOL
REMARK 922        TOTAL FREE ENERGY PREDICTED BY IDOCK:   -6.21 KCAL/MOL
REMARK 923 INTER-LIGAND FREE ENERGY PREDICTED BY IDOCK:   -5.84 KCAL/MOL
REMARK 924 INTRA-LIGAND FREE ENERGY PREDICTED BY IDOCK:   -0.37 KCAL/MOL
REMARK 927      BINDING AFFINITY PREDICTED BY RF-SCORE:    0.00 PKD
ROOT
HETATM    1  C   UNL     1      -8.118   8.274  64.561  1.00  0.00    -0.146 C  
HETATM    2  N   UNL     1      -8.254   9.723  64.441  1.00  0.00    -0.150 NA 
HETATM    3  C   UNL     1      -9.662  10.154  64.559  1.00  0.00    -0.293 C  
HETATM    4  C   UNL     1     -10.265  10.051  65.977  1.00  0.00    -0.207 C  
HETATM    5  N   UNL     1      -9.419  10.724  66.974  1.00  0.00    -0.163 NA 
HETATM    6  C   UNL     1      -7.993  10.373  66.904  1.00  0.00    -0.114 C  
HETATM    7  C   UNL     1      -7.454  10.444  65.459  1.00  0.00    -0.142 C  
ENDROOT
BRANCH   5   8
HETATM    8  C   UNL     1      -9.897  11.684  67.867  1.00  0.00    -0.184 C  
HETATM    9  N   UNL     1      -9.690  12.949  67.616  1.00  0.00    -0.207 NA 
HETATM   10  C   UNL     1     -10.155  13.988  68.443  1.00  0.00    -0.236 A  
HETATM   11  H   UNL     1      -9.165  13.196  66.778  1.00  0.00     0.000 HD 
HETATM   12  C   UNL     1      -9.340  15.116  68.587  1.00  0.00    -0.199 A  
HETATM   13  C   UNL     1      -9.751  16.215  69.350  1.00  0.00    -0.219 A  
HETATM   14  C   UNL     1     -11.001  16.211  69.965  1.00  0.00    -0.364 A  
HETATM   15  C   UNL     1     -11.839  15.109  69.815  1.00  0.00    -0.364 A  
HETATM   16  C   UNL     1     -11.410  14.006  69.069  1.00  0.00    -0.281 A  
HETATM   17  O   UNL     1     -12.282  12.943  68.981  1.00  0.00    -0.205 OA 
HETATM   18  C   UNL     1     -11.774  11.803  69.551  1.00  0.00    -0.343 A  
HETATM   19  C   UNL     1     -10.603  11.199  69.097  1.00  0.00    -0.238 A  
HETATM   20  C   UNL     1     -10.093  10.081  69.770  1.00  0.00    -0.284 A  
HETATM   21  C   UNL     1     -10.799   9.535  70.838  1.00  0.00    -0.337 A  
HETATM   22  C   UNL     1     -11.999  10.107  71.259  1.00  0.00    -0.473 A  
HETATM   23 CL   UNL     1     -10.196   8.129  71.624  1.00  0.00    -0.248 Cl 
HETATM   24  C   UNL     1     -12.486  11.247  70.616  1.00  0.00    -0.439 A  
ENDBRANCH   5   8
TORSDOF 1
ENDMDL
MODEL       36
REMARK 921   NORMALIZED FREE ENERGY PREDICTED BY IDOCK:   -5.48 KCAL/MOL
REMARK 922        TOTAL FREE ENERGY PREDICTED BY IDOCK:   -6.20 KCAL/MOL
REMARK 923 INTER-LIGAND FREE ENERGY PREDICTED BY IDOCK:   -5.83 KCAL/MOL
REMARK 924 INTRA-LIGAND FREE ENERGY PREDICTED BY IDOCK:   -0.37 KCAL/MOL
REMARK 927      BINDING AFFINITY PREDICTED BY RF-SCORE:    0.00 PKD
ROOT
HETATM    1  C   UNL     1      -8.715   2.653  73.001  1.00  0.00    -0.071 C  
HETATM    2  N   UNL     1      -8.848   3.972  73.614  1.00  0.00    -0.093 NA 
HETATM    3  C   UNL     1      -8.077   4.997  72.882  1.00  0.00    -0.105 C  
HETATM    4  C   UNL     1      -8.652   5.397  71.506  1.00  0.00    -0.131 C  
HETATM    5  N   UNL     1     -10.072   5.770  71.603  1.00  0.00    -0.189 NA 
HETATM    6  C   UNL     1     -10.907   4.815  72.345  1.00  0.00    -0.102 C  
HETATM    7  C   UNL     1     -10.262   4.411  73.689  1.00  0.00    -0.166 C  
ENDROOT
BRANCH   5   8
HETATM    8  C   UNL     1     -10.588   6.970  71.109  1.00  0.00    -0.217 C  
HETATM    9  N   UNL     1     -11.152   7.810  71.935  1.00  0.00    -0.247 NA 
HETATM   10  C   UNL     1     -11.677   9.052  71.536  1.00  0.00    -0.345 A  
HETATM   11  H   UNL     1     -11.216   7.552  72.920  1.00  0.00     0.000 HD 
HETATM   12  C   UNL     1     -12.839   9.501  72.173  1.00  0.00    -0.471 A  
HETATM   13  C   UNL     1     -13.397  10.748  71.872  1.00  0.00    -0.445 A  
HETATM   14  C   UNL     1     -12.784  11.581  70.938  1.00  0.00    -0.372 A  
HETATM   15  C   UNL     1     -11.613  11.166  70.309  1.00  0.00    -0.388 A  
HETATM   16  C   UNL     1     -11.075   9.907  70.601  1.00  0.00    -0.340 A  
HETATM   17  O   UNL     1      -9.928   9.554  69.925  1.00  0.00    -0.200 OA 
HETATM   18  C   UNL     1     -10.112   8.455  69.124  1.00  0.00    -0.203 A  
HETATM   19  C   UNL     1     -10.490   7.214  69.634  1.00  0.00    -0.241 A  
HETATM   20  C   UNL     1     -10.737   6.150  68.757  1.00  0.00    -0.370 A  
HETATM   21  C   UNL     1     -10.530   6.317  67.391  1.00  0.00    -0.248 A  
HETATM   22  C   UNL     1     -10.101   7.543  66.885  1.00  0.00    -0.336 A  
HETATM   23 CL   UNL     1     -10.782   4.990  66.326  1.00  0.00    -0.337 Cl 
HETATM   24  C   UNL     1      -9.895   8.617  67.754  1.00  0.00    -0.218 A  
ENDBRANCH   5   8
TORSDOF 1
ENDMDL
MODEL       37
REMARK 921   NORMALIZED FREE ENERGY PREDICTED BY IDOCK:   -5.48 KCAL/MOL
REMARK 922        TOTAL FREE ENERGY PREDICTED BY IDOCK:   -6.19 KCAL/MOL
REMARK 923 INTER-LIGAND FREE ENERGY PREDICTED BY IDOCK:   -5.87 KCAL/MOL
REMARK 924 INTRA-LIGAND FREE ENERGY PREDICTED BY IDOCK:   -0.32 KCAL/MOL
REMARK 927      BINDING AFFINITY PREDICTED BY RF-SCORE:    0.00 PKD
ROOT
HETATM    1  C   UNL     1      -7.024   6.565  66.697  1.00  0.00    -0.067 C  
HETATM    2  N   UNL     1      -7.577   7.744  66.033  1.00  0.00    -0.085 NA 
HETATM    3  C   UNL     1      -9.046   7.808  66.166  1.00  0.00    -0.153 C  
HETATM    4  C   UNL     1      -9.566   8.157  67.578  1.00  0.00    -0.157 C  
HETATM    5  N   UNL     1      -8.932   9.377  68.100  1.00  0.00    -0.128 NA 
HETATM    6  C   UNL     1      -7.467   9.406  67.978  1.00  0.00    -0.080 C  
HETATM    7  C   UNL     1      -7.000   9.002  66.562  1.00  0.00    -0.080 C  
ENDROOT
BRANCH   5   8
HETATM    8  C   UNL     1      -9.650  10.466  68.598  1.00  0.00    -0.166 C  
HETATM    9  N   UNL     1      -9.451  11.651  68.087  1.00  0.00    -0.185 NA 
HETATM   10  C   UNL     1     -10.144  12.801  68.504  1.00  0.00    -0.185 A  
HETATM   11  H   UNL     1      -8.756  11.747  67.346  1.00  0.00     0.000 HD 
HETATM   12  C   UNL     1      -9.440  14.009  68.532  1.00  0.00    -0.191 A  
HETATM   13  C   UNL     1     -10.069  15.208  68.886  1.00  0.00    -0.238 A  
HETATM   14  C   UNL     1     -11.426  15.219  69.198  1.00  0.00    -0.330 A  
HETATM   15  C   UNL     1     -12.153  14.032  69.155  1.00  0.00    -0.375 A  
HETATM   16  C   UNL     1     -11.510  12.835  68.821  1.00  0.00    -0.304 A  
HETATM   17  O   UNL     1     -12.286  11.697  68.819  1.00  0.00    -0.416 OA 
HETATM   18  C   UNL     1     -11.872  10.781  69.753  1.00  0.00    -0.335 A  
HETATM   19  C   UNL     1     -10.600  10.212  69.728  1.00  0.00    -0.298 A  
HETATM   20  C   UNL     1     -10.211   9.342  70.755  1.00  0.00    -0.368 A  
HETATM   21  C   UNL     1     -11.120   8.992  71.749  1.00  0.00    -0.374 A  
HETATM   22  C   UNL     1     -12.410   9.520  71.743  1.00  0.00    -0.474 A  
HETATM   23 CL   UNL     1     -10.652   7.880  72.974  1.00  0.00    -0.428 Cl 
HETATM   24  C   UNL     1     -12.787  10.420  70.745  1.00  0.00    -0.450 A  
ENDBRANCH   5   8
TORSDOF 1
ENDMDL
MODEL       38
REMARK 921   NORMALIZED FREE ENERGY PREDICTED BY IDOCK:   -5.47 KCAL/MOL
REMARK 922        TOTAL FREE ENERGY PREDICTED BY IDOCK:   -6.18 KCAL/MOL
REMARK 923 INTER-LIGAND FREE ENERGY PREDICTED BY IDOCK:   -5.76 KCAL/MOL
REMARK 924 INTRA-LIGAND FREE ENERGY PREDICTED BY IDOCK:   -0.43 KCAL/MOL
REMARK 927      BINDING AFFINITY PREDICTED BY RF-SCORE:    0.00 PKD
ROOT
HETATM    1  C   UNL     1     -10.283  19.963  66.407  1.00  0.00    -0.500 C  
HETATM    2  N   UNL     1      -9.242  19.375  67.246  1.00  0.00    -0.307 NA 
HETATM    3  C   UNL     1      -9.786  18.878  68.526  1.00  0.00    -0.399 C  
HETATM    4  C   UNL     1     -10.653  17.604  68.424  1.00  0.00    -0.316 C  
HETATM    5  N   UNL     1      -9.957  16.535  67.692  1.00  0.00    -0.249 NA 
HETATM    6  C   UNL     1      -9.359  16.954  66.417  1.00  0.00    -0.276 C  
HETATM    7  C   UNL     1      -8.544  18.258  66.566  1.00  0.00    -0.266 C  
ENDROOT
BRANCH   5   8
HETATM    8  C   UNL     1      -9.794  15.241  68.191  1.00  0.00    -0.217 C  
HETATM    9  N   UNL     1     -10.834  14.457  68.285  1.00  0.00    -0.236 NA 
HETATM   10  C   UNL     1     -10.764  13.131  68.751  1.00  0.00    -0.225 A  
HETATM   11  H   UNL     1     -11.744  14.825  68.007  1.00  0.00     0.000 HD 
HETATM   12  C   UNL     1     -11.835  12.655  69.515  1.00  0.00    -0.376 A  
HETATM   13  C   UNL     1     -11.868  11.333  69.973  1.00  0.00    -0.448 A  
HETATM   14  C   UNL     1     -10.834  10.456  69.652  1.00  0.00    -0.320 A  
HETATM   15  C   UNL     1      -9.770  10.901  68.872  1.00  0.00    -0.198 A  
HETATM   16  C   UNL     1      -9.735  12.231  68.437  1.00  0.00    -0.191 A  
HETATM   17  O   UNL     1      -8.643  12.608  67.688  1.00  0.00    -0.158 OA 
HETATM   18  C   UNL     1      -7.896  13.580  68.305  1.00  0.00    -0.145 A  
HETATM   19  C   UNL     1      -8.419  14.832  68.625  1.00  0.00    -0.167 A  
HETATM   20  C   UNL     1      -7.630  15.754  69.324  1.00  0.00    -0.224 A  
HETATM   21  C   UNL     1      -6.308  15.444  69.627  1.00  0.00    -0.160 A  
HETATM   22  C   UNL     1      -5.768  14.212  69.260  1.00  0.00    -0.084 A  
HETATM   23 CL   UNL     1      -5.329  16.604  70.436  1.00  0.00    -0.203 Cl 
HETATM   24  C   UNL     1      -6.566  13.275  68.601  1.00  0.00    -0.091 A  
ENDBRANCH   5   8
TORSDOF 1
ENDMDL
MODEL       39
REMARK 921   NORMALIZED FREE ENERGY PREDICTED BY IDOCK:   -5.43 KCAL/MOL
REMARK 922        TOTAL FREE ENERGY PREDICTED BY IDOCK:   -6.14 KCAL/MOL
REMARK 923 INTER-LIGAND FREE ENERGY PREDICTED BY IDOCK:   -5.75 KCAL/MOL
REMARK 924 INTRA-LIGAND FREE ENERGY PREDICTED BY IDOCK:   -0.38 KCAL/MOL
REMARK 927      BINDING AFFINITY PREDICTED BY RF-SCORE:    0.00 PKD
ROOT
HETATM    1  C   UNL     1     -12.614  14.543  64.656  1.00  0.00    -0.200 C  
HETATM    2  N   UNL     1     -11.284  14.239  65.179  1.00  0.00    -0.328 NA 
HETATM    3  C   UNL     1     -11.208  14.450  66.638  1.00  0.00    -0.339 C  
HETATM    4  C   UNL     1     -11.961  13.409  67.495  1.00  0.00    -0.339 C  
HETATM    5  N   UNL     1     -11.577  12.036  67.136  1.00  0.00    -0.493 NA 
HETATM    6  C   UNL     1     -11.598  11.750  65.694  1.00  0.00    -0.122 C  
HETATM    7  C   UNL     1     -10.874  12.846  64.882  1.00  0.00    -0.308 C  
ENDROOT
BRANCH   5   8
HETATM    8  C   UNL     1     -11.145  11.089  68.067  1.00  0.00    -0.286 C  
HETATM    9  N   UNL     1     -11.957  10.708  69.016  1.00  0.00    -0.643 NA 
HETATM   10  C   UNL     1     -11.620   9.743  69.982  1.00  0.00    -0.130 A  
HETATM   11  H   UNL     1     -12.884  11.131  69.058  1.00  0.00     0.000 HD 
HETATM   12  C   UNL     1     -12.110   9.926  71.280  1.00  0.00    -0.485 A  
HETATM   13  C   UNL     1     -11.864   8.987  72.287  1.00  0.00    -0.306 A  
HETATM   14  C   UNL     1     -11.139   7.831  72.004  1.00  0.00    -0.318 A  
HETATM   15  C   UNL     1     -10.662   7.616  70.713  1.00  0.00    -0.231 A  
HETATM   16  C   UNL     1     -10.895   8.572  69.718  1.00  0.00    -0.175 A  
HETATM   17  O   UNL     1     -10.376   8.304  68.470  1.00  0.00    -0.206 OA 
HETATM   18  C   UNL     1      -9.438   9.229  68.085  1.00  0.00    -0.138 A  
HETATM   19  C   UNL     1      -9.740  10.582  67.940  1.00  0.00    -0.171 A  
HETATM   20  C   UNL     1      -8.722  11.488  67.619  1.00  0.00    -0.142 A  
HETATM   21  C   UNL     1      -7.434  11.024  67.372  1.00  0.00    -0.106 A  
HETATM   22  C   UNL     1      -7.143   9.663  67.464  1.00  0.00    -0.088 A  
HETATM   23 CL   UNL     1      -6.202  12.136  66.923  1.00  0.00    -0.096 Cl 
HETATM   24  C   UNL     1      -8.147   8.763  67.826  1.00  0.00    -0.107 A  
ENDBRANCH   5   8
TORSDOF 1
ENDMDL
MODEL       40
REMARK 921   NORMALIZED FREE ENERGY PREDICTED BY IDOCK:   -5.38 KCAL/MOL
REMARK 922        TOTAL FREE ENERGY PREDICTED BY IDOCK:   -6.09 KCAL/MOL
REMARK 923 INTER-LIGAND FREE ENERGY PREDICTED BY IDOCK:   -6.05 KCAL/MOL
REMARK 924 INTRA-LIGAND FREE ENERGY PREDICTED BY IDOCK:   -0.04 KCAL/MOL
REMARK 927      BINDING AFFINITY PREDICTED BY RF-SCORE:    0.00 PKD
ROOT
HETATM    1  C   UNL     1      -5.577  13.805  71.160  1.00  0.00    -0.217 C  
HETATM    2  N   UNL     1      -5.437  14.547  69.910  1.00  0.00    -0.095 NA 
HETATM    3  C   UNL     1      -5.510  13.656  68.734  1.00  0.00    -0.073 C  
HETATM    4  C   UNL     1      -6.911  13.083  68.427  1.00  0.00    -0.100 C  
HETATM    5  N   UNL     1      -7.924  14.147  68.352  1.00  0.00    -0.136 NA 
HETATM    6  C   UNL     1      -7.900  15.097  69.473  1.00  0.00    -0.186 C  
HETATM    7  C   UNL     1      -6.469  15.600  69.768  1.00  0.00    -0.169 C  
ENDROOT
BRANCH   5   8
HETATM    8  C   UNL     1      -8.793  14.308  67.270  1.00  0.00    -0.214 C  
HETATM    9  N   UNL     1      -9.331  13.252  66.721  1.00  0.00    -0.249 NA 
HETATM   10  C   UNL     1     -10.235  13.316  65.646  1.00  0.00    -0.289 A  
HETATM   11  H   UNL     1      -9.082  12.334  67.090  1.00  0.00     0.000 HD 
HETATM   12  C   UNL     1     -10.166  12.307  64.678  1.00  0.00    -0.311 A  
HETATM   13  C   UNL     1     -11.062  12.267  63.605  1.00  0.00    -0.537 A  
HETATM   14  C   UNL     1     -12.063  13.231  63.494  1.00  0.00    -0.550 A  
HETATM   15  C   UNL     1     -12.166  14.231  64.458  1.00  0.00    -0.476 A  
HETATM   16  C   UNL     1     -11.251  14.274  65.516  1.00  0.00    -0.320 A  
HETATM   17  O   UNL     1     -11.400  15.303  66.420  1.00  0.00    -0.284 OA 
HETATM   18  C   UNL     1     -10.315  16.142  66.439  1.00  0.00    -0.315 A  
HETATM   19  C   UNL     1      -9.036  15.701  66.776  1.00  0.00    -0.281 A  
HETATM   20  C   UNL     1      -7.955  16.589  66.702  1.00  0.00    -0.320 A  
HETATM   21  C   UNL     1      -8.175  17.922  66.367  1.00  0.00    -0.255 A  
HETATM   22  C   UNL     1      -9.463  18.375  66.083  1.00  0.00    -0.164 A  
HETATM   23 CL   UNL     1      -6.851  19.018  66.334  1.00  0.00    -0.218 Cl 
HETATM   24  C   UNL     1     -10.535  17.482  66.114  1.00  0.00    -0.288 A  
ENDBRANCH   5   8
TORSDOF 1
ENDMDL
MODEL       41
REMARK 921   NORMALIZED FREE ENERGY PREDICTED BY IDOCK:   -5.32 KCAL/MOL
REMARK 922        TOTAL FREE ENERGY PREDICTED BY IDOCK:   -6.02 KCAL/MOL
REMARK 923 INTER-LIGAND FREE ENERGY PREDICTED BY IDOCK:   -5.59 KCAL/MOL
REMARK 924 INTRA-LIGAND FREE ENERGY PREDICTED BY IDOCK:   -0.43 KCAL/MOL
REMARK 927      BINDING AFFINITY PREDICTED BY RF-SCORE:    0.00 PKD
ROOT
HETATM    1  C   UNL     1     -12.321  13.698  63.622  1.00  0.00    -0.265 C  
HETATM    2  N   UNL     1     -11.277  14.180  64.523  1.00  0.00    -0.363 NA 
HETATM    3  C   UNL     1     -11.789  14.391  65.892  1.00  0.00    -0.367 C  
HETATM    4  C   UNL     1     -12.106  13.103  66.683  1.00  0.00    -0.346 C  
HETATM    5  N   UNL     1     -10.965  12.174  66.680  1.00  0.00    -0.268 NA 
HETATM    6  C   UNL     1     -10.375  11.932  65.355  1.00  0.00    -0.267 C  
HETATM    7  C   UNL     1     -10.126  13.250  64.589  1.00  0.00    -0.225 C  
ENDROOT
BRANCH   5   8
HETATM    8  C   UNL     1     -10.419  11.622  67.840  1.00  0.00    -0.192 C  
HETATM    9  N   UNL     1     -11.094  10.716  68.495  1.00  0.00    -0.244 NA 
HETATM   10  C   UNL     1     -10.616  10.085  69.658  1.00  0.00    -0.252 A  
HETATM   11  H   UNL     1     -12.015  10.451  68.145  1.00  0.00     0.000 HD 
HETATM   12  C   UNL     1     -11.544   9.779  70.659  1.00  0.00    -0.389 A  
HETATM   13  C   UNL     1     -11.160   9.106  71.824  1.00  0.00    -0.437 A  
HETATM   14  C   UNL     1      -9.836   8.707  71.996  1.00  0.00    -0.396 A  
HETATM   15  C   UNL     1      -8.899   8.979  71.003  1.00  0.00    -0.291 A  
HETATM   16  C   UNL     1      -9.289   9.672  69.851  1.00  0.00    -0.228 A  
HETATM   17  O   UNL     1      -8.306   9.926  68.920  1.00  0.00    -0.112 OA 
HETATM   18  C   UNL     1      -8.088  11.269  68.743  1.00  0.00    -0.130 A  
HETATM   19  C   UNL     1      -9.084  12.133  68.291  1.00  0.00    -0.191 A  
HETATM   20  C   UNL     1      -8.823  13.506  68.204  1.00  0.00    -0.179 A  
HETATM   21  C   UNL     1      -7.551  13.989  68.497  1.00  0.00    -0.130 A  
HETATM   22  C   UNL     1      -6.540  13.118  68.898  1.00  0.00    -0.104 A  
HETATM   23 CL   UNL     1      -7.223  15.670  68.334  1.00  0.00    -0.112 Cl 
HETATM   24  C   UNL     1      -6.810  11.754  69.026  1.00  0.00    -0.106 A  
ENDBRANCH   5   8
TORSDOF 1
ENDMDL
MODEL       42
REMARK 921   NORMALIZED FREE ENERGY PREDICTED BY IDOCK:   -5.31 KCAL/MOL
REMARK 922        TOTAL FREE ENERGY PREDICTED BY IDOCK:   -6.02 KCAL/MOL
REMARK 923 INTER-LIGAND FREE ENERGY PREDICTED BY IDOCK:   -6.30 KCAL/MOL
REMARK 924 INTRA-LIGAND FREE ENERGY PREDICTED BY IDOCK:    0.28 KCAL/MOL
REMARK 927      BINDING AFFINITY PREDICTED BY RF-SCORE:    0.00 PKD
ROOT
HETATM    1  C   UNL     1     -13.442  15.843  73.198  1.00  0.00    -0.563 C  
HETATM    2  N   UNL     1     -12.395  14.900  72.812  1.00  0.00    -0.334 NA 
HETATM    3  C   UNL     1     -12.902  13.867  71.887  1.00  0.00    -0.322 C  
HETATM    4  C   UNL     1     -13.215  14.358  70.457  1.00  0.00    -0.043 C  
HETATM    5  N   UNL     1     -12.075  15.079  69.872  1.00  0.00    -0.324 NA 
HETATM    6  C   UNL     1     -11.490  16.109  70.743  1.00  0.00    -0.378 C  
HETATM    7  C   UNL     1     -11.243  15.579  72.173  1.00  0.00    -0.203 C  
ENDROOT
BRANCH   5   8
HETATM    8  C   UNL     1     -11.524  14.769  68.627  1.00  0.00    -0.302 C  
HETATM    9  N   UNL     1     -12.258  14.155  67.739  1.00  0.00    -0.569 NA 
HETATM   10  C   UNL     1     -11.800  13.824  66.451  1.00  0.00    -0.404 A  
HETATM   11  H   UNL     1     -13.213  13.901  67.992  1.00  0.00     0.000 HD 
HETATM   12  C   UNL     1     -12.241  12.619  65.894  1.00  0.00    -0.375 A  
HETATM   13  C   UNL     1     -11.873  12.240  64.599  1.00  0.00    -0.435 A  
HETATM   14  C   UNL     1     -11.072  13.078  63.826  1.00  0.00    -0.353 A  
HETATM   15  C   UNL     1     -10.641  14.294  64.351  1.00  0.00    -0.047 A  
HETATM   16  C   UNL     1     -10.995  14.654  65.656  1.00  0.00    -0.335 A  
HETATM   17  O   UNL     1     -10.516  15.860  66.116  1.00  0.00    -0.304 OA 
HETATM   18  C   UNL     1      -9.675  15.712  67.190  1.00  0.00    -0.223 A  
HETATM   19  C   UNL     1     -10.091  15.138  68.390  1.00  0.00    -0.225 A  
HETATM   20  C   UNL     1      -9.165  14.944  69.423  1.00  0.00    -0.046 A  
HETATM   21  C   UNL     1      -7.856  15.394  69.274  1.00  0.00    -0.225 A  
HETATM   22  C   UNL     1      -7.454  16.017  68.093  1.00  0.00    -0.132 A  
HETATM   23 CL   UNL     1      -6.740  15.203  70.568  1.00  0.00     0.092 Cl 
HETATM   24  C   UNL     1      -8.364  16.172  67.046  1.00  0.00    -0.247 A  
ENDBRANCH   5   8
TORSDOF 1
ENDMDL
MODEL       43
REMARK 921   NORMALIZED FREE ENERGY PREDICTED BY IDOCK:   -5.29 KCAL/MOL
REMARK 922        TOTAL FREE ENERGY PREDICTED BY IDOCK:   -5.99 KCAL/MOL
REMARK 923 INTER-LIGAND FREE ENERGY PREDICTED BY IDOCK:   -5.58 KCAL/MOL
REMARK 924 INTRA-LIGAND FREE ENERGY PREDICTED BY IDOCK:   -0.42 KCAL/MOL
REMARK 927      BINDING AFFINITY PREDICTED BY RF-SCORE:    0.00 PKD
ROOT
HETATM    1  C   UNL     1     -10.198  14.512  66.230  1.00  0.00    -0.297 C  
HETATM    2  N   UNL     1     -10.925  13.887  67.332  1.00  0.00    -0.284 NA 
HETATM    3  C   UNL     1     -11.856  12.845  66.854  1.00  0.00    -0.379 C  
HETATM    4  C   UNL     1     -11.189  11.550  66.342  1.00  0.00    -0.243 C  
HETATM    5  N   UNL     1     -10.243  11.004  67.327  1.00  0.00    -0.192 NA 
HETATM    6  C   UNL     1      -9.297  11.986  67.877  1.00  0.00    -0.190 C  
HETATM    7  C   UNL     1     -10.010  13.280  68.328  1.00  0.00    -0.236 C  
ENDROOT
BRANCH   5   8
HETATM    8  C   UNL     1     -10.278   9.683  67.779  1.00  0.00    -0.205 C  
HETATM    9  N   UNL     1      -9.996   8.716  66.948  1.00  0.00    -0.233 NA 
HETATM   10  C   UNL     1      -9.981   7.359  67.316  1.00  0.00    -0.198 A  
HETATM   11  H   UNL     1      -9.775   8.958  65.981  1.00  0.00     0.000 HD 
HETATM   12  C   UNL     1     -10.428   6.425  66.375  1.00  0.00    -0.031 A  
HETATM   13  C   UNL     1     -10.397   5.053  66.643  1.00  0.00    -0.312 A  
HETATM   14  C   UNL     1      -9.894   4.589  67.856  1.00  0.00    -0.162 A  
HETATM   15  C   UNL     1      -9.421   5.498  68.799  1.00  0.00    -0.163 A  
HETATM   16  C   UNL     1      -9.476   6.870  68.531  1.00  0.00    -0.133 A  
HETATM   17  O   UNL     1      -9.012   7.712  69.517  1.00  0.00    -0.139 OA 
HETATM   18  C   UNL     1      -9.995   8.533  70.008  1.00  0.00    -0.188 A  
HETATM   19  C   UNL     1     -10.674   9.447  69.204  1.00  0.00    -0.216 A  
HETATM   20  C   UNL     1     -11.721  10.203  69.748  1.00  0.00    -0.205 A  
HETATM   21  C   UNL     1     -12.025  10.093  71.102  1.00  0.00    -0.386 A  
HETATM   22  C   UNL     1     -11.309   9.218  71.917  1.00  0.00    -0.359 A  
HETATM   23 CL   UNL     1     -13.274  11.066  71.773  1.00  0.00    -0.541 Cl 
HETATM   24  C   UNL     1     -10.294   8.433  71.368  1.00  0.00    -0.285 A  
ENDBRANCH   5   8
TORSDOF 1
ENDMDL
MODEL       44
REMARK 921   NORMALIZED FREE ENERGY PREDICTED BY IDOCK:   -5.29 KCAL/MOL
REMARK 922        TOTAL FREE ENERGY PREDICTED BY IDOCK:   -5.99 KCAL/MOL
REMARK 923 INTER-LIGAND FREE ENERGY PREDICTED BY IDOCK:   -5.81 KCAL/MOL
REMARK 924 INTRA-LIGAND FREE ENERGY PREDICTED BY IDOCK:   -0.18 KCAL/MOL
REMARK 927      BINDING AFFINITY PREDICTED BY RF-SCORE:    0.00 PKD
ROOT
HETATM    1  C   UNL     1      -9.817   4.510  65.709  1.00  0.00    -0.222 C  
HETATM    2  N   UNL     1      -9.253   5.186  66.875  1.00  0.00    -0.116 NA 
HETATM    3  C   UNL     1      -8.458   6.370  66.491  1.00  0.00    -0.118 C  
HETATM    4  C   UNL     1      -9.278   7.577  65.984  1.00  0.00    -0.049 C  
HETATM    5  N   UNL     1     -10.347   7.938  66.927  1.00  0.00    -0.324 NA 
HETATM    6  C   UNL     1     -11.169   6.808  67.383  1.00  0.00    -0.188 C  
HETATM    7  C   UNL     1     -10.301   5.611  67.832  1.00  0.00    -0.205 C  
ENDROOT
BRANCH   5   8
HETATM    8  C   UNL     1     -10.531   9.229  67.425  1.00  0.00    -0.273 C  
HETATM    9  N   UNL     1     -10.543  10.238  66.596  1.00  0.00    -0.198 NA 
HETATM   10  C   UNL     1     -10.747  11.570  67.000  1.00  0.00    -0.259 A  
HETATM   11  H   UNL     1     -10.398  10.051  65.604  1.00  0.00     0.000 HD 
HETATM   12  C   UNL     1     -10.037  12.569  66.325  1.00  0.00    -0.264 A  
HETATM   13  C   UNL     1     -10.220  13.922  66.631  1.00  0.00    -0.276 A  
HETATM   14  C   UNL     1     -11.138  14.300  67.608  1.00  0.00    -0.305 A  
HETATM   15  C   UNL     1     -11.874  13.324  68.277  1.00  0.00    -0.389 A  
HETATM   16  C   UNL     1     -11.667  11.972  67.979  1.00  0.00    -0.331 A  
HETATM   17  O   UNL     1     -12.413  11.061  68.694  1.00  0.00    -0.462 OA 
HETATM   18  C   UNL     1     -11.632  10.235  69.462  1.00  0.00    -0.168 A  
HETATM   19  C   UNL     1     -10.674   9.388  68.908  1.00  0.00    -0.203 A  
HETATM   20  C   UNL     1      -9.854   8.625  69.750  1.00  0.00    -0.183 A  
HETATM   21  C   UNL     1     -10.053   8.659  71.127  1.00  0.00    -0.226 A  
HETATM   22  C   UNL     1     -11.048   9.466  71.677  1.00  0.00    -0.409 A  
HETATM   23 CL   UNL     1      -9.080   7.677  72.150  1.00  0.00    -0.168 Cl 
HETATM   24  C   UNL     1     -11.837  10.260  70.843  1.00  0.00    -0.473 A  
ENDBRANCH   5   8
TORSDOF 1
ENDMDL
MODEL       45
REMARK 921   NORMALIZED FREE ENERGY PREDICTED BY IDOCK:   -5.28 KCAL/MOL
REMARK 922        TOTAL FREE ENERGY PREDICTED BY IDOCK:   -5.99 KCAL/MOL
REMARK 923 INTER-LIGAND FREE ENERGY PREDICTED BY IDOCK:   -6.26 KCAL/MOL
REMARK 924 INTRA-LIGAND FREE ENERGY PREDICTED BY IDOCK:    0.27 KCAL/MOL
REMARK 927      BINDING AFFINITY PREDICTED BY RF-SCORE:    0.00 PKD
ROOT
HETATM    1  C   UNL     1     -14.351  14.649  72.309  1.00  0.00    -0.415 C  
HETATM    2  N   UNL     1     -12.980  14.160  72.438  1.00  0.00    -0.388 NA 
HETATM    3  C   UNL     1     -12.609  13.267  71.322  1.00  0.00    -0.308 C  
HETATM    4  C   UNL     1     -12.405  13.966  69.959  1.00  0.00    -0.316 C  
HETATM    5  N   UNL     1     -11.472  15.097  70.067  1.00  0.00    -0.266 NA 
HETATM    6  C   UNL     1     -11.754  16.021  71.176  1.00  0.00    -0.439 C  
HETATM    7  C   UNL     1     -11.998  15.268  72.502  1.00  0.00    -0.424 C  
ENDROOT
BRANCH   5   8
HETATM    8  C   UNL     1     -10.354  15.254  69.246  1.00  0.00    -0.259 C  
HETATM    9  N   UNL     1      -9.435  16.121  69.576  1.00  0.00    -0.194 NA 
HETATM   10  C   UNL     1      -8.264  16.331  68.826  1.00  0.00    -0.227 A  
HETATM   11  H   UNL     1      -9.574  16.675  70.421  1.00  0.00     0.000 HD 
HETATM   12  C   UNL     1      -7.771  17.638  68.743  1.00  0.00    -0.246 A  
HETATM   13  C   UNL     1      -6.584  17.924  68.061  1.00  0.00    -0.194 A  
HETATM   14  C   UNL     1      -5.855  16.897  67.465  1.00  0.00    -0.166 A  
HETATM   15  C   UNL     1      -6.313  15.585  67.555  1.00  0.00    -0.165 A  
HETATM   16  C   UNL     1      -7.513  15.312  68.221  1.00  0.00    -0.112 A  
HETATM   17  O   UNL     1      -7.916  13.995  68.253  1.00  0.00    -0.129 OA 
HETATM   18  C   UNL     1      -9.108  13.799  67.601  1.00  0.00    -0.196 A  
HETATM   19  C   UNL     1     -10.287  14.427  67.998  1.00  0.00    -0.227 A  
HETATM   20  C   UNL     1     -11.455  14.246  67.245  1.00  0.00    -0.371 A  
HETATM   21  C   UNL     1     -11.450  13.382  66.155  1.00  0.00    -0.327 A  
HETATM   22  C   UNL     1     -10.283  12.711  65.790  1.00  0.00    -0.288 A  
HETATM   23 CL   UNL     1     -12.901  13.122  65.270  1.00  0.00    -0.462 Cl 
HETATM   24  C   UNL     1      -9.107  12.924  66.513  1.00  0.00    -0.138 A  
ENDBRANCH   5   8
TORSDOF 1
ENDMDL
MODEL       46
REMARK 921   NORMALIZED FREE ENERGY PREDICTED BY IDOCK:   -5.27 KCAL/MOL
REMARK 922        TOTAL FREE ENERGY PREDICTED BY IDOCK:   -5.97 KCAL/MOL
REMARK 923 INTER-LIGAND FREE ENERGY PREDICTED BY IDOCK:   -6.14 KCAL/MOL
REMARK 924 INTRA-LIGAND FREE ENERGY PREDICTED BY IDOCK:    0.17 KCAL/MOL
REMARK 927      BINDING AFFINITY PREDICTED BY RF-SCORE:    0.00 PKD
ROOT
HETATM    1  C   UNL     1     -13.896  14.361  71.327  1.00  0.00    -0.266 C  
HETATM    2  N   UNL     1     -12.496  13.976  71.165  1.00  0.00    -0.354 NA 
HETATM    3  C   UNL     1     -12.113  13.886  69.741  1.00  0.00    -0.345 C  
HETATM    4  C   UNL     1     -11.998  15.237  69.003  1.00  0.00    -0.276 C  
HETATM    5  N   UNL     1     -11.127  16.175  69.728  1.00  0.00    -0.334 NA 
HETATM    6  C   UNL     1     -11.423  16.302  71.162  1.00  0.00    -0.314 C  
HETATM    7  C   UNL     1     -11.577  14.923  71.840  1.00  0.00    -0.260 C  
ENDROOT
BRANCH   5   8
HETATM    8  C   UNL     1     -10.049  16.838  69.138  1.00  0.00    -0.280 C  
HETATM    9  N   UNL     1     -10.087  18.138  69.018  1.00  0.00    -0.368 NA 
HETATM   10  C   UNL     1      -9.040  18.894  68.461  1.00  0.00    -0.352 A  
HETATM   11  H   UNL     1     -10.918  18.630  69.344  1.00  0.00     0.000 HD 
HETATM   12  C   UNL     1      -9.383  20.013  67.694  1.00  0.00    -0.476 A  
HETATM   13  C   UNL     1      -8.403  20.848  67.147  1.00  0.00    -0.113 A  
HETATM   14  C   UNL     1      -7.054  20.587  67.381  1.00  0.00    -0.369 A  
HETATM   15  C   UNL     1      -6.688  19.493  68.161  1.00  0.00    -0.301 A  
HETATM   16  C   UNL     1      -7.676  18.651  68.685  1.00  0.00    -0.317 A  
HETATM   17  O   UNL     1      -7.242  17.577  69.429  1.00  0.00    -0.154 OA 
HETATM   18  C   UNL     1      -7.583  16.376  68.860  1.00  0.00    -0.220 A  
HETATM   19  C   UNL     1      -8.908  16.004  68.641  1.00  0.00    -0.210 A  
HETATM   20  C   UNL     1      -9.190  14.798  67.986  1.00  0.00    -0.194 A  
HETATM   21  C   UNL     1      -8.150  13.945  67.627  1.00  0.00    -0.177 A  
HETATM   22  C   UNL     1      -6.827  14.293  67.895  1.00  0.00    -0.174 A  
HETATM   23 CL   UNL     1      -8.507  12.441  66.874  1.00  0.00    -0.177 Cl 
HETATM   24  C   UNL     1      -6.542  15.514  68.510  1.00  0.00    -0.109 A  
ENDBRANCH   5   8
TORSDOF 1
ENDMDL
MODEL       47
REMARK 921   NORMALIZED FREE ENERGY PREDICTED BY IDOCK:   -5.26 KCAL/MOL
REMARK 922        TOTAL FREE ENERGY PREDICTED BY IDOCK:   -5.96 KCAL/MOL
REMARK 923 INTER-LIGAND FREE ENERGY PREDICTED BY IDOCK:   -5.55 KCAL/MOL
REMARK 924 INTRA-LIGAND FREE ENERGY PREDICTED BY IDOCK:   -0.40 KCAL/MOL
REMARK 927      BINDING AFFINITY PREDICTED BY RF-SCORE:    0.00 PKD
ROOT
HETATM    1  C   UNL     1     -10.995  14.916  65.793  1.00  0.00    -0.345 C  
HETATM    2  N   UNL     1     -11.976  14.107  66.513  1.00  0.00    -0.426 NA 
HETATM    3  C   UNL     1     -12.019  12.720  66.008  1.00  0.00    -0.432 C  
HETATM    4  C   UNL     1     -10.795  11.849  66.366  1.00  0.00    -0.279 C  
HETATM    5  N   UNL     1     -10.515  11.880  67.810  1.00  0.00    -0.198 NA 
HETATM    6  C   UNL     1     -10.485  13.226  68.400  1.00  0.00    -0.253 C  
HETATM    7  C   UNL     1     -11.705  14.069  67.969  1.00  0.00    -0.359 C  
ENDROOT
BRANCH   5   8
HETATM    8  C   UNL     1     -10.371  10.731  68.590  1.00  0.00    -0.192 C  
HETATM    9  N   UNL     1     -11.309  10.416  69.443  1.00  0.00    -0.280 NA 
HETATM   10  C   UNL     1     -11.264   9.267  70.253  1.00  0.00    -0.231 A  
HETATM   11  H   UNL     1     -12.115  11.036  69.526  1.00  0.00     0.000 HD 
HETATM   12  C   UNL     1     -11.781   9.367  71.550  1.00  0.00    -0.465 A  
HETATM   13  C   UNL     1     -11.822   8.258  72.402  1.00  0.00    -0.461 A  
HETATM   14  C   UNL     1     -11.363   7.019  71.959  1.00  0.00    -0.300 A  
HETATM   15  C   UNL     1     -10.867   6.891  70.664  1.00  0.00    -0.280 A  
HETATM   16  C   UNL     1     -10.810   8.011  69.827  1.00  0.00    -0.194 A  
HETATM   17  O   UNL     1     -10.287   7.815  68.568  1.00  0.00    -0.198 OA 
HETATM   18  C   UNL     1      -9.140   8.539  68.360  1.00  0.00    -0.139 A  
HETATM   19  C   UNL     1      -9.115   9.931  68.424  1.00  0.00    -0.123 A  
HETATM   20  C   UNL     1      -7.898  10.609  68.279  1.00  0.00    -0.113 A  
HETATM   21  C   UNL     1      -6.737   9.895  67.997  1.00  0.00    -0.061 A  
HETATM   22  C   UNL     1      -6.772   8.506  67.880  1.00  0.00    -0.066 A  
HETATM   23 CL   UNL     1      -5.257  10.739  67.765  1.00  0.00    -0.040 Cl 
HETATM   24  C   UNL     1      -7.976   7.826  68.067  1.00  0.00    -0.122 A  
ENDBRANCH   5   8
TORSDOF 1
ENDMDL
MODEL       48
REMARK 921   NORMALIZED FREE ENERGY PREDICTED BY IDOCK:   -5.23 KCAL/MOL
REMARK 922        TOTAL FREE ENERGY PREDICTED BY IDOCK:   -5.93 KCAL/MOL
REMARK 923 INTER-LIGAND FREE ENERGY PREDICTED BY IDOCK:   -5.62 KCAL/MOL
REMARK 924 INTRA-LIGAND FREE ENERGY PREDICTED BY IDOCK:   -0.30 KCAL/MOL
REMARK 927      BINDING AFFINITY PREDICTED BY RF-SCORE:    0.00 PKD
ROOT
HETATM    1  C   UNL     1      -6.031  16.026  69.966  1.00  0.00    -0.161 C  
HETATM    2  N   UNL     1      -6.721  16.393  68.731  1.00  0.00    -0.149 NA 
HETATM    3  C   UNL     1      -6.288  15.558  67.592  1.00  0.00    -0.155 C  
HETATM    4  C   UNL     1      -6.778  14.094  67.624  1.00  0.00    -0.171 C  
HETATM    5  N   UNL     1      -8.234  14.017  67.815  1.00  0.00    -0.153 NA 
HETATM    6  C   UNL     1      -8.753  14.844  68.913  1.00  0.00    -0.180 C  
HETATM    7  C   UNL     1      -8.193  16.283  68.862  1.00  0.00    -0.231 C  
ENDROOT
BRANCH   5   8
HETATM    8  C   UNL     1      -9.083  13.288  66.979  1.00  0.00    -0.232 C  
HETATM    9  N   UNL     1      -9.654  13.888  65.969  1.00  0.00    -0.468 NA 
HETATM   10  C   UNL     1     -10.503  13.232  65.059  1.00  0.00    -0.353 A  
HETATM   11  H   UNL     1      -9.476  14.883  65.834  1.00  0.00     0.000 HD 
HETATM   12  C   UNL     1     -11.596  13.948  64.559  1.00  0.00    -0.409 A  
HETATM   13  C   UNL     1     -12.459  13.388  63.612  1.00  0.00    -0.316 A  
HETATM   14  C   UNL     1     -12.227  12.101  63.130  1.00  0.00    -0.371 A  
HETATM   15  C   UNL     1     -11.131  11.378  63.595  1.00  0.00    -0.411 A  
HETATM   16  C   UNL     1     -10.287  11.940  64.559  1.00  0.00    -0.292 A  
HETATM   17  O   UNL     1      -9.236  11.160  64.989  1.00  0.00    -0.212 OA 
HETATM   18  C   UNL     1      -9.321  10.861  66.326  1.00  0.00    -0.179 A  
HETATM   19  C   UNL     1      -9.316  11.846  67.312  1.00  0.00    -0.177 A  
HETATM   20  C   UNL     1      -9.483  11.483  68.655  1.00  0.00    -0.146 A  
HETATM   21  C   UNL     1      -9.575  10.138  69.002  1.00  0.00    -0.196 A  
HETATM   22  C   UNL     1      -9.525   9.150  68.020  1.00  0.00    -0.157 A  
HETATM   23 CL   UNL     1      -9.722   9.697  70.658  1.00  0.00    -0.297 Cl 
HETATM   24  C   UNL     1      -9.402   9.512  66.678  1.00  0.00    -0.207 A  
ENDBRANCH   5   8
TORSDOF 1
ENDMDL
MODEL       49
REMARK 921   NORMALIZED FREE ENERGY PREDICTED BY IDOCK:   -5.21 KCAL/MOL
REMARK 922        TOTAL FREE ENERGY PREDICTED BY IDOCK:   -5.91 KCAL/MOL
REMARK 923 INTER-LIGAND FREE ENERGY PREDICTED BY IDOCK:   -5.81 KCAL/MOL
REMARK 924 INTRA-LIGAND FREE ENERGY PREDICTED BY IDOCK:   -0.11 KCAL/MOL
REMARK 927      BINDING AFFINITY PREDICTED BY RF-SCORE:    0.00 PKD
ROOT
HETATM    1  C   UNL     1     -11.493  15.900  68.038  1.00  0.00    -0.236 C  
HETATM    2  N   UNL     1     -10.981  15.028  66.983  1.00  0.00    -0.313 NA 
HETATM    3  C   UNL     1      -9.611  14.559  67.277  1.00  0.00    -0.226 C  
HETATM    4  C   UNL     1      -9.499  13.523  68.415  1.00  0.00    -0.185 C  
HETATM    5  N   UNL     1     -10.414  12.390  68.206  1.00  0.00    -0.219 NA 
HETATM    6  C   UNL     1     -11.795  12.771  67.879  1.00  0.00    -0.339 C  
HETATM    7  C   UNL     1     -11.848  13.845  66.770  1.00  0.00    -0.424 C  
ENDROOT
BRANCH   5   8
HETATM    8  C   UNL     1     -10.004  11.055  68.229  1.00  0.00    -0.179 C  
HETATM    9  N   UNL     1      -9.400  10.554  67.185  1.00  0.00    -0.154 NA 
HETATM   10  C   UNL     1      -8.929   9.230  67.125  1.00  0.00    -0.126 A  
HETATM   11  H   UNL     1      -9.262  11.154  66.372  1.00  0.00     0.000 HD 
HETATM   12  C   UNL     1      -9.021   8.564  65.898  1.00  0.00    -0.235 A  
HETATM   13  C   UNL     1      -8.529   7.264  65.739  1.00  0.00    -0.148 A  
HETATM   14  C   UNL     1      -7.914   6.614  66.808  1.00  0.00    -0.108 A  
HETATM   15  C   UNL     1      -7.790   7.267  68.032  1.00  0.00    -0.118 A  
HETATM   16  C   UNL     1      -8.305   8.559  68.186  1.00  0.00    -0.127 A  
HETATM   17  O   UNL     1      -8.166   9.134  69.430  1.00  0.00    -0.110 OA 
HETATM   18  C   UNL     1      -9.376   9.394  70.023  1.00  0.00    -0.226 A  
HETATM   19  C   UNL     1     -10.315  10.255  69.457  1.00  0.00    -0.267 A  
HETATM   20  C   UNL     1     -11.563  10.419  70.071  1.00  0.00    -0.378 A  
HETATM   21  C   UNL     1     -11.828   9.783  71.281  1.00  0.00    -0.399 A  
HETATM   22  C   UNL     1     -10.869   8.965  71.875  1.00  0.00    -0.433 A  
HETATM   23 CL   UNL     1     -13.342  10.035  72.058  1.00  0.00    -0.535 Cl 
HETATM   24  C   UNL     1      -9.640   8.766  71.242  1.00  0.00    -0.323 A  
ENDBRANCH   5   8
TORSDOF 1
ENDMDL
MODEL       50
REMARK 921   NORMALIZED FREE ENERGY PREDICTED BY IDOCK:   -5.21 KCAL/MOL
REMARK 922        TOTAL FREE ENERGY PREDICTED BY IDOCK:   -5.91 KCAL/MOL
REMARK 923 INTER-LIGAND FREE ENERGY PREDICTED BY IDOCK:   -5.48 KCAL/MOL
REMARK 924 INTRA-LIGAND FREE ENERGY PREDICTED BY IDOCK:   -0.43 KCAL/MOL
REMARK 927      BINDING AFFINITY PREDICTED BY RF-SCORE:    0.00 PKD
ROOT
HETATM    1  C   UNL     1      -6.585  17.722  69.158  1.00  0.00    -0.246 C  
HETATM    2  N   UNL     1      -7.630  17.532  68.155  1.00  0.00    -0.213 NA 
HETATM    3  C   UNL     1      -7.135  16.782  66.983  1.00  0.00    -0.203 C  
HETATM    4  C   UNL     1      -6.868  15.281  67.226  1.00  0.00    -0.073 C  
HETATM    5  N   UNL     1      -8.033  14.616  67.829  1.00  0.00    -0.142 NA 
HETATM    6  C   UNL     1      -8.607  15.316  68.987  1.00  0.00    -0.226 C  
HETATM    7  C   UNL     1      -8.808  16.821  68.707  1.00  0.00    -0.258 C  
ENDROOT
BRANCH   5   8
HETATM    8  C   UNL     1      -8.614  13.458  67.307  1.00  0.00    -0.213 C  
HETATM    9  N   UNL     1      -7.984  12.320  67.423  1.00  0.00    -0.162 NA 
HETATM   10  C   UNL     1      -8.500  11.099  66.952  1.00  0.00    -0.147 A  
HETATM   11  H   UNL     1      -7.071  12.316  67.878  1.00  0.00     0.000 HD 
HETATM   12  C   UNL     1      -7.596  10.175  66.417  1.00  0.00    -0.108 A  
HETATM   13  C   UNL     1      -8.020   8.917  65.974  1.00  0.00    -0.106 A  
HETATM   14  C   UNL     1      -9.361   8.554  66.081  1.00  0.00    -0.279 A  
HETATM   15  C   UNL     1     -10.275   9.448  66.633  1.00  0.00    -0.319 A  
HETATM   16  C   UNL     1      -9.845  10.712  67.053  1.00  0.00    -0.185 A  
HETATM   17  O   UNL     1     -10.807  11.552  67.568  1.00  0.00    -0.211 OA 
HETATM   18  C   UNL     1     -10.967  12.687  66.814  1.00  0.00    -0.262 A  
HETATM   19  C   UNL     1      -9.931  13.597  66.607  1.00  0.00    -0.283 A  
HETATM   20  C   UNL     1     -10.135  14.697  65.764  1.00  0.00    -0.364 A  
HETATM   21  C   UNL     1     -11.389  14.917  65.202  1.00  0.00    -0.379 A  
HETATM   22  C   UNL     1     -12.440  14.036  65.453  1.00  0.00    -0.520 A  
HETATM   23 CL   UNL     1     -11.646  16.301  64.214  1.00  0.00    -0.241 Cl 
HETATM   24  C   UNL     1     -12.227  12.915  66.259  1.00  0.00    -0.340 A  
ENDBRANCH   5   8
TORSDOF 1
ENDMDL
MODEL       51
REMARK 921   NORMALIZED FREE ENERGY PREDICTED BY IDOCK:   -5.19 KCAL/MOL
REMARK 922        TOTAL FREE ENERGY PREDICTED BY IDOCK:   -5.88 KCAL/MOL
REMARK 923 INTER-LIGAND FREE ENERGY PREDICTED BY IDOCK:   -5.56 KCAL/MOL
REMARK 924 INTRA-LIGAND FREE ENERGY PREDICTED BY IDOCK:   -0.33 KCAL/MOL
REMARK 927      BINDING AFFINITY PREDICTED BY RF-SCORE:    0.00 PKD
ROOT
HETATM    1  C   UNL     1      -6.919   8.654  70.911  1.00  0.00    -0.064 C  
HETATM    2  N   UNL     1      -7.675   8.256  69.726  1.00  0.00    -0.096 NA 
HETATM    3  C   UNL     1      -9.109   8.583  69.854  1.00  0.00    -0.150 C  
HETATM    4  C   UNL     1      -9.452  10.087  69.769  1.00  0.00    -0.207 C  
HETATM    5  N   UNL     1      -8.872  10.705  68.567  1.00  0.00    -0.141 NA 
HETATM    6  C   UNL     1      -7.450  10.403  68.348  1.00  0.00    -0.091 C  
HETATM    7  C   UNL     1      -7.154   8.894  68.494  1.00  0.00    -0.072 C  
ENDROOT
BRANCH   5   8
HETATM    8  C   UNL     1      -9.615  11.452  67.651  1.00  0.00    -0.169 C  
HETATM    9  N   UNL     1     -10.087  10.867  66.583  1.00  0.00    -0.211 NA 
HETATM   10  C   UNL     1     -10.866  11.530  65.618  1.00  0.00    -0.252 A  
HETATM   11  H   UNL     1      -9.879   9.878  66.441  1.00  0.00     0.000 HD 
HETATM   12  C   UNL     1     -10.687  11.167  64.278  1.00  0.00    -0.403 A  
HETATM   13  C   UNL     1     -11.459  11.741  63.262  1.00  0.00    -0.332 A  
HETATM   14  C   UNL     1     -12.442  12.677  63.574  1.00  0.00    -0.516 A  
HETATM   15  C   UNL     1     -12.654  13.036  64.903  1.00  0.00    -0.490 A  
HETATM   16  C   UNL     1     -11.863  12.473  65.911  1.00  0.00    -0.430 A  
HETATM   17  O   UNL     1     -12.113  12.890  67.199  1.00  0.00    -0.362 OA 
HETATM   18  C   UNL     1     -11.038  13.535  67.757  1.00  0.00    -0.268 A  
HETATM   19  C   UNL     1      -9.804  12.911  67.936  1.00  0.00    -0.227 A  
HETATM   20  C   UNL     1      -8.724  13.646  68.440  1.00  0.00    -0.153 A  
HETATM   21  C   UNL     1      -8.907  14.969  68.831  1.00  0.00    -0.201 A  
HETATM   22  C   UNL     1     -10.156  15.576  68.702  1.00  0.00    -0.210 A  
HETATM   23 CL   UNL     1      -7.590  15.847  69.501  1.00  0.00    -0.201 Cl 
HETATM   24  C   UNL     1     -11.223  14.859  68.160  1.00  0.00    -0.310 A  
ENDBRANCH   5   8
TORSDOF 1
ENDMDL
MODEL       52
REMARK 921   NORMALIZED FREE ENERGY PREDICTED BY IDOCK:   -5.15 KCAL/MOL
REMARK 922        TOTAL FREE ENERGY PREDICTED BY IDOCK:   -5.84 KCAL/MOL
REMARK 923 INTER-LIGAND FREE ENERGY PREDICTED BY IDOCK:   -5.44 KCAL/MOL
REMARK 924 INTRA-LIGAND FREE ENERGY PREDICTED BY IDOCK:   -0.40 KCAL/MOL
REMARK 927      BINDING AFFINITY PREDICTED BY RF-SCORE:    0.00 PKD
ROOT
HETATM    1  C   UNL     1     -10.818   6.237  73.304  1.00  0.00    -0.244 C  
HETATM    2  N   UNL     1     -10.824   7.682  73.087  1.00  0.00    -0.399 NA 
HETATM    3  C   UNL     1      -9.570   8.147  72.461  1.00  0.00    -0.277 C  
HETATM    4  C   UNL     1      -9.391   7.760  70.977  1.00  0.00    -0.152 C  
HETATM    5  N   UNL     1     -10.561   8.147  70.174  1.00  0.00    -0.233 NA 
HETATM    6  C   UNL     1     -11.855   7.747  70.744  1.00  0.00    -0.187 C  
HETATM    7  C   UNL     1     -11.961   8.113  72.241  1.00  0.00    -0.377 C  
ENDROOT
BRANCH   5   8
HETATM    8  C   UNL     1     -10.475   8.906  69.005  1.00  0.00    -0.214 C  
HETATM    9  N   UNL     1     -10.840  10.160  69.029  1.00  0.00    -0.215 NA 
HETATM   10  C   UNL     1     -10.766  11.010  67.911  1.00  0.00    -0.219 A  
HETATM   11  H   UNL     1     -11.197  10.543  69.905  1.00  0.00     0.000 HD 
HETATM   12  C   UNL     1     -11.778  11.962  67.750  1.00  0.00    -0.362 A  
HETATM   13  C   UNL     1     -11.752  12.878  66.694  1.00  0.00    -0.452 A  
HETATM   14  C   UNL     1     -10.694  12.871  65.788  1.00  0.00    -0.293 A  
HETATM   15  C   UNL     1      -9.662  11.948  65.942  1.00  0.00    -0.258 A  
HETATM   16  C   UNL     1      -9.708  11.021  66.989  1.00  0.00    -0.182 A  
HETATM   17  O   UNL     1      -8.666  10.124  67.067  1.00  0.00    -0.132 OA 
HETATM   18  C   UNL     1      -9.080   8.827  66.903  1.00  0.00    -0.139 A  
HETATM   19  C   UNL     1      -9.992   8.219  67.764  1.00  0.00    -0.235 A  
HETATM   20  C   UNL     1     -10.434   6.917  67.498  1.00  0.00    -0.314 A  
HETATM   21  C   UNL     1      -9.904   6.211  66.422  1.00  0.00    -0.092 A  
HETATM   22  C   UNL     1      -8.951   6.800  65.592  1.00  0.00     0.019 A  
HETATM   23 CL   UNL     1     -10.410   4.593  66.136  1.00  0.00    -0.315 Cl 
HETATM   24  C   UNL     1      -8.541   8.113  65.830  1.00  0.00    -0.171 A  
ENDBRANCH   5   8
TORSDOF 1
ENDMDL
MODEL       53
REMARK 921   NORMALIZED FREE ENERGY PREDICTED BY IDOCK:   -5.09 KCAL/MOL
REMARK 922        TOTAL FREE ENERGY PREDICTED BY IDOCK:   -5.78 KCAL/MOL
REMARK 923 INTER-LIGAND FREE ENERGY PREDICTED BY IDOCK:   -5.54 KCAL/MOL
REMARK 924 INTRA-LIGAND FREE ENERGY PREDICTED BY IDOCK:   -0.24 KCAL/MOL
REMARK 927      BINDING AFFINITY PREDICTED BY RF-SCORE:    0.00 PKD
ROOT
HETATM    1  C   UNL     1     -13.281   9.831  71.075  1.00  0.00    -0.274 C  
HETATM    2  N   UNL     1     -12.104  10.634  71.399  1.00  0.00    -0.296 NA 
HETATM    3  C   UNL     1     -11.060  10.518  70.361  1.00  0.00    -0.244 C  
HETATM    4  C   UNL     1     -11.377  11.225  69.025  1.00  0.00    -0.278 C  
HETATM    5  N   UNL     1     -11.762  12.628  69.236  1.00  0.00    -0.310 NA 
HETATM    6  C   UNL     1     -12.779  12.835  70.278  1.00  0.00     0.144 C  
HETATM    7  C   UNL     1     -12.438  12.067  71.573  1.00  0.00    -0.059 C  
ENDROOT
BRANCH   5   8
HETATM    8  C   UNL     1     -11.163  13.700  68.570  1.00  0.00    -0.280 C  
HETATM    9  N   UNL     1     -10.763  14.735  69.258  1.00  0.00    -0.253 NA 
HETATM   10  C   UNL     1     -10.126  15.849  68.680  1.00  0.00    -0.216 A  
HETATM   11  H   UNL     1     -10.919  14.737  70.266  1.00  0.00     0.000 HD 
HETATM   12  C   UNL     1     -10.412  17.110  69.215  1.00  0.00    -0.267 A  
HETATM   13  C   UNL     1      -9.784  18.262  68.732  1.00  0.00    -0.348 A  
HETATM   14  C   UNL     1      -8.836  18.168  67.715  1.00  0.00    -0.259 A  
HETATM   15  C   UNL     1      -8.518  16.920  67.183  1.00  0.00    -0.218 A  
HETATM   16  C   UNL     1      -9.168  15.776  67.658  1.00  0.00    -0.200 A  
HETATM   17  O   UNL     1      -8.820  14.579  67.072  1.00  0.00    -0.215 OA 
HETATM   18  C   UNL     1      -9.874  13.991  66.420  1.00  0.00    -0.296 A  
HETATM   19  C   UNL     1     -11.041  13.610  67.080  1.00  0.00    -0.313 A  
HETATM   20  C   UNL     1     -12.112  13.085  66.345  1.00  0.00    -0.428 A  
HETATM   21  C   UNL     1     -11.976  12.874  64.976  1.00  0.00    -0.405 A  
HETATM   22  C   UNL     1     -10.788  13.205  64.325  1.00  0.00    -0.430 A  
HETATM   23 CL   UNL     1     -13.275  12.176  64.092  1.00  0.00    -0.173 Cl 
HETATM   24  C   UNL     1      -9.735  13.768  65.048  1.00  0.00     0.078 A  
ENDBRANCH   5   8
TORSDOF 1
ENDMDL
MODEL       54
REMARK 921   NORMALIZED FREE ENERGY PREDICTED BY IDOCK:   -5.01 KCAL/MOL
REMARK 922        TOTAL FREE ENERGY PREDICTED BY IDOCK:   -5.69 KCAL/MOL
REMARK 923 INTER-LIGAND FREE ENERGY PREDICTED BY IDOCK:   -5.30 KCAL/MOL
REMARK 924 INTRA-LIGAND FREE ENERGY PREDICTED BY IDOCK:   -0.40 KCAL/MOL
REMARK 927      BINDING AFFINITY PREDICTED BY RF-SCORE:    0.00 PKD
ROOT
HETATM    1  C   UNL     1      -9.271  13.600  67.041  1.00  0.00    -0.250 C  
HETATM    2  N   UNL     1      -9.290  12.184  66.682  1.00  0.00    -0.221 NA 
HETATM    3  C   UNL     1      -8.166  11.448  67.295  1.00  0.00    -0.150 C  
HETATM    4  C   UNL     1      -8.273  11.231  68.820  1.00  0.00    -0.122 C  
HETATM    5  N   UNL     1      -9.564  10.632  69.190  1.00  0.00    -0.198 NA 
HETATM    6  C   UNL     1     -10.738  11.289  68.596  1.00  0.00    -0.205 C  
HETATM    7  C   UNL     1     -10.557  11.526  67.081  1.00  0.00    -0.237 C  
ENDROOT
BRANCH   5   8
HETATM    8  C   UNL     1      -9.684   9.482  69.973  1.00  0.00    -0.236 C  
HETATM    9  N   UNL     1      -9.555   9.576  71.270  1.00  0.00    -0.304 NA 
HETATM   10  C   UNL     1      -9.683   8.479  72.141  1.00  0.00    -0.317 A  
HETATM   11  H   UNL     1      -9.350  10.491  71.671  1.00  0.00     0.000 HD 
HETATM   12  C   UNL     1      -8.849   8.441  73.263  1.00  0.00    -0.196 A  
HETATM   13  C   UNL     1      -8.948   7.412  74.207  1.00  0.00    -0.242 A  
HETATM   14  C   UNL     1      -9.905   6.411  74.052  1.00  0.00    -0.275 A  
HETATM   15  C   UNL     1     -10.762   6.442  72.955  1.00  0.00    -0.276 A  
HETATM   16  C   UNL     1     -10.641   7.463  72.005  1.00  0.00    -0.208 A  
HETATM   17  O   UNL     1     -11.507   7.418  70.936  1.00  0.00    -0.274 OA 
HETATM   18  C   UNL     1     -10.853   7.257  69.740  1.00  0.00    -0.235 A  
HETATM   19  C   UNL     1      -9.925   8.183  69.267  1.00  0.00    -0.188 A  
HETATM   20  C   UNL     1      -9.233   7.924  68.077  1.00  0.00    -0.134 A  
HETATM   21  C   UNL     1      -9.532   6.784  67.336  1.00  0.00    -0.134 A  
HETATM   22  C   UNL     1     -10.499   5.884  67.783  1.00  0.00    -0.300 A  
HETATM   23 CL   UNL     1      -8.719   6.501  65.847  1.00  0.00    -0.156 Cl 
HETATM   24  C   UNL     1     -11.159   6.119  68.991  1.00  0.00    -0.437 A  
ENDBRANCH   5   8
TORSDOF 1
ENDMDL
MODEL       55
REMARK 921   NORMALIZED FREE ENERGY PREDICTED BY IDOCK:   -4.98 KCAL/MOL
REMARK 922        TOTAL FREE ENERGY PREDICTED BY IDOCK:   -5.67 KCAL/MOL
REMARK 923 INTER-LIGAND FREE ENERGY PREDICTED BY IDOCK:   -5.46 KCAL/MOL
REMARK 924 INTRA-LIGAND FREE ENERGY PREDICTED BY IDOCK:   -0.20 KCAL/MOL
REMARK 927      BINDING AFFINITY PREDICTED BY RF-SCORE:    0.00 PKD
ROOT
HETATM    1  C   UNL     1      -7.812   7.995  66.605  1.00  0.00    -0.098 C  
HETATM    2  N   UNL     1      -8.597   8.846  65.715  1.00  0.00    -0.150 NA 
HETATM    3  C   UNL     1      -9.940   9.123  66.265  1.00  0.00    -0.282 C  
HETATM    4  C   UNL     1      -9.971  10.080  67.476  1.00  0.00    -0.190 C  
HETATM    5  N   UNL     1      -9.245  11.328  67.196  1.00  0.00    -0.162 NA 
HETATM    6  C   UNL     1      -7.907  11.141  66.616  1.00  0.00    -0.155 C  
HETATM    7  C   UNL     1      -7.924  10.138  65.442  1.00  0.00    -0.144 C  
ENDROOT
BRANCH   5   8
HETATM    8  C   UNL     1      -9.796  12.598  67.380  1.00  0.00    -0.205 C  
HETATM    9  N   UNL     1      -9.595  13.224  68.508  1.00  0.00    -0.362 NA 
HETATM   10  C   UNL     1     -10.087  14.515  68.775  1.00  0.00    -0.239 A  
HETATM   11  H   UNL     1      -9.052  12.754  69.232  1.00  0.00     0.000 HD 
HETATM   12  C   UNL     1     -10.511  14.790  70.079  1.00  0.00     0.016 A  
HETATM   13  C   UNL     1     -10.966  16.063  70.441  1.00  0.00    -0.347 A  
HETATM   14  C   UNL     1     -10.983  17.092  69.502  1.00  0.00     0.072 A  
HETATM   15  C   UNL     1     -10.543  16.847  68.204  1.00  0.00    -0.360 A  
HETATM   16  C   UNL     1     -10.111  15.565  67.846  1.00  0.00    -0.224 A  
HETATM   17  O   UNL     1      -9.711  15.390  66.540  1.00  0.00    -0.244 OA 
HETATM   18  C   UNL     1     -10.501  14.492  65.867  1.00  0.00    -0.312 A  
HETATM   19  C   UNL     1     -10.625  13.163  66.267  1.00  0.00    -0.292 A  
HETATM   20  C   UNL     1     -11.508  12.315  65.585  1.00  0.00    -0.416 A  
HETATM   21  C   UNL     1     -12.195  12.782  64.469  1.00  0.00    -0.433 A  
HETATM   22  C   UNL     1     -12.029  14.098  64.037  1.00  0.00    -0.359 A  
HETATM   23 CL   UNL     1     -13.233  11.719  63.604  1.00  0.00    -0.183 Cl 
HETATM   24  C   UNL     1     -11.183  14.957  64.741  1.00  0.00    -0.393 A  
ENDBRANCH   5   8
TORSDOF 1
ENDMDL
MODEL       56
REMARK 921   NORMALIZED FREE ENERGY PREDICTED BY IDOCK:   -4.96 KCAL/MOL
REMARK 922        TOTAL FREE ENERGY PREDICTED BY IDOCK:   -5.64 KCAL/MOL
REMARK 923 INTER-LIGAND FREE ENERGY PREDICTED BY IDOCK:   -5.23 KCAL/MOL
REMARK 924 INTRA-LIGAND FREE ENERGY PREDICTED BY IDOCK:   -0.41 KCAL/MOL
REMARK 927      BINDING AFFINITY PREDICTED BY RF-SCORE:    0.00 PKD
ROOT
HETATM    1  C   UNL     1     -11.464   5.393  72.724  1.00  0.00    -0.268 C  
HETATM    2  N   UNL     1     -11.802   6.766  72.359  1.00  0.00    -0.227 NA 
HETATM    3  C   UNL     1     -10.653   7.678  72.532  1.00  0.00    -0.281 C  
HETATM    4  C   UNL     1      -9.517   7.510  71.500  1.00  0.00    -0.150 C  
HETATM    5  N   UNL     1     -10.029   7.558  70.122  1.00  0.00    -0.191 NA 
HETATM    6  C   UNL     1     -11.196   6.699  69.872  1.00  0.00    -0.364 C  
HETATM    7  C   UNL     1     -12.279   6.870  70.960  1.00  0.00    -0.377 C  
ENDROOT
BRANCH   5   8
HETATM    8  C   UNL     1      -9.516   8.406  69.139  1.00  0.00    -0.155 C  
HETATM    9  N   UNL     1      -8.392   8.096  68.551  1.00  0.00    -0.125 NA 
HETATM   10  C   UNL     1      -7.811   8.873  67.533  1.00  0.00    -0.101 A  
HETATM   11  H   UNL     1      -7.911   7.246  68.845  1.00  0.00     0.000 HD 
HETATM   12  C   UNL     1      -6.415   8.964  67.502  1.00  0.00    -0.061 A  
HETATM   13  C   UNL     1      -5.756   9.675  66.493  1.00  0.00    -0.053 A  
HETATM   14  C   UNL     1      -6.487  10.291  65.480  1.00  0.00    -0.121 A  
HETATM   15  C   UNL     1      -7.877  10.193  65.476  1.00  0.00    -0.147 A  
HETATM   16  C   UNL     1      -8.528   9.499  66.502  1.00  0.00    -0.126 A  
HETATM   17  O   UNL     1      -9.903   9.462  66.447  1.00  0.00    -0.226 OA 
HETATM   18  C   UNL     1     -10.486  10.084  67.522  1.00  0.00    -0.254 A  
HETATM   19  C   UNL     1     -10.281   9.657  68.832  1.00  0.00    -0.214 A  
HETATM   20  C   UNL     1     -10.842  10.381  69.893  1.00  0.00    -0.353 A  
HETATM   21  C   UNL     1     -11.662  11.475  69.628  1.00  0.00    -0.351 A  
HETATM   22  C   UNL     1     -11.910  11.869  68.314  1.00  0.00    -0.343 A  
HETATM   23 CL   UNL     1     -12.392  12.324  70.932  1.00  0.00    -0.440 Cl 
HETATM   24  C   UNL     1     -11.318  11.175  67.258  1.00  0.00    -0.302 A  
ENDBRANCH   5   8
TORSDOF 1
ENDMDL
MODEL       57
REMARK 921   NORMALIZED FREE ENERGY PREDICTED BY IDOCK:   -4.94 KCAL/MOL
REMARK 922        TOTAL FREE ENERGY PREDICTED BY IDOCK:   -5.62 KCAL/MOL
REMARK 923 INTER-LIGAND FREE ENERGY PREDICTED BY IDOCK:   -5.35 KCAL/MOL
REMARK 924 INTRA-LIGAND FREE ENERGY PREDICTED BY IDOCK:   -0.27 KCAL/MOL
REMARK 927      BINDING AFFINITY PREDICTED BY RF-SCORE:    0.00 PKD
ROOT
HETATM    1  C   UNL     1     -12.296  14.959  64.434  1.00  0.00    -0.323 C  
HETATM    2  N   UNL     1     -12.686  13.940  65.406  1.00  0.00    -0.662 NA 
HETATM    3  C   UNL     1     -12.784  12.602  64.787  1.00  0.00    -0.379 C  
HETATM    4  C   UNL     1     -11.437  11.953  64.402  1.00  0.00    -0.320 C  
HETATM    5  N   UNL     1     -10.498  11.947  65.534  1.00  0.00    -0.258 NA 
HETATM    6  C   UNL     1     -10.363  13.237  66.226  1.00  0.00    -0.290 C  
HETATM    7  C   UNL     1     -11.739  13.864  66.543  1.00  0.00    -0.393 C  
ENDROOT
BRANCH   5   8
HETATM    8  C   UNL     1      -9.842  10.799  65.983  1.00  0.00    -0.235 C  
HETATM    9  N   UNL     1      -9.148  10.087  65.136  1.00  0.00    -0.186 NA 
HETATM   10  C   UNL     1      -8.433   8.932  65.500  1.00  0.00    -0.159 A  
HETATM   11  H   UNL     1      -9.123  10.384  64.161  1.00  0.00     0.000 HD 
HETATM   12  C   UNL     1      -8.390   7.878  64.580  1.00  0.00    -0.046 A  
HETATM   13  C   UNL     1      -7.659   6.715  64.842  1.00  0.00    -0.101 A  
HETATM   14  C   UNL     1      -6.936   6.596  66.027  1.00  0.00    -0.061 A  
HETATM   15  C   UNL     1      -6.945   7.641  66.947  1.00  0.00    -0.079 A  
HETATM   16  C   UNL     1      -7.697   8.792  66.686  1.00  0.00    -0.093 A  
HETATM   17  O   UNL     1      -7.676   9.776  67.649  1.00  0.00    -0.094 OA 
HETATM   18  C   UNL     1      -8.916  10.001  68.192  1.00  0.00    -0.122 A  
HETATM   19  C   UNL     1      -9.999  10.429  67.426  1.00  0.00    -0.226 A  
HETATM   20  C   UNL     1     -11.259  10.567  68.024  1.00  0.00    -0.361 A  
HETATM   21  C   UNL     1     -11.404  10.351  69.392  1.00  0.00    -0.250 A  
HETATM   22  C   UNL     1     -10.308   9.975  70.168  1.00  0.00    -0.321 A  
HETATM   23 CL   UNL     1     -12.941  10.577  70.129  1.00  0.00    -0.164 Cl 
HETATM   24  C   UNL     1      -9.061   9.795  69.566  1.00  0.00    -0.227 A  
ENDBRANCH   5   8
TORSDOF 1
ENDMDL
MODEL       58
REMARK 921   NORMALIZED FREE ENERGY PREDICTED BY IDOCK:   -4.94 KCAL/MOL
REMARK 922        TOTAL FREE ENERGY PREDICTED BY IDOCK:   -5.62 KCAL/MOL
REMARK 923 INTER-LIGAND FREE ENERGY PREDICTED BY IDOCK:   -5.20 KCAL/MOL
REMARK 924 INTRA-LIGAND FREE ENERGY PREDICTED BY IDOCK:   -0.42 KCAL/MOL
REMARK 927      BINDING AFFINITY PREDICTED BY RF-SCORE:    0.00 PKD
ROOT
HETATM    1  C   UNL     1      -7.615   4.206  66.256  1.00  0.00    -0.089 C  
HETATM    2  N   UNL     1      -7.525   4.180  67.714  1.00  0.00    -0.068 NA 
HETATM    3  C   UNL     1      -7.180   5.507  68.265  1.00  0.00    -0.071 C  
HETATM    4  C   UNL     1      -8.303   6.564  68.189  1.00  0.00    -0.116 C  
HETATM    5  N   UNL     1      -9.558   6.060  68.766  1.00  0.00    -0.127 NA 
HETATM    6  C   UNL     1      -9.959   4.728  68.291  1.00  0.00    -0.090 C  
HETATM    7  C   UNL     1      -8.787   3.723  68.342  1.00  0.00    -0.112 C  
ENDROOT
BRANCH   5   8
HETATM    8  C   UNL     1     -10.281   6.740  69.748  1.00  0.00    -0.187 C  
HETATM    9  N   UNL     1     -10.883   7.857  69.441  1.00  0.00    -0.399 NA 
HETATM   10  C   UNL     1     -11.654   8.598  70.354  1.00  0.00    -0.078 A  
HETATM   11  H   UNL     1     -10.788   8.211  68.489  1.00  0.00     0.000 HD 
HETATM   12  C   UNL     1     -11.606   9.993  70.263  1.00  0.00    -0.354 A  
HETATM   13  C   UNL     1     -12.382  10.803  71.100  1.00  0.00    -0.498 A  
HETATM   14  C   UNL     1     -13.241  10.224  72.032  1.00  0.00    -0.516 A  
HETATM   15  C   UNL     1     -13.323   8.836  72.125  1.00  0.00    -0.465 A  
HETATM   16  C   UNL     1     -12.526   8.036  71.298  1.00  0.00    -0.253 A  
HETATM   17  O   UNL     1     -12.644   6.673  71.459  1.00  0.00    -0.336 OA 
HETATM   18  C   UNL     1     -11.472   6.094  71.879  1.00  0.00    -0.300 A  
HETATM   19  C   UNL     1     -10.300   6.153  71.127  1.00  0.00    -0.257 A  
HETATM   20  C   UNL     1      -9.117   5.610  71.645  1.00  0.00    -0.150 A  
HETATM   21  C   UNL     1      -9.137   4.948  72.869  1.00  0.00    -0.121 A  
HETATM   22  C   UNL     1     -10.322   4.842  73.596  1.00  0.00    -0.254 A  
HETATM   23 CL   UNL     1      -7.693   4.234  73.472  1.00  0.00    -0.081 Cl 
HETATM   24  C   UNL     1     -11.492   5.420  73.102  1.00  0.00    -0.273 A  
ENDBRANCH   5   8
TORSDOF 1
ENDMDL
MODEL       59
REMARK 921   NORMALIZED FREE ENERGY PREDICTED BY IDOCK:   -4.93 KCAL/MOL
REMARK 922        TOTAL FREE ENERGY PREDICTED BY IDOCK:   -5.62 KCAL/MOL
REMARK 923 INTER-LIGAND FREE ENERGY PREDICTED BY IDOCK:   -5.89 KCAL/MOL
REMARK 924 INTRA-LIGAND FREE ENERGY PREDICTED BY IDOCK:    0.28 KCAL/MOL
REMARK 927      BINDING AFFINITY PREDICTED BY RF-SCORE:    0.00 PKD
ROOT
HETATM    1  C   UNL     1     -13.574  15.955  73.204  1.00  0.00    -0.499 C  
HETATM    2  N   UNL     1     -12.665  14.868  72.851  1.00  0.00    -0.405 NA 
HETATM    3  C   UNL     1     -13.257  13.964  71.844  1.00  0.00    -0.397 C  
HETATM    4  C   UNL     1     -13.372  14.549  70.420  1.00  0.00     0.153 C  
HETATM    5  N   UNL     1     -12.088  15.093  69.955  1.00  0.00    -0.328 NA 
HETATM    6  C   UNL     1     -11.415  15.982  70.914  1.00  0.00    -0.416 C  
HETATM    7  C   UNL     1     -11.372  15.370  72.331  1.00  0.00    -0.277 C  
ENDROOT
BRANCH   5   8
HETATM    8  C   UNL     1     -11.497  14.741  68.740  1.00  0.00    -0.301 C  
HETATM    9  N   UNL     1     -11.273  13.480  68.480  1.00  0.00    -0.261 NA 
HETATM   10  C   UNL     1     -10.707  13.027  67.275  1.00  0.00    -0.250 A  
HETATM   11  H   UNL     1     -11.522  12.789  69.188  1.00  0.00     0.000 HD 
HETATM   12  C   UNL     1      -9.839  11.931  67.337  1.00  0.00    -0.192 A  
HETATM   13  C   UNL     1      -9.274  11.386  66.180  1.00  0.00    -0.223 A  
HETATM   14  C   UNL     1      -9.588  11.919  64.931  1.00  0.00    -0.087 A  
HETATM   15  C   UNL     1     -10.468  12.995  64.843  1.00  0.00    -0.358 A  
HETATM   16  C   UNL     1     -11.011  13.547  66.008  1.00  0.00    -0.275 A  
HETATM   17  O   UNL     1     -11.856  14.622  65.847  1.00  0.00    -0.347 OA 
HETATM   18  C   UNL     1     -11.369  15.762  66.435  1.00  0.00     0.143 A  
HETATM   19  C   UNL     1     -11.120  15.848  67.804  1.00  0.00    -0.288 A  
HETATM   20  C   UNL     1     -10.549  17.013  68.332  1.00  0.00    -0.375 A  
HETATM   21  C   UNL     1     -10.306  18.104  67.502  1.00  0.00    -0.392 A  
HETATM   22  C   UNL     1     -10.606  18.037  66.142  1.00  0.00    -0.269 A  
HETATM   23 CL   UNL     1      -9.658  19.550  68.169  1.00  0.00    -0.427 Cl 
HETATM   24  C   UNL     1     -11.135  16.861  65.606  1.00  0.00     0.178 A  
ENDBRANCH   5   8
TORSDOF 1
ENDMDL
MODEL       60
REMARK 921   NORMALIZED FREE ENERGY PREDICTED BY IDOCK:   -4.90 KCAL/MOL
REMARK 922        TOTAL FREE ENERGY PREDICTED BY IDOCK:   -5.58 KCAL/MOL
REMARK 923 INTER-LIGAND FREE ENERGY PREDICTED BY IDOCK:   -6.19 KCAL/MOL
REMARK 924 INTRA-LIGAND FREE ENERGY PREDICTED BY IDOCK:    0.61 KCAL/MOL
REMARK 927      BINDING AFFINITY PREDICTED BY RF-SCORE:    0.00 PKD
ROOT
HETATM    1  C   UNL     1     -13.126   9.779  71.127  1.00  0.00    -0.346 C  
HETATM    2  N   UNL     1     -11.869  10.519  71.055  1.00  0.00    -0.355 NA 
HETATM    3  C   UNL     1     -10.733   9.638  70.717  1.00  0.00    -0.331 C  
HETATM    4  C   UNL     1     -10.706   9.128  69.260  1.00  0.00    -0.183 C  
HETATM    5  N   UNL     1     -10.823  10.235  68.298  1.00  0.00    -0.237 NA 
HETATM    6  C   UNL     1     -11.915  11.179  68.581  1.00  0.00    -0.219 C  
HETATM    7  C   UNL     1     -11.925  11.618  70.062  1.00  0.00    -0.351 C  
ENDROOT
BRANCH   5   8
HETATM    8  C   UNL     1      -9.929  10.438  67.245  1.00  0.00    -0.188 C  
HETATM    9  N   UNL     1      -8.688  10.057  67.378  1.00  0.00    -0.125 NA 
HETATM   10  C   UNL     1      -7.722  10.196  66.365  1.00  0.00    -0.111 A  
HETATM   11  H   UNL     1      -8.403   9.636  68.263  1.00  0.00     0.000 HD 
HETATM   12  C   UNL     1      -6.414  10.505  66.752  1.00  0.00    -0.081 A  
HETATM   13  C   UNL     1      -5.384  10.610  65.812  1.00  0.00    -0.115 A  
HETATM   14  C   UNL     1      -5.644  10.385  64.462  1.00  0.00    -0.135 A  
HETATM   15  C   UNL     1      -6.934  10.053  64.055  1.00  0.00    -0.124 A  
HETATM   16  C   UNL     1      -7.962   9.972  65.001  1.00  0.00    -0.143 A  
HETATM   17  O   UNL     1      -9.217   9.661  64.525  1.00  0.00    -0.248 OA 
HETATM   18  C   UNL     1     -10.121  10.670  64.738  1.00  0.00    -0.344 A  
HETATM   19  C   UNL     1     -10.448  11.121  66.016  1.00  0.00    -0.312 A  
HETATM   20  C   UNL     1     -11.321  12.207  66.165  1.00  0.00    -0.414 A  
HETATM   21  C   UNL     1     -11.914  12.777  65.043  1.00  0.00    -0.412 A  
HETATM   22  C   UNL     1     -11.629  12.291  63.768  1.00  0.00    -0.555 A  
HETATM   23 CL   UNL     1     -13.028  14.073  65.238  1.00  0.00    -0.422 Cl 
HETATM   24  C   UNL     1     -10.727  11.236  63.615  1.00  0.00    -0.438 A  
ENDBRANCH   5   8
TORSDOF 1
ENDMDL
MODEL       61
REMARK 921   NORMALIZED FREE ENERGY PREDICTED BY IDOCK:   -4.85 KCAL/MOL
REMARK 922        TOTAL FREE ENERGY PREDICTED BY IDOCK:   -5.53 KCAL/MOL
REMARK 923 INTER-LIGAND FREE ENERGY PREDICTED BY IDOCK:   -5.35 KCAL/MOL
REMARK 924 INTRA-LIGAND FREE ENERGY PREDICTED BY IDOCK:   -0.18 KCAL/MOL
REMARK 927      BINDING AFFINITY PREDICTED BY RF-SCORE:    0.00 PKD
ROOT
HETATM    1  C   UNL     1     -11.420  14.933  65.285  1.00  0.00    -0.336 C  
HETATM    2  N   UNL     1     -12.075  13.916  66.104  1.00  0.00    -0.422 NA 
HETATM    3  C   UNL     1     -12.219  12.637  65.379  1.00  0.00    -0.459 C  
HETATM    4  C   UNL     1     -10.908  11.852  65.162  1.00  0.00    -0.300 C  
HETATM    5  N   UNL     1     -10.174  11.667  66.423  1.00  0.00    -0.215 NA 
HETATM    6  C   UNL     1     -10.012  12.890  67.222  1.00  0.00    -0.224 C  
HETATM    7  C   UNL     1     -11.342  13.662  67.367  1.00  0.00    -0.315 C  
ENDROOT
BRANCH   5   8
HETATM    8  C   UNL     1      -9.732  10.424  66.882  1.00  0.00    -0.181 C  
HETATM    9  N   UNL     1      -9.088   9.634  66.065  1.00  0.00    -0.160 NA 
HETATM   10  C   UNL     1      -8.583   8.377  66.443  1.00  0.00    -0.127 A  
HETATM   11  H   UNL     1      -8.944   9.945  65.104  1.00  0.00     0.000 HD 
HETATM   12  C   UNL     1      -8.626   7.349  65.495  1.00  0.00    -0.093 A  
HETATM   13  C   UNL     1      -8.098   6.083  65.772  1.00  0.00    -0.123 A  
HETATM   14  C   UNL     1      -7.495   5.832  67.003  1.00  0.00    -0.081 A  
HETATM   15  C   UNL     1      -7.419   6.847  67.953  1.00  0.00    -0.099 A  
HETATM   16  C   UNL     1      -7.970   8.103  67.674  1.00  0.00    -0.122 A  
HETATM   17  O   UNL     1      -7.878   9.052  68.668  1.00  0.00    -0.098 OA 
HETATM   18  C   UNL     1      -9.109   9.450  69.126  1.00  0.00    -0.148 A  
HETATM   19  C   UNL     1     -10.054  10.052  68.297  1.00  0.00    -0.182 A  
HETATM   20  C   UNL     1     -11.322  10.365  68.805  1.00  0.00    -0.275 A  
HETATM   21  C   UNL     1     -11.603  10.144  70.150  1.00  0.00    -0.277 A  
HETATM   22  C   UNL     1     -10.639   9.591  70.992  1.00  0.00    -0.392 A  
HETATM   23 CL   UNL     1     -13.142  10.583  70.779  1.00  0.00    -0.405 Cl 
HETATM   24  C   UNL     1      -9.389   9.239  70.477  1.00  0.00    -0.316 A  
ENDBRANCH   5   8
TORSDOF 1
ENDMDL
MODEL       62
REMARK 921   NORMALIZED FREE ENERGY PREDICTED BY IDOCK:   -4.84 KCAL/MOL
REMARK 922        TOTAL FREE ENERGY PREDICTED BY IDOCK:   -5.52 KCAL/MOL
REMARK 923 INTER-LIGAND FREE ENERGY PREDICTED BY IDOCK:   -5.12 KCAL/MOL
REMARK 924 INTRA-LIGAND FREE ENERGY PREDICTED BY IDOCK:   -0.40 KCAL/MOL
REMARK 927      BINDING AFFINITY PREDICTED BY RF-SCORE:    0.00 PKD
ROOT
HETATM    1  C   UNL     1      -8.978   8.473  64.764  1.00  0.00     0.180 C  
HETATM    2  N   UNL     1      -8.464   9.763  64.310  1.00  0.00    -0.163 NA 
HETATM    3  C   UNL     1      -9.550  10.739  64.088  1.00  0.00    -0.284 C  
HETATM    4  C   UNL     1     -10.227  11.274  65.368  1.00  0.00    -0.270 C  
HETATM    5  N   UNL     1      -9.238  11.791  66.326  1.00  0.00    -0.220 NA 
HETATM    6  C   UNL     1      -8.104  10.890  66.582  1.00  0.00    -0.147 C  
HETATM    7  C   UNL     1      -7.497  10.345  65.271  1.00  0.00    -0.113 C  
ENDROOT
BRANCH   5   8
HETATM    8  C   UNL     1      -9.308  13.064  66.894  1.00  0.00    -0.241 C  
HETATM    9  N   UNL     1      -8.442  13.973  66.533  1.00  0.00    -0.383 NA 
HETATM   10  C   UNL     1      -8.448  15.289  67.030  1.00  0.00    -0.228 A  
HETATM   11  H   UNL     1      -7.723  13.715  65.856  1.00  0.00     0.000 HD 
HETATM   12  C   UNL     1      -7.212  15.910  67.240  1.00  0.00    -0.251 A  
HETATM   13  C   UNL     1      -7.130  17.234  67.683  1.00  0.00    -0.179 A  
HETATM   14  C   UNL     1      -8.293  17.970  67.903  1.00  0.00    -0.249 A  
HETATM   15  C   UNL     1      -9.535  17.380  67.678  1.00  0.00    -0.251 A  
HETATM   16  C   UNL     1      -9.606  16.048  67.256  1.00  0.00    -0.225 A  
HETATM   17  O   UNL     1     -10.866  15.524  67.074  1.00  0.00    -0.320 OA 
HETATM   18  C   UNL     1     -11.125  14.480  67.926  1.00  0.00    -0.279 A  
HETATM   19  C   UNL     1     -10.369  13.309  67.923  1.00  0.00    -0.239 A  
HETATM   20  C   UNL     1     -10.635  12.311  68.869  1.00  0.00    -0.170 A  
HETATM   21  C   UNL     1     -11.698  12.460  69.754  1.00  0.00    -0.291 A  
HETATM   22  C   UNL     1     -12.488  13.609  69.721  1.00  0.00    -0.193 A  
HETATM   23 CL   UNL     1     -12.052  11.205  70.875  1.00  0.00    -0.446 Cl 
HETATM   24  C   UNL     1     -12.199  14.623  68.807  1.00  0.00    -0.154 A  
ENDBRANCH   5   8
TORSDOF 1
ENDMDL
MODEL       63
REMARK 921   NORMALIZED FREE ENERGY PREDICTED BY IDOCK:   -4.81 KCAL/MOL
REMARK 922        TOTAL FREE ENERGY PREDICTED BY IDOCK:   -5.49 KCAL/MOL
REMARK 923 INTER-LIGAND FREE ENERGY PREDICTED BY IDOCK:   -5.16 KCAL/MOL
REMARK 924 INTRA-LIGAND FREE ENERGY PREDICTED BY IDOCK:   -0.33 KCAL/MOL
REMARK 927      BINDING AFFINITY PREDICTED BY RF-SCORE:    0.00 PKD
ROOT
HETATM    1  C   UNL     1     -11.992  14.886  64.289  1.00  0.00    -0.338 C  
HETATM    2  N   UNL     1     -12.451  13.500  64.328  1.00  0.00    -0.646 NA 
HETATM    3  C   UNL     1     -11.652  12.633  63.439  1.00  0.00    -0.469 C  
HETATM    4  C   UNL     1     -10.213  12.343  63.921  1.00  0.00    -0.383 C  
HETATM    5  N   UNL     1     -10.198  11.843  65.304  1.00  0.00    -0.263 NA 
HETATM    6  C   UNL     1     -10.997  12.635  66.251  1.00  0.00    -0.283 C  
HETATM    7  C   UNL     1     -12.407  12.938  65.699  1.00  0.00    -0.423 C  
ENDROOT
BRANCH   5   8
HETATM    8  C   UNL     1      -9.552  10.667  65.690  1.00  0.00    -0.218 C  
HETATM    9  N   UNL     1     -10.239   9.559  65.776  1.00  0.00    -0.270 NA 
HETATM   10  C   UNL     1      -9.672   8.322  66.132  1.00  0.00    -0.119 A  
HETATM   11  H   UNL     1     -11.239   9.593  65.575  1.00  0.00     0.000 HD 
HETATM   12  C   UNL     1     -10.444   7.454  66.911  1.00  0.00    -0.379 A  
HETATM   13  C   UNL     1      -9.975   6.185  67.265  1.00  0.00    -0.174 A  
HETATM   14  C   UNL     1      -8.726   5.753  66.824  1.00  0.00    -0.116 A  
HETATM   15  C   UNL     1      -7.950   6.591  66.027  1.00  0.00    -0.112 A  
HETATM   16  C   UNL     1      -8.419   7.867  65.696  1.00  0.00    -0.147 A  
HETATM   17  O   UNL     1      -7.589   8.649  64.924  1.00  0.00    -0.092 OA 
HETATM   18  C   UNL     1      -7.188   9.788  65.576  1.00  0.00    -0.108 A  
HETATM   19  C   UNL     1      -8.093  10.751  66.019  1.00  0.00    -0.158 A  
HETATM   20  C   UNL     1      -7.628  11.854  66.747  1.00  0.00    -0.034 A  
HETATM   21  C   UNL     1      -6.263  12.021  66.957  1.00  0.00    -0.130 A  
HETATM   22  C   UNL     1      -5.353  11.084  66.466  1.00  0.00    -0.103 A  
HETATM   23 CL   UNL     1      -5.696  13.407  67.802  1.00  0.00    -0.128 Cl 
HETATM   24  C   UNL     1      -5.818   9.962  65.778  1.00  0.00    -0.065 A  
ENDBRANCH   5   8
TORSDOF 1
ENDMDL
MODEL       64
REMARK 921   NORMALIZED FREE ENERGY PREDICTED BY IDOCK:   -4.75 KCAL/MOL
REMARK 922        TOTAL FREE ENERGY PREDICTED BY IDOCK:   -5.42 KCAL/MOL
REMARK 923 INTER-LIGAND FREE ENERGY PREDICTED BY IDOCK:   -4.99 KCAL/MOL
REMARK 924 INTRA-LIGAND FREE ENERGY PREDICTED BY IDOCK:   -0.43 KCAL/MOL
REMARK 927      BINDING AFFINITY PREDICTED BY RF-SCORE:    0.00 PKD
ROOT
HETATM    1  C   UNL     1      -9.215   3.823  70.321  1.00  0.00    -0.149 C  
HETATM    2  N   UNL     1     -10.105   4.883  70.789  1.00  0.00    -0.236 NA 
HETATM    3  C   UNL     1      -9.412   5.819  71.699  1.00  0.00    -0.152 C  
HETATM    4  C   UNL     1      -8.385   6.754  71.024  1.00  0.00    -0.127 C  
HETATM    5  N   UNL     1      -8.972   7.465  69.879  1.00  0.00    -0.142 NA 
HETATM    6  C   UNL     1      -9.708   6.608  68.938  1.00  0.00    -0.135 C  
HETATM    7  C   UNL     1     -10.685   5.659  69.668  1.00  0.00    -0.328 C  
ENDROOT
BRANCH   5   8
HETATM    8  C   UNL     1      -8.919   8.851  69.724  1.00  0.00    -0.149 C  
HETATM    9  N   UNL     1      -7.782   9.417  69.419  1.00  0.00    -0.080 NA 
HETATM   10  C   UNL     1      -7.636  10.801  69.218  1.00  0.00    -0.129 A  
HETATM   11  H   UNL     1      -6.958   8.824  69.323  1.00  0.00     0.000 HD 
HETATM   12  C   UNL     1      -6.446  11.398  69.650  1.00  0.00    -0.133 A  
HETATM   13  C   UNL     1      -6.199  12.759  69.442  1.00  0.00    -0.112 A  
HETATM   14  C   UNL     1      -7.136  13.545  68.774  1.00  0.00    -0.103 A  
HETATM   15  C   UNL     1      -8.317  12.968  68.314  1.00  0.00    -0.158 A  
HETATM   16  C   UNL     1      -8.564  11.610  68.547  1.00  0.00    -0.134 A  
HETATM   17  O   UNL     1      -9.761  11.112  68.083  1.00  0.00    -0.169 OA 
HETATM   18  C   UNL     1     -10.566  10.659  69.098  1.00  0.00    -0.226 A  
HETATM   19  C   UNL     1     -10.183   9.624  69.949  1.00  0.00    -0.279 A  
HETATM   20  C   UNL     1     -11.016   9.259  71.015  1.00  0.00    -0.390 A  
HETATM   21  C   UNL     1     -12.253   9.878  71.170  1.00  0.00    -0.373 A  
HETATM   22  C   UNL     1     -12.660  10.875  70.285  1.00  0.00    -0.342 A  
HETATM   23 CL   UNL     1     -13.294   9.384  72.447  1.00  0.00    -0.523 Cl 
HETATM   24  C   UNL     1     -11.813  11.270  69.249  1.00  0.00    -0.423 A  
ENDBRANCH   5   8
TORSDOF 1
ENDMDL
MODEL       65
REMARK 921   NORMALIZED FREE ENERGY PREDICTED BY IDOCK:   -4.72 KCAL/MOL
REMARK 922        TOTAL FREE ENERGY PREDICTED BY IDOCK:   -5.39 KCAL/MOL
REMARK 923 INTER-LIGAND FREE ENERGY PREDICTED BY IDOCK:   -4.96 KCAL/MOL
REMARK 924 INTRA-LIGAND FREE ENERGY PREDICTED BY IDOCK:   -0.43 KCAL/MOL
REMARK 927      BINDING AFFINITY PREDICTED BY RF-SCORE:    0.00 PKD
ROOT
HETATM    1  C   UNL     1     -11.083  12.050  64.880  1.00  0.00    -0.316 C  
HETATM    2  N   UNL     1     -10.026  12.053  65.888  1.00  0.00    -0.231 NA 
HETATM    3  C   UNL     1     -10.568  12.233  67.250  1.00  0.00    -0.224 C  
HETATM    4  C   UNL     1     -11.332  11.018  67.820  1.00  0.00    -0.292 C  
HETATM    5  N   UNL     1     -10.536   9.786  67.724  1.00  0.00    -0.229 NA 
HETATM    6  C   UNL     1      -9.934   9.547  66.404  1.00  0.00    -0.269 C  
HETATM    7  C   UNL     1      -9.226  10.807  65.860  1.00  0.00    -0.190 C  
ENDROOT
BRANCH   5   8
HETATM    8  C   UNL     1     -10.290   8.941  68.808  1.00  0.00    -0.211 C  
HETATM    9  N   UNL     1     -11.254   8.185  69.261  1.00  0.00    -0.412 NA 
HETATM   10  C   UNL     1     -11.095   7.285  70.330  1.00  0.00    -0.268 A  
HETATM   11  H   UNL     1     -12.169   8.250  68.815  1.00  0.00     0.000 HD 
HETATM   12  C   UNL     1     -12.173   7.123  71.207  1.00  0.00    -0.403 A  
HETATM   13  C   UNL     1     -12.116   6.210  72.266  1.00  0.00    -0.237 A  
HETATM   14  C   UNL     1     -10.980   5.425  72.452  1.00  0.00    -0.298 A  
HETATM   15  C   UNL     1      -9.904   5.552  71.576  1.00  0.00    -0.221 A  
HETATM   16  C   UNL     1      -9.962   6.484  70.534  1.00  0.00    -0.184 A  
HETATM   17  O   UNL     1      -8.854   6.571  69.721  1.00  0.00    -0.141 OA 
HETATM   18  C   UNL     1      -8.257   7.805  69.783  1.00  0.00    -0.129 A  
HETATM   19  C   UNL     1      -8.922   8.975  69.419  1.00  0.00    -0.145 A  
HETATM   20  C   UNL     1      -8.285  10.212  69.577  1.00  0.00    -0.176 A  
HETATM   21  C   UNL     1      -6.967  10.260  70.024  1.00  0.00    -0.151 A  
HETATM   22  C   UNL     1      -6.284   9.086  70.336  1.00  0.00    -0.042 A  
HETATM   23 CL   UNL     1      -6.173  11.779  70.162  1.00  0.00    -0.145 Cl 
HETATM   24  C   UNL     1      -6.932   7.855  70.220  1.00  0.00    -0.049 A  
ENDBRANCH   5   8
TORSDOF 1
ENDMDL
MODEL       66
REMARK 921   NORMALIZED FREE ENERGY PREDICTED BY IDOCK:   -4.71 KCAL/MOL
REMARK 922        TOTAL FREE ENERGY PREDICTED BY IDOCK:   -5.38 KCAL/MOL
REMARK 923 INTER-LIGAND FREE ENERGY PREDICTED BY IDOCK:   -5.06 KCAL/MOL
REMARK 924 INTRA-LIGAND FREE ENERGY PREDICTED BY IDOCK:   -0.31 KCAL/MOL
REMARK 927      BINDING AFFINITY PREDICTED BY RF-SCORE:    0.00 PKD
ROOT
HETATM    1  C   UNL     1     -11.012  15.035  67.403  1.00  0.00    -0.315 C  
HETATM    2  N   UNL     1     -10.602  13.834  66.680  1.00  0.00    -0.273 NA 
HETATM    3  C   UNL     1      -9.314  13.308  67.176  1.00  0.00    -0.240 C  
HETATM    4  C   UNL     1      -9.365  12.649  68.572  1.00  0.00    -0.080 C  
HETATM    5  N   UNL     1     -10.420  11.627  68.648  1.00  0.00    -0.209 NA 
HETATM    6  C   UNL     1     -11.731  12.062  68.143  1.00  0.00    -0.333 C  
HETATM    7  C   UNL     1     -11.616  12.757  66.769  1.00  0.00    -0.370 C  
ENDROOT
BRANCH   5   8
HETATM    8  C   UNL     1     -10.196  10.319  69.082  1.00  0.00    -0.218 C  
HETATM    9  N   UNL     1     -10.260  10.050  70.358  1.00  0.00    -0.395 NA 
HETATM   10  C   UNL     1     -10.074   8.760  70.886  1.00  0.00    -0.219 A  
HETATM   11  H   UNL     1     -10.456  10.814  71.004  1.00  0.00     0.000 HD 
HETATM   12  C   UNL     1      -9.420   8.651  72.118  1.00  0.00    -0.373 A  
HETATM   13  C   UNL     1      -9.240   7.410  72.738  1.00  0.00    -0.192 A  
HETATM   14  C   UNL     1      -9.735   6.252  72.141  1.00  0.00    -0.164 A  
HETATM   15  C   UNL     1     -10.412   6.339  70.926  1.00  0.00    -0.274 A  
HETATM   16  C   UNL     1     -10.567   7.582  70.304  1.00  0.00    -0.229 A  
HETATM   17  O   UNL     1     -11.227   7.590  69.095  1.00  0.00     0.021 OA 
HETATM   18  C   UNL     1     -10.427   8.019  68.066  1.00  0.00    -0.184 A  
HETATM   19  C   UNL     1      -9.858   9.292  68.044  1.00  0.00    -0.191 A  
HETATM   20  C   UNL     1      -8.988   9.644  67.005  1.00  0.00    -0.150 A  
HETATM   21  C   UNL     1      -8.758   8.751  65.962  1.00  0.00    -0.167 A  
HETATM   22  C   UNL     1      -9.369   7.498  65.957  1.00  0.00    -0.061 A  
HETATM   23 CL   UNL     1      -7.732   9.212  64.661  1.00  0.00    -0.109 Cl 
HETATM   24  C   UNL     1     -10.203   7.129  67.014  1.00  0.00    -0.339 A  
ENDBRANCH   5   8
TORSDOF 1
ENDMDL
MODEL       67
REMARK 921   NORMALIZED FREE ENERGY PREDICTED BY IDOCK:   -4.67 KCAL/MOL
REMARK 922        TOTAL FREE ENERGY PREDICTED BY IDOCK:   -5.34 KCAL/MOL
REMARK 923 INTER-LIGAND FREE ENERGY PREDICTED BY IDOCK:   -4.98 KCAL/MOL
REMARK 924 INTRA-LIGAND FREE ENERGY PREDICTED BY IDOCK:   -0.36 KCAL/MOL
REMARK 927      BINDING AFFINITY PREDICTED BY RF-SCORE:    0.00 PKD
ROOT
HETATM    1  C   UNL     1      -8.030   3.460  64.214  1.00  0.00    -0.086 C  
HETATM    2  N   UNL     1      -8.035   3.339  65.670  1.00  0.00    -0.085 NA 
HETATM    3  C   UNL     1      -7.231   4.400  66.311  1.00  0.00    -0.076 C  
HETATM    4  C   UNL     1      -7.849   5.814  66.263  1.00  0.00    -0.101 C  
HETATM    5  N   UNL     1      -9.230   5.817  66.767  1.00  0.00    -0.127 NA 
HETATM    6  C   UNL     1     -10.092   4.770  66.200  1.00  0.00    -0.262 C  
HETATM    7  C   UNL     1      -9.407   3.385  66.227  1.00  0.00    -0.145 C  
ENDROOT
BRANCH   5   8
HETATM    8  C   UNL     1      -9.684   6.682  67.765  1.00  0.00    -0.123 C  
HETATM    9  N   UNL     1     -10.168   6.184  68.871  1.00  0.00    -0.171 NA 
HETATM   10  C   UNL     1     -10.625   6.975  69.941  1.00  0.00    -0.229 A  
HETATM   11  H   UNL     1     -10.217   5.169  68.964  1.00  0.00     0.000 HD 
HETATM   12  C   UNL     1     -11.735   6.517  70.658  1.00  0.00    -0.436 A  
HETATM   13  C   UNL     1     -12.221   7.216  71.768  1.00  0.00    -0.379 A  
HETATM   14  C   UNL     1     -11.586   8.381  72.193  1.00  0.00    -0.442 A  
HETATM   15  C   UNL     1     -10.464   8.843  71.508  1.00  0.00    -0.393 A  
HETATM   16  C   UNL     1      -9.999   8.148  70.386  1.00  0.00    -0.188 A  
HETATM   17  O   UNL     1      -8.899   8.674  69.746  1.00  0.00    -0.133 OA 
HETATM   18  C   UNL     1      -9.178   9.056  68.458  1.00  0.00    -0.136 A  
HETATM   19  C   UNL     1      -9.617   8.154  67.491  1.00  0.00    -0.196 A  
HETATM   20  C   UNL     1      -9.960   8.619  66.215  1.00  0.00    -0.287 A  
HETATM   21  C   UNL     1      -9.786   9.963  65.897  1.00  0.00    -0.262 A  
HETATM   22  C   UNL     1      -9.295  10.856  66.849  1.00  0.00    -0.186 A  
HETATM   23 CL   UNL     1     -10.154  10.515  64.311  1.00  0.00    -0.409 Cl 
HETATM   24  C   UNL     1      -8.994  10.402  68.134  1.00  0.00    -0.132 A  
ENDBRANCH   5   8
TORSDOF 1
ENDMDL
MODEL       68
REMARK 921   NORMALIZED FREE ENERGY PREDICTED BY IDOCK:   -4.66 KCAL/MOL
REMARK 922        TOTAL FREE ENERGY PREDICTED BY IDOCK:   -5.33 KCAL/MOL
REMARK 923 INTER-LIGAND FREE ENERGY PREDICTED BY IDOCK:   -4.90 KCAL/MOL
REMARK 924 INTRA-LIGAND FREE ENERGY PREDICTED BY IDOCK:   -0.43 KCAL/MOL
REMARK 927      BINDING AFFINITY PREDICTED BY RF-SCORE:    0.00 PKD
ROOT
HETATM    1  C   UNL     1     -12.540  13.965  65.568  1.00  0.00    -0.526 C  
HETATM    2  N   UNL     1     -11.288  13.857  66.313  1.00  0.00    -0.317 NA 
HETATM    3  C   UNL     1     -11.499  13.278  67.656  1.00  0.00    -0.321 C  
HETATM    4  C   UNL     1     -11.834  11.771  67.679  1.00  0.00    -0.171 C  
HETATM    5  N   UNL     1     -10.853  10.988  66.911  1.00  0.00    -0.276 NA 
HETATM    6  C   UNL     1     -10.563  11.515  65.570  1.00  0.00    -0.281 C  
HETATM    7  C   UNL     1     -10.284  13.034  65.598  1.00  0.00    -0.287 C  
ENDROOT
BRANCH   5   8
HETATM    8  C   UNL     1     -10.178   9.880  67.428  1.00  0.00    -0.222 C  
HETATM    9  N   UNL     1     -10.832   8.766  67.618  1.00  0.00    -0.489 NA 
HETATM   10  C   UNL     1     -10.233   7.591  68.109  1.00  0.00    -0.189 A  
HETATM   11  H   UNL     1     -11.828   8.746  67.399  1.00  0.00     0.000 HD 
HETATM   12  C   UNL     1     -10.993   6.783  68.962  1.00  0.00    -0.281 A  
HETATM   13  C   UNL     1     -10.491   5.573  69.453  1.00  0.00    -0.360 A  
HETATM   14  C   UNL     1      -9.221   5.139  69.078  1.00  0.00    -0.156 A  
HETATM   15  C   UNL     1      -8.457   5.915  68.210  1.00  0.00    -0.114 A  
HETATM   16  C   UNL     1      -8.959   7.135  67.742  1.00  0.00    -0.122 A  
HETATM   17  O   UNL     1      -8.140   7.860  66.905  1.00  0.00    -0.112 OA 
HETATM   18  C   UNL     1      -7.787   9.072  67.442  1.00  0.00    -0.100 A  
HETATM   19  C   UNL     1      -8.729  10.046  67.768  1.00  0.00    -0.125 A  
HETATM   20  C   UNL     1      -8.312  11.233  68.385  1.00  0.00    -0.152 A  
HETATM   21  C   UNL     1      -6.956  11.465  68.597  1.00  0.00    -0.087 A  
HETATM   22  C   UNL     1      -6.010  10.513  68.221  1.00  0.00    -0.043 A  
HETATM   23 CL   UNL     1      -6.449  12.949  69.303  1.00  0.00    -0.106 Cl 
HETATM   24  C   UNL     1      -6.426   9.311  67.645  1.00  0.00    -0.063 A  
ENDBRANCH   5   8
TORSDOF 1
ENDMDL
MODEL       69
REMARK 921   NORMALIZED FREE ENERGY PREDICTED BY IDOCK:   -4.65 KCAL/MOL
REMARK 922        TOTAL FREE ENERGY PREDICTED BY IDOCK:   -5.31 KCAL/MOL
REMARK 923 INTER-LIGAND FREE ENERGY PREDICTED BY IDOCK:   -5.96 KCAL/MOL
REMARK 924 INTRA-LIGAND FREE ENERGY PREDICTED BY IDOCK:    0.64 KCAL/MOL
REMARK 927      BINDING AFFINITY PREDICTED BY RF-SCORE:    0.00 PKD
ROOT
HETATM    1  C   UNL     1     -12.463  12.961  63.389  1.00  0.00    -0.303 C  
HETATM    2  N   UNL     1     -12.511  13.256  64.819  1.00  0.00    -0.575 NA 
HETATM    3  C   UNL     1     -11.510  12.475  65.574  1.00  0.00    -0.350 C  
HETATM    4  C   UNL     1     -10.043  12.907  65.367  1.00  0.00    -0.251 C  
HETATM    5  N   UNL     1      -9.869  14.350  65.592  1.00  0.00    -0.316 NA 
HETATM    6  C   UNL     1     -10.846  15.201  64.898  1.00  0.00    -0.418 C  
HETATM    7  C   UNL     1     -12.292  14.695  65.098  1.00  0.00    -0.248 C  
ENDROOT
BRANCH   5   8
HETATM    8  C   UNL     1      -8.912  14.885  66.457  1.00  0.00    -0.253 C  
HETATM    9  N   UNL     1      -8.235  14.083  67.234  1.00  0.00    -0.249 NA 
HETATM   10  C   UNL     1      -7.235  14.525  68.119  1.00  0.00    -0.130 A  
HETATM   11  H   UNL     1      -8.442  13.085  67.198  1.00  0.00     0.000 HD 
HETATM   12  C   UNL     1      -7.121  13.870  69.350  1.00  0.00     0.022 A  
HETATM   13  C   UNL     1      -6.121  14.213  70.266  1.00  0.00    -0.164 A  
HETATM   14  C   UNL     1      -5.198  15.209  69.952  1.00  0.00    -0.098 A  
HETATM   15  C   UNL     1      -5.277  15.859  68.723  1.00  0.00    -0.104 A  
HETATM   16  C   UNL     1      -6.295  15.523  67.823  1.00  0.00    -0.161 A  
HETATM   17  O   UNL     1      -6.324  16.221  66.636  1.00  0.00    -0.281 OA 
HETATM   18  C   UNL     1      -7.473  16.958  66.493  1.00  0.00    -0.293 A  
HETATM   19  C   UNL     1      -8.737  16.373  66.466  1.00  0.00    -0.324 A  
HETATM   20  C   UNL     1      -9.876  17.186  66.395  1.00  0.00    -0.312 A  
HETATM   21  C   UNL     1      -9.735  18.565  66.274  1.00  0.00    -0.305 A  
HETATM   22  C   UNL     1      -8.468  19.147  66.247  1.00  0.00    -0.311 A  
HETATM   23 CL   UNL     1     -11.136  19.552  66.131  1.00  0.00    -0.252 Cl 
HETATM   24  C   UNL     1      -7.334  18.342  66.360  1.00  0.00    -0.283 A  
ENDBRANCH   5   8
TORSDOF 1
ENDMDL
MODEL       70
REMARK 921   NORMALIZED FREE ENERGY PREDICTED BY IDOCK:   -4.65 KCAL/MOL
REMARK 922        TOTAL FREE ENERGY PREDICTED BY IDOCK:   -5.31 KCAL/MOL
REMARK 923 INTER-LIGAND FREE ENERGY PREDICTED BY IDOCK:   -4.97 KCAL/MOL
REMARK 924 INTRA-LIGAND FREE ENERGY PREDICTED BY IDOCK:   -0.35 KCAL/MOL
REMARK 927      BINDING AFFINITY PREDICTED BY RF-SCORE:    0.00 PKD
ROOT
HETATM    1  C   UNL     1      -9.883   8.366  72.403  1.00  0.00    -0.308 C  
HETATM    2  N   UNL     1      -9.623   7.660  71.151  1.00  0.00    -0.159 NA 
HETATM    3  C   UNL     1     -10.714   7.856  70.175  1.00  0.00    -0.244 C  
HETATM    4  C   UNL     1     -10.795   9.267  69.552  1.00  0.00    -0.195 C  
HETATM    5  N   UNL     1      -9.500   9.685  68.993  1.00  0.00    -0.162 NA 
HETATM    6  C   UNL     1      -8.354   9.494  69.894  1.00  0.00    -0.170 C  
HETATM    7  C   UNL     1      -8.349   8.085  70.526  1.00  0.00    -0.123 C  
ENDROOT
BRANCH   5   8
HETATM    8  C   UNL     1      -9.340  10.150  67.687  1.00  0.00    -0.148 C  
HETATM    9  N   UNL     1      -8.520   9.527  66.883  1.00  0.00    -0.127 NA 
HETATM   10  C   UNL     1      -8.312   9.905  65.544  1.00  0.00    -0.140 A  
HETATM   11  H   UNL     1      -8.005   8.724  67.245  1.00  0.00     0.000 HD 
HETATM   12  C   UNL     1      -7.020   9.772  65.026  1.00  0.00    -0.119 A  
HETATM   13  C   UNL     1      -6.739  10.077  63.690  1.00  0.00    -0.128 A  
HETATM   14  C   UNL     1      -7.758  10.501  62.840  1.00  0.00    -0.096 A  
HETATM   15  C   UNL     1      -9.058  10.618  63.328  1.00  0.00    -0.266 A  
HETATM   16  C   UNL     1      -9.324  10.331  64.672  1.00  0.00    -0.266 A  
HETATM   17  O   UNL     1     -10.627  10.489  65.090  1.00  0.00    -0.221 OA 
HETATM   18  C   UNL     1     -10.752  11.459  66.053  1.00  0.00    -0.263 A  
HETATM   19  C   UNL     1     -10.106  11.374  67.286  1.00  0.00    -0.218 A  
HETATM   20  C   UNL     1     -10.210  12.433  68.197  1.00  0.00    -0.225 A  
HETATM   21  C   UNL     1     -11.019  13.525  67.899  1.00  0.00    -0.256 A  
HETATM   22  C   UNL     1     -11.709  13.585  66.689  1.00  0.00    -0.425 A  
HETATM   23 CL   UNL     1     -11.188  14.795  69.047  1.00  0.00    -0.268 Cl 
HETATM   24  C   UNL     1     -11.571  12.551  65.761  1.00  0.00    -0.439 A  
ENDBRANCH   5   8
TORSDOF 1
ENDMDL
MODEL       71
REMARK 921   NORMALIZED FREE ENERGY PREDICTED BY IDOCK:   -4.62 KCAL/MOL
REMARK 922        TOTAL FREE ENERGY PREDICTED BY IDOCK:   -5.29 KCAL/MOL
REMARK 923 INTER-LIGAND FREE ENERGY PREDICTED BY IDOCK:   -4.88 KCAL/MOL
REMARK 924 INTRA-LIGAND FREE ENERGY PREDICTED BY IDOCK:   -0.40 KCAL/MOL
REMARK 927      BINDING AFFINITY PREDICTED BY RF-SCORE:    0.00 PKD
ROOT
HETATM    1  C   UNL     1      -5.499   9.473  67.080  1.00  0.00    -0.046 C  
HETATM    2  N   UNL     1      -6.889   9.917  67.008  1.00  0.00    -0.082 NA 
HETATM    3  C   UNL     1      -7.816   8.785  66.806  1.00  0.00    -0.097 C  
HETATM    4  C   UNL     1      -8.002   7.859  68.029  1.00  0.00    -0.128 C  
HETATM    5  N   UNL     1      -8.352   8.623  69.235  1.00  0.00    -0.117 NA 
HETATM    6  C   UNL     1      -7.494   9.789  69.494  1.00  0.00    -0.101 C  
HETATM    7  C   UNL     1      -7.301  10.652  68.227  1.00  0.00    -0.089 C  
ENDROOT
BRANCH   5   8
HETATM    8  C   UNL     1      -9.457   8.331  70.037  1.00  0.00    -0.167 C  
HETATM    9  N   UNL     1     -10.486   9.137  70.026  1.00  0.00    -0.210 NA 
HETATM   10  C   UNL     1     -11.652   8.913  70.779  1.00  0.00    -0.259 A  
HETATM   11  H   UNL     1     -10.440   9.971  69.441  1.00  0.00     0.000 HD 
HETATM   12  C   UNL     1     -12.300  10.029  71.319  1.00  0.00    -0.496 A  
HETATM   13  C   UNL     1     -13.493   9.899  72.038  1.00  0.00    -0.478 A  
HETATM   14  C   UNL     1     -14.073   8.644  72.209  1.00  0.00    -0.491 A  
HETATM   15  C   UNL     1     -13.458   7.521  71.659  1.00  0.00    -0.429 A  
HETATM   16  C   UNL     1     -12.253   7.659  70.962  1.00  0.00    -0.236 A  
HETATM   17  O   UNL     1     -11.691   6.504  70.465  1.00  0.00    -0.380 OA 
HETATM   18  C   UNL     1     -10.466   6.237  71.023  1.00  0.00    -0.225 A  
HETATM   19  C   UNL     1      -9.385   7.109  70.901  1.00  0.00    -0.160 A  
HETATM   20  C   UNL     1      -8.183   6.818  71.559  1.00  0.00    -0.111 A  
HETATM   21  C   UNL     1      -8.051   5.625  72.264  1.00  0.00    -0.108 A  
HETATM   22  C   UNL     1      -9.115   4.728  72.340  1.00  0.00    -0.141 A  
HETATM   23 CL   UNL     1      -6.554   5.249  73.021  1.00  0.00    -0.064 Cl 
HETATM   24  C   UNL     1     -10.328   5.036  71.722  1.00  0.00    -0.268 A  
ENDBRANCH   5   8
TORSDOF 1
ENDMDL
MODEL       72
REMARK 921   NORMALIZED FREE ENERGY PREDICTED BY IDOCK:   -4.58 KCAL/MOL
REMARK 922        TOTAL FREE ENERGY PREDICTED BY IDOCK:   -5.24 KCAL/MOL
REMARK 923 INTER-LIGAND FREE ENERGY PREDICTED BY IDOCK:   -4.85 KCAL/MOL
REMARK 924 INTRA-LIGAND FREE ENERGY PREDICTED BY IDOCK:   -0.39 KCAL/MOL
REMARK 927      BINDING AFFINITY PREDICTED BY RF-SCORE:    0.00 PKD
ROOT
HETATM    1  C   UNL     1      -5.486   8.023  63.581  1.00  0.00    -0.053 C  
HETATM    2  N   UNL     1      -5.566   7.556  64.963  1.00  0.00    -0.033 NA 
HETATM    3  C   UNL     1      -5.605   8.681  65.920  1.00  0.00    -0.045 C  
HETATM    4  C   UNL     1      -6.924   9.483  65.941  1.00  0.00    -0.091 C  
HETATM    5  N   UNL     1      -8.089   8.601  66.112  1.00  0.00    -0.105 NA 
HETATM    6  C   UNL     1      -8.112   7.436  65.215  1.00  0.00    -0.131 C  
HETATM    7  C   UNL     1      -6.753   6.701  65.194  1.00  0.00    -0.050 C  
ENDROOT
BRANCH   5   8
HETATM    8  C   UNL     1      -9.061   8.791  67.096  1.00  0.00    -0.132 C  
HETATM    9  N   UNL     1      -9.202   7.895  68.035  1.00  0.00    -0.132 NA 
HETATM   10  C   UNL     1     -10.135   8.011  69.082  1.00  0.00    -0.201 A  
HETATM   11  H   UNL     1      -8.605   7.068  68.009  1.00  0.00     0.000 HD 
HETATM   12  C   UNL     1     -10.756   6.841  69.531  1.00  0.00    -0.294 A  
HETATM   13  C   UNL     1     -11.657   6.862  70.601  1.00  0.00    -0.402 A  
HETATM   14  C   UNL     1     -11.936   8.059  71.257  1.00  0.00    -0.321 A  
HETATM   15  C   UNL     1     -11.311   9.233  70.842  1.00  0.00    -0.373 A  
HETATM   16  C   UNL     1     -10.428   9.205  69.757  1.00  0.00    -0.223 A  
HETATM   17  O   UNL     1      -9.864  10.406  69.388  1.00  0.00    -0.220 OA 
HETATM   18  C   UNL     1     -10.224  10.784  68.119  1.00  0.00    -0.172 A  
HETATM   19  C   UNL     1      -9.919  10.015  66.997  1.00  0.00    -0.257 A  
HETATM   20  C   UNL     1     -10.381  10.415  65.737  1.00  0.00    -0.257 A  
HETATM   21  C   UNL     1     -11.072  11.616  65.601  1.00  0.00    -0.249 A  
HETATM   22  C   UNL     1     -11.330  12.412  66.716  1.00  0.00    -0.391 A  
HETATM   23 CL   UNL     1     -11.586  12.128  64.042  1.00  0.00    -0.465 Cl 
HETATM   24  C   UNL     1     -10.908  11.993  67.979  1.00  0.00    -0.254 A  
ENDBRANCH   5   8
TORSDOF 1
ENDMDL
MODEL       73
REMARK 921   NORMALIZED FREE ENERGY PREDICTED BY IDOCK:   -4.57 KCAL/MOL
REMARK 922        TOTAL FREE ENERGY PREDICTED BY IDOCK:   -5.23 KCAL/MOL
REMARK 923 INTER-LIGAND FREE ENERGY PREDICTED BY IDOCK:   -4.92 KCAL/MOL
REMARK 924 INTRA-LIGAND FREE ENERGY PREDICTED BY IDOCK:   -0.31 KCAL/MOL
REMARK 927      BINDING AFFINITY PREDICTED BY RF-SCORE:    0.00 PKD
ROOT
HETATM    1  C   UNL     1     -10.455   7.793  72.681  1.00  0.00    -0.302 C  
HETATM    2  N   UNL     1     -10.116   9.062  72.042  1.00  0.00    -0.279 NA 
HETATM    3  C   UNL     1      -8.904   8.947  71.206  1.00  0.00    -0.231 C  
HETATM    4  C   UNL     1      -9.079   8.147  69.897  1.00  0.00    -0.151 C  
HETATM    5  N   UNL     1     -10.220   8.640  69.112  1.00  0.00    -0.204 NA 
HETATM    6  C   UNL     1     -11.463   8.811  69.878  1.00  0.00     0.135 C  
HETATM    7  C   UNL     1     -11.223   9.574  71.200  1.00  0.00    -0.376 C  
ENDROOT
BRANCH   5   8
HETATM    8  C   UNL     1     -10.131   9.001  67.766  1.00  0.00    -0.208 C  
HETATM    9  N   UNL     1     -10.525  10.190  67.396  1.00  0.00    -0.238 NA 
HETATM   10  C   UNL     1     -10.450  10.653  66.070  1.00  0.00    -0.183 A  
HETATM   11  H   UNL     1     -10.908  10.815  68.106  1.00  0.00     0.000 HD 
HETATM   12  C   UNL     1     -11.481  11.479  65.611  1.00  0.00    -0.074 A  
HETATM   13  C   UNL     1     -11.457  12.023  64.323  1.00  0.00    -0.435 A  
HETATM   14  C   UNL     1     -10.381  11.765  63.476  1.00  0.00    -0.490 A  
HETATM   15  C   UNL     1      -9.331  10.965  63.919  1.00  0.00    -0.267 A  
HETATM   16  C   UNL     1      -9.376  10.408  65.202  1.00  0.00    -0.222 A  
HETATM   17  O   UNL     1      -8.314   9.609  65.566  1.00  0.00    -0.130 OA 
HETATM   18  C   UNL     1      -8.694   8.313  65.808  1.00  0.00    -0.166 A  
HETATM   19  C   UNL     1      -9.607   7.977  66.805  1.00  0.00    -0.281 A  
HETATM   20  C   UNL     1     -10.014   6.645  66.952  1.00  0.00    -0.238 A  
HETATM   21  C   UNL     1      -9.446   5.656  66.154  1.00  0.00    -0.139 A  
HETATM   22  C   UNL     1      -8.492   5.985  65.193  1.00  0.00    -0.112 A  
HETATM   23 CL   UNL     1      -9.909   4.015  66.379  1.00  0.00    -0.211 Cl 
HETATM   24  C   UNL     1      -8.118   7.318  65.016  1.00  0.00    -0.120 A  
ENDBRANCH   5   8
TORSDOF 1
ENDMDL
MODEL       74
REMARK 921   NORMALIZED FREE ENERGY PREDICTED BY IDOCK:   -4.55 KCAL/MOL
REMARK 922        TOTAL FREE ENERGY PREDICTED BY IDOCK:   -5.21 KCAL/MOL
REMARK 923 INTER-LIGAND FREE ENERGY PREDICTED BY IDOCK:   -5.02 KCAL/MOL
REMARK 924 INTRA-LIGAND FREE ENERGY PREDICTED BY IDOCK:   -0.19 KCAL/MOL
REMARK 927      BINDING AFFINITY PREDICTED BY RF-SCORE:    0.00 PKD
ROOT
HETATM    1  C   UNL     1     -12.831   7.746  71.739  1.00  0.00    -0.327 C  
HETATM    2  N   UNL     1     -12.287   8.979  72.303  1.00  0.00    -0.356 NA 
HETATM    3  C   UNL     1     -10.906   9.229  71.842  1.00  0.00    -0.178 C  
HETATM    4  C   UNL     1     -10.771   9.652  70.363  1.00  0.00    -0.298 C  
HETATM    5  N   UNL     1     -11.650  10.787  70.044  1.00  0.00    -0.305 NA 
HETATM    6  C   UNL     1     -13.040  10.631  70.497  1.00  0.00    -0.110 C  
HETATM    7  C   UNL     1     -13.117  10.159  71.966  1.00  0.00    -0.437 C  
ENDROOT
BRANCH   5   8
HETATM    8  C   UNL     1     -11.202  11.962  69.437  1.00  0.00    -0.211 C  
HETATM    9  N   UNL     1     -11.602  13.114  69.902  1.00  0.00    -0.501 NA 
HETATM   10  C   UNL     1     -11.185  14.349  69.373  1.00  0.00    -0.281 A  
HETATM   11  H   UNL     1     -12.250  13.120  70.690  1.00  0.00     0.000 HD 
HETATM   12  C   UNL     1     -12.119  15.390  69.341  1.00  0.00    -0.308 A  
HETATM   13  C   UNL     1     -11.771  16.664  68.879  1.00  0.00     0.257 A  
HETATM   14  C   UNL     1     -10.468  16.923  68.459  1.00  0.00    -0.361 A  
HETATM   15  C   UNL     1      -9.515  15.909  68.504  1.00  0.00    -0.209 A  
HETATM   16  C   UNL     1      -9.879  14.632  68.948  1.00  0.00    -0.211 A  
HETATM   17  O   UNL     1      -8.891  13.673  68.946  1.00  0.00     0.009 OA 
HETATM   18  C   UNL     1      -9.173  12.634  68.094  1.00  0.00    -0.209 A  
HETATM   19  C   UNL     1     -10.299  11.828  68.248  1.00  0.00    -0.217 A  
HETATM   20  C   UNL     1     -10.574  10.833  67.301  1.00  0.00    -0.304 A  
HETATM   21  C   UNL     1      -9.682  10.606  66.257  1.00  0.00    -0.199 A  
HETATM   22  C   UNL     1      -8.528  11.377  66.133  1.00  0.00    -0.105 A  
HETATM   23 CL   UNL     1      -9.998   9.345  65.131  1.00  0.00    -0.016 Cl 
HETATM   24  C   UNL     1      -8.274  12.398  67.052  1.00  0.00    -0.141 A  
ENDBRANCH   5   8
TORSDOF 1
ENDMDL
MODEL       75
REMARK 921   NORMALIZED FREE ENERGY PREDICTED BY IDOCK:   -4.54 KCAL/MOL
REMARK 922        TOTAL FREE ENERGY PREDICTED BY IDOCK:   -5.20 KCAL/MOL
REMARK 923 INTER-LIGAND FREE ENERGY PREDICTED BY IDOCK:   -4.78 KCAL/MOL
REMARK 924 INTRA-LIGAND FREE ENERGY PREDICTED BY IDOCK:   -0.43 KCAL/MOL
REMARK 927      BINDING AFFINITY PREDICTED BY RF-SCORE:    0.00 PKD
ROOT
HETATM    1  C   UNL     1      -9.100  12.138  66.407  1.00  0.00    -0.177 C  
HETATM    2  N   UNL     1      -9.958  11.797  67.539  1.00  0.00    -0.191 NA 
HETATM    3  C   UNL     1     -10.894  10.703  67.208  1.00  0.00    -0.287 C  
HETATM    4  C   UNL     1     -10.250   9.307  67.066  1.00  0.00    -0.262 C  
HETATM    5  N   UNL     1      -9.431   8.968  68.239  1.00  0.00    -0.145 NA 
HETATM    6  C   UNL     1      -8.491  10.019  68.654  1.00  0.00    -0.118 C  
HETATM    7  C   UNL     1      -9.174  11.402  68.733  1.00  0.00    -0.100 C  
ENDROOT
BRANCH   5   8
HETATM    8  C   UNL     1      -9.577   7.783  68.964  1.00  0.00    -0.155 C  
HETATM    9  N   UNL     1      -9.143   6.663  68.452  1.00  0.00    -0.126 NA 
HETATM   10  C   UNL     1      -9.223   5.426  69.117  1.00  0.00    -0.116 A  
HETATM   11  H   UNL     1      -8.724   6.686  67.522  1.00  0.00     0.000 HD 
HETATM   12  C   UNL     1      -9.479   4.289  68.344  1.00  0.00    -0.215 A  
HETATM   13  C   UNL     1      -9.523   3.015  68.919  1.00  0.00    -0.176 A  
HETATM   14  C   UNL     1      -9.288   2.855  70.283  1.00  0.00    -0.219 A  
HETATM   15  C   UNL     1      -9.007   3.970  71.069  1.00  0.00    -0.163 A  
HETATM   16  C   UNL     1      -8.987   5.243  70.488  1.00  0.00    -0.136 A  
HETATM   17  O   UNL     1      -8.724   6.302  71.328  1.00  0.00    -0.134 OA 
HETATM   18  C   UNL     1      -9.776   7.180  71.407  1.00  0.00    -0.168 A  
HETATM   19  C   UNL     1     -10.262   7.864  70.294  1.00  0.00    -0.200 A  
HETATM   20  C   UNL     1     -11.388   8.687  70.424  1.00  0.00    -0.203 A  
HETATM   21  C   UNL     1     -11.966   8.877  71.676  1.00  0.00    -0.345 A  
HETATM   22  C   UNL     1     -11.446   8.235  72.799  1.00  0.00    -0.338 A  
HETATM   23 CL   UNL     1     -13.313   9.934  71.837  1.00  0.00    -0.514 Cl 
HETATM   24  C   UNL     1     -10.351   7.380  72.664  1.00  0.00    -0.292 A  
ENDBRANCH   5   8
TORSDOF 1
ENDMDL
MODEL       76
REMARK 921   NORMALIZED FREE ENERGY PREDICTED BY IDOCK:   -4.54 KCAL/MOL
REMARK 922        TOTAL FREE ENERGY PREDICTED BY IDOCK:   -5.19 KCAL/MOL
REMARK 923 INTER-LIGAND FREE ENERGY PREDICTED BY IDOCK:   -4.79 KCAL/MOL
REMARK 924 INTRA-LIGAND FREE ENERGY PREDICTED BY IDOCK:   -0.40 KCAL/MOL
REMARK 927      BINDING AFFINITY PREDICTED BY RF-SCORE:    0.00 PKD
ROOT
HETATM    1  C   UNL     1      -9.609   6.479  72.568  1.00  0.00    -0.151 C  
HETATM    2  N   UNL     1      -9.870   7.915  72.644  1.00  0.00    -0.226 NA 
HETATM    3  C   UNL     1      -8.716   8.707  72.172  1.00  0.00    -0.147 C  
HETATM    4  C   UNL     1      -8.469   8.667  70.648  1.00  0.00    -0.157 C  
HETATM    5  N   UNL     1      -9.686   9.001  69.895  1.00  0.00    -0.176 NA 
HETATM    6  C   UNL     1     -10.891   8.275  70.323  1.00  0.00    -0.240 C  
HETATM    7  C   UNL     1     -11.063   8.306  71.858  1.00  0.00    -0.292 C  
ENDROOT
BRANCH   5   8
HETATM    8  C   UNL     1      -9.734   9.985  68.905  1.00  0.00    -0.181 C  
HETATM    9  N   UNL     1     -10.383  11.094  69.138  1.00  0.00    -0.338 NA 
HETATM   10  C   UNL     1     -10.465  12.151  68.213  1.00  0.00    -0.213 A  
HETATM   11  H   UNL     1     -10.855  11.199  70.036  1.00  0.00     0.000 HD 
HETATM   12  C   UNL     1     -11.665  12.867  68.151  1.00  0.00    -0.395 A  
HETATM   13  C   UNL     1     -11.812  13.965  67.296  1.00  0.00    -0.442 A  
HETATM   14  C   UNL     1     -10.745  14.379  66.501  1.00  0.00    -0.306 A  
HETATM   15  C   UNL     1      -9.532  13.697  66.565  1.00  0.00    -0.270 A  
HETATM   16  C   UNL     1      -9.403  12.586  67.407  1.00  0.00    -0.187 A  
HETATM   17  O   UNL     1      -8.183  11.947  67.402  1.00  0.00    -0.147 OA 
HETATM   18  C   UNL     1      -8.274  10.652  66.957  1.00  0.00    -0.124 A  
HETATM   19  C   UNL     1      -9.052   9.693  67.603  1.00  0.00    -0.141 A  
HETATM   20  C   UNL     1      -9.166   8.409  67.055  1.00  0.00    -0.186 A  
HETATM   21  C   UNL     1      -8.441   8.077  65.914  1.00  0.00    -0.143 A  
HETATM   22  C   UNL     1      -7.620   9.020  65.298  1.00  0.00    -0.098 A  
HETATM   23 CL   UNL     1      -8.542   6.481  65.280  1.00  0.00    -0.089 Cl 
HETATM   24  C   UNL     1      -7.539  10.313  65.818  1.00  0.00    -0.143 A  
ENDBRANCH   5   8
TORSDOF 1
ENDMDL
MODEL       77
REMARK 921   NORMALIZED FREE ENERGY PREDICTED BY IDOCK:   -4.49 KCAL/MOL
REMARK 922        TOTAL FREE ENERGY PREDICTED BY IDOCK:   -5.15 KCAL/MOL
REMARK 923 INTER-LIGAND FREE ENERGY PREDICTED BY IDOCK:   -4.74 KCAL/MOL
REMARK 924 INTRA-LIGAND FREE ENERGY PREDICTED BY IDOCK:   -0.40 KCAL/MOL
REMARK 927      BINDING AFFINITY PREDICTED BY RF-SCORE:    0.00 PKD
ROOT
HETATM    1  C   UNL     1      -6.576   5.581  65.627  1.00  0.00    -0.041 C  
HETATM    2  N   UNL     1      -7.257   6.592  64.822  1.00  0.00    -0.067 NA 
HETATM    3  C   UNL     1      -8.702   6.646  65.118  1.00  0.00     0.120 C  
HETATM    4  C   UNL     1      -9.072   7.253  66.489  1.00  0.00    -0.155 C  
HETATM    5  N   UNL     1      -8.441   8.566  66.686  1.00  0.00    -0.111 NA 
HETATM    6  C   UNL     1      -7.003   8.607  66.383  1.00  0.00    -0.078 C  
HETATM    7  C   UNL     1      -6.683   7.943  65.025  1.00  0.00    -0.051 C  
ENDROOT
BRANCH   5   8
HETATM    8  C   UNL     1      -9.148   9.714  67.049  1.00  0.00    -0.135 C  
HETATM    9  N   UNL     1      -9.303  10.672  66.176  1.00  0.00    -0.171 NA 
HETATM   10  C   UNL     1     -10.021  11.853  66.441  1.00  0.00    -0.213 A  
HETATM   11  H   UNL     1      -8.882  10.559  65.253  1.00  0.00     0.000 HD 
HETATM   12  C   UNL     1      -9.546  13.042  65.877  1.00  0.00    -0.126 A  
HETATM   13  C   UNL     1     -10.228  14.251  66.049  1.00  0.00    -0.327 A  
HETATM   14  C   UNL     1     -11.417  14.284  66.775  1.00  0.00    -0.380 A  
HETATM   15  C   UNL     1     -11.922  13.109  67.325  1.00  0.00    -0.389 A  
HETATM   16  C   UNL     1     -11.220  11.909  67.166  1.00  0.00    -0.319 A  
HETATM   17  O   UNL     1     -11.766  10.790  67.755  1.00  0.00    -0.547 OA 
HETATM   18  C   UNL     1     -10.953  10.262  68.727  1.00  0.00    -0.243 A  
HETATM   19  C   UNL     1      -9.670   9.793  68.451  1.00  0.00    -0.162 A  
HETATM   20  C   UNL     1      -8.860   9.337  69.499  1.00  0.00    -0.151 A  
HETATM   21  C   UNL     1      -9.368   9.282  70.794  1.00  0.00    -0.258 A  
HETATM   22  C   UNL     1     -10.671   9.701  71.060  1.00  0.00    -0.393 A  
HETATM   23 CL   UNL     1      -8.386   8.668  72.065  1.00  0.00    -0.202 Cl 
HETATM   24  C   UNL     1     -11.465  10.196  70.024  1.00  0.00    -0.344 A  
ENDBRANCH   5   8
TORSDOF 1
ENDMDL
MODEL       78
REMARK 921   NORMALIZED FREE ENERGY PREDICTED BY IDOCK:   -4.49 KCAL/MOL
REMARK 922        TOTAL FREE ENERGY PREDICTED BY IDOCK:   -5.14 KCAL/MOL
REMARK 923 INTER-LIGAND FREE ENERGY PREDICTED BY IDOCK:   -4.79 KCAL/MOL
REMARK 924 INTRA-LIGAND FREE ENERGY PREDICTED BY IDOCK:   -0.35 KCAL/MOL
REMARK 927      BINDING AFFINITY PREDICTED BY RF-SCORE:    0.00 PKD
ROOT
HETATM    1  C   UNL     1      -8.900  11.323  63.688  1.00  0.00     0.136 C  
HETATM    2  N   UNL     1     -10.017  10.571  64.255  1.00  0.00    -0.337 NA 
HETATM    3  C   UNL     1      -9.557   9.365  64.972  1.00  0.00    -0.056 C  
HETATM    4  C   UNL     1      -8.839   9.628  66.313  1.00  0.00    -0.151 C  
HETATM    5  N   UNL     1      -9.639  10.495  67.192  1.00  0.00    -0.166 NA 
HETATM    6  C   UNL     1     -10.162  11.707  66.546  1.00  0.00    -0.214 C  
HETATM    7  C   UNL     1     -10.825  11.393  65.186  1.00  0.00    -0.238 C  
ENDROOT
BRANCH   5   8
HETATM    8  C   UNL     1      -9.958  10.169  68.512  1.00  0.00    -0.163 C  
HETATM    9  N   UNL     1     -11.213  10.074  68.861  1.00  0.00    -0.427 NA 
HETATM   10  C   UNL     1     -11.630   9.726  70.159  1.00  0.00    -0.182 A  
HETATM   11  H   UNL     1     -11.926  10.261  68.157  1.00  0.00     0.000 HD 
HETATM   12  C   UNL     1     -12.781  10.347  70.658  1.00  0.00    -0.417 A  
HETATM   13  C   UNL     1     -13.293  10.020  71.918  1.00  0.00    -0.516 A  
HETATM   14  C   UNL     1     -12.670   9.045  72.694  1.00  0.00    -0.279 A  
HETATM   15  C   UNL     1     -11.537   8.397  72.208  1.00  0.00    -0.453 A  
HETATM   16  C   UNL     1     -11.020   8.747  70.955  1.00  0.00    -0.268 A  
HETATM   17  O   UNL     1      -9.886   8.080  70.548  1.00  0.00    -0.181 OA 
HETATM   18  C   UNL     1      -8.815   8.923  70.386  1.00  0.00    -0.181 A  
HETATM   19  C   UNL     1      -8.824   9.975  69.472  1.00  0.00    -0.209 A  
HETATM   20  C   UNL     1      -7.730  10.848  69.409  1.00  0.00    -0.072 A  
HETATM   21  C   UNL     1      -6.611  10.614  70.203  1.00  0.00    -0.151 A  
HETATM   22  C   UNL     1      -6.580   9.529  71.079  1.00  0.00    -0.061 A  
HETATM   23 CL   UNL     1      -5.249  11.657  70.079  1.00  0.00    -0.072 Cl 
HETATM   24  C   UNL     1      -7.687   8.684  71.174  1.00  0.00    -0.131 A  
ENDBRANCH   5   8
TORSDOF 1
ENDMDL
MODEL       79
REMARK 921   NORMALIZED FREE ENERGY PREDICTED BY IDOCK:   -4.46 KCAL/MOL
REMARK 922        TOTAL FREE ENERGY PREDICTED BY IDOCK:   -5.11 KCAL/MOL
REMARK 923 INTER-LIGAND FREE ENERGY PREDICTED BY IDOCK:   -5.66 KCAL/MOL
REMARK 924 INTRA-LIGAND FREE ENERGY PREDICTED BY IDOCK:    0.55 KCAL/MOL
REMARK 927      BINDING AFFINITY PREDICTED BY RF-SCORE:    0.00 PKD
ROOT
HETATM    1  C   UNL     1     -12.503  12.240  64.448  1.00  0.00    -0.392 C  
HETATM    2  N   UNL     1     -12.282  12.655  65.831  1.00  0.00    -0.597 NA 
HETATM    3  C   UNL     1     -10.954  12.235  66.323  1.00  0.00    -0.291 C  
HETATM    4  C   UNL     1      -9.756  13.007  65.728  1.00  0.00    -0.145 C  
HETATM    5  N   UNL     1      -9.934  14.461  65.856  1.00  0.00    -0.317 NA 
HETATM    6  C   UNL     1     -11.245  14.960  65.414  1.00  0.00    -0.359 C  
HETATM    7  C   UNL     1     -12.404  14.122  65.999  1.00  0.00    -0.445 C  
ENDROOT
BRANCH   5   8
HETATM    8  C   UNL     1      -8.980  15.307  66.425  1.00  0.00    -0.304 C  
HETATM    9  N   UNL     1      -8.869  16.532  65.987  1.00  0.00    -0.463 NA 
HETATM   10  C   UNL     1      -7.956  17.463  66.515  1.00  0.00    -0.281 A  
HETATM   11  H   UNL     1      -9.475  16.829  65.222  1.00  0.00     0.000 HD 
HETATM   12  C   UNL     1      -7.359  18.363  65.625  1.00  0.00    -0.082 A  
HETATM   13  C   UNL     1      -6.480  19.353  66.075  1.00  0.00    -0.226 A  
HETATM   14  C   UNL     1      -6.199  19.474  67.435  1.00  0.00    -0.204 A  
HETATM   15  C   UNL     1      -6.801  18.604  68.342  1.00  0.00    -0.265 A  
HETATM   16  C   UNL     1      -7.662  17.603  67.879  1.00  0.00    -0.216 A  
HETATM   17  O   UNL     1      -8.203  16.766  68.829  1.00  0.00    -0.238 OA 
HETATM   18  C   UNL     1      -7.813  15.461  68.659  1.00  0.00    -0.142 A  
HETATM   19  C   UNL     1      -8.105  14.741  67.502  1.00  0.00    -0.199 A  
HETATM   20  C   UNL     1      -7.613  13.437  67.355  1.00  0.00    -0.138 A  
HETATM   21  C   UNL     1      -6.903  12.843  68.395  1.00  0.00    -0.096 A  
HETATM   22  C   UNL     1      -6.659  13.546  69.574  1.00  0.00    -0.054 A  
HETATM   23 CL   UNL     1      -6.352  11.223  68.229  1.00  0.00    -0.049 Cl 
HETATM   24  C   UNL     1      -7.111  14.860  69.705  1.00  0.00    -0.156 A  
ENDBRANCH   5   8
TORSDOF 1
ENDMDL
MODEL       80
REMARK 921   NORMALIZED FREE ENERGY PREDICTED BY IDOCK:   -4.44 KCAL/MOL
REMARK 922        TOTAL FREE ENERGY PREDICTED BY IDOCK:   -5.10 KCAL/MOL
REMARK 923 INTER-LIGAND FREE ENERGY PREDICTED BY IDOCK:   -4.67 KCAL/MOL
REMARK 924 INTRA-LIGAND FREE ENERGY PREDICTED BY IDOCK:   -0.43 KCAL/MOL
REMARK 927      BINDING AFFINITY PREDICTED BY RF-SCORE:    0.00 PKD
ROOT
HETATM    1  C   UNL     1     -11.672  13.241  68.089  1.00  0.00    -0.362 C  
HETATM    2  N   UNL     1     -11.646  11.819  67.752  1.00  0.00    -0.459 NA 
HETATM    3  C   UNL     1     -10.288  11.367  67.389  1.00  0.00    -0.202 C  
HETATM    4  C   UNL     1      -9.288  11.275  68.562  1.00  0.00    -0.182 C  
HETATM    5  N   UNL     1      -9.833  10.480  69.673  1.00  0.00    -0.144 NA 
HETATM    6  C   UNL     1     -11.198  10.847  70.078  1.00  0.00    -0.263 C  
HETATM    7  C   UNL     1     -12.143  10.974  68.863  1.00  0.00    -0.169 C  
ENDROOT
BRANCH   5   8
HETATM    8  C   UNL     1      -9.158   9.405  70.254  1.00  0.00    -0.245 C  
HETATM    9  N   UNL     1      -8.125   9.637  71.019  1.00  0.00    -0.344 NA 
HETATM   10  C   UNL     1      -7.399   8.622  71.667  1.00  0.00    -0.093 A  
HETATM   11  H   UNL     1      -7.831  10.604  71.154  1.00  0.00     0.000 HD 
HETATM   12  C   UNL     1      -6.015   8.789  71.786  1.00  0.00    -0.061 A  
HETATM   13  C   UNL     1      -5.225   7.852  72.461  1.00  0.00    -0.036 A  
HETATM   14  C   UNL     1      -5.816   6.736  73.051  1.00  0.00    -0.042 A  
HETATM   15  C   UNL     1      -7.195   6.561  72.966  1.00  0.00    -0.081 A  
HETATM   16  C   UNL     1      -7.973   7.493  72.270  1.00  0.00    -0.102 A  
HETATM   17  O   UNL     1      -9.326   7.244  72.208  1.00  0.00    -0.138 OA 
HETATM   18  C   UNL     1      -9.762   7.046  70.922  1.00  0.00    -0.174 A  
HETATM   19  C   UNL     1      -9.646   8.024  69.936  1.00  0.00    -0.171 A  
HETATM   20  C   UNL     1     -10.039   7.734  68.623  1.00  0.00    -0.211 A  
HETATM   21  C   UNL     1     -10.613   6.501  68.328  1.00  0.00    -0.249 A  
HETATM   22  C   UNL     1     -10.779   5.542  69.327  1.00  0.00    -0.288 A  
HETATM   23 CL   UNL     1     -11.145   6.173  66.726  1.00  0.00    -0.346 Cl 
HETATM   24  C   UNL     1     -10.349   5.814  70.627  1.00  0.00    -0.310 A  
ENDBRANCH   5   8
TORSDOF 1
ENDMDL
MODEL       81
REMARK 921   NORMALIZED FREE ENERGY PREDICTED BY IDOCK:   -4.44 KCAL/MOL
REMARK 922        TOTAL FREE ENERGY PREDICTED BY IDOCK:   -5.10 KCAL/MOL
REMARK 923 INTER-LIGAND FREE ENERGY PREDICTED BY IDOCK:   -4.80 KCAL/MOL
REMARK 924 INTRA-LIGAND FREE ENERGY PREDICTED BY IDOCK:   -0.30 KCAL/MOL
REMARK 927      BINDING AFFINITY PREDICTED BY RF-SCORE:    0.00 PKD
ROOT
HETATM    1  C   UNL     1      -8.408  13.718  67.740  1.00  0.00    -0.180 C  
HETATM    2  N   UNL     1      -8.001  12.473  67.094  1.00  0.00    -0.166 NA 
HETATM    3  C   UNL     1      -7.210  11.617  68.002  1.00  0.00    -0.083 C  
HETATM    4  C   UNL     1      -8.010  10.955  69.145  1.00  0.00    -0.112 C  
HETATM    5  N   UNL     1      -9.189  10.239  68.635  1.00  0.00    -0.151 NA 
HETATM    6  C   UNL     1     -10.016  11.012  67.698  1.00  0.00    -0.173 C  
HETATM    7  C   UNL     1      -9.163  11.693  66.605  1.00  0.00    -0.191 C  
ENDROOT
BRANCH   5   8
HETATM    8  C   UNL     1      -9.472   8.906  68.938  1.00  0.00    -0.152 C  
HETATM    9  N   UNL     1      -9.049   7.965  68.137  1.00  0.00    -0.134 NA 
HETATM   10  C   UNL     1      -9.262   6.595  68.372  1.00  0.00    -0.122 A  
HETATM   11  H   UNL     1      -8.537   8.238  67.298  1.00  0.00     0.000 HD 
HETATM   12  C   UNL     1      -9.500   5.775  67.263  1.00  0.00    -0.116 A  
HETATM   13  C   UNL     1      -9.671   4.394  67.405  1.00  0.00    -0.217 A  
HETATM   14  C   UNL     1      -9.584   3.805  68.664  1.00  0.00    -0.173 A  
HETATM   15  C   UNL     1      -9.325   4.597  69.780  1.00  0.00    -0.215 A  
HETATM   16  C   UNL     1      -9.177   5.981  69.630  1.00  0.00    -0.138 A  
HETATM   17  O   UNL     1      -8.944   6.704  70.779  1.00  0.00    -0.149 OA 
HETATM   18  C   UNL     1      -9.949   7.599  71.045  1.00  0.00    -0.182 A  
HETATM   19  C   UNL     1     -10.283   8.630  70.168  1.00  0.00    -0.204 A  
HETATM   20  C   UNL     1     -11.370   9.464  70.460  1.00  0.00    -0.328 A  
HETATM   21  C   UNL     1     -12.060   9.307  71.658  1.00  0.00    -0.379 A  
HETATM   22  C   UNL     1     -11.692   8.310  72.560  1.00  0.00    -0.451 A  
HETATM   23 CL   UNL     1     -13.358  10.371  72.035  1.00  0.00    -0.514 Cl 
HETATM   24  C   UNL     1     -10.637   7.451  72.251  1.00  0.00    -0.270 A  
ENDBRANCH   5   8
TORSDOF 1
ENDMDL
MODEL       82
REMARK 921   NORMALIZED FREE ENERGY PREDICTED BY IDOCK:   -4.43 KCAL/MOL
REMARK 922        TOTAL FREE ENERGY PREDICTED BY IDOCK:   -5.08 KCAL/MOL
REMARK 923 INTER-LIGAND FREE ENERGY PREDICTED BY IDOCK:   -4.78 KCAL/MOL
REMARK 924 INTRA-LIGAND FREE ENERGY PREDICTED BY IDOCK:   -0.29 KCAL/MOL
REMARK 927      BINDING AFFINITY PREDICTED BY RF-SCORE:    0.00 PKD
ROOT
HETATM    1  C   UNL     1     -11.537  12.634  68.794  1.00  0.00    -0.313 C  
HETATM    2  N   UNL     1     -12.102  11.294  68.657  1.00  0.00    -0.570 NA 
HETATM    3  C   UNL     1     -11.144  10.356  68.039  1.00  0.00    -0.298 C  
HETATM    4  C   UNL     1      -9.957   9.941  68.936  1.00  0.00    -0.181 C  
HETATM    5  N   UNL     1     -10.414   9.448  70.243  1.00  0.00    -0.231 NA 
HETATM    6  C   UNL     1     -11.396  10.312  70.915  1.00  0.00    -0.295 C  
HETATM    7  C   UNL     1     -12.534  10.736  69.960  1.00  0.00    -0.248 C  
ENDROOT
BRANCH   5   8
HETATM    8  C   UNL     1     -10.024   8.221  70.783  1.00  0.00    -0.190 C  
HETATM    9  N   UNL     1     -10.938   7.380  71.186  1.00  0.00    -0.243 NA 
HETATM   10  C   UNL     1     -10.643   6.112  71.719  1.00  0.00    -0.223 A  
HETATM   11  H   UNL     1     -11.917   7.657  71.111  1.00  0.00     0.000 HD 
HETATM   12  C   UNL     1     -11.456   5.638  72.755  1.00  0.00    -0.328 A  
HETATM   13  C   UNL     1     -11.262   4.367  73.305  1.00  0.00    -0.364 A  
HETATM   14  C   UNL     1     -10.260   3.535  72.809  1.00  0.00    -0.242 A  
HETATM   15  C   UNL     1      -9.455   3.976  71.762  1.00  0.00    -0.210 A  
HETATM   16  C   UNL     1      -9.642   5.258  71.233  1.00  0.00    -0.159 A  
HETATM   17  O   UNL     1      -8.796   5.636  70.214  1.00  0.00    -0.134 OA 
HETATM   18  C   UNL     1      -8.014   6.710  70.556  1.00  0.00    -0.111 A  
HETATM   19  C   UNL     1      -8.555   7.948  70.898  1.00  0.00    -0.129 A  
HETATM   20  C   UNL     1      -7.708   8.984  71.313  1.00  0.00    -0.118 A  
HETATM   21  C   UNL     1      -6.329   8.795  71.308  1.00  0.00    -0.058 A  
HETATM   22  C   UNL     1      -5.785   7.573  70.914  1.00  0.00    -0.031 A  
HETATM   23 CL   UNL     1      -5.293  10.089  71.764  1.00  0.00    -0.059 Cl 
HETATM   24  C   UNL     1      -6.630   6.526  70.541  1.00  0.00    -0.049 A  
ENDBRANCH   5   8
TORSDOF 1
ENDMDL
MODEL       83
REMARK 921   NORMALIZED FREE ENERGY PREDICTED BY IDOCK:   -4.42 KCAL/MOL
REMARK 922        TOTAL FREE ENERGY PREDICTED BY IDOCK:   -5.07 KCAL/MOL
REMARK 923 INTER-LIGAND FREE ENERGY PREDICTED BY IDOCK:   -4.71 KCAL/MOL
REMARK 924 INTRA-LIGAND FREE ENERGY PREDICTED BY IDOCK:   -0.37 KCAL/MOL
REMARK 927      BINDING AFFINITY PREDICTED BY RF-SCORE:    0.00 PKD
ROOT
HETATM    1  C   UNL     1      -8.921   7.775  72.172  1.00  0.00    -0.137 C  
HETATM    2  N   UNL     1      -9.027   7.146  70.858  1.00  0.00    -0.151 NA 
HETATM    3  C   UNL     1     -10.358   7.357  70.254  1.00  0.00    -0.212 C  
HETATM    4  C   UNL     1     -10.642   8.796  69.771  1.00  0.00    -0.224 C  
HETATM    5  N   UNL     1      -9.575   9.288  68.887  1.00  0.00    -0.153 NA 
HETATM    6  C   UNL     1      -8.212   9.089  69.401  1.00  0.00    -0.117 C  
HETATM    7  C   UNL     1      -7.998   7.648  69.916  1.00  0.00    -0.115 C  
ENDROOT
BRANCH   5   8
HETATM    8  C   UNL     1      -9.811   9.828  67.621  1.00  0.00    -0.165 C  
HETATM    9  N   UNL     1     -10.547  10.902  67.511  1.00  0.00    -0.214 NA 
HETATM   10  C   UNL     1     -10.819  11.531  66.283  1.00  0.00    -0.282 A  
HETATM   11  H   UNL     1     -10.944  11.304  68.360  1.00  0.00     0.000 HD 
HETATM   12  C   UNL     1     -12.087  12.097  66.111  1.00  0.00    -0.068 A  
HETATM   13  C   UNL     1     -12.421  12.786  64.940  1.00  0.00    -0.563 A  
HETATM   14  C   UNL     1     -11.478  12.940  63.926  1.00  0.00    -0.504 A  
HETATM   15  C   UNL     1     -10.202  12.406  64.086  1.00  0.00    -0.377 A  
HETATM   16  C   UNL     1      -9.884  11.700  65.251  1.00  0.00    -0.248 A  
HETATM   17  O   UNL     1      -8.611  11.181  65.331  1.00  0.00    -0.129 OA 
HETATM   18  C   UNL     1      -8.609   9.810  65.401  1.00  0.00    -0.149 A  
HETATM   19  C   UNL     1      -9.224   9.115  66.441  1.00  0.00    -0.233 A  
HETATM   20  C   UNL     1      -9.255   7.715  66.415  1.00  0.00    -0.223 A  
HETATM   21  C   UNL     1      -8.606   7.027  65.394  1.00  0.00    -0.036 A  
HETATM   22  C   UNL     1      -7.944   7.722  64.383  1.00  0.00    -0.126 A  
HETATM   23 CL   UNL     1      -8.600   5.307  65.400  1.00  0.00    -0.144 Cl 
HETATM   24  C   UNL     1      -7.949   9.118  64.384  1.00  0.00    -0.137 A  
ENDBRANCH   5   8
TORSDOF 1
ENDMDL
MODEL       84
REMARK 921   NORMALIZED FREE ENERGY PREDICTED BY IDOCK:   -4.40 KCAL/MOL
REMARK 922        TOTAL FREE ENERGY PREDICTED BY IDOCK:   -5.05 KCAL/MOL
REMARK 923 INTER-LIGAND FREE ENERGY PREDICTED BY IDOCK:   -4.63 KCAL/MOL
REMARK 924 INTRA-LIGAND FREE ENERGY PREDICTED BY IDOCK:   -0.42 KCAL/MOL
REMARK 927      BINDING AFFINITY PREDICTED BY RF-SCORE:    0.00 PKD
ROOT
HETATM    1  C   UNL     1     -10.264  17.470  67.657  1.00  0.00    -0.343 C  
HETATM    2  N   UNL     1     -10.392  16.291  66.803  1.00  0.00    -0.292 NA 
HETATM    3  C   UNL     1      -9.075  15.791  66.359  1.00  0.00    -0.322 C  
HETATM    4  C   UNL     1      -8.227  15.108  67.454  1.00  0.00    -0.193 C  
HETATM    5  N   UNL     1      -8.987  14.058  68.149  1.00  0.00    -0.178 NA 
HETATM    6  C   UNL     1     -10.326  14.466  68.598  1.00  0.00    -0.245 C  
HETATM    7  C   UNL     1     -11.111  15.188  67.481  1.00  0.00    -0.319 C  
ENDROOT
BRANCH   5   8
HETATM    8  C   UNL     1      -8.526  12.749  68.305  1.00  0.00    -0.161 C  
HETATM    9  N   UNL     1      -7.600  12.499  69.191  1.00  0.00    -0.327 NA 
HETATM   10  C   UNL     1      -7.092  11.211  69.437  1.00  0.00    -0.110 A  
HETATM   11  H   UNL     1      -7.225  13.279  69.732  1.00  0.00     0.000 HD 
HETATM   12  C   UNL     1      -5.731  11.097  69.742  1.00  0.00    -0.073 A  
HETATM   13  C   UNL     1      -5.157   9.859  70.050  1.00  0.00    -0.037 A  
HETATM   14  C   UNL     1      -5.946   8.711  70.080  1.00  0.00    -0.030 A  
HETATM   15  C   UNL     1      -7.308   8.804  69.804  1.00  0.00    -0.052 A  
HETATM   16  C   UNL     1      -7.868  10.044  69.475  1.00  0.00    -0.154 A  
HETATM   17  O   UNL     1      -9.216  10.057  69.193  1.00  0.00    -0.167 OA 
HETATM   18  C   UNL     1      -9.475  10.445  67.902  1.00  0.00    -0.138 A  
HETATM   19  C   UNL     1      -9.108  11.697  67.411  1.00  0.00    -0.169 A  
HETATM   20  C   UNL     1      -9.331  12.004  66.063  1.00  0.00    -0.196 A  
HETATM   21  C   UNL     1      -9.986  11.090  65.243  1.00  0.00    -0.266 A  
HETATM   22  C   UNL     1     -10.401   9.858  65.749  1.00  0.00    -0.155 A  
HETATM   23 CL   UNL     1     -10.307  11.497  63.604  1.00  0.00    -0.418 Cl 
HETATM   24  C   UNL     1     -10.141   9.533  67.081  1.00  0.00    -0.290 A  
ENDBRANCH   5   8
TORSDOF 1
ENDMDL
MODEL       85
REMARK 921   NORMALIZED FREE ENERGY PREDICTED BY IDOCK:   -4.36 KCAL/MOL
REMARK 922        TOTAL FREE ENERGY PREDICTED BY IDOCK:   -5.01 KCAL/MOL
REMARK 923 INTER-LIGAND FREE ENERGY PREDICTED BY IDOCK:   -4.84 KCAL/MOL
REMARK 924 INTRA-LIGAND FREE ENERGY PREDICTED BY IDOCK:   -0.17 KCAL/MOL
REMARK 927      BINDING AFFINITY PREDICTED BY RF-SCORE:    0.00 PKD
ROOT
HETATM    1  C   UNL     1     -14.191   8.533  72.067  1.00  0.00    -0.453 C  
HETATM    2  N   UNL     1     -12.989   9.272  72.447  1.00  0.00    -0.398 NA 
HETATM    3  C   UNL     1     -11.766   8.468  72.249  1.00  0.00    -0.373 C  
HETATM    4  C   UNL     1     -11.358   8.239  70.778  1.00  0.00    -0.266 C  
HETATM    5  N   UNL     1     -11.286   9.506  70.034  1.00  0.00    -0.208 NA 
HETATM    6  C   UNL     1     -12.455  10.381  70.201  1.00  0.00    -0.176 C  
HETATM    7  C   UNL     1     -12.850  10.536  71.686  1.00  0.00    -0.475 C  
ENDROOT
BRANCH   5   8
HETATM    8  C   UNL     1     -10.171   9.901  69.292  1.00  0.00    -0.209 C  
HETATM    9  N   UNL     1      -9.764  11.140  69.362  1.00  0.00    -0.418 NA 
HETATM   10  C   UNL     1      -8.638  11.624  68.672  1.00  0.00    -0.086 A  
HETATM   11  H   UNL     1     -10.290  11.790  69.946  1.00  0.00     0.000 HD 
HETATM   12  C   UNL     1      -8.695  12.929  68.171  1.00  0.00    -0.190 A  
HETATM   13  C   UNL     1      -7.600  13.505  67.518  1.00  0.00    -0.176 A  
HETATM   14  C   UNL     1      -6.415  12.786  67.375  1.00  0.00    -0.141 A  
HETATM   15  C   UNL     1      -6.326  11.493  67.887  1.00  0.00    -0.056 A  
HETATM   16  C   UNL     1      -7.435  10.919  68.519  1.00  0.00    -0.103 A  
HETATM   17  O   UNL     1      -7.283   9.630  68.981  1.00  0.00    -0.068 OA 
HETATM   18  C   UNL     1      -8.129   8.749  68.357  1.00  0.00    -0.117 A  
HETATM   19  C   UNL     1      -9.516   8.872  68.422  1.00  0.00    -0.147 A  
HETATM   20  C   UNL     1     -10.325   7.985  67.700  1.00  0.00    -0.312 A  
HETATM   21  C   UNL     1      -9.743   6.942  66.985  1.00  0.00    -0.163 A  
HETATM   22  C   UNL     1      -8.358   6.787  66.964  1.00  0.00    -0.114 A  
HETATM   23 CL   UNL     1     -10.746   5.825  66.147  1.00  0.00    -0.081 Cl 
HETATM   24  C   UNL     1      -7.548   7.695  67.648  1.00  0.00    -0.109 A  
ENDBRANCH   5   8
TORSDOF 1
ENDMDL
MODEL       86
REMARK 921   NORMALIZED FREE ENERGY PREDICTED BY IDOCK:   -4.28 KCAL/MOL
REMARK 922        TOTAL FREE ENERGY PREDICTED BY IDOCK:   -4.93 KCAL/MOL
REMARK 923 INTER-LIGAND FREE ENERGY PREDICTED BY IDOCK:   -4.71 KCAL/MOL
REMARK 924 INTRA-LIGAND FREE ENERGY PREDICTED BY IDOCK:   -0.21 KCAL/MOL
REMARK 927      BINDING AFFINITY PREDICTED BY RF-SCORE:    0.00 PKD
ROOT
HETATM    1  C   UNL     1      -7.618   8.942  63.930  1.00  0.00    -0.121 C  
HETATM    2  N   UNL     1      -8.483  10.109  64.084  1.00  0.00    -0.170 NA 
HETATM    3  C   UNL     1      -9.830   9.734  64.560  1.00  0.00     0.083 C  
HETATM    4  C   UNL     1      -9.905   9.279  66.034  1.00  0.00    -0.293 C  
HETATM    5  N   UNL     1      -9.279  10.259  66.934  1.00  0.00    -0.149 NA 
HETATM    6  C   UNL     1      -7.943  10.709  66.515  1.00  0.00    -0.138 C  
HETATM    7  C   UNL     1      -7.912  11.105  65.022  1.00  0.00     0.450 C  
ENDROOT
BRANCH   5   8
HETATM    8  C   UNL     1      -9.917  10.794  68.054  1.00  0.00    -0.164 C  
HETATM    9  N   UNL     1     -10.688  11.839  67.912  1.00  0.00    -0.197 NA 
HETATM   10  C   UNL     1     -11.391  12.432  68.976  1.00  0.00    -0.283 A  
HETATM   11  H   UNL     1     -10.784  12.246  66.982  1.00  0.00     0.000 HD 
HETATM   12  C   UNL     1     -11.525  13.825  68.970  1.00  0.00    -0.349 A  
HETATM   13  C   UNL     1     -12.253  14.489  69.962  1.00  0.00    -0.396 A  
HETATM   14  C   UNL     1     -12.882  13.763  70.971  1.00  0.00    -0.376 A  
HETATM   15  C   UNL     1     -12.783  12.373  70.985  1.00  0.00    -0.315 A  
HETATM   16  C   UNL     1     -12.034  11.720  69.999  1.00  0.00    -0.344 A  
HETATM   17  O   UNL     1     -11.962  10.348  70.087  1.00  0.00    -0.270 OA 
HETATM   18  C   UNL     1     -10.679   9.904  70.290  1.00  0.00    -0.310 A  
HETATM   19  C   UNL     1      -9.652  10.148  69.380  1.00  0.00    -0.249 A  
HETATM   20  C   UNL     1      -8.348   9.736  69.681  1.00  0.00    -0.180 A  
HETATM   21  C   UNL     1      -8.099   9.021  70.849  1.00  0.00    -0.169 A  
HETATM   22  C   UNL     1      -9.136   8.731  71.734  1.00  0.00    -0.305 A  
HETATM   23 CL   UNL     1      -6.504   8.471  71.184  1.00  0.00    -0.044 Cl 
HETATM   24  C   UNL     1     -10.429   9.178  71.456  1.00  0.00    -0.422 A  
ENDBRANCH   5   8
TORSDOF 1
ENDMDL
MODEL       87
REMARK 921   NORMALIZED FREE ENERGY PREDICTED BY IDOCK:   -4.27 KCAL/MOL
REMARK 922        TOTAL FREE ENERGY PREDICTED BY IDOCK:   -4.91 KCAL/MOL
REMARK 923 INTER-LIGAND FREE ENERGY PREDICTED BY IDOCK:   -4.58 KCAL/MOL
REMARK 924 INTRA-LIGAND FREE ENERGY PREDICTED BY IDOCK:   -0.33 KCAL/MOL
REMARK 927      BINDING AFFINITY PREDICTED BY RF-SCORE:    0.00 PKD
ROOT
HETATM    1  C   UNL     1     -12.372  13.028  65.698  1.00  0.00    -0.446 C  
HETATM    2  N   UNL     1     -11.340  13.400  66.662  1.00  0.00    -0.313 NA 
HETATM    3  C   UNL     1     -11.729  13.050  68.043  1.00  0.00    -0.355 C  
HETATM    4  C   UNL     1     -11.720  11.540  68.369  1.00  0.00    -0.303 C  
HETATM    5  N   UNL     1     -10.438  10.918  68.005  1.00  0.00    -0.182 NA 
HETATM    6  C   UNL     1      -9.962  11.240  66.652  1.00  0.00    -0.209 C  
HETATM    7  C   UNL     1     -10.039  12.756  66.362  1.00  0.00    -0.259 C  
ENDROOT
BRANCH   5   8
HETATM    8  C   UNL     1      -9.678  10.148  68.887  1.00  0.00    -0.187 C  
HETATM    9  N   UNL     1      -8.701  10.710  69.547  1.00  0.00    -0.388 NA 
HETATM   10  C   UNL     1      -7.898  10.023  70.475  1.00  0.00     0.226 A  
HETATM   11  H   UNL     1      -8.511  11.698  69.381  1.00  0.00     0.000 HD 
HETATM   12  C   UNL     1      -6.543  10.365  70.540  1.00  0.00    -0.074 A  
HETATM   13  C   UNL     1      -5.687   9.767  71.470  1.00  0.00    -0.028 A  
HETATM   14  C   UNL     1      -6.181   8.827  72.371  1.00  0.00    -0.059 A  
HETATM   15  C   UNL     1      -7.532   8.488  72.342  1.00  0.00    -0.085 A  
HETATM   16  C   UNL     1      -8.376   9.076  71.393  1.00  0.00    -0.070 A  
HETATM   17  O   UNL     1      -9.694   8.677  71.407  1.00  0.00    -0.196 OA 
HETATM   18  C   UNL     1     -10.063   8.053  70.242  1.00  0.00    -0.192 A  
HETATM   19  C   UNL     1     -10.013   8.692  69.005  1.00  0.00    -0.197 A  
HETATM   20  C   UNL     1     -10.329   7.977  67.843  1.00  0.00    -0.282 A  
HETATM   21  C   UNL     1     -10.766   6.659  67.938  1.00  0.00    -0.274 A  
HETATM   22  C   UNL     1     -10.868   6.036  69.181  1.00  0.00    -0.422 A  
HETATM   23 CL   UNL     1     -11.207   5.806  66.511  1.00  0.00    -0.050 Cl 
HETATM   24  C   UNL     1     -10.512   6.734  70.337  1.00  0.00    -0.236 A  
ENDBRANCH   5   8
TORSDOF 1
ENDMDL
MODEL       88
REMARK 921   NORMALIZED FREE ENERGY PREDICTED BY IDOCK:   -4.26 KCAL/MOL
REMARK 922        TOTAL FREE ENERGY PREDICTED BY IDOCK:   -4.91 KCAL/MOL
REMARK 923 INTER-LIGAND FREE ENERGY PREDICTED BY IDOCK:   -4.54 KCAL/MOL
REMARK 924 INTRA-LIGAND FREE ENERGY PREDICTED BY IDOCK:   -0.36 KCAL/MOL
REMARK 927      BINDING AFFINITY PREDICTED BY RF-SCORE:    0.00 PKD
ROOT
HETATM    1  C   UNL     1     -10.154   3.005  72.063  1.00  0.00    -0.110 C  
HETATM    2  N   UNL     1      -8.995   3.526  71.343  1.00  0.00    -0.095 NA 
HETATM    3  C   UNL     1      -9.393   4.284  70.139  1.00  0.00    -0.158 C  
HETATM    4  C   UNL     1     -10.046   5.656  70.411  1.00  0.00    -0.219 C  
HETATM    5  N   UNL     1      -9.221   6.479  71.307  1.00  0.00    -0.155 NA 
HETATM    6  C   UNL     1      -8.756   5.789  72.519  1.00  0.00    -0.124 C  
HETATM    7  C   UNL     1      -8.157   4.402  72.195  1.00  0.00    -0.099 C  
ENDROOT
BRANCH   5   8
HETATM    8  C   UNL     1      -8.828   7.786  71.009  1.00  0.00    -0.141 C  
HETATM    9  N   UNL     1      -7.556   8.066  70.917  1.00  0.00    -0.075 NA 
HETATM   10  C   UNL     1      -7.066   9.345  70.597  1.00  0.00    -0.124 A  
HETATM   11  H   UNL     1      -6.883   7.318  71.086  1.00  0.00     0.000 HD 
HETATM   12  C   UNL     1      -5.888   9.765  71.224  1.00  0.00    -0.052 A  
HETATM   13  C   UNL     1      -5.306  11.001  70.924  1.00  0.00    -0.118 A  
HETATM   14  C   UNL     1      -5.886  11.832  69.968  1.00  0.00    -0.148 A  
HETATM   15  C   UNL     1      -7.046  11.425  69.313  1.00  0.00    -0.100 A  
HETATM   16  C   UNL     1      -7.633  10.196  69.637  1.00  0.00    -0.156 A  
HETATM   17  O   UNL     1      -8.789   9.868  68.966  1.00  0.00    -0.138 OA 
HETATM   18  C   UNL     1      -9.866   9.749  69.808  1.00  0.00    -0.234 A  
HETATM   19  C   UNL     1      -9.906   8.813  70.840  1.00  0.00    -0.278 A  
HETATM   20  C   UNL     1     -11.000   8.793  71.715  1.00  0.00    -0.415 A  
HETATM   21  C   UNL     1     -12.073   9.654  71.502  1.00  0.00    -0.401 A  
HETATM   22  C   UNL     1     -12.057  10.553  70.437  1.00  0.00    -0.418 A  
HETATM   23 CL   UNL     1     -13.438   9.584  72.546  1.00  0.00    -0.452 Cl 
HETATM   24  C   UNL     1     -10.948  10.604  69.590  1.00  0.00    -0.331 A  
ENDBRANCH   5   8
TORSDOF 1
ENDMDL
MODEL       89
REMARK 921   NORMALIZED FREE ENERGY PREDICTED BY IDOCK:   -4.25 KCAL/MOL
REMARK 922        TOTAL FREE ENERGY PREDICTED BY IDOCK:   -4.90 KCAL/MOL
REMARK 923 INTER-LIGAND FREE ENERGY PREDICTED BY IDOCK:   -5.18 KCAL/MOL
REMARK 924 INTRA-LIGAND FREE ENERGY PREDICTED BY IDOCK:    0.29 KCAL/MOL
REMARK 927      BINDING AFFINITY PREDICTED BY RF-SCORE:    0.00 PKD
ROOT
HETATM    1  C   UNL     1     -13.065  12.072  71.954  1.00  0.00    -0.370 C  
HETATM    2  N   UNL     1     -13.258  11.065  70.913  1.00  0.00    -0.088 NA 
HETATM    3  C   UNL     1     -12.084  10.968  70.022  1.00  0.00    -0.364 C  
HETATM    4  C   UNL     1     -10.832  10.316  70.649  1.00  0.00    -0.140 C  
HETATM    5  N   UNL     1     -11.148   9.014  71.255  1.00  0.00    -0.284 NA 
HETATM    6  C   UNL     1     -12.325   9.018  72.137  1.00  0.00    -0.372 C  
HETATM    7  C   UNL     1     -13.532   9.724  71.480  1.00  0.00    -0.337 C  
ENDROOT
BRANCH   5   8
HETATM    8  C   UNL     1     -10.450   7.840  70.965  1.00  0.00    -0.203 C  
HETATM    9  N   UNL     1      -9.862   7.190  71.933  1.00  0.00    -0.160 NA 
HETATM   10  C   UNL     1      -9.159   5.988  71.743  1.00  0.00    -0.145 A  
HETATM   11  H   UNL     1      -9.916   7.575  72.877  1.00  0.00     0.000 HD 
HETATM   12  C   UNL     1      -8.011   5.777  72.515  1.00  0.00    -0.103 A  
HETATM   13  C   UNL     1      -7.283   4.586  72.424  1.00  0.00    -0.075 A  
HETATM   14  C   UNL     1      -7.708   3.571  71.569  1.00  0.00    -0.056 A  
HETATM   15  C   UNL     1      -8.861   3.748  70.809  1.00  0.00    -0.137 A  
HETATM   16  C   UNL     1      -9.570   4.952  70.890  1.00  0.00    -0.176 A  
HETATM   17  O   UNL     1     -10.688   5.066  70.094  1.00  0.00    -0.176 OA 
HETATM   18  C   UNL     1     -10.569   6.071  69.168  1.00  0.00    -0.295 A  
HETATM   19  C   UNL     1     -10.389   7.405  69.533  1.00  0.00    -0.218 A  
HETATM   20  C   UNL     1     -10.197   8.374  68.540  1.00  0.00    -0.228 A  
HETATM   21  C   UNL     1     -10.262   8.014  67.198  1.00  0.00    -0.292 A  
HETATM   22  C   UNL     1     -10.496   6.689  66.833  1.00  0.00    -0.349 A  
HETATM   23 CL   UNL     1     -10.081   9.220  65.985  1.00  0.00    -0.340 Cl 
HETATM   24  C   UNL     1     -10.645   5.714  67.820  1.00  0.00    -0.274 A  
ENDBRANCH   5   8
TORSDOF 1
ENDMDL
MODEL       90
REMARK 921   NORMALIZED FREE ENERGY PREDICTED BY IDOCK:   -4.25 KCAL/MOL
REMARK 922        TOTAL FREE ENERGY PREDICTED BY IDOCK:   -4.89 KCAL/MOL
REMARK 923 INTER-LIGAND FREE ENERGY PREDICTED BY IDOCK:   -4.81 KCAL/MOL
REMARK 924 INTRA-LIGAND FREE ENERGY PREDICTED BY IDOCK:   -0.08 KCAL/MOL
REMARK 927      BINDING AFFINITY PREDICTED BY RF-SCORE:    0.00 PKD
ROOT
HETATM    1  C   UNL     1     -14.359  14.828  71.755  1.00  0.00    -0.569 C  
HETATM    2  N   UNL     1     -13.108  14.091  71.918  1.00  0.00    -0.362 NA 
HETATM    3  C   UNL     1     -12.699  13.423  70.666  1.00  0.00    -0.176 C  
HETATM    4  C   UNL     1     -12.190  14.365  69.552  1.00  0.00    -0.282 C  
HETATM    5  N   UNL     1     -11.134  15.261  70.046  1.00  0.00    -0.267 NA 
HETATM    6  C   UNL     1     -11.450  15.945  71.308  1.00  0.00    -0.430 C  
HETATM    7  C   UNL     1     -12.001  14.966  72.369  1.00  0.00    -0.287 C  
ENDROOT
BRANCH   5   8
HETATM    8  C   UNL     1      -9.891  15.402  69.425  1.00  0.00    -0.273 C  
HETATM    9  N   UNL     1      -8.991  14.468  69.579  1.00  0.00    -0.362 NA 
HETATM   10  C   UNL     1      -7.722  14.509  68.973  1.00  0.00    -0.113 A  
HETATM   11  H   UNL     1      -9.219  13.668  70.169  1.00  0.00     0.000 HD 
HETATM   12  C   UNL     1      -6.638  14.004  69.701  1.00  0.00    -0.099 A  
HETATM   13  C   UNL     1      -5.353  13.961  69.152  1.00  0.00    -0.077 A  
HETATM   14  C   UNL     1      -5.133  14.404  67.849  1.00  0.00    -0.049 A  
HETATM   15  C   UNL     1      -6.201  14.889  67.098  1.00  0.00     0.553 A  
HETATM   16  C   UNL     1      -7.479  14.949  67.664  1.00  0.00    -0.185 A  
HETATM   17  O   UNL     1      -8.483  15.459  66.870  1.00  0.00    -0.214 OA 
HETATM   18  C   UNL     1      -9.021  16.611  67.386  1.00  0.00    -0.196 A  
HETATM   19  C   UNL     1      -9.648  16.649  68.631  1.00  0.00    -0.248 A  
HETATM   20  C   UNL     1     -10.110  17.871  69.137  1.00  0.00    -0.220 A  
HETATM   21  C   UNL     1     -10.009  19.024  68.363  1.00  0.00    -0.408 A  
HETATM   22  C   UNL     1      -9.431  18.975  67.095  1.00  0.00    -0.350 A  
HETATM   23 CL   UNL     1     -10.629  20.509  68.968  1.00  0.00     0.084 Cl 
HETATM   24  C   UNL     1      -8.932  17.766  66.607  1.00  0.00    -0.283 A  
ENDBRANCH   5   8
TORSDOF 1
ENDMDL
MODEL       91
REMARK 921   NORMALIZED FREE ENERGY PREDICTED BY IDOCK:   -4.24 KCAL/MOL
REMARK 922        TOTAL FREE ENERGY PREDICTED BY IDOCK:   -4.88 KCAL/MOL
REMARK 923 INTER-LIGAND FREE ENERGY PREDICTED BY IDOCK:   -4.46 KCAL/MOL
REMARK 924 INTRA-LIGAND FREE ENERGY PREDICTED BY IDOCK:   -0.43 KCAL/MOL
REMARK 927      BINDING AFFINITY PREDICTED BY RF-SCORE:    0.00 PKD
ROOT
HETATM    1  C   UNL     1     -13.235   8.880  72.354  1.00  0.00    -0.430 C  
HETATM    2  N   UNL     1     -11.842   8.445  72.423  1.00  0.00    -0.388 NA 
HETATM    3  C   UNL     1     -11.698   7.015  72.086  1.00  0.00    -0.283 C  
HETATM    4  C   UNL     1     -11.905   6.664  70.597  1.00  0.00    -0.383 C  
HETATM    5  N   UNL     1     -11.068   7.501  69.724  1.00  0.00    -0.185 NA 
HETATM    6  C   UNL     1     -11.131   8.941  70.013  1.00  0.00    -0.170 C  
HETATM    7  C   UNL     1     -10.968   9.232  71.521  1.00  0.00    -0.375 C  
ENDROOT
BRANCH   5   8
HETATM    8  C   UNL     1     -10.213   6.983  68.750  1.00  0.00    -0.176 C  
HETATM    9  N   UNL     1     -10.721   6.453  67.670  1.00  0.00    -0.273 NA 
HETATM   10  C   UNL     1      -9.940   5.930  66.624  1.00  0.00    -0.174 A  
HETATM   11  H   UNL     1     -11.736   6.416  67.581  1.00  0.00     0.000 HD 
HETATM   12  C   UNL     1     -10.418   4.792  65.963  1.00  0.00    -0.332 A  
HETATM   13  C   UNL     1      -9.728   4.239  64.879  1.00  0.00    -0.182 A  
HETATM   14  C   UNL     1      -8.554   4.832  64.421  1.00  0.00    -0.145 A  
HETATM   15  C   UNL     1      -8.072   5.979  65.048  1.00  0.00    -0.133 A  
HETATM   16  C   UNL     1      -8.757   6.512  66.145  1.00  0.00    -0.147 A  
HETATM   17  O   UNL     1      -8.212   7.634  66.729  1.00  0.00    -0.118 OA 
HETATM   18  C   UNL     1      -7.832   7.415  68.029  1.00  0.00    -0.118 A  
HETATM   19  C   UNL     1      -8.740   7.040  69.018  1.00  0.00    -0.128 A  
HETATM   20  C   UNL     1      -8.278   6.755  70.310  1.00  0.00    -0.125 A  
HETATM   21  C   UNL     1      -6.931   6.922  70.616  1.00  0.00    -0.063 A  
HETATM   22  C   UNL     1      -6.032   7.349  69.640  1.00  0.00    -0.024 A  
HETATM   23 CL   UNL     1      -6.382   6.625  72.219  1.00  0.00    -0.053 Cl 
HETATM   24  C   UNL     1      -6.483   7.592  68.341  1.00  0.00    -0.052 A  
ENDBRANCH   5   8
TORSDOF 1
ENDMDL
MODEL       92
REMARK 921   NORMALIZED FREE ENERGY PREDICTED BY IDOCK:   -4.21 KCAL/MOL
REMARK 922        TOTAL FREE ENERGY PREDICTED BY IDOCK:   -4.85 KCAL/MOL
REMARK 923 INTER-LIGAND FREE ENERGY PREDICTED BY IDOCK:   -4.49 KCAL/MOL
REMARK 924 INTRA-LIGAND FREE ENERGY PREDICTED BY IDOCK:   -0.36 KCAL/MOL
REMARK 927      BINDING AFFINITY PREDICTED BY RF-SCORE:    0.00 PKD
ROOT
HETATM    1  C   UNL     1     -10.266   6.313  74.403  1.00  0.00    -0.321 C  
HETATM    2  N   UNL     1     -10.792   5.272  73.522  1.00  0.00    -0.288 NA 
HETATM    3  C   UNL     1     -11.689   5.831  72.490  1.00  0.00    -0.225 C  
HETATM    4  C   UNL     1     -10.990   6.645  71.380  1.00  0.00    -0.250 C  
HETATM    5  N   UNL     1      -9.885   5.889  70.771  1.00  0.00    -0.179 NA 
HETATM    6  C   UNL     1      -8.960   5.274  71.733  1.00  0.00    -0.135 C  
HETATM    7  C   UNL     1      -9.713   4.514  72.848  1.00  0.00    -0.137 C  
ENDROOT
BRANCH   5   8
HETATM    8  C   UNL     1      -9.755   5.690  69.395  1.00  0.00    -0.157 C  
HETATM    9  N   UNL     1      -9.742   4.472  68.924  1.00  0.00    -0.167 NA 
HETATM   10  C   UNL     1      -9.641   4.173  67.554  1.00  0.00    -0.171 A  
HETATM   11  H   UNL     1      -9.810   3.697  69.585  1.00  0.00     0.000 HD 
HETATM   12  C   UNL     1      -8.903   3.042  67.189  1.00  0.00    -0.161 A  
HETATM   13  C   UNL     1      -8.796   2.645  65.851  1.00  0.00    -0.135 A  
HETATM   14  C   UNL     1      -9.448   3.367  64.854  1.00  0.00    -0.156 A  
HETATM   15  C   UNL     1     -10.209   4.482  65.196  1.00  0.00    -0.142 A  
HETATM   16  C   UNL     1     -10.292   4.884  66.534  1.00  0.00    -0.270 A  
HETATM   17  O   UNL     1     -11.043   6.008  66.797  1.00  0.00    -0.291 OA 
HETATM   18  C   UNL     1     -10.290   7.028  67.322  1.00  0.00    -0.261 A  
HETATM   19  C   UNL     1      -9.604   6.903  68.529  1.00  0.00    -0.131 A  
HETATM   20  C   UNL     1      -8.790   7.953  68.974  1.00  0.00    -0.145 A  
HETATM   21  C   UNL     1      -8.732   9.140  68.250  1.00  0.00    -0.129 A  
HETATM   22  C   UNL     1      -9.462   9.284  67.071  1.00  0.00    -0.205 A  
HETATM   23 CL   UNL     1      -7.775  10.444  68.833  1.00  0.00    -0.102 Cl 
HETATM   24  C   UNL     1     -10.240   8.224  66.603  1.00  0.00    -0.333 A  
ENDBRANCH   5   8
TORSDOF 1
ENDMDL
MODEL       93
REMARK 921   NORMALIZED FREE ENERGY PREDICTED BY IDOCK:   -4.17 KCAL/MOL
REMARK 922        TOTAL FREE ENERGY PREDICTED BY IDOCK:   -4.80 KCAL/MOL
REMARK 923 INTER-LIGAND FREE ENERGY PREDICTED BY IDOCK:   -5.14 KCAL/MOL
REMARK 924 INTRA-LIGAND FREE ENERGY PREDICTED BY IDOCK:    0.34 KCAL/MOL
REMARK 927      BINDING AFFINITY PREDICTED BY RF-SCORE:    0.00 PKD
ROOT
HETATM    1  C   UNL     1     -10.905  17.272  67.993  1.00  0.00    -0.297 C  
HETATM    2  N   UNL     1     -11.074  16.482  69.211  1.00  0.00    -0.293 NA 
HETATM    3  C   UNL     1     -12.127  15.458  69.058  1.00  0.00    -0.226 C  
HETATM    4  C   UNL     1     -11.764  14.270  68.141  1.00  0.00    -0.350 C  
HETATM    5  N   UNL     1     -10.483  13.660  68.530  1.00  0.00    -0.242 NA 
HETATM    6  C   UNL     1      -9.385  14.616  68.732  1.00  0.00    -0.191 C  
HETATM    7  C   UNL     1      -9.817  15.808  69.615  1.00  0.00    -0.275 C  
ENDROOT
BRANCH   5   8
HETATM    8  C   UNL     1     -10.324  12.294  68.774  1.00  0.00    -0.135 C  
HETATM    9  N   UNL     1     -11.138  11.694  69.601  1.00  0.00    -0.457 NA 
HETATM   10  C   UNL     1     -11.071  10.319  69.890  1.00  0.00    -0.304 A  
HETATM   11  H   UNL     1     -11.858  12.251  70.060  1.00  0.00     0.000 HD 
HETATM   12  C   UNL     1     -11.361   9.916  71.198  1.00  0.00    -0.443 A  
HETATM   13  C   UNL     1     -11.368   8.564  71.557  1.00  0.00    -0.348 A  
HETATM   14  C   UNL     1     -11.105   7.586  70.600  1.00  0.00    -0.280 A  
HETATM   15  C   UNL     1     -10.838   7.962  69.286  1.00  0.00    -0.077 A  
HETATM   16  C   UNL     1     -10.811   9.318  68.942  1.00  0.00    -0.099 A  
HETATM   17  O   UNL     1     -10.519   9.618  67.630  1.00  0.00    -0.228 OA 
HETATM   18  C   UNL     1      -9.357  10.338  67.506  1.00  0.00    -0.148 A  
HETATM   19  C   UNL     1      -9.192  11.594  68.087  1.00  0.00    -0.184 A  
HETATM   20  C   UNL     1      -7.955  12.245  67.989  1.00  0.00    -0.150 A  
HETATM   21  C   UNL     1      -6.927  11.671  67.248  1.00  0.00    -0.131 A  
HETATM   22  C   UNL     1      -7.110  10.439  66.621  1.00  0.00    -0.112 A  
HETATM   23 CL   UNL     1      -5.431  12.503  67.086  1.00  0.00    -0.050 Cl 
HETATM   24  C   UNL     1      -8.327   9.769  66.753  1.00  0.00    -0.124 A  
ENDBRANCH   5   8
TORSDOF 1
ENDMDL
MODEL       94
REMARK 921   NORMALIZED FREE ENERGY PREDICTED BY IDOCK:   -4.13 KCAL/MOL
REMARK 922        TOTAL FREE ENERGY PREDICTED BY IDOCK:   -4.77 KCAL/MOL
REMARK 923 INTER-LIGAND FREE ENERGY PREDICTED BY IDOCK:   -5.26 KCAL/MOL
REMARK 924 INTRA-LIGAND FREE ENERGY PREDICTED BY IDOCK:    0.49 KCAL/MOL
REMARK 927      BINDING AFFINITY PREDICTED BY RF-SCORE:    0.00 PKD
ROOT
HETATM    1  C   UNL     1     -14.231   8.398  72.324  1.00  0.00    -0.353 C  
HETATM    2  N   UNL     1     -13.107   9.310  72.522  1.00  0.00    -0.398 NA 
HETATM    3  C   UNL     1     -11.818   8.673  72.184  1.00  0.00    -0.377 C  
HETATM    4  C   UNL     1     -11.574   8.436  70.678  1.00  0.00    -0.191 C  
HETATM    5  N   UNL     1     -11.778   9.667  69.899  1.00  0.00    -0.045 NA 
HETATM    6  C   UNL     1     -13.027  10.382  70.197  1.00  0.00     0.056 C  
HETATM    7  C   UNL     1     -13.246  10.547  71.717  1.00  0.00    -0.417 C  
ENDROOT
BRANCH   5   8
HETATM    8  C   UNL     1     -10.834  10.177  69.005  1.00  0.00    -0.224 C  
HETATM    9  N   UNL     1      -9.797   9.450  68.686  1.00  0.00    -0.159 NA 
HETATM   10  C   UNL     1      -8.809   9.867  67.777  1.00  0.00    -0.129 A  
HETATM   11  H   UNL     1      -9.700   8.531  69.118  1.00  0.00     0.000 HD 
HETATM   12  C   UNL     1      -7.486   9.494  68.039  1.00  0.00    -0.083 A  
HETATM   13  C   UNL     1      -6.451   9.824  67.158  1.00  0.00    -0.069 A  
HETATM   14  C   UNL     1      -6.728  10.519  65.983  1.00  0.00    -0.130 A  
HETATM   15  C   UNL     1      -8.041  10.880  65.689  1.00  0.00    -0.060 A  
HETATM   16  C   UNL     1      -9.066  10.564  66.587  1.00  0.00    -0.155 A  
HETATM   17  O   UNL     1     -10.336  10.971  66.242  1.00  0.00    -0.237 OA 
HETATM   18  C   UNL     1     -10.855  11.874  67.136  1.00  0.00    -0.255 A  
HETATM   19  C   UNL     1     -11.053  11.563  68.480  1.00  0.00    -0.287 A  
HETATM   20  C   UNL     1     -11.514  12.552  69.359  1.00  0.00    -0.327 A  
HETATM   21  C   UNL     1     -11.845  13.813  68.871  1.00  0.00    -0.360 A  
HETATM   22  C   UNL     1     -11.699  14.107  67.516  1.00  0.00    -0.418 A  
HETATM   23 CL   UNL     1     -12.464  15.004  69.946  1.00  0.00    -0.304 Cl 
HETATM   24  C   UNL     1     -11.198  13.136  66.646  1.00  0.00    -0.335 A  
ENDBRANCH   5   8
TORSDOF 1
ENDMDL
MODEL       95
REMARK 921   NORMALIZED FREE ENERGY PREDICTED BY IDOCK:   -4.08 KCAL/MOL
REMARK 922        TOTAL FREE ENERGY PREDICTED BY IDOCK:   -4.71 KCAL/MOL
REMARK 923 INTER-LIGAND FREE ENERGY PREDICTED BY IDOCK:   -4.34 KCAL/MOL
REMARK 924 INTRA-LIGAND FREE ENERGY PREDICTED BY IDOCK:   -0.37 KCAL/MOL
REMARK 927      BINDING AFFINITY PREDICTED BY RF-SCORE:    0.00 PKD
ROOT
HETATM    1  C   UNL     1      -6.533   9.703  64.215  1.00  0.00    -0.106 C  
HETATM    2  N   UNL     1      -7.654  10.256  64.971  1.00  0.00    -0.140 NA 
HETATM    3  C   UNL     1      -8.839   9.377  64.916  1.00  0.00    -0.202 C  
HETATM    4  C   UNL     1      -8.726   8.067  65.726  1.00  0.00    -0.146 C  
HETATM    5  N   UNL     1      -8.321   8.325  67.116  1.00  0.00    -0.122 NA 
HETATM    6  C   UNL     1      -7.163   9.219  67.261  1.00  0.00    -0.087 C  
HETATM    7  C   UNL     1      -7.305  10.489  66.393  1.00  0.00    -0.129 C  
ENDROOT
BRANCH   5   8
HETATM    8  C   UNL     1      -9.017   7.838  68.224  1.00  0.00    -0.131 C  
HETATM    9  N   UNL     1      -9.837   8.630  68.862  1.00  0.00    -0.174 NA 
HETATM   10  C   UNL     1     -10.600   8.223  69.971  1.00  0.00    -0.235 A  
HETATM   11  H   UNL     1      -9.929   9.593  68.538  1.00  0.00     0.000 HD 
HETATM   12  C   UNL     1     -10.806   9.155  70.994  1.00  0.00    -0.362 A  
HETATM   13  C   UNL     1     -11.596   8.848  72.108  1.00  0.00    -0.400 A  
HETATM   14  C   UNL     1     -12.214   7.603  72.204  1.00  0.00    -0.301 A  
HETATM   15  C   UNL     1     -12.042   6.668  71.186  1.00  0.00    -0.391 A  
HETATM   16  C   UNL     1     -11.233   6.977  70.087  1.00  0.00    -0.284 A  
HETATM   17  O   UNL     1     -11.091   5.997  69.130  1.00  0.00    -0.362 OA 
HETATM   18  C   UNL     1      -9.793   5.568  69.010  1.00  0.00    -0.162 A  
HETATM   19  C   UNL     1      -8.756   6.424  68.642  1.00  0.00    -0.122 A  
HETATM   20  C   UNL     1      -7.440   5.943  68.612  1.00  0.00    -0.086 A  
HETATM   21  C   UNL     1      -7.187   4.600  68.874  1.00  0.00    -0.053 A  
HETATM   22  C   UNL     1      -8.232   3.732  69.189  1.00  0.00    -0.073 A  
HETATM   23 CL   UNL     1      -5.576   4.006  68.780  1.00  0.00    -0.016 Cl 
HETATM   24  C   UNL     1      -9.539   4.219  69.261  1.00  0.00    -0.261 A  
ENDBRANCH   5   8
TORSDOF 1
ENDMDL
MODEL       96
REMARK 921   NORMALIZED FREE ENERGY PREDICTED BY IDOCK:   -4.06 KCAL/MOL
REMARK 922        TOTAL FREE ENERGY PREDICTED BY IDOCK:   -4.69 KCAL/MOL
REMARK 923 INTER-LIGAND FREE ENERGY PREDICTED BY IDOCK:   -4.28 KCAL/MOL
REMARK 924 INTRA-LIGAND FREE ENERGY PREDICTED BY IDOCK:   -0.40 KCAL/MOL
REMARK 927      BINDING AFFINITY PREDICTED BY RF-SCORE:    0.00 PKD
ROOT
HETATM    1  C   UNL     1      -9.046  11.833  66.799  1.00  0.00    -0.194 C  
HETATM    2  N   UNL     1      -8.515  10.851  65.857  1.00  0.00    -0.164 NA 
HETATM    3  C   UNL     1      -7.563   9.927  66.506  1.00  0.00    -0.103 C  
HETATM    4  C   UNL     1      -8.194   8.902  67.473  1.00  0.00    -0.109 C  
HETATM    5  N   UNL     1      -9.296   8.166  66.835  1.00  0.00    -0.162 NA 
HETATM    6  C   UNL     1     -10.275   9.012  66.138  1.00  0.00    -0.071 C  
HETATM    7  C   UNL     1      -9.589  10.050  65.223  1.00  0.00    -0.291 C  
ENDROOT
BRANCH   5   8
HETATM    8  C   UNL     1      -9.377   6.772  66.810  1.00  0.00    -0.160 C  
HETATM    9  N   UNL     1      -9.161   6.140  65.688  1.00  0.00    -0.366 NA 
HETATM   10  C   UNL     1      -9.196   4.739  65.571  1.00  0.00    -0.154 A  
HETATM   11  H   UNL     1      -8.957   6.690  64.854  1.00  0.00     0.000 HD 
HETATM   12  C   UNL     1      -9.710   4.199  64.386  1.00  0.00    -0.158 A  
HETATM   13  C   UNL     1      -9.733   2.817  64.168  1.00  0.00    -0.151 A  
HETATM   14  C   UNL     1      -9.219   1.949  65.129  1.00  0.00    -0.078 A  
HETATM   15  C   UNL     1      -8.680   2.465  66.305  1.00  0.00    -0.120 A  
HETATM   16  C   UNL     1      -8.682   3.847  66.523  1.00  0.00    -0.115 A  
HETATM   17  O   UNL     1      -8.153   4.285  67.718  1.00  0.00    -0.093 OA 
HETATM   18  C   UNL     1      -9.085   4.920  68.500  1.00  0.00    -0.114 A  
HETATM   19  C   UNL     1      -9.744   6.075  68.085  1.00  0.00    -0.137 A  
HETATM   20  C   UNL     1     -10.741   6.633  68.895  1.00  0.00    -0.304 A  
HETATM   21  C   UNL     1     -11.012   6.076  70.142  1.00  0.00    -0.359 A  
HETATM   22  C   UNL     1     -10.314   4.951  70.580  1.00  0.00    -0.233 A  
HETATM   23 CL   UNL     1     -12.198   6.800  71.155  1.00  0.00    -0.424 Cl 
HETATM   24  C   UNL     1      -9.351   4.369  69.755  1.00  0.00    -0.224 A  
ENDBRANCH   5   8
TORSDOF 1
ENDMDL
MODEL       97
REMARK 921   NORMALIZED FREE ENERGY PREDICTED BY IDOCK:   -3.98 KCAL/MOL
REMARK 922        TOTAL FREE ENERGY PREDICTED BY IDOCK:   -4.61 KCAL/MOL
REMARK 923 INTER-LIGAND FREE ENERGY PREDICTED BY IDOCK:   -4.44 KCAL/MOL
REMARK 924 INTRA-LIGAND FREE ENERGY PREDICTED BY IDOCK:   -0.17 KCAL/MOL
REMARK 927      BINDING AFFINITY PREDICTED BY RF-SCORE:    0.00 PKD
ROOT
HETATM    1  C   UNL     1      -9.720   4.405  74.261  1.00  0.00    -0.130 C  
HETATM    2  N   UNL     1     -10.527   5.616  74.131  1.00  0.00    -0.276 NA 
HETATM    3  C   UNL     1      -9.688   6.832  74.099  1.00  0.00    -0.295 C  
HETATM    4  C   UNL     1      -8.875   7.037  72.802  1.00  0.00    -0.122 C  
HETATM    5  N   UNL     1      -9.731   6.951  71.609  1.00  0.00    -0.162 NA 
HETATM    6  C   UNL     1     -10.622   5.781  71.577  1.00  0.00    -0.246 C  
HETATM    7  C   UNL     1     -11.372   5.594  72.915  1.00  0.00    -0.273 C  
ENDROOT
BRANCH   5   8
HETATM    8  C   UNL     1      -9.771   7.933  70.617  1.00  0.00    -0.173 C  
HETATM    9  N   UNL     1     -10.514   8.992  70.796  1.00  0.00    -0.223 NA 
HETATM   10  C   UNL     1     -10.598  10.044  69.866  1.00  0.00    -0.282 A  
HETATM   11  H   UNL     1     -11.062   9.059  71.653  1.00  0.00     0.000 HD 
HETATM   12  C   UNL     1     -11.838  10.672  69.707  1.00  0.00    -0.377 A  
HETATM   13  C   UNL     1     -11.995  11.760  68.841  1.00  0.00    -0.332 A  
HETATM   14  C   UNL     1     -10.902  12.252  68.133  1.00  0.00    -0.258 A  
HETATM   15  C   UNL     1      -9.652  11.658  68.293  1.00  0.00    -0.198 A  
HETATM   16  C   UNL     1      -9.510  10.557  69.144  1.00  0.00    -0.191 A  
HETATM   17  O   UNL     1      -8.251  10.006  69.238  1.00  0.00    -0.122 OA 
HETATM   18  C   UNL     1      -8.214   8.710  68.788  1.00  0.00    -0.121 A  
HETATM   19  C   UNL     1      -8.970   7.696  69.373  1.00  0.00    -0.139 A  
HETATM   20  C   UNL     1      -8.948   6.409  68.820  1.00  0.00    -0.126 A  
HETATM   21  C   UNL     1      -8.114   6.133  67.741  1.00  0.00    -0.113 A  
HETATM   22  C   UNL     1      -7.317   7.135  67.190  1.00  0.00    -0.090 A  
HETATM   23 CL   UNL     1      -8.050   4.537  67.104  1.00  0.00    -0.101 Cl 
HETATM   24  C   UNL     1      -7.370   8.428  67.712  1.00  0.00    -0.093 A  
ENDBRANCH   5   8
TORSDOF 1
ENDMDL
MODEL       98
REMARK 921   NORMALIZED FREE ENERGY PREDICTED BY IDOCK:   -3.98 KCAL/MOL
REMARK 922        TOTAL FREE ENERGY PREDICTED BY IDOCK:   -4.61 KCAL/MOL
REMARK 923 INTER-LIGAND FREE ENERGY PREDICTED BY IDOCK:   -4.61 KCAL/MOL
REMARK 924 INTRA-LIGAND FREE ENERGY PREDICTED BY IDOCK:    0.00 KCAL/MOL
REMARK 927      BINDING AFFINITY PREDICTED BY RF-SCORE:    0.00 PKD
ROOT
HETATM    1  C   UNL     1     -11.837   6.855  72.078  1.00  0.00    -0.310 C  
HETATM    2  N   UNL     1     -10.514   7.241  71.593  1.00  0.00    -0.199 NA 
HETATM    3  C   UNL     1     -10.349   6.942  70.156  1.00  0.00    -0.199 C  
HETATM    4  C   UNL     1     -11.146   7.853  69.197  1.00  0.00     0.185 C  
HETATM    5  N   UNL     1     -10.900   9.276  69.475  1.00  0.00    -0.223 NA 
HETATM    6  C   UNL     1     -11.015   9.653  70.891  1.00  0.00    -0.342 C  
HETATM    7  C   UNL     1     -10.241   8.681  71.809  1.00  0.00    -0.308 C  
ENDROOT
BRANCH   5   8
HETATM    8  C   UNL     1     -10.505  10.193  68.500  1.00  0.00    -0.195 C  
HETATM    9  N   UNL     1     -11.375  11.053  68.041  1.00  0.00    -0.341 NA 
HETATM   10  C   UNL     1     -11.064  12.030  67.078  1.00  0.00    -0.298 A  
HETATM   11  H   UNL     1     -12.329  11.013  68.399  1.00  0.00     0.000 HD 
HETATM   12  C   UNL     1     -12.046  12.345  66.132  1.00  0.00    -0.295 A  
HETATM   13  C   UNL     1     -11.837  13.341  65.173  1.00  0.00    -0.377 A  
HETATM   14  C   UNL     1     -10.642  14.058  65.159  1.00  0.00    -0.400 A  
HETATM   15  C   UNL     1      -9.659  13.778  66.105  1.00  0.00    -0.234 A  
HETATM   16  C   UNL     1      -9.870  12.764  67.047  1.00  0.00    -0.231 A  
HETATM   17  O   UNL     1      -8.847  12.528  67.938  1.00  0.00    -0.168 OA 
HETATM   18  C   UNL     1      -8.325  11.265  67.811  1.00  0.00    -0.125 A  
HETATM   19  C   UNL     1      -9.092  10.118  68.006  1.00  0.00    -0.131 A  
HETATM   20  C   UNL     1      -8.521   8.857  67.786  1.00  0.00    -0.125 A  
HETATM   21  C   UNL     1      -7.175   8.756  67.449  1.00  0.00    -0.080 A  
HETATM   22  C   UNL     1      -6.394   9.902  67.307  1.00  0.00    -0.068 A  
HETATM   23 CL   UNL     1      -6.468   7.203  67.236  1.00  0.00    -0.055 Cl 
HETATM   24  C   UNL     1      -6.971  11.161  67.484  1.00  0.00    -0.088 A  
ENDBRANCH   5   8
TORSDOF 1
ENDMDL
MODEL       99
REMARK 921   NORMALIZED FREE ENERGY PREDICTED BY IDOCK:   -3.97 KCAL/MOL
REMARK 922        TOTAL FREE ENERGY PREDICTED BY IDOCK:   -4.59 KCAL/MOL
REMARK 923 INTER-LIGAND FREE ENERGY PREDICTED BY IDOCK:   -4.16 KCAL/MOL
REMARK 924 INTRA-LIGAND FREE ENERGY PREDICTED BY IDOCK:   -0.43 KCAL/MOL
REMARK 927      BINDING AFFINITY PREDICTED BY RF-SCORE:    0.00 PKD
ROOT
HETATM    1  C   UNL     1      -6.063  17.109  68.831  1.00  0.00    -0.169 C  
HETATM    2  N   UNL     1      -7.413  16.595  69.049  1.00  0.00    -0.233 NA 
HETATM    3  C   UNL     1      -8.118  16.348  67.775  1.00  0.00    -0.157 C  
HETATM    4  C   UNL     1      -7.610  15.135  66.965  1.00  0.00    -0.086 C  
HETATM    5  N   UNL     1      -7.561  13.918  67.789  1.00  0.00    -0.152 NA 
HETATM    6  C   UNL     1      -6.901  14.086  69.092  1.00  0.00    -0.112 C  
HETATM    7  C   UNL     1      -7.410  15.340  69.837  1.00  0.00    -0.068 C  
ENDROOT
BRANCH   5   8
HETATM    8  C   UNL     1      -8.162  12.713  67.419  1.00  0.00    -0.184 C  
HETATM    9  N   UNL     1      -7.633  12.004  66.459  1.00  0.00    -0.375 NA 
HETATM   10  C   UNL     1      -8.151  10.767  66.034  1.00  0.00    -0.158 A  
HETATM   11  H   UNL     1      -6.801  12.365  65.993  1.00  0.00     0.000 HD 
HETATM   12  C   UNL     1      -8.083  10.469  64.669  1.00  0.00    -0.064 A  
HETATM   13  C   UNL     1      -8.528   9.240  64.171  1.00  0.00    -0.203 A  
HETATM   14  C   UNL     1      -9.032   8.274  65.041  1.00  0.00     0.128 A  
HETATM   15  C   UNL     1      -9.087   8.540  66.407  1.00  0.00    -0.229 A  
HETATM   16  C   UNL     1      -8.659   9.781  66.892  1.00  0.00    -0.124 A  
HETATM   17  O   UNL     1      -8.763   9.982  68.251  1.00  0.00    -0.117 OA 
HETATM   18  C   UNL     1      -9.625  11.002  68.563  1.00  0.00    -0.187 A  
HETATM   19  C   UNL     1      -9.416  12.313  68.136  1.00  0.00    -0.213 A  
HETATM   20  C   UNL     1     -10.372  13.295  68.422  1.00  0.00    -0.254 A  
HETATM   21  C   UNL     1     -11.484  12.976  69.196  1.00  0.00    -0.299 A  
HETATM   22  C   UNL     1     -11.665  11.677  69.669  1.00  0.00    -0.418 A  
HETATM   23 CL   UNL     1     -12.624  14.201  69.590  1.00  0.00    -0.209 Cl 
HETATM   24  C   UNL     1     -10.735  10.686  69.348  1.00  0.00    -0.281 A  
ENDBRANCH   5   8
TORSDOF 1
ENDMDL
MODEL      100
REMARK 921   NORMALIZED FREE ENERGY PREDICTED BY IDOCK:   -3.95 KCAL/MOL
REMARK 922        TOTAL FREE ENERGY PREDICTED BY IDOCK:   -4.58 KCAL/MOL
REMARK 923 INTER-LIGAND FREE ENERGY PREDICTED BY IDOCK:   -4.19 KCAL/MOL
REMARK 924 INTRA-LIGAND FREE ENERGY PREDICTED BY IDOCK:   -0.39 KCAL/MOL
REMARK 927      BINDING AFFINITY PREDICTED BY RF-SCORE:    0.00 PKD
ROOT
HETATM    1  C   UNL     1      -5.937   4.790  67.950  1.00  0.00    -0.023 C  
HETATM    2  N   UNL     1      -6.664   5.734  67.104  1.00  0.00    -0.060 NA 
HETATM    3  C   UNL     1      -8.123   5.643  67.310  1.00  0.00    -0.102 C  
HETATM    4  C   UNL     1      -8.635   6.203  68.656  1.00  0.00    -0.113 C  
HETATM    5  N   UNL     1      -8.150   7.571  68.891  1.00  0.00    -0.125 NA 
HETATM    6  C   UNL     1      -6.707   7.755  68.677  1.00  0.00    -0.058 C  
HETATM    7  C   UNL     1      -6.241   7.134  67.341  1.00  0.00    -0.045 C  
ENDROOT
BRANCH   5   8
HETATM    8  C   UNL     1      -8.988   8.641  69.209  1.00  0.00    -0.145 C  
HETATM    9  N   UNL     1      -9.093   9.641  68.375  1.00  0.00    -0.123 NA 
HETATM   10  C   UNL     1      -9.930  10.749  68.597  1.00  0.00    -0.182 A  
HETATM   11  H   UNL     1      -8.540   9.616  67.518  1.00  0.00     0.000 HD 
HETATM   12  C   UNL     1      -9.475  12.002  68.172  1.00  0.00    -0.200 A  
HETATM   13  C   UNL     1     -10.267  13.147  68.308  1.00  0.00    -0.250 A  
HETATM   14  C   UNL     1     -11.545  13.051  68.856  1.00  0.00    -0.355 A  
HETATM   15  C   UNL     1     -12.029  11.811  69.264  1.00  0.00    -0.354 A  
HETATM   16  C   UNL     1     -11.220  10.675  69.144  1.00  0.00    -0.265 A  
HETATM   17  O   UNL     1     -11.755   9.486  69.587  1.00  0.00     0.034 OA 
HETATM   18  C   UNL     1     -11.047   8.955  70.636  1.00  0.00    -0.262 A  
HETATM   19  C   UNL     1      -9.705   8.594  70.524  1.00  0.00    -0.210 A  
HETATM   20  C   UNL     1      -9.016   8.129  71.652  1.00  0.00    -0.212 A  
HETATM   21  C   UNL     1      -9.694   7.957  72.855  1.00  0.00    -0.273 A  
HETATM   22  C   UNL     1     -11.050   8.266  72.953  1.00  0.00    -0.188 A  
HETATM   23 CL   UNL     1      -8.855   7.332  74.220  1.00  0.00    -0.249 Cl 
HETATM   24  C   UNL     1     -11.728   8.770  71.841  1.00  0.00    -0.429 A  
ENDBRANCH   5   8
TORSDOF 1
ENDMDL
MODEL      101
REMARK 921   NORMALIZED FREE ENERGY PREDICTED BY IDOCK:   -3.92 KCAL/MOL
REMARK 922        TOTAL FREE ENERGY PREDICTED BY IDOCK:   -4.54 KCAL/MOL
REMARK 923 INTER-LIGAND FREE ENERGY PREDICTED BY IDOCK:   -4.13 KCAL/MOL
REMARK 924 INTRA-LIGAND FREE ENERGY PREDICTED BY IDOCK:   -0.42 KCAL/MOL
REMARK 927      BINDING AFFINITY PREDICTED BY RF-SCORE:    0.00 PKD
ROOT
HETATM    1  C   UNL     1     -10.333   7.363  71.928  1.00  0.00    -0.192 C  
HETATM    2  N   UNL     1      -9.607   8.589  71.603  1.00  0.00    -0.223 NA 
HETATM    3  C   UNL     1      -8.440   8.323  70.738  1.00  0.00    -0.132 C  
HETATM    4  C   UNL     1      -8.775   7.941  69.280  1.00  0.00    -0.138 C  
HETATM    5  N   UNL     1      -9.683   8.918  68.661  1.00  0.00    -0.158 NA 
HETATM    6  C   UNL     1     -10.859   9.262  69.473  1.00  0.00    -0.195 C  
HETATM    7  C   UNL     1     -10.473   9.587  70.933  1.00  0.00    -0.312 C  
ENDROOT
BRANCH   5   8
HETATM    8  C   UNL     1      -9.424   9.543  67.439  1.00  0.00    -0.135 C  
HETATM    9  N   UNL     1      -9.587   8.872  66.331  1.00  0.00    -0.217 NA 
HETATM   10  C   UNL     1      -9.376   9.423  65.054  1.00  0.00    -0.191 A  
HETATM   11  H   UNL     1      -9.882   7.898  66.394  1.00  0.00     0.000 HD 
HETATM   12  C   UNL     1      -8.829   8.592  64.070  1.00  0.00     0.197 A  
HETATM   13  C   UNL     1      -8.635   9.046  62.762  1.00  0.00    -0.191 A  
HETATM   14  C   UNL     1      -9.009  10.341  62.409  1.00  0.00    -0.288 A  
HETATM   15  C   UNL     1      -9.578  11.179  63.365  1.00  0.00    -0.355 A  
HETATM   16  C   UNL     1      -9.748  10.722  64.677  1.00  0.00    -0.289 A  
HETATM   17  O   UNL     1     -10.296  11.611  65.575  1.00  0.00    -0.244 OA 
HETATM   18  C   UNL     1      -9.433  11.923  66.595  1.00  0.00    -0.209 A  
HETATM   19  C   UNL     1      -8.938  10.960  67.473  1.00  0.00    -0.136 A  
HETATM   20  C   UNL     1      -8.000  11.328  68.446  1.00  0.00    -0.140 A  
HETATM   21  C   UNL     1      -7.627  12.663  68.580  1.00  0.00    -0.121 A  
HETATM   22  C   UNL     1      -8.164  13.634  67.736  1.00  0.00    -0.179 A  
HETATM   23 CL   UNL     1      -6.518  13.115  69.813  1.00  0.00    -0.061 Cl 
HETATM   24  C   UNL     1      -9.067  13.262  66.738  1.00  0.00    -0.216 A  
ENDBRANCH   5   8
TORSDOF 1
ENDMDL
MODEL      102
REMARK 921   NORMALIZED FREE ENERGY PREDICTED BY IDOCK:   -3.81 KCAL/MOL
REMARK 922        TOTAL FREE ENERGY PREDICTED BY IDOCK:   -4.43 KCAL/MOL
REMARK 923 INTER-LIGAND FREE ENERGY PREDICTED BY IDOCK:   -4.08 KCAL/MOL
REMARK 924 INTRA-LIGAND FREE ENERGY PREDICTED BY IDOCK:   -0.35 KCAL/MOL
REMARK 927      BINDING AFFINITY PREDICTED BY RF-SCORE:    0.00 PKD
ROOT
HETATM    1  C   UNL     1     -12.398  14.426  65.127  1.00  0.00    -0.381 C  
HETATM    2  N   UNL     1     -11.753  14.545  66.432  1.00  0.00    -0.376 NA 
HETATM    3  C   UNL     1     -12.064  13.394  67.304  1.00  0.00    -0.304 C  
HETATM    4  C   UNL     1     -11.386  12.065  66.907  1.00  0.00    -0.341 C  
HETATM    5  N   UNL     1      -9.933  12.229  66.742  1.00  0.00    -0.203 NA 
HETATM    6  C   UNL     1      -9.537  13.374  65.910  1.00  0.00    -0.109 C  
HETATM    7  C   UNL     1     -10.281  14.664  66.317  1.00  0.00    -0.292 C  
ENDROOT
BRANCH   5   8
HETATM    8  C   UNL     1      -8.990  11.423  67.383  1.00  0.00    -0.154 C  
HETATM    9  N   UNL     1      -8.430  11.848  68.484  1.00  0.00    -0.266 NA 
HETATM   10  C   UNL     1      -7.489  11.098  69.213  1.00  0.00    -0.076 A  
HETATM   11  H   UNL     1      -8.688  12.771  68.833  1.00  0.00     0.000 HD 
HETATM   12  C   UNL     1      -6.442  11.793  69.828  1.00  0.00    -0.094 A  
HETATM   13  C   UNL     1      -5.494  11.129  70.614  1.00  0.00    -0.129 A  
HETATM   14  C   UNL     1      -5.592   9.754  70.815  1.00  0.00    -0.066 A  
HETATM   15  C   UNL     1      -6.640   9.045  70.232  1.00  0.00    -0.045 A  
HETATM   16  C   UNL     1      -7.571   9.715  69.430  1.00  0.00    -0.097 A  
HETATM   17  O   UNL     1      -8.567   8.948  68.868  1.00  0.00    -0.132 OA 
HETATM   18  C   UNL     1      -8.514   8.947  67.497  1.00  0.00    -0.116 A  
HETATM   19  C   UNL     1      -8.647  10.112  66.744  1.00  0.00    -0.129 A  
HETATM   20  C   UNL     1      -8.507  10.057  65.351  1.00  0.00    -0.158 A  
HETATM   21  C   UNL     1      -8.313   8.830  64.723  1.00  0.00    -0.168 A  
HETATM   22  C   UNL     1      -8.235   7.657  65.472  1.00  0.00    -0.135 A  
HETATM   23 CL   UNL     1      -8.199   8.764  63.008  1.00  0.00    -0.184 Cl 
HETATM   24  C   UNL     1      -8.331   7.716  66.863  1.00  0.00    -0.124 A  
ENDBRANCH   5   8
TORSDOF 1
ENDMDL
MODEL      103
REMARK 921   NORMALIZED FREE ENERGY PREDICTED BY IDOCK:   -3.81 KCAL/MOL
REMARK 922        TOTAL FREE ENERGY PREDICTED BY IDOCK:   -4.42 KCAL/MOL
REMARK 923 INTER-LIGAND FREE ENERGY PREDICTED BY IDOCK:   -4.35 KCAL/MOL
REMARK 924 INTRA-LIGAND FREE ENERGY PREDICTED BY IDOCK:   -0.07 KCAL/MOL
REMARK 927      BINDING AFFINITY PREDICTED BY RF-SCORE:    0.00 PKD
ROOT
HETATM    1  C   UNL     1      -9.942   8.301  67.846  1.00  0.00    -0.183 C  
HETATM    2  N   UNL     1      -9.621   9.212  66.751  1.00  0.00    -0.179 NA 
HETATM    3  C   UNL     1     -10.679  10.224  66.553  1.00  0.00    -0.078 C  
HETATM    4  C   UNL     1     -10.766  11.309  67.648  1.00  0.00    -0.226 C  
HETATM    5  N   UNL     1      -9.460  11.945  67.883  1.00  0.00    -0.187 NA 
HETATM    6  C   UNL     1      -8.344  11.004  68.061  1.00  0.00    -0.125 C  
HETATM    7  C   UNL     1      -8.334   9.913  66.968  1.00  0.00    -0.121 C  
ENDROOT
BRANCH   5   8
HETATM    8  C   UNL     1      -9.261  13.326  67.860  1.00  0.00    -0.213 C  
HETATM    9  N   UNL     1      -8.141  13.803  67.386  1.00  0.00    -0.201 NA 
HETATM   10  C   UNL     1      -7.861  15.178  67.298  1.00  0.00    -0.211 A  
HETATM   11  H   UNL     1      -7.434  13.143  67.062  1.00  0.00     0.000 HD 
HETATM   12  C   UNL     1      -6.543  15.588  67.532  1.00  0.00    -0.206 A  
HETATM   13  C   UNL     1      -6.169  16.931  67.414  1.00  0.00    -0.186 A  
HETATM   14  C   UNL     1      -7.109  17.888  67.036  1.00  0.00    -0.209 A  
HETATM   15  C   UNL     1      -8.421  17.499  66.774  1.00  0.00    -0.275 A  
HETATM   16  C   UNL     1      -8.790  16.157  66.916  1.00  0.00    -0.219 A  
HETATM   17  O   UNL     1     -10.108  15.848  66.662  1.00  0.00    -0.261 OA 
HETATM   18  C   UNL     1     -10.753  15.361  67.771  1.00  0.00    -0.289 A  
HETATM   19  C   UNL     1     -10.348  14.195  68.417  1.00  0.00    -0.249 A  
HETATM   20  C   UNL     1     -10.999  13.790  69.590  1.00  0.00    -0.017 A  
HETATM   21  C   UNL     1     -12.094  14.511  70.058  1.00  0.00    -0.339 A  
HETATM   22  C   UNL     1     -12.533  15.648  69.380  1.00  0.00     0.028 A  
HETATM   23 CL   UNL     1     -12.923  13.977  71.466  1.00  0.00    -0.407 Cl 
HETATM   24  C   UNL     1     -11.858  16.077  68.236  1.00  0.00     0.001 A  
ENDBRANCH   5   8
TORSDOF 1
ENDMDL
MODEL      104
REMARK 921   NORMALIZED FREE ENERGY PREDICTED BY IDOCK:   -3.79 KCAL/MOL
REMARK 922        TOTAL FREE ENERGY PREDICTED BY IDOCK:   -4.41 KCAL/MOL
REMARK 923 INTER-LIGAND FREE ENERGY PREDICTED BY IDOCK:   -4.04 KCAL/MOL
REMARK 924 INTRA-LIGAND FREE ENERGY PREDICTED BY IDOCK:   -0.37 KCAL/MOL
REMARK 927      BINDING AFFINITY PREDICTED BY RF-SCORE:    0.00 PKD
ROOT
HETATM    1  C   UNL     1      -5.977   4.804  67.972  1.00  0.00    -0.026 C  
HETATM    2  N   UNL     1      -6.827   5.581  67.073  1.00  0.00    -0.062 NA 
HETATM    3  C   UNL     1      -8.260   5.302  67.295  1.00  0.00    -0.104 C  
HETATM    4  C   UNL     1      -8.846   5.871  68.606  1.00  0.00    -0.111 C  
HETATM    5  N   UNL     1      -8.557   7.306  68.748  1.00  0.00    -0.129 NA 
HETATM    6  C   UNL     1      -7.153   7.674  68.513  1.00  0.00    -0.081 C  
HETATM    7  C   UNL     1      -6.603   7.039  67.216  1.00  0.00    -0.051 C  
ENDROOT
BRANCH   5   8
HETATM    8  C   UNL     1      -9.536   8.267  69.004  1.00  0.00    -0.156 C  
HETATM    9  N   UNL     1     -10.240   8.186  70.100  1.00  0.00    -0.196 NA 
HETATM   10  C   UNL     1     -11.230   9.121  70.456  1.00  0.00    -0.264 A  
HETATM   11  H   UNL     1     -10.064   7.405  70.732  1.00  0.00     0.000 HD 
HETATM   12  C   UNL     1     -12.371   8.642  71.109  1.00  0.00    -0.243 A  
HETATM   13  C   UNL     1     -13.378   9.510  71.542  1.00  0.00    -0.470 A  
HETATM   14  C   UNL     1     -13.248  10.884  71.346  1.00  0.00    -0.355 A  
HETATM   15  C   UNL     1     -12.110  11.386  70.719  1.00  0.00    -0.433 A  
HETATM   16  C   UNL     1     -11.119  10.507  70.270  1.00  0.00    -0.285 A  
HETATM   17  O   UNL     1     -10.032  11.071  69.640  1.00  0.00    -0.003 OA 
HETATM   18  C   UNL     1      -9.920  10.670  68.333  1.00  0.00    -0.163 A  
HETATM   19  C   UNL     1      -9.747   9.335  67.974  1.00  0.00    -0.172 A  
HETATM   20  C   UNL     1      -9.717   8.980  66.619  1.00  0.00    -0.295 A  
HETATM   21  C   UNL     1      -9.784   9.969  65.642  1.00  0.00    -0.272 A  
HETATM   22  C   UNL     1      -9.903  11.311  66.002  1.00  0.00    -0.267 A  
HETATM   23 CL   UNL     1      -9.690   9.531  63.982  1.00  0.00     0.296 Cl 
HETATM   24  C   UNL     1      -9.976  11.662  67.351  1.00  0.00    -0.200 A  
ENDBRANCH   5   8
TORSDOF 1
ENDMDL
MODEL      105
REMARK 921   NORMALIZED FREE ENERGY PREDICTED BY IDOCK:   -3.79 KCAL/MOL
REMARK 922        TOTAL FREE ENERGY PREDICTED BY IDOCK:   -4.40 KCAL/MOL
REMARK 923 INTER-LIGAND FREE ENERGY PREDICTED BY IDOCK:   -4.23 KCAL/MOL
REMARK 924 INTRA-LIGAND FREE ENERGY PREDICTED BY IDOCK:   -0.18 KCAL/MOL
REMARK 927      BINDING AFFINITY PREDICTED BY RF-SCORE:    0.00 PKD
ROOT
HETATM    1  C   UNL     1      -5.625   6.193  69.420  1.00  0.00    -0.012 C  
HETATM    2  N   UNL     1      -6.564   6.985  70.210  1.00  0.00    -0.046 NA 
HETATM    3  C   UNL     1      -6.030   8.328  70.512  1.00  0.00    -0.032 C  
HETATM    4  C   UNL     1      -5.969   9.298  69.312  1.00  0.00    -0.038 C  
HETATM    5  N   UNL     1      -7.264   9.385  68.622  1.00  0.00    -0.074 NA 
HETATM    6  C   UNL     1      -7.881   8.088  68.311  1.00  0.00    -0.123 C  
HETATM    7  C   UNL     1      -7.872   7.140  69.530  1.00  0.00    -0.119 C  
ENDROOT
BRANCH   5   8
HETATM    8  C   UNL     1      -7.913  10.592  68.351  1.00  0.00    -0.116 C  
HETATM    9  N   UNL     1      -7.239  11.571  67.810  1.00  0.00    -0.089 NA 
HETATM   10  C   UNL     1      -7.811  12.813  67.477  1.00  0.00    -0.171 A  
HETATM   11  H   UNL     1      -6.248  11.429  67.618  1.00  0.00     0.000 HD 
HETATM   12  C   UNL     1      -7.024  13.957  67.647  1.00  0.00    -0.189 A  
HETATM   13  C   UNL     1      -7.498  15.224  67.292  1.00  0.00    -0.236 A  
HETATM   14  C   UNL     1      -8.769  15.364  66.737  1.00  0.00    -0.304 A  
HETATM   15  C   UNL     1      -9.561  14.237  66.537  1.00  0.00    -0.313 A  
HETATM   16  C   UNL     1      -9.086  12.976  66.915  1.00  0.00    -0.227 A  
HETATM   17  O   UNL     1      -9.932  11.909  66.708  1.00  0.00    -0.193 OA 
HETATM   18  C   UNL     1     -10.292  11.293  67.880  1.00  0.00    -0.182 A  
HETATM   19  C   UNL     1      -9.358  10.705  68.731  1.00  0.00    -0.183 A  
HETATM   20  C   UNL     1      -9.779  10.159  69.951  1.00  0.00    -0.195 A  
HETATM   21  C   UNL     1     -11.133  10.139  70.269  1.00  0.00    -0.317 A  
HETATM   22  C   UNL     1     -12.074  10.679  69.393  1.00  0.00    -0.250 A  
HETATM   23 CL   UNL     1     -11.648   9.416  71.743  1.00  0.00    -0.459 Cl 
HETATM   24  C   UNL     1     -11.651  11.261  68.197  1.00  0.00    -0.359 A  
ENDBRANCH   5   8
TORSDOF 1
ENDMDL
MODEL      106
REMARK 921   NORMALIZED FREE ENERGY PREDICTED BY IDOCK:   -3.77 KCAL/MOL
REMARK 922        TOTAL FREE ENERGY PREDICTED BY IDOCK:   -4.38 KCAL/MOL
REMARK 923 INTER-LIGAND FREE ENERGY PREDICTED BY IDOCK:   -4.61 KCAL/MOL
REMARK 924 INTRA-LIGAND FREE ENERGY PREDICTED BY IDOCK:    0.23 KCAL/MOL
REMARK 927      BINDING AFFINITY PREDICTED BY RF-SCORE:    0.00 PKD
ROOT
HETATM    1  C   UNL     1      -7.630   8.987  67.158  1.00  0.00    -0.091 C  
HETATM    2  N   UNL     1      -7.732   9.951  66.065  1.00  0.00    -0.105 NA 
HETATM    3  C   UNL     1      -8.976  10.742  66.147  1.00  0.00    -0.177 C  
HETATM    4  C   UNL     1      -9.022  11.782  67.287  1.00  0.00    -0.172 C  
HETATM    5  N   UNL     1      -7.838  12.655  67.269  1.00  0.00    -0.172 NA 
HETATM    6  C   UNL     1      -6.555  11.946  67.158  1.00  0.00    -0.148 C  
HETATM    7  C   UNL     1      -6.581  10.884  66.036  1.00  0.00    -0.080 C  
ENDROOT
BRANCH   5   8
HETATM    8  C   UNL     1      -7.910  14.050  67.270  1.00  0.00    -0.122 C  
HETATM    9  N   UNL     1      -6.858  14.744  66.928  1.00  0.00    -0.207 NA 
HETATM   10  C   UNL     1      -6.841  16.149  66.875  1.00  0.00    -0.113 A  
HETATM   11  H   UNL     1      -6.004  14.241  66.687  1.00  0.00     0.000 HD 
HETATM   12  C   UNL     1      -5.664  16.800  67.260  1.00  0.00    -0.193 A  
HETATM   13  C   UNL     1      -5.547  18.192  67.188  1.00  0.00    -0.150 A  
HETATM   14  C   UNL     1      -6.606  18.958  66.706  1.00  0.00    -0.203 A  
HETATM   15  C   UNL     1      -7.779  18.331  66.294  1.00  0.00    -0.283 A  
HETATM   16  C   UNL     1      -7.894  16.939  66.391  1.00  0.00    -0.313 A  
HETATM   17  O   UNL     1      -9.090  16.389  65.987  1.00  0.00    -0.352 OA 
HETATM   18  C   UNL     1      -9.749  15.760  67.013  1.00  0.00    -0.228 A  
HETATM   19  C   UNL     1      -9.200  14.678  67.700  1.00  0.00    -0.193 A  
HETATM   20  C   UNL     1      -9.888  14.128  68.789  1.00  0.00    -0.168 A  
HETATM   21  C   UNL     1     -11.148  14.614  69.129  1.00  0.00    -0.268 A  
HETATM   22  C   UNL     1     -11.720  15.660  68.408  1.00  0.00    -0.301 A  
HETATM   23 CL   UNL     1     -12.011  13.895  70.432  1.00  0.00    -0.396 Cl 
HETATM   24  C   UNL     1     -11.017  16.238  67.349  1.00  0.00    -0.175 A  
ENDBRANCH   5   8
TORSDOF 1
ENDMDL
MODEL      107
REMARK 921   NORMALIZED FREE ENERGY PREDICTED BY IDOCK:   -3.75 KCAL/MOL
REMARK 922        TOTAL FREE ENERGY PREDICTED BY IDOCK:   -4.37 KCAL/MOL
REMARK 923 INTER-LIGAND FREE ENERGY PREDICTED BY IDOCK:   -4.79 KCAL/MOL
REMARK 924 INTRA-LIGAND FREE ENERGY PREDICTED BY IDOCK:    0.42 KCAL/MOL
REMARK 927      BINDING AFFINITY PREDICTED BY RF-SCORE:    0.00 PKD
ROOT
HETATM    1  C   UNL     1     -12.670  11.703  72.063  1.00  0.00     0.010 C  
HETATM    2  N   UNL     1     -13.174  10.865  70.979  1.00  0.00    -0.184 NA 
HETATM    3  C   UNL     1     -12.266  10.868  69.814  1.00  0.00    -0.311 C  
HETATM    4  C   UNL     1     -10.940  10.101  70.011  1.00  0.00    -0.307 C  
HETATM    5  N   UNL     1     -11.175   8.733  70.496  1.00  0.00    -0.256 NA 
HETATM    6  C   UNL     1     -12.095   8.638  71.638  1.00  0.00    -0.326 C  
HETATM    7  C   UNL     1     -13.381   9.462  71.410  1.00  0.00    -0.346 C  
ENDROOT
BRANCH   5   8
HETATM    8  C   UNL     1     -10.643   7.597  69.883  1.00  0.00    -0.235 C  
HETATM    9  N   UNL     1     -10.715   7.479  68.584  1.00  0.00    -0.371 NA 
HETATM   10  C   UNL     1     -10.187   6.384  67.876  1.00  0.00    -0.168 A  
HETATM   11  H   UNL     1     -11.179   8.218  68.056  1.00  0.00     0.000 HD 
HETATM   12  C   UNL     1     -10.894   5.933  66.756  1.00  0.00    -0.347 A  
HETATM   13  C   UNL     1     -10.411   4.884  65.967  1.00  0.00    -0.307 A  
HETATM   14  C   UNL     1      -9.193   4.280  66.276  1.00  0.00    -0.146 A  
HETATM   15  C   UNL     1      -8.460   4.729  67.372  1.00  0.00    -0.104 A  
HETATM   16  C   UNL     1      -8.963   5.764  68.168  1.00  0.00    -0.114 A  
HETATM   17  O   UNL     1      -8.195   6.142  69.247  1.00  0.00    -0.113 OA 
HETATM   18  C   UNL     1      -8.834   5.927  70.443  1.00  0.00    -0.143 A  
HETATM   19  C   UNL     1     -10.039   6.549  70.767  1.00  0.00    -0.211 A  
HETATM   20  C   UNL     1     -10.681   6.229  71.970  1.00  0.00    -0.268 A  
HETATM   21  C   UNL     1     -10.076   5.353  72.867  1.00  0.00    -0.176 A  
HETATM   22  C   UNL     1      -8.845   4.773  72.566  1.00  0.00    -0.125 A  
HETATM   23 CL   UNL     1     -10.844   5.010  74.367  1.00  0.00    -0.128 Cl 
HETATM   24  C   UNL     1      -8.224   5.057  71.348  1.00  0.00    -0.113 A  
ENDBRANCH   5   8
TORSDOF 1
ENDMDL
MODEL      108
REMARK 921   NORMALIZED FREE ENERGY PREDICTED BY IDOCK:   -3.75 KCAL/MOL
REMARK 922        TOTAL FREE ENERGY PREDICTED BY IDOCK:   -4.36 KCAL/MOL
REMARK 923 INTER-LIGAND FREE ENERGY PREDICTED BY IDOCK:   -3.97 KCAL/MOL
REMARK 924 INTRA-LIGAND FREE ENERGY PREDICTED BY IDOCK:   -0.39 KCAL/MOL
REMARK 927      BINDING AFFINITY PREDICTED BY RF-SCORE:    0.00 PKD
ROOT
HETATM    1  C   UNL     1     -10.374  16.055  67.136  1.00  0.00    -0.295 C  
HETATM    2  N   UNL     1      -9.685  15.056  66.323  1.00  0.00    -0.273 NA 
HETATM    3  C   UNL     1      -8.402  14.646  66.931  1.00  0.00    -0.126 C  
HETATM    4  C   UNL     1      -8.523  13.772  68.198  1.00  0.00    -0.173 C  
HETATM    5  N   UNL     1      -9.398  12.611  67.971  1.00  0.00    -0.204 NA 
HETATM    6  C   UNL     1     -10.687  12.929  67.340  1.00  0.00    -0.237 C  
HETATM    7  C   UNL     1     -10.512  13.846  66.109  1.00  0.00    -0.297 C  
ENDROOT
BRANCH   5   8
HETATM    8  C   UNL     1      -9.019  11.296  68.249  1.00  0.00    -0.172 C  
HETATM    9  N   UNL     1      -8.758  10.953  69.482  1.00  0.00    -0.371 NA 
HETATM   10  C   UNL     1      -8.395   9.648  69.861  1.00  0.00    -0.183 A  
HETATM   11  H   UNL     1      -8.821  11.668  70.206  1.00  0.00     0.000 HD 
HETATM   12  C   UNL     1      -7.455   9.509  70.888  1.00  0.00    -0.043 A  
HETATM   13  C   UNL     1      -7.077   8.248  71.360  1.00  0.00    -0.067 A  
HETATM   14  C   UNL     1      -7.655   7.099  70.824  1.00  0.00    -0.089 A  
HETATM   15  C   UNL     1      -8.611   7.214  69.818  1.00  0.00    -0.141 A  
HETATM   16  C   UNL     1      -8.966   8.479  69.337  1.00  0.00    -0.149 A  
HETATM   17  O   UNL     1      -9.901   8.516  68.327  1.00  0.00    -0.159 OA 
HETATM   18  C   UNL     1      -9.396   9.047  67.167  1.00  0.00    -0.147 A  
HETATM   19  C   UNL     1      -8.903  10.348  67.094  1.00  0.00    -0.141 A  
HETATM   20  C   UNL     1      -8.329  10.806  65.901  1.00  0.00    -0.162 A  
HETATM   21  C   UNL     1      -8.324   9.987  64.776  1.00  0.00    -0.163 A  
HETATM   22  C   UNL     1      -8.866   8.704  64.834  1.00  0.00    -0.076 A  
HETATM   23 CL   UNL     1      -7.668  10.577  63.299  1.00  0.00    -0.082 Cl 
HETATM   24  C   UNL     1      -9.399   8.230  66.034  1.00  0.00    -0.217 A  
ENDBRANCH   5   8
TORSDOF 1
ENDMDL
MODEL      109
REMARK 921   NORMALIZED FREE ENERGY PREDICTED BY IDOCK:   -3.74 KCAL/MOL
REMARK 922        TOTAL FREE ENERGY PREDICTED BY IDOCK:   -4.35 KCAL/MOL
REMARK 923 INTER-LIGAND FREE ENERGY PREDICTED BY IDOCK:   -4.01 KCAL/MOL
REMARK 924 INTRA-LIGAND FREE ENERGY PREDICTED BY IDOCK:   -0.35 KCAL/MOL
REMARK 927      BINDING AFFINITY PREDICTED BY RF-SCORE:    0.00 PKD
ROOT
HETATM    1  C   UNL     1     -12.366  12.679  70.707  1.00  0.00    -0.283 C  
HETATM    2  N   UNL     1     -12.738  11.464  69.986  1.00  0.00    -0.037 NA 
HETATM    3  C   UNL     1     -11.882  11.245  68.802  1.00  0.00    -0.329 C  
HETATM    4  C   UNL     1     -10.431  10.815  69.109  1.00  0.00    -0.218 C  
HETATM    5  N   UNL     1     -10.392   9.656  70.014  1.00  0.00    -0.238 NA 
HETATM    6  C   UNL     1     -11.243   9.780  71.206  1.00  0.00    -0.347 C  
HETATM    7  C   UNL     1     -12.667  10.261  70.847  1.00  0.00    -0.370 C  
ENDROOT
BRANCH   5   8
HETATM    8  C   UNL     1      -9.677   8.488  69.739  1.00  0.00    -0.179 C  
HETATM    9  N   UNL     1     -10.311   7.348  69.690  1.00  0.00    -0.217 NA 
HETATM   10  C   UNL     1      -9.682   6.125  69.396  1.00  0.00    -0.145 A  
HETATM   11  H   UNL     1     -11.314   7.343  69.873  1.00  0.00     0.000 HD 
HETATM   12  C   UNL     1     -10.138   4.983  70.063  1.00  0.00    -0.342 A  
HETATM   13  C   UNL     1      -9.601   3.720  69.791  1.00  0.00    -0.253 A  
HETATM   14  C   UNL     1      -8.608   3.576  68.825  1.00  0.00    -0.120 A  
HETATM   15  C   UNL     1      -8.155   4.695  68.130  1.00  0.00    -0.088 A  
HETATM   16  C   UNL     1      -8.683   5.957  68.425  1.00  0.00    -0.112 A  
HETATM   17  O   UNL     1      -8.172   7.021  67.716  1.00  0.00    -0.113 OA 
HETATM   18  C   UNL     1      -7.536   7.930  68.523  1.00  0.00    -0.105 A  
HETATM   19  C   UNL     1      -8.196   8.610  69.545  1.00  0.00    -0.115 A  
HETATM   20  C   UNL     1      -7.474   9.468  70.385  1.00  0.00    -0.158 A  
HETATM   21  C   UNL     1      -6.122   9.695  70.146  1.00  0.00    -0.053 A  
HETATM   22  C   UNL     1      -5.475   9.057  69.090  1.00  0.00    -0.036 A  
HETATM   23 CL   UNL     1      -5.256  10.794  71.147  1.00  0.00    -0.100 Cl 
HETATM   24  C   UNL     1      -6.182   8.168  68.278  1.00  0.00    -0.050 A  
ENDBRANCH   5   8
TORSDOF 1
ENDMDL
MODEL      110
REMARK 921   NORMALIZED FREE ENERGY PREDICTED BY IDOCK:   -3.71 KCAL/MOL
REMARK 922        TOTAL FREE ENERGY PREDICTED BY IDOCK:   -4.32 KCAL/MOL
REMARK 923 INTER-LIGAND FREE ENERGY PREDICTED BY IDOCK:   -4.45 KCAL/MOL
REMARK 924 INTRA-LIGAND FREE ENERGY PREDICTED BY IDOCK:    0.13 KCAL/MOL
REMARK 927      BINDING AFFINITY PREDICTED BY RF-SCORE:    0.00 PKD
ROOT
HETATM    1  C   UNL     1     -14.404   8.593  72.145  1.00  0.00    -0.427 C  
HETATM    2  N   UNL     1     -13.073   9.100  72.469  1.00  0.00    -0.420 NA 
HETATM    3  C   UNL     1     -12.023   8.097  72.200  1.00  0.00    -0.359 C  
HETATM    4  C   UNL     1     -11.736   7.828  70.707  1.00  0.00    -0.225 C  
HETATM    5  N   UNL     1     -11.476   9.077  69.974  1.00  0.00    -0.075 NA 
HETATM    6  C   UNL     1     -12.462  10.142  70.211  1.00  0.00    -0.104 C  
HETATM    7  C   UNL     1     -12.748  10.335  71.717  1.00  0.00    -0.433 C  
ENDROOT
BRANCH   5   8
HETATM    8  C   UNL     1     -10.347   9.283  69.179  1.00  0.00    -0.211 C  
HETATM    9  N   UNL     1     -10.488   9.392  67.886  1.00  0.00    -0.233 NA 
HETATM   10  C   UNL     1      -9.414   9.626  67.008  1.00  0.00    -0.154 A  
HETATM   11  H   UNL     1     -11.424   9.304  67.492  1.00  0.00     0.000 HD 
HETATM   12  C   UNL     1      -9.453   9.005  65.755  1.00  0.00    -0.305 A  
HETATM   13  C   UNL     1      -8.451   9.225  64.803  1.00  0.00    -0.189 A  
HETATM   14  C   UNL     1      -7.399  10.094  65.085  1.00  0.00    -0.141 A  
HETATM   15  C   UNL     1      -7.352  10.742  66.317  1.00  0.00    -0.138 A  
HETATM   16  C   UNL     1      -8.347  10.498  67.270  1.00  0.00    -0.122 A  
HETATM   17  O   UNL     1      -8.225  11.157  68.473  1.00  0.00    -0.135 OA 
HETATM   18  C   UNL     1      -8.059  10.293  69.527  1.00  0.00    -0.162 A  
HETATM   19  C   UNL     1      -9.016   9.337  69.865  1.00  0.00    -0.194 A  
HETATM   20  C   UNL     1      -8.754   8.433  70.903  1.00  0.00    -0.178 A  
HETATM   21  C   UNL     1      -7.578   8.544  71.638  1.00  0.00    -0.108 A  
HETATM   22  C   UNL     1      -6.646   9.535  71.334  1.00  0.00     0.074 A  
HETATM   23 CL   UNL     1      -7.290   7.466  72.947  1.00  0.00    -0.077 Cl 
HETATM   24  C   UNL     1      -6.885  10.409  70.273  1.00  0.00    -0.132 A  
ENDBRANCH   5   8
TORSDOF 1
ENDMDL
MODEL      111
REMARK 921   NORMALIZED FREE ENERGY PREDICTED BY IDOCK:   -3.67 KCAL/MOL
REMARK 922        TOTAL FREE ENERGY PREDICTED BY IDOCK:   -4.28 KCAL/MOL
REMARK 923 INTER-LIGAND FREE ENERGY PREDICTED BY IDOCK:   -3.90 KCAL/MOL
REMARK 924 INTRA-LIGAND FREE ENERGY PREDICTED BY IDOCK:   -0.38 KCAL/MOL
REMARK 927      BINDING AFFINITY PREDICTED BY RF-SCORE:    0.00 PKD
ROOT
HETATM    1  C   UNL     1     -10.665   5.463  65.922  1.00  0.00     0.096 C  
HETATM    2  N   UNL     1      -9.928   6.607  66.455  1.00  0.00    -0.129 NA 
HETATM    3  C   UNL     1     -10.705   7.327  67.485  1.00  0.00    -0.256 C  
HETATM    4  C   UNL     1     -10.857   6.588  68.832  1.00  0.00    -0.301 C  
HETATM    5  N   UNL     1      -9.554   6.152  69.358  1.00  0.00    -0.137 NA 
HETATM    6  C   UNL     1      -8.704   5.451  68.385  1.00  0.00    -0.098 C  
HETATM    7  C   UNL     1      -8.627   6.208  67.040  1.00  0.00    -0.108 C  
ENDROOT
BRANCH   5   8
HETATM    8  C   UNL     1      -9.108   6.444  70.649  1.00  0.00    -0.148 C  
HETATM    9  N   UNL     1      -8.242   7.405  70.824  1.00  0.00    -0.110 NA 
HETATM   10  C   UNL     1      -7.755   7.787  72.086  1.00  0.00    -0.094 A  
HETATM   11  H   UNL     1      -7.901   7.904  70.002  1.00  0.00     0.000 HD 
HETATM   12  C   UNL     1      -6.416   8.187  72.172  1.00  0.00    -0.063 A  
HETATM   13  C   UNL     1      -5.867   8.631  73.379  1.00  0.00    -0.110 A  
HETATM   14  C   UNL     1      -6.660   8.704  74.523  1.00  0.00    -0.171 A  
HETATM   15  C   UNL     1      -8.001   8.334  74.456  1.00  0.00    -0.276 A  
HETATM   16  C   UNL     1      -8.535   7.870  73.249  1.00  0.00    -0.205 A  
HETATM   17  O   UNL     1      -9.862   7.501  73.261  1.00  0.00    -0.234 OA 
HETATM   18  C   UNL     1     -10.036   6.169  72.981  1.00  0.00    -0.183 A  
HETATM   19  C   UNL     1      -9.635   5.603  71.772  1.00  0.00    -0.184 A  
HETATM   20  C   UNL     1      -9.770   4.222  71.576  1.00  0.00    -0.244 A  
HETATM   21  C   UNL     1     -10.373   3.439  72.555  1.00  0.00    -0.116 A  
HETATM   22  C   UNL     1     -10.823   4.015  73.742  1.00  0.00    -0.333 A  
HETATM   23 CL   UNL     1     -10.586   1.754  72.283  1.00  0.00    -0.195 Cl 
HETATM   24  C   UNL     1     -10.651   5.383  73.958  1.00  0.00    -0.305 A  
ENDBRANCH   5   8
TORSDOF 1
ENDMDL
MODEL      112
REMARK 921   NORMALIZED FREE ENERGY PREDICTED BY IDOCK:   -3.60 KCAL/MOL
REMARK 922        TOTAL FREE ENERGY PREDICTED BY IDOCK:   -4.20 KCAL/MOL
REMARK 923 INTER-LIGAND FREE ENERGY PREDICTED BY IDOCK:   -3.77 KCAL/MOL
REMARK 924 INTRA-LIGAND FREE ENERGY PREDICTED BY IDOCK:   -0.43 KCAL/MOL
REMARK 927      BINDING AFFINITY PREDICTED BY RF-SCORE:    0.00 PKD
ROOT
HETATM    1  C   UNL     1      -9.005  10.392  68.909  1.00  0.00    -0.169 C  
HETATM    2  N   UNL     1      -9.289   9.125  69.577  1.00  0.00    -0.158 NA 
HETATM    3  C   UNL     1     -10.524   8.499  69.064  1.00  0.00    -0.200 C  
HETATM    4  C   UNL     1     -10.422   7.913  67.638  1.00  0.00    -0.234 C  
HETATM    5  N   UNL     1      -9.273   7.004  67.509  1.00  0.00    -0.124 NA 
HETATM    6  C   UNL     1      -8.006   7.540  68.026  1.00  0.00    -0.123 C  
HETATM    7  C   UNL     1      -8.175   8.158  69.432  1.00  0.00    -0.121 C  
ENDROOT
BRANCH   5   8
HETATM    8  C   UNL     1      -9.374   5.701  67.016  1.00  0.00    -0.118 C  
HETATM    9  N   UNL     1      -9.619   5.516  65.747  1.00  0.00    -0.338 NA 
HETATM   10  C   UNL     1      -9.712   4.244  65.154  1.00  0.00    -0.194 A  
HETATM   11  H   UNL     1      -9.749   6.336  65.154  1.00  0.00     0.000 HD 
HETATM   12  C   UNL     1     -10.653   4.071  64.133  1.00  0.00    -0.197 A  
HETATM   13  C   UNL     1     -10.774   2.852  63.456  1.00  0.00    -0.228 A  
HETATM   14  C   UNL     1      -9.935   1.788  63.779  1.00  0.00    -0.126 A  
HETATM   15  C   UNL     1      -8.975   1.944  64.775  1.00  0.00    -0.120 A  
HETATM   16  C   UNL     1      -8.877   3.160  65.461  1.00  0.00    -0.138 A  
HETATM   17  O   UNL     1      -7.920   3.237  66.449  1.00  0.00    -0.080 OA 
HETATM   18  C   UNL     1      -8.466   3.444  67.690  1.00  0.00    -0.096 A  
HETATM   19  C   UNL     1      -9.223   4.575  67.993  1.00  0.00    -0.166 A  
HETATM   20  C   UNL     1      -9.819   4.692  69.255  1.00  0.00    -0.260 A  
HETATM   21  C   UNL     1      -9.589   3.719  70.223  1.00  0.00    -0.187 A  
HETATM   22  C   UNL     1      -8.787   2.615  69.937  1.00  0.00    -0.145 A  
HETATM   23 CL   UNL     1     -10.277   3.899  71.788  1.00  0.00    -0.177 Cl 
HETATM   24  C   UNL     1      -8.228   2.474  68.666  1.00  0.00    -0.074 A  
ENDBRANCH   5   8
TORSDOF 1
ENDMDL
MODEL      113
REMARK 921   NORMALIZED FREE ENERGY PREDICTED BY IDOCK:   -3.58 KCAL/MOL
REMARK 922        TOTAL FREE ENERGY PREDICTED BY IDOCK:   -4.19 KCAL/MOL
REMARK 923 INTER-LIGAND FREE ENERGY PREDICTED BY IDOCK:   -3.81 KCAL/MOL
REMARK 924 INTRA-LIGAND FREE ENERGY PREDICTED BY IDOCK:   -0.37 KCAL/MOL
REMARK 927      BINDING AFFINITY PREDICTED BY RF-SCORE:    0.00 PKD
ROOT
HETATM    1  C   UNL     1      -6.917  10.159  63.393  1.00  0.00    -0.121 C  
HETATM    2  N   UNL     1      -6.607   8.851  63.965  1.00  0.00    -0.083 NA 
HETATM    3  C   UNL     1      -6.018   8.969  65.314  1.00  0.00    -0.059 C  
HETATM    4  C   UNL     1      -6.998   9.405  66.425  1.00  0.00    -0.084 C  
HETATM    5  N   UNL     1      -8.202   8.561  66.444  1.00  0.00    -0.106 NA 
HETATM    6  C   UNL     1      -8.835   8.367  65.131  1.00  0.00    -0.031 C  
HETATM    7  C   UNL     1      -7.804   7.981  64.048  1.00  0.00    -0.145 C  
ENDROOT
BRANCH   5   8
HETATM    8  C   UNL     1      -8.674   7.918  67.590  1.00  0.00    -0.126 C  
HETATM    9  N   UNL     1      -8.435   6.645  67.753  1.00  0.00    -0.122 NA 
HETATM   10  C   UNL     1      -8.847   5.919  68.884  1.00  0.00    -0.115 A  
HETATM   11  H   UNL     1      -7.922   6.152  67.022  1.00  0.00     0.000 HD 
HETATM   12  C   UNL     1      -9.254   4.594  68.693  1.00  0.00    -0.173 A  
HETATM   13  C   UNL     1      -9.630   3.786  69.771  1.00  0.00    -0.253 A  
HETATM   14  C   UNL     1      -9.584   4.289  71.070  1.00  0.00    -0.253 A  
HETATM   15  C   UNL     1      -9.159   5.598  71.288  1.00  0.00    -0.156 A  
HETATM   16  C   UNL     1      -8.806   6.404  70.200  1.00  0.00    -0.150 A  
HETATM   17  O   UNL     1      -8.417   7.693  70.487  1.00  0.00    -0.125 OA 
HETATM   18  C   UNL     1      -9.261   8.627  69.941  1.00  0.00    -0.155 A  
HETATM   19  C   UNL     1      -9.467   8.733  68.566  1.00  0.00    -0.149 A  
HETATM   20  C   UNL     1     -10.400   9.656  68.075  1.00  0.00    -0.262 A  
HETATM   21  C   UNL     1     -11.056  10.512  68.953  1.00  0.00    -0.261 A  
HETATM   22  C   UNL     1     -10.810  10.443  70.324  1.00  0.00    -0.308 A  
HETATM   23 CL   UNL     1     -12.158  11.680  68.337  1.00  0.00    -0.244 Cl 
HETATM   24  C   UNL     1      -9.913   9.495  70.820  1.00  0.00    -0.334 A  
ENDBRANCH   5   8
TORSDOF 1
ENDMDL
MODEL      114
REMARK 921   NORMALIZED FREE ENERGY PREDICTED BY IDOCK:   -3.54 KCAL/MOL
REMARK 922        TOTAL FREE ENERGY PREDICTED BY IDOCK:   -4.14 KCAL/MOL
REMARK 923 INTER-LIGAND FREE ENERGY PREDICTED BY IDOCK:   -3.74 KCAL/MOL
REMARK 924 INTRA-LIGAND FREE ENERGY PREDICTED BY IDOCK:   -0.40 KCAL/MOL
REMARK 927      BINDING AFFINITY PREDICTED BY RF-SCORE:    0.00 PKD
ROOT
HETATM    1  C   UNL     1     -13.159   9.884  71.022  1.00  0.00    -0.329 C  
HETATM    2  N   UNL     1     -11.919   9.661  71.760  1.00  0.00    -0.381 NA 
HETATM    3  C   UNL     1     -11.946   8.385  72.505  1.00  0.00    -0.350 C  
HETATM    4  C   UNL     1     -11.849   7.113  71.635  1.00  0.00    -0.306 C  
HETATM    5  N   UNL     1     -10.698   7.170  70.722  1.00  0.00    -0.227 NA 
HETATM    6  C   UNL     1     -10.580   8.423  69.962  1.00  0.00    -0.235 C  
HETATM    7  C   UNL     1     -10.733   9.662  70.871  1.00  0.00    -0.332 C  
ENDROOT
BRANCH   5   8
HETATM    8  C   UNL     1      -9.737   6.161  70.630  1.00  0.00    -0.174 C  
HETATM    9  N   UNL     1     -10.089   4.981  70.194  1.00  0.00    -0.253 NA 
HETATM   10  C   UNL     1      -9.188   3.912  70.043  1.00  0.00    -0.149 A  
HETATM   11  H   UNL     1     -11.067   4.828  69.950  1.00  0.00     0.000 HD 
HETATM   12  C   UNL     1      -9.656   2.624  70.329  1.00  0.00    -0.114 A  
HETATM   13  C   UNL     1      -8.840   1.501  70.155  1.00  0.00    -0.112 A  
HETATM   14  C   UNL     1      -7.542   1.647  69.670  1.00  0.00    -0.042 A  
HETATM   15  C   UNL     1      -7.063   2.917  69.357  1.00  0.00    -0.044 A  
HETATM   16  C   UNL     1      -7.880   4.036  69.554  1.00  0.00    -0.052 A  
HETATM   17  O   UNL     1      -7.333   5.262  69.244  1.00  0.00    -0.056 OA 
HETATM   18  C   UNL     1      -7.231   6.081  70.340  1.00  0.00    -0.083 A  
HETATM   19  C   UNL     1      -8.344   6.487  71.074  1.00  0.00    -0.126 A  
HETATM   20  C   UNL     1      -8.167   7.260  72.229  1.00  0.00    -0.111 A  
HETATM   21  C   UNL     1      -6.892   7.682  72.592  1.00  0.00    -0.069 A  
HETATM   22  C   UNL     1      -5.784   7.321  71.826  1.00  0.00    -0.037 A  
HETATM   23 CL   UNL     1      -6.689   8.678  73.979  1.00  0.00    -0.126 Cl 
HETATM   24  C   UNL     1      -5.953   6.514  70.699  1.00  0.00    -0.027 A  
ENDBRANCH   5   8
TORSDOF 1
ENDMDL
MODEL      115
REMARK 921   NORMALIZED FREE ENERGY PREDICTED BY IDOCK:   -3.51 KCAL/MOL
REMARK 922        TOTAL FREE ENERGY PREDICTED BY IDOCK:   -4.11 KCAL/MOL
REMARK 923 INTER-LIGAND FREE ENERGY PREDICTED BY IDOCK:   -3.71 KCAL/MOL
REMARK 924 INTRA-LIGAND FREE ENERGY PREDICTED BY IDOCK:   -0.40 KCAL/MOL
REMARK 927      BINDING AFFINITY PREDICTED BY RF-SCORE:    0.00 PKD
ROOT
HETATM    1  C   UNL     1      -6.523   7.002  64.147  1.00  0.00    -0.039 C  
HETATM    2  N   UNL     1      -6.672   7.126  65.595  1.00  0.00    -0.051 NA 
HETATM    3  C   UNL     1      -6.366   8.493  66.062  1.00  0.00    -0.053 C  
HETATM    4  C   UNL     1      -7.417   9.565  65.698  1.00  0.00    -0.094 C  
HETATM    5  N   UNL     1      -8.769   9.155  66.105  1.00  0.00    -0.141 NA 
HETATM    6  C   UNL     1      -9.143   7.790  65.704  1.00  0.00     0.064 C  
HETATM    7  C   UNL     1      -8.037   6.768  66.047  1.00  0.00    -0.119 C  
ENDROOT
BRANCH   5   8
HETATM    8  C   UNL     1      -9.614   9.950  66.882  1.00  0.00    -0.179 C  
HETATM    9  N   UNL     1      -9.827   9.626  68.130  1.00  0.00    -0.146 NA 
HETATM   10  C   UNL     1     -10.640  10.379  68.996  1.00  0.00    -0.221 A  
HETATM   11  H   UNL     1      -9.381   8.784  68.494  1.00  0.00     0.000 HD 
HETATM   12  C   UNL     1     -11.410   9.681  69.933  1.00  0.00    -0.200 A  
HETATM   13  C   UNL     1     -12.206  10.356  70.865  1.00  0.00    -0.484 A  
HETATM   14  C   UNL     1     -12.227  11.749  70.888  1.00  0.00    -0.378 A  
HETATM   15  C   UNL     1     -11.450  12.465  69.981  1.00  0.00    -0.110 A  
HETATM   16  C   UNL     1     -10.674  11.781  69.038  1.00  0.00    -0.169 A  
HETATM   17  O   UNL     1      -9.949  12.552  68.158  1.00  0.00    -0.212 OA 
HETATM   18  C   UNL     1     -10.340  12.367  66.856  1.00  0.00    -0.224 A  
HETATM   19  C   UNL     1     -10.260  11.129  66.221  1.00  0.00    -0.286 A  
HETATM   20  C   UNL     1     -10.747  10.987  64.916  1.00  0.00    -0.278 A  
HETATM   21  C   UNL     1     -11.237  12.097  64.234  1.00  0.00    -0.347 A  
HETATM   22  C   UNL     1     -11.267  13.348  64.851  1.00  0.00    -0.347 A  
HETATM   23 CL   UNL     1     -11.781  11.926  62.612  1.00  0.00     0.593 Cl 
HETATM   24  C   UNL     1     -10.822  13.483  66.167  1.00  0.00    -0.284 A  
ENDBRANCH   5   8
TORSDOF 1
ENDMDL
MODEL      116
REMARK 921   NORMALIZED FREE ENERGY PREDICTED BY IDOCK:   -3.50 KCAL/MOL
REMARK 922        TOTAL FREE ENERGY PREDICTED BY IDOCK:   -4.10 KCAL/MOL
REMARK 923 INTER-LIGAND FREE ENERGY PREDICTED BY IDOCK:   -4.50 KCAL/MOL
REMARK 924 INTRA-LIGAND FREE ENERGY PREDICTED BY IDOCK:    0.39 KCAL/MOL
REMARK 927      BINDING AFFINITY PREDICTED BY RF-SCORE:    0.00 PKD
ROOT
HETATM    1  C   UNL     1     -14.373  14.820  71.923  1.00  0.00    -0.570 C  
HETATM    2  N   UNL     1     -13.057  14.220  72.126  1.00  0.00    -0.355 NA 
HETATM    3  C   UNL     1     -12.665  13.362  70.990  1.00  0.00    -0.307 C  
HETATM    4  C   UNL     1     -12.303  14.113  69.691  1.00  0.00    -0.256 C  
HETATM    5  N   UNL     1     -11.300  15.161  69.935  1.00  0.00    -0.266 NA 
HETATM    6  C   UNL     1     -11.601  16.044  71.072  1.00  0.00    -0.431 C  
HETATM    7  C   UNL     1     -12.004  15.243  72.329  1.00  0.00    -0.421 C  
ENDROOT
BRANCH   5   8
HETATM    8  C   UNL     1     -10.112  15.274  69.211  1.00  0.00    -0.252 C  
HETATM    9  N   UNL     1      -9.790  16.426  68.686  1.00  0.00    -0.225 NA 
HETATM   10  C   UNL     1      -8.603  16.642  67.962  1.00  0.00    -0.193 A  
HETATM   11  H   UNL     1     -10.433  17.209  68.806  1.00  0.00     0.000 HD 
HETATM   12  C   UNL     1      -8.659  17.512  66.868  1.00  0.00    -0.267 A  
HETATM   13  C   UNL     1      -7.514  17.822  66.127  1.00  0.00    -0.322 A  
HETATM   14  C   UNL     1      -6.282  17.279  66.486  1.00  0.00    -0.256 A  
HETATM   15  C   UNL     1      -6.197  16.429  67.586  1.00  0.00    -0.165 A  
HETATM   16  C   UNL     1      -7.353  16.108  68.307  1.00  0.00    -0.140 A  
HETATM   17  O   UNL     1      -7.199  15.245  69.369  1.00  0.00    -0.169 OA 
HETATM   18  C   UNL     1      -7.891  14.073  69.195  1.00  0.00     0.106 A  
HETATM   19  C   UNL     1      -9.277  14.040  69.050  1.00  0.00     0.146 A  
HETATM   20  C   UNL     1      -9.918  12.820  68.797  1.00  0.00    -0.016 A  
HETATM   21  C   UNL     1      -9.178  11.642  68.769  1.00  0.00    -0.033 A  
HETATM   22  C   UNL     1      -7.798  11.669  68.968  1.00  0.00     0.031 A  
HETATM   23 CL   UNL     1      -9.980  10.142  68.515  1.00  0.00    -0.168 Cl 
HETATM   24  C   UNL     1      -7.152  12.889  69.177  1.00  0.00     0.033 A  
ENDBRANCH   5   8
TORSDOF 1
ENDMDL
MODEL      117
REMARK 921   NORMALIZED FREE ENERGY PREDICTED BY IDOCK:   -3.42 KCAL/MOL
REMARK 922        TOTAL FREE ENERGY PREDICTED BY IDOCK:   -4.01 KCAL/MOL
REMARK 923 INTER-LIGAND FREE ENERGY PREDICTED BY IDOCK:   -3.61 KCAL/MOL
REMARK 924 INTRA-LIGAND FREE ENERGY PREDICTED BY IDOCK:   -0.40 KCAL/MOL
REMARK 927      BINDING AFFINITY PREDICTED BY RF-SCORE:    0.00 PKD
ROOT
HETATM    1  C   UNL     1     -11.314   7.845  72.677  1.00  0.00    -0.408 C  
HETATM    2  N   UNL     1     -10.687   6.872  71.786  1.00  0.00    -0.220 NA 
HETATM    3  C   UNL     1     -11.455   6.697  70.537  1.00  0.00    -0.376 C  
HETATM    4  C   UNL     1     -11.390   7.885  69.552  1.00  0.00     0.266 C  
HETATM    5  N   UNL     1     -10.001   8.277  69.270  1.00  0.00    -0.187 NA 
HETATM    6  C   UNL     1      -9.157   8.443  70.463  1.00  0.00    -0.150 C  
HETATM    7  C   UNL     1      -9.298   7.252  71.436  1.00  0.00    -0.149 C  
ENDROOT
BRANCH   5   8
HETATM    8  C   UNL     1      -9.483   8.404  67.980  1.00  0.00    -0.143 C  
HETATM    9  N   UNL     1      -9.745   9.482  67.290  1.00  0.00    -0.160 NA 
HETATM   10  C   UNL     1      -9.249   9.711  65.994  1.00  0.00    -0.182 A  
HETATM   11  H   UNL     1     -10.341  10.194  67.713  1.00  0.00     0.000 HD 
HETATM   12  C   UNL     1     -10.082  10.374  65.087  1.00  0.00    -0.379 A  
HETATM   13  C   UNL     1      -9.646  10.687  63.795  1.00  0.00    -0.354 A  
HETATM   14  C   UNL     1      -8.353  10.358  63.395  1.00  0.00    -0.158 A  
HETATM   15  C   UNL     1      -7.497   9.719  64.289  1.00  0.00    -0.132 A  
HETATM   16  C   UNL     1      -7.950   9.391  65.572  1.00  0.00    -0.111 A  
HETATM   17  O   UNL     1      -7.057   8.741  66.395  1.00  0.00    -0.080 OA 
HETATM   18  C   UNL     1      -7.486   7.484  66.741  1.00  0.00    -0.093 A  
HETATM   19  C   UNL     1      -8.670   7.266  67.442  1.00  0.00    -0.121 A  
HETATM   20  C   UNL     1      -9.093   5.955  67.698  1.00  0.00    -0.106 A  
HETATM   21  C   UNL     1      -8.291   4.883  67.319  1.00  0.00    -0.106 A  
HETATM   22  C   UNL     1      -7.080   5.103  66.665  1.00  0.00    -0.069 A  
HETATM   23 CL   UNL     1      -8.790   3.279  67.687  1.00  0.00    -0.140 Cl 
HETATM   24  C   UNL     1      -6.678   6.407  66.371  1.00  0.00    -0.056 A  
ENDBRANCH   5   8
TORSDOF 1
ENDMDL
MODEL      118
REMARK 921   NORMALIZED FREE ENERGY PREDICTED BY IDOCK:   -3.41 KCAL/MOL
REMARK 922        TOTAL FREE ENERGY PREDICTED BY IDOCK:   -4.01 KCAL/MOL
REMARK 923 INTER-LIGAND FREE ENERGY PREDICTED BY IDOCK:   -3.64 KCAL/MOL
REMARK 924 INTRA-LIGAND FREE ENERGY PREDICTED BY IDOCK:   -0.36 KCAL/MOL
REMARK 927      BINDING AFFINITY PREDICTED BY RF-SCORE:    0.00 PKD
ROOT
HETATM    1  C   UNL     1      -8.756  11.735  68.557  1.00  0.00    -0.118 C  
HETATM    2  N   UNL     1      -9.341  10.702  69.409  1.00  0.00    -0.121 NA 
HETATM    3  C   UNL     1     -10.471  10.020  68.746  1.00  0.00    -0.208 C  
HETATM    4  C   UNL     1     -10.083   9.076  67.587  1.00  0.00    -0.216 C  
HETATM    5  N   UNL     1      -9.049   8.113  67.999  1.00  0.00    -0.134 NA 
HETATM    6  C   UNL     1      -7.900   8.709  68.695  1.00  0.00    -0.107 C  
HETATM    7  C   UNL     1      -8.344   9.682  69.810  1.00  0.00    -0.174 C  
ENDROOT
BRANCH   5   8
HETATM    8  C   UNL     1      -9.171   6.733  67.827  1.00  0.00    -0.111 C  
HETATM    9  N   UNL     1      -8.868   6.204  66.672  1.00  0.00    -0.123 NA 
HETATM   10  C   UNL     1      -8.934   4.824  66.412  1.00  0.00    -0.113 A  
HETATM   11  H   UNL     1      -8.568   6.824  65.920  1.00  0.00     0.000 HD 
HETATM   12  C   UNL     1      -9.348   4.422  65.137  1.00  0.00    -0.165 A  
HETATM   13  C   UNL     1      -9.392   3.070  64.780  1.00  0.00    -0.148 A  
HETATM   14  C   UNL     1      -8.998   2.094  65.692  1.00  0.00    -0.116 A  
HETATM   15  C   UNL     1      -8.559   2.471  66.959  1.00  0.00    -0.120 A  
HETATM   16  C   UNL     1      -8.540   3.824  67.314  1.00  0.00    -0.103 A  
HETATM   17  O   UNL     1      -8.115   4.122  68.589  1.00  0.00    -0.072 OA 
HETATM   18  C   UNL     1      -9.098   4.715  69.342  1.00  0.00    -0.108 A  
HETATM   19  C   UNL     1      -9.679   5.931  68.986  1.00  0.00    -0.170 A  
HETATM   20  C   UNL     1     -10.732   6.446  69.753  1.00  0.00    -0.341 A  
HETATM   21  C   UNL     1     -11.137   5.782  70.907  1.00  0.00    -0.197 A  
HETATM   22  C   UNL     1     -10.519   4.594  71.293  1.00  0.00    -0.070 A  
HETATM   23 CL   UNL     1     -12.392   6.451  71.875  1.00  0.00    -0.363 Cl 
HETATM   24  C   UNL     1      -9.499   4.056  70.506  1.00  0.00    -0.248 A  
ENDBRANCH   5   8
TORSDOF 1
ENDMDL
MODEL      119
REMARK 921   NORMALIZED FREE ENERGY PREDICTED BY IDOCK:   -3.38 KCAL/MOL
REMARK 922        TOTAL FREE ENERGY PREDICTED BY IDOCK:   -3.97 KCAL/MOL
REMARK 923 INTER-LIGAND FREE ENERGY PREDICTED BY IDOCK:   -3.60 KCAL/MOL
REMARK 924 INTRA-LIGAND FREE ENERGY PREDICTED BY IDOCK:   -0.37 KCAL/MOL
REMARK 927      BINDING AFFINITY PREDICTED BY RF-SCORE:    0.00 PKD
ROOT
HETATM    1  C   UNL     1      -6.504  10.197  63.234  1.00  0.00    -0.138 C  
HETATM    2  N   UNL     1      -6.575   8.774  63.553  1.00  0.00    -0.089 NA 
HETATM    3  C   UNL     1      -5.961   8.475  64.863  1.00  0.00    -0.052 C  
HETATM    4  C   UNL     1      -6.763   8.958  66.091  1.00  0.00    -0.069 C  
HETATM    5  N   UNL     1      -8.158   8.496  66.041  1.00  0.00    -0.106 NA 
HETATM    6  C   UNL     1      -8.835   8.729  64.757  1.00  0.00    -0.045 C  
HETATM    7  C   UNL     1      -7.970   8.274  63.561  1.00  0.00    -0.154 C  
ENDROOT
BRANCH   5   8
HETATM    8  C   UNL     1      -8.781   7.813  67.088  1.00  0.00    -0.125 C  
HETATM    9  N   UNL     1      -9.281   8.492  68.085  1.00  0.00    -0.138 NA 
HETATM   10  C   UNL     1      -9.948   7.896  69.170  1.00  0.00    -0.184 A  
HETATM   11  H   UNL     1      -9.181   9.508  68.077  1.00  0.00     0.000 HD 
HETATM   12  C   UNL     1      -9.768   8.465  70.436  1.00  0.00    -0.185 A  
HETATM   13  C   UNL     1     -10.436   7.965  71.559  1.00  0.00    -0.251 A  
HETATM   14  C   UNL     1     -11.317   6.894  71.428  1.00  0.00    -0.308 A  
HETATM   15  C   UNL     1     -11.531   6.327  70.174  1.00  0.00    -0.452 A  
HETATM   16  C   UNL     1     -10.841   6.820  69.061  1.00  0.00    -0.249 A  
HETATM   17  O   UNL     1     -11.085   6.197  67.857  1.00  0.00    -0.328 OA 
HETATM   18  C   UNL     1      -9.963   5.597  67.343  1.00  0.00    -0.156 A  
HETATM   19  C   UNL     1      -8.814   6.317  67.019  1.00  0.00    -0.108 A  
HETATM   20  C   UNL     1      -7.674   5.637  66.571  1.00  0.00    -0.100 A  
HETATM   21  C   UNL     1      -7.720   4.259  66.378  1.00  0.00    -0.094 A  
HETATM   22  C   UNL     1      -8.887   3.547  66.651  1.00  0.00    -0.139 A  
HETATM   23 CL   UNL     1      -6.335   3.440  65.774  1.00  0.00    -0.031 Cl 
HETATM   24  C   UNL     1     -10.011   4.217  67.139  1.00  0.00    -0.102 A  
ENDBRANCH   5   8
TORSDOF 1
ENDMDL
MODEL      120
REMARK 921   NORMALIZED FREE ENERGY PREDICTED BY IDOCK:   -3.38 KCAL/MOL
REMARK 922        TOTAL FREE ENERGY PREDICTED BY IDOCK:   -3.97 KCAL/MOL
REMARK 923 INTER-LIGAND FREE ENERGY PREDICTED BY IDOCK:   -4.37 KCAL/MOL
REMARK 924 INTRA-LIGAND FREE ENERGY PREDICTED BY IDOCK:    0.40 KCAL/MOL
REMARK 927      BINDING AFFINITY PREDICTED BY RF-SCORE:    0.00 PKD
ROOT
HETATM    1  C   UNL     1     -13.197   9.270  72.213  1.00  0.00    -0.460 C  
HETATM    2  N   UNL     1     -11.779   8.920  72.264  1.00  0.00    -0.333 NA 
HETATM    3  C   UNL     1     -11.580   7.467  72.441  1.00  0.00    -0.309 C  
HETATM    4  C   UNL     1     -11.919   6.600  71.209  1.00  0.00    -0.355 C  
HETATM    5  N   UNL     1     -11.233   7.086  70.003  1.00  0.00    -0.280 NA 
HETATM    6  C   UNL     1     -11.357   8.532  69.768  1.00  0.00     0.132 C  
HETATM    7  C   UNL     1     -11.056   9.349  71.044  1.00  0.00    -0.344 C  
ENDROOT
BRANCH   5   8
HETATM    8  C   UNL     1     -10.453   6.271  69.180  1.00  0.00    -0.239 C  
HETATM    9  N   UNL     1     -10.665   6.275  67.891  1.00  0.00    -0.274 NA 
HETATM   10  C   UNL     1      -9.914   5.509  66.981  1.00  0.00    -0.174 A  
HETATM   11  H   UNL     1     -11.413   6.865  67.525  1.00  0.00     0.000 HD 
HETATM   12  C   UNL     1     -10.586   4.967  65.880  1.00  0.00    -0.280 A  
HETATM   13  C   UNL     1      -9.904   4.236  64.901  1.00  0.00    -0.184 A  
HETATM   14  C   UNL     1      -8.526   4.054  64.998  1.00  0.00    -0.113 A  
HETATM   15  C   UNL     1      -7.833   4.605  66.073  1.00  0.00    -0.095 A  
HETATM   16  C   UNL     1      -8.527   5.315  67.058  1.00  0.00    -0.106 A  
HETATM   17  O   UNL     1      -7.781   5.813  68.103  1.00  0.00    -0.093 OA 
HETATM   18  C   UNL     1      -8.141   5.267  69.309  1.00  0.00    -0.092 A  
HETATM   19  C   UNL     1      -9.424   5.403  69.837  1.00  0.00    -0.210 A  
HETATM   20  C   UNL     1      -9.752   4.757  71.035  1.00  0.00    -0.257 A  
HETATM   21  C   UNL     1      -8.776   4.048  71.730  1.00  0.00    -0.107 A  
HETATM   22  C   UNL     1      -7.478   3.957  71.229  1.00  0.00    -0.044 A  
HETATM   23 CL   UNL     1      -9.172   3.305  73.229  1.00  0.00    -0.103 Cl 
HETATM   24  C   UNL     1      -7.160   4.565  70.013  1.00  0.00    -0.049 A  
ENDBRANCH   5   8
TORSDOF 1
ENDMDL
MODEL      121
REMARK 921   NORMALIZED FREE ENERGY PREDICTED BY IDOCK:   -3.33 KCAL/MOL
REMARK 922        TOTAL FREE ENERGY PREDICTED BY IDOCK:   -3.92 KCAL/MOL
REMARK 923 INTER-LIGAND FREE ENERGY PREDICTED BY IDOCK:   -3.89 KCAL/MOL
REMARK 924 INTRA-LIGAND FREE ENERGY PREDICTED BY IDOCK:   -0.03 KCAL/MOL
REMARK 927      BINDING AFFINITY PREDICTED BY RF-SCORE:    0.00 PKD
ROOT
HETATM    1  C   UNL     1     -13.365   7.973  72.649  1.00  0.00     0.257 C  
HETATM    2  N   UNL     1     -13.197   8.164  71.210  1.00  0.00    -0.192 NA 
HETATM    3  C   UNL     1     -13.932   9.350  70.725  1.00  0.00     0.345 C  
HETATM    4  C   UNL     1     -13.335  10.711  71.141  1.00  0.00    -0.092 C  
HETATM    5  N   UNL     1     -11.906  10.799  70.805  1.00  0.00    -0.342 NA 
HETATM    6  C   UNL     1     -11.105   9.641  71.228  1.00  0.00    -0.355 C  
HETATM    7  C   UNL     1     -11.772   8.305  70.830  1.00  0.00    -0.239 C  
ENDROOT
BRANCH   5   8
HETATM    8  C   UNL     1     -11.350  11.849  70.071  1.00  0.00    -0.012 C  
HETATM    9  N   UNL     1     -10.338  11.610  69.281  1.00  0.00    -0.431 NA 
HETATM   10  C   UNL     1      -9.729  12.596  68.484  1.00  0.00    -0.128 A  
HETATM   11  H   UNL     1      -9.970  10.659  69.239  1.00  0.00     0.000 HD 
HETATM   12  C   UNL     1      -8.343  12.524  68.308  1.00  0.00    -0.167 A  
HETATM   13  C   UNL     1      -7.666  13.435  67.490  1.00  0.00    -0.182 A  
HETATM   14  C   UNL     1      -8.375  14.426  66.813  1.00  0.00    -0.005 A  
HETATM   15  C   UNL     1      -9.758  14.502  66.953  1.00  0.00    -0.257 A  
HETATM   16  C   UNL     1     -10.423  13.600  67.792  1.00  0.00    -0.240 A  
HETATM   17  O   UNL     1     -11.788  13.748  67.900  1.00  0.00    -0.345 OA 
HETATM   18  C   UNL     1     -12.179  14.059  69.178  1.00  0.00    -0.262 A  
HETATM   19  C   UNL     1     -11.936  13.214  70.259  1.00  0.00    -0.366 A  
HETATM   20  C   UNL     1     -12.292  13.624  71.551  1.00  0.00    -0.242 A  
HETATM   21  C   UNL     1     -12.953  14.834  71.737  1.00  0.00    -0.332 A  
HETATM   22  C   UNL     1     -13.244  15.655  70.648  1.00  0.00    -0.162 A  
HETATM   23 CL   UNL     1     -13.436  15.303  73.319  1.00  0.00    -0.497 Cl 
HETATM   24  C   UNL     1     -12.852  15.268  69.365  1.00  0.00     0.353 A  
ENDBRANCH   5   8
TORSDOF 1
ENDMDL
MODEL      122
REMARK 921   NORMALIZED FREE ENERGY PREDICTED BY IDOCK:   -3.32 KCAL/MOL
REMARK 922        TOTAL FREE ENERGY PREDICTED BY IDOCK:   -3.91 KCAL/MOL
REMARK 923 INTER-LIGAND FREE ENERGY PREDICTED BY IDOCK:   -3.76 KCAL/MOL
REMARK 924 INTRA-LIGAND FREE ENERGY PREDICTED BY IDOCK:   -0.15 KCAL/MOL
REMARK 927      BINDING AFFINITY PREDICTED BY RF-SCORE:    0.00 PKD
ROOT
HETATM    1  C   UNL     1      -5.723  13.480  71.455  1.00  0.00    -0.112 C  
HETATM    2  N   UNL     1      -5.173  12.677  70.366  1.00  0.00    -0.104 NA 
HETATM    3  C   UNL     1      -5.940  11.431  70.162  1.00  0.00    -0.152 C  
HETATM    4  C   UNL     1      -7.341  11.614  69.539  1.00  0.00     0.191 C  
HETATM    5  N   UNL     1      -7.283  12.409  68.303  1.00  0.00    -0.094 NA 
HETATM    6  C   UNL     1      -6.510  13.655  68.412  1.00  0.00    -0.095 C  
HETATM    7  C   UNL     1      -5.140  13.424  69.086  1.00  0.00    -0.073 C  
ENDROOT
BRANCH   5   8
HETATM    8  C   UNL     1      -7.838  11.991  67.092  1.00  0.00    -0.168 C  
HETATM    9  N   UNL     1      -7.176  11.152  66.342  1.00  0.00    -0.257 NA 
HETATM   10  C   UNL     1      -7.664  10.655  65.120  1.00  0.00     0.011 A  
HETATM   11  H   UNL     1      -6.257  10.841  66.658  1.00  0.00     0.000 HD 
HETATM   12  C   UNL     1      -6.742  10.448  64.088  1.00  0.00     0.006 A  
HETATM   13  C   UNL     1      -7.136   9.909  62.859  1.00  0.00    -0.121 A  
HETATM   14  C   UNL     1      -8.465   9.545  62.649  1.00  0.00    -0.190 A  
HETATM   15  C   UNL     1      -9.396   9.720  63.670  1.00  0.00    -0.154 A  
HETATM   16  C   UNL     1      -8.996  10.281  64.888  1.00  0.00    -0.201 A  
HETATM   17  O   UNL     1      -9.974  10.445  65.844  1.00  0.00    -0.228 OA 
HETATM   18  C   UNL     1     -10.175  11.764  66.165  1.00  0.00    -0.220 A  
HETATM   19  C   UNL     1      -9.168  12.562  66.704  1.00  0.00    -0.223 A  
HETATM   20  C   UNL     1      -9.412  13.922  66.938  1.00  0.00    -0.263 A  
HETATM   21  C   UNL     1     -10.679  14.448  66.704  1.00  0.00    -0.292 A  
HETATM   22  C   UNL     1     -11.702  13.636  66.215  1.00  0.00    -0.396 A  
HETATM   23 CL   UNL     1     -10.987  16.105  67.047  1.00  0.00    -0.197 Cl 
HETATM   24  C   UNL     1     -11.448  12.291  65.941  1.00  0.00    -0.428 A  
ENDBRANCH   5   8
TORSDOF 1
ENDMDL
MODEL      123
REMARK 921   NORMALIZED FREE ENERGY PREDICTED BY IDOCK:   -3.32 KCAL/MOL
REMARK 922        TOTAL FREE ENERGY PREDICTED BY IDOCK:   -3.91 KCAL/MOL
REMARK 923 INTER-LIGAND FREE ENERGY PREDICTED BY IDOCK:   -3.50 KCAL/MOL
REMARK 924 INTRA-LIGAND FREE ENERGY PREDICTED BY IDOCK:   -0.40 KCAL/MOL
REMARK 927      BINDING AFFINITY PREDICTED BY RF-SCORE:    0.00 PKD
ROOT
HETATM    1  C   UNL     1      -7.073   8.358  74.507  1.00  0.00    -0.188 C  
HETATM    2  N   UNL     1      -7.447   7.070  73.926  1.00  0.00    -0.090 NA 
HETATM    3  C   UNL     1      -8.855   7.058  73.480  1.00  0.00    -0.143 C  
HETATM    4  C   UNL     1      -9.154   7.899  72.220  1.00  0.00    -0.161 C  
HETATM    5  N   UNL     1      -8.245   7.559  71.115  1.00  0.00    -0.100 NA 
HETATM    6  C   UNL     1      -6.822   7.519  71.483  1.00  0.00    -0.050 C  
HETATM    7  C   UNL     1      -6.586   6.708  72.776  1.00  0.00    -0.063 C  
ENDROOT
BRANCH   5   8
HETATM    8  C   UNL     1      -8.683   7.215  69.835  1.00  0.00    -0.142 C  
HETATM    9  N   UNL     1      -8.600   5.972  69.443  1.00  0.00    -0.121 NA 
HETATM   10  C   UNL     1      -9.039   5.527  68.183  1.00  0.00    -0.108 A  
HETATM   11  H   UNL     1      -8.196   5.289  70.084  1.00  0.00     0.000 HD 
HETATM   12  C   UNL     1      -8.297   4.521  67.555  1.00  0.00    -0.100 A  
HETATM   13  C   UNL     1      -8.694   3.986  66.325  1.00  0.00    -0.116 A  
HETATM   14  C   UNL     1      -9.860   4.437  65.710  1.00  0.00    -0.232 A  
HETATM   15  C   UNL     1     -10.628   5.422  66.328  1.00  0.00    -0.268 A  
HETATM   16  C   UNL     1     -10.210   5.966  67.548  1.00  0.00    -0.190 A  
HETATM   17  O   UNL     1     -11.006   6.950  68.090  1.00  0.00    -0.207 OA 
HETATM   18  C   UNL     1     -10.354   8.153  68.190  1.00  0.00    -0.201 A  
HETATM   19  C   UNL     1      -9.203   8.316  68.960  1.00  0.00    -0.147 A  
HETATM   20  C   UNL     1      -8.539   9.549  68.961  1.00  0.00    -0.133 A  
HETATM   21  C   UNL     1      -9.073  10.624  68.257  1.00  0.00    -0.153 A  
HETATM   22  C   UNL     1     -10.253  10.476  67.530  1.00  0.00    -0.245 A  
HETATM   23 CL   UNL     1      -8.282  12.150  68.309  1.00  0.00    -0.164 Cl 
HETATM   24  C   UNL     1     -10.894   9.236  67.493  1.00  0.00    -0.182 A  
ENDBRANCH   5   8
TORSDOF 1
ENDMDL
MODEL      124
REMARK 921   NORMALIZED FREE ENERGY PREDICTED BY IDOCK:   -3.31 KCAL/MOL
REMARK 922        TOTAL FREE ENERGY PREDICTED BY IDOCK:   -3.90 KCAL/MOL
REMARK 923 INTER-LIGAND FREE ENERGY PREDICTED BY IDOCK:   -4.47 KCAL/MOL
REMARK 924 INTRA-LIGAND FREE ENERGY PREDICTED BY IDOCK:    0.57 KCAL/MOL
REMARK 927      BINDING AFFINITY PREDICTED BY RF-SCORE:    0.00 PKD
ROOT
HETATM    1  C   UNL     1      -6.593   9.908  67.602  1.00  0.00    -0.068 C  
HETATM    2  N   UNL     1      -6.692  10.808  66.456  1.00  0.00    -0.117 NA 
HETATM    3  C   UNL     1      -8.096  11.124  66.126  1.00  0.00    -0.111 C  
HETATM    4  C   UNL     1      -8.816  12.054  67.127  1.00  0.00    -0.188 C  
HETATM    5  N   UNL     1      -8.041  13.280  67.376  1.00  0.00    -0.178 NA 
HETATM    6  C   UNL     1      -6.621  13.055  67.684  1.00  0.00    -0.159 C  
HETATM    7  C   UNL     1      -5.964  12.079  66.682  1.00  0.00     0.167 C  
ENDROOT
BRANCH   5   8
HETATM    8  C   UNL     1      -8.573  14.565  67.254  1.00  0.00    -0.215 C  
HETATM    9  N   UNL     1      -8.041  15.544  67.936  1.00  0.00    -0.135 NA 
HETATM   10  C   UNL     1      -8.491  16.874  67.858  1.00  0.00    -0.203 A  
HETATM   11  H   UNL     1      -7.259  15.333  68.556  1.00  0.00     0.000 HD 
HETATM   12  C   UNL     1      -8.466  17.637  69.031  1.00  0.00    -0.021 A  
HETATM   13  C   UNL     1      -8.848  18.983  69.030  1.00  0.00    -0.210 A  
HETATM   14  C   UNL     1      -9.241  19.597  67.843  1.00  0.00    -0.410 A  
HETATM   15  C   UNL     1      -9.251  18.864  66.658  1.00  0.00    -0.343 A  
HETATM   16  C   UNL     1      -8.888  17.512  66.674  1.00  0.00    -0.262 A  
HETATM   17  O   UNL     1      -8.942  16.844  65.471  1.00  0.00    -0.384 OA 
HETATM   18  C   UNL     1      -9.857  15.822  65.481  1.00  0.00    -0.264 A  
HETATM   19  C   UNL     1      -9.760  14.743  66.358  1.00  0.00    -0.311 A  
HETATM   20  C   UNL     1     -10.768  13.770  66.372  1.00  0.00    -0.281 A  
HETATM   21  C   UNL     1     -11.818  13.846  65.461  1.00  0.00    -0.362 A  
HETATM   22  C   UNL     1     -11.886  14.897  64.548  1.00  0.00    -0.404 A  
HETATM   23 CL   UNL     1     -13.021  12.618  65.448  1.00  0.00     0.061 Cl 
HETATM   24  C   UNL     1     -10.905  15.891  64.561  1.00  0.00    -0.072 A  
ENDBRANCH   5   8
TORSDOF 1
ENDMDL
MODEL      125
REMARK 921   NORMALIZED FREE ENERGY PREDICTED BY IDOCK:   -3.31 KCAL/MOL
REMARK 922        TOTAL FREE ENERGY PREDICTED BY IDOCK:   -3.90 KCAL/MOL
REMARK 923 INTER-LIGAND FREE ENERGY PREDICTED BY IDOCK:   -4.05 KCAL/MOL
REMARK 924 INTRA-LIGAND FREE ENERGY PREDICTED BY IDOCK:    0.15 KCAL/MOL
REMARK 927      BINDING AFFINITY PREDICTED BY RF-SCORE:    0.00 PKD
ROOT
HETATM    1  C   UNL     1      -6.559  20.654  64.456  1.00  0.00    -0.218 C  
HETATM    2  N   UNL     1      -6.392  20.314  65.866  1.00  0.00    -0.206 NA 
HETATM    3  C   UNL     1      -7.653  19.835  66.468  1.00  0.00    -0.278 C  
HETATM    4  C   UNL     1      -8.108  18.431  66.014  1.00  0.00    -0.084 C  
HETATM    5  N   UNL     1      -7.034  17.439  66.172  1.00  0.00    -0.276 NA 
HETATM    6  C   UNL     1      -5.733  17.851  65.625  1.00  0.00    -0.144 C  
HETATM    7  C   UNL     1      -5.350  19.280  66.070  1.00  0.00    -0.154 C  
ENDROOT
BRANCH   5   8
HETATM    8  C   UNL     1      -7.195  16.232  66.857  1.00  0.00    -0.222 C  
HETATM    9  N   UNL     1      -6.142  15.617  67.323  1.00  0.00    -0.329 NA 
HETATM   10  C   UNL     1      -6.206  14.413  68.047  1.00  0.00    -0.155 A  
HETATM   11  H   UNL     1      -5.225  16.032  67.154  1.00  0.00     0.000 HD 
HETATM   12  C   UNL     1      -5.183  13.480  67.847  1.00  0.00    -0.088 A  
HETATM   13  C   UNL     1      -5.144  12.280  68.565  1.00  0.00    -0.051 A  
HETATM   14  C   UNL     1      -6.124  12.002  69.516  1.00  0.00    -0.113 A  
HETATM   15  C   UNL     1      -7.139  12.927  69.749  1.00  0.00     0.519 A  
HETATM   16  C   UNL     1      -7.181  14.114  69.010  1.00  0.00    -0.110 A  
HETATM   17  O   UNL     1      -8.225  14.972  69.278  1.00  0.00    -0.182 OA 
HETATM   18  C   UNL     1      -9.045  15.151  68.192  1.00  0.00    -0.176 A  
HETATM   19  C   UNL     1      -8.585  15.690  66.992  1.00  0.00    -0.253 A  
HETATM   20  C   UNL     1      -9.452  15.777  65.895  1.00  0.00    -0.377 A  
HETATM   21  C   UNL     1     -10.784  15.397  66.033  1.00  0.00    -0.322 A  
HETATM   22  C   UNL     1     -11.257  14.908  67.250  1.00  0.00    -0.348 A  
HETATM   23 CL   UNL     1     -11.856  15.559  64.697  1.00  0.00    -0.247 Cl 
HETATM   24  C   UNL     1     -10.384  14.781  68.332  1.00  0.00    -0.233 A  
ENDBRANCH   5   8
TORSDOF 1
ENDMDL
MODEL      126
REMARK 921   NORMALIZED FREE ENERGY PREDICTED BY IDOCK:   -3.28 KCAL/MOL
REMARK 922        TOTAL FREE ENERGY PREDICTED BY IDOCK:   -3.86 KCAL/MOL
REMARK 923 INTER-LIGAND FREE ENERGY PREDICTED BY IDOCK:   -3.47 KCAL/MOL
REMARK 924 INTRA-LIGAND FREE ENERGY PREDICTED BY IDOCK:   -0.39 KCAL/MOL
REMARK 927      BINDING AFFINITY PREDICTED BY RF-SCORE:    0.00 PKD
ROOT
HETATM    1  C   UNL     1      -7.413   9.048  65.158  1.00  0.00    -0.097 C  
HETATM    2  N   UNL     1      -8.206   9.556  66.275  1.00  0.00    -0.114 NA 
HETATM    3  C   UNL     1      -9.401   8.724  66.522  1.00  0.00    -0.203 C  
HETATM    4  C   UNL     1      -9.122   7.335  67.138  1.00  0.00    -0.130 C  
HETATM    5  N   UNL     1      -8.289   7.438  68.345  1.00  0.00    -0.125 NA 
HETATM    6  C   UNL     1      -7.090   8.276  68.193  1.00  0.00    -0.082 C  
HETATM    7  C   UNL     1      -7.418   9.631  67.528  1.00  0.00    -0.091 C  
ENDROOT
BRANCH   5   8
HETATM    8  C   UNL     1      -8.634   6.863  69.570  1.00  0.00    -0.134 C  
HETATM    9  N   UNL     1      -8.890   7.638  70.589  1.00  0.00    -0.144 NA 
HETATM   10  C   UNL     1      -9.270   7.152  71.854  1.00  0.00    -0.138 A  
HETATM   11  H   UNL     1      -8.811   8.647  70.462  1.00  0.00     0.000 HD 
HETATM   12  C   UNL     1      -8.801   7.837  72.980  1.00  0.00    -0.247 A  
HETATM   13  C   UNL     1      -9.173   7.451  74.272  1.00  0.00    -0.188 A  
HETATM   14  C   UNL     1     -10.044   6.380  74.457  1.00  0.00    -0.358 A  
HETATM   15  C   UNL     1     -10.543   5.698  73.350  1.00  0.00    -0.288 A  
HETATM   16  C   UNL     1     -10.147   6.078  72.063  1.00  0.00    -0.186 A  
HETATM   17  O   UNL     1     -10.662   5.346  71.017  1.00  0.00    -0.233 OA 
HETATM   18  C   UNL     1      -9.687   4.691  70.307  1.00  0.00    -0.225 A  
HETATM   19  C   UNL     1      -8.660   5.367  69.652  1.00  0.00    -0.103 A  
HETATM   20  C   UNL     1      -7.650   4.639  69.010  1.00  0.00    -0.060 A  
HETATM   21  C   UNL     1      -7.721   3.249  68.964  1.00  0.00    -0.051 A  
HETATM   22  C   UNL     1      -8.778   2.575  69.574  1.00  0.00    -0.129 A  
HETATM   23 CL   UNL     1      -6.508   2.365  68.125  1.00  0.00    -0.029 Cl 
HETATM   24  C   UNL     1      -9.762   3.297  70.251  1.00  0.00    -0.113 A  
ENDBRANCH   5   8
TORSDOF 1
ENDMDL
MODEL      127
REMARK 921   NORMALIZED FREE ENERGY PREDICTED BY IDOCK:   -3.27 KCAL/MOL
REMARK 922        TOTAL FREE ENERGY PREDICTED BY IDOCK:   -3.86 KCAL/MOL
REMARK 923 INTER-LIGAND FREE ENERGY PREDICTED BY IDOCK:   -4.43 KCAL/MOL
REMARK 924 INTRA-LIGAND FREE ENERGY PREDICTED BY IDOCK:    0.57 KCAL/MOL
REMARK 927      BINDING AFFINITY PREDICTED BY RF-SCORE:    0.00 PKD
ROOT
HETATM    1  C   UNL     1      -9.591   3.669  64.690  1.00  0.00    -0.172 C  
HETATM    2  N   UNL     1      -8.591   4.388  65.475  1.00  0.00    -0.118 NA 
HETATM    3  C   UNL     1      -9.055   5.739  65.849  1.00  0.00    -0.137 C  
HETATM    4  C   UNL     1     -10.166   5.782  66.920  1.00  0.00    -0.218 C  
HETATM    5  N   UNL     1      -9.798   5.000  68.110  1.00  0.00    -0.151 NA 
HETATM    6  C   UNL     1      -9.295   3.648  67.824  1.00  0.00    -0.194 C  
HETATM    7  C   UNL     1      -8.224   3.658  66.712  1.00  0.00    -0.096 C  
ENDROOT
BRANCH   5   8
HETATM    8  C   UNL     1      -9.836   5.511  69.409  1.00  0.00    -0.177 C  
HETATM    9  N   UNL     1      -9.964   4.688  70.416  1.00  0.00    -0.233 NA 
HETATM   10  C   UNL     1      -9.987   5.106  71.758  1.00  0.00    -0.187 A  
HETATM   11  H   UNL     1     -10.053   3.692  70.218  1.00  0.00     0.000 HD 
HETATM   12  C   UNL     1     -10.830   4.419  72.638  1.00  0.00    -0.166 A  
HETATM   13  C   UNL     1     -10.874   4.737  74.000  1.00  0.00    -0.322 A  
HETATM   14  C   UNL     1     -10.052   5.741  74.510  1.00  0.00    -0.301 A  
HETATM   15  C   UNL     1      -9.187   6.422  73.657  1.00  0.00    -0.143 A  
HETATM   16  C   UNL     1      -9.167   6.111  72.293  1.00  0.00    -0.143 A  
HETATM   17  O   UNL     1      -8.302   6.839  71.506  1.00  0.00    -0.114 OA 
HETATM   18  C   UNL     1      -8.960   7.582  70.557  1.00  0.00    -0.152 A  
HETATM   19  C   UNL     1      -9.756   6.998  69.573  1.00  0.00    -0.160 A  
HETATM   20  C   UNL     1     -10.463   7.814  68.681  1.00  0.00    -0.199 A  
HETATM   21  C   UNL     1     -10.307   9.196  68.733  1.00  0.00    -0.214 A  
HETATM   22  C   UNL     1      -9.468   9.776  69.683  1.00  0.00    -0.237 A  
HETATM   23 CL   UNL     1     -11.134  10.187  67.597  1.00  0.00    -0.336 Cl 
HETATM   24  C   UNL     1      -8.795   8.968  70.601  1.00  0.00    -0.259 A  
ENDBRANCH   5   8
TORSDOF 1
ENDMDL
MODEL      128
REMARK 921   NORMALIZED FREE ENERGY PREDICTED BY IDOCK:   -3.27 KCAL/MOL
REMARK 922        TOTAL FREE ENERGY PREDICTED BY IDOCK:   -3.85 KCAL/MOL
REMARK 923 INTER-LIGAND FREE ENERGY PREDICTED BY IDOCK:   -4.37 KCAL/MOL
REMARK 924 INTRA-LIGAND FREE ENERGY PREDICTED BY IDOCK:    0.52 KCAL/MOL
REMARK 927      BINDING AFFINITY PREDICTED BY RF-SCORE:    0.00 PKD
ROOT
HETATM    1  C   UNL     1     -11.680  13.003  68.430  1.00  0.00    -0.351 C  
HETATM    2  N   UNL     1     -12.230  11.657  68.289  1.00  0.00    -0.452 NA 
HETATM    3  C   UNL     1     -11.271  10.738  67.643  1.00  0.00    -0.299 C  
HETATM    4  C   UNL     1     -10.062  10.330  68.512  1.00  0.00    -0.165 C  
HETATM    5  N   UNL     1     -10.488   9.817  69.823  1.00  0.00    -0.231 NA 
HETATM    6  C   UNL     1     -11.468  10.661  70.522  1.00  0.00    -0.317 C  
HETATM    7  C   UNL     1     -12.630  11.080  69.594  1.00  0.00    -0.017 C  
ENDROOT
BRANCH   5   8
HETATM    8  C   UNL     1     -10.071   8.590  70.341  1.00  0.00    -0.189 C  
HETATM    9  N   UNL     1     -10.393   8.271  71.566  1.00  0.00    -0.202 NA 
HETATM   10  C   UNL     1     -10.041   7.049  72.166  1.00  0.00    -0.181 A  
HETATM   11  H   UNL     1     -10.928   8.944  72.116  1.00  0.00     0.000 HD 
HETATM   12  C   UNL     1      -9.718   7.063  73.528  1.00  0.00    -0.269 A  
HETATM   13  C   UNL     1      -9.407   5.883  74.212  1.00  0.00    -0.144 A  
HETATM   14  C   UNL     1      -9.436   4.660  73.546  1.00  0.00    -0.130 A  
HETATM   15  C   UNL     1      -9.778   4.619  72.196  1.00  0.00    -0.219 A  
HETATM   16  C   UNL     1     -10.066   5.807  71.515  1.00  0.00    -0.196 A  
HETATM   17  O   UNL     1     -10.375   5.693  70.178  1.00  0.00    -0.224 OA 
HETATM   18  C   UNL     1      -9.467   6.337  69.376  1.00  0.00    -0.139 A  
HETATM   19  C   UNL     1      -9.239   7.710  69.459  1.00  0.00    -0.150 A  
HETATM   20  C   UNL     1      -8.243   8.296  68.667  1.00  0.00    -0.120 A  
HETATM   21  C   UNL     1      -7.543   7.520  67.748  1.00  0.00    -0.106 A  
HETATM   22  C   UNL     1      -7.809   6.157  67.626  1.00  0.00    -0.105 A  
HETATM   23 CL   UNL     1      -6.362   8.259  66.739  1.00  0.00    -0.055 Cl 
HETATM   24  C   UNL     1      -8.771   5.563  68.445  1.00  0.00    -0.105 A  
ENDBRANCH   5   8
TORSDOF 1
ENDMDL
MODEL      129
REMARK 921   NORMALIZED FREE ENERGY PREDICTED BY IDOCK:   -3.27 KCAL/MOL
REMARK 922        TOTAL FREE ENERGY PREDICTED BY IDOCK:   -3.85 KCAL/MOL
REMARK 923 INTER-LIGAND FREE ENERGY PREDICTED BY IDOCK:   -3.96 KCAL/MOL
REMARK 924 INTRA-LIGAND FREE ENERGY PREDICTED BY IDOCK:    0.11 KCAL/MOL
REMARK 927      BINDING AFFINITY PREDICTED BY RF-SCORE:    0.00 PKD
ROOT
HETATM    1  C   UNL     1     -11.358  13.180  68.914  1.00  0.00    -0.289 C  
HETATM    2  N   UNL     1     -11.929  12.011  68.250  1.00  0.00    -0.463 NA 
HETATM    3  C   UNL     1     -11.089  11.556  67.123  1.00  0.00    -0.297 C  
HETATM    4  C   UNL     1      -9.759  10.882  67.523  1.00  0.00    -0.167 C  
HETATM    5  N   UNL     1      -9.973   9.800  68.497  1.00  0.00    -0.156 NA 
HETATM    6  C   UNL     1     -10.826  10.163  69.638  1.00  0.00    -0.263 C  
HETATM    7  C   UNL     1     -12.118  10.877  69.184  1.00  0.00    -0.221 C  
ENDROOT
BRANCH   5   8
HETATM    8  C   UNL     1      -9.484   8.504  68.327  1.00  0.00    -0.134 C  
HETATM    9  N   UNL     1      -9.942   7.772  67.347  1.00  0.00    -0.176 NA 
HETATM   10  C   UNL     1      -9.493   6.466  67.081  1.00  0.00    -0.129 A  
HETATM   11  H   UNL     1     -10.663   8.167  66.743  1.00  0.00     0.000 HD 
HETATM   12  C   UNL     1     -10.433   5.536  66.625  1.00  0.00    -0.355 A  
HETATM   13  C   UNL     1     -10.060   4.230  66.288  1.00  0.00    -0.196 A  
HETATM   14  C   UNL     1      -8.726   3.839  66.383  1.00  0.00    -0.118 A  
HETATM   15  C   UNL     1      -7.768   4.754  66.813  1.00  0.00    -0.091 A  
HETATM   16  C   UNL     1      -8.155   6.051  67.168  1.00  0.00    -0.106 A  
HETATM   17  O   UNL     1      -7.159   6.896  67.604  1.00  0.00    -0.080 OA 
HETATM   18  C   UNL     1      -7.344   7.295  68.904  1.00  0.00    -0.095 A  
HETATM   19  C   UNL     1      -8.469   8.009  69.312  1.00  0.00    -0.136 A  
HETATM   20  C   UNL     1      -8.638   8.320  70.667  1.00  0.00    -0.139 A  
HETATM   21  C   UNL     1      -7.647   7.982  71.584  1.00  0.00    -0.083 A  
HETATM   22  C   UNL     1      -6.496   7.314  71.167  1.00  0.00    -0.043 A  
HETATM   23 CL   UNL     1      -7.836   8.417  73.237  1.00  0.00    -0.181 Cl 
HETATM   24  C   UNL     1      -6.346   6.966  69.823  1.00  0.00    -0.039 A  
ENDBRANCH   5   8
TORSDOF 1
ENDMDL
MODEL      130
REMARK 921   NORMALIZED FREE ENERGY PREDICTED BY IDOCK:   -3.26 KCAL/MOL
REMARK 922        TOTAL FREE ENERGY PREDICTED BY IDOCK:   -3.85 KCAL/MOL
REMARK 923 INTER-LIGAND FREE ENERGY PREDICTED BY IDOCK:   -4.23 KCAL/MOL
REMARK 924 INTRA-LIGAND FREE ENERGY PREDICTED BY IDOCK:    0.38 KCAL/MOL
REMARK 927      BINDING AFFINITY PREDICTED BY RF-SCORE:    0.00 PKD
ROOT
HETATM    1  C   UNL     1      -9.214   7.771  66.375  1.00  0.00    -0.180 C  
HETATM    2  N   UNL     1      -9.195   9.049  65.669  1.00  0.00    -0.229 NA 
HETATM    3  C   UNL     1     -10.093  10.038  66.301  1.00  0.00    -0.243 C  
HETATM    4  C   UNL     1      -9.609  10.594  67.658  1.00  0.00    -0.161 C  
HETATM    5  N   UNL     1      -8.233  11.105  67.572  1.00  0.00    -0.117 NA 
HETATM    6  C   UNL     1      -7.279  10.192  66.926  1.00  0.00    -0.092 C  
HETATM    7  C   UNL     1      -7.833   9.627  65.599  1.00  0.00    -0.107 C  
ENDROOT
BRANCH   5   8
HETATM    8  C   UNL     1      -7.859  12.385  67.988  1.00  0.00    -0.141 C  
HETATM    9  N   UNL     1      -6.859  12.521  68.816  1.00  0.00    -0.092 NA 
HETATM   10  C   UNL     1      -6.394  13.768  69.270  1.00  0.00    -0.110 A  
HETATM   11  H   UNL     1      -6.390  11.679  69.151  1.00  0.00     0.000 HD 
HETATM   12  C   UNL     1      -5.941  13.851  70.591  1.00  0.00    -0.174 A  
HETATM   13  C   UNL     1      -5.416  15.041  71.106  1.00  0.00    -0.068 A  
HETATM   14  C   UNL     1      -5.315  16.169  70.294  1.00  0.00    -0.167 A  
HETATM   15  C   UNL     1      -5.737  16.104  68.968  1.00  0.00    -0.119 A  
HETATM   16  C   UNL     1      -6.282  14.915  68.470  1.00  0.00    -0.091 A  
HETATM   17  O   UNL     1      -6.698  14.929  67.157  1.00  0.00    -0.265 OA 
HETATM   18  C   UNL     1      -8.048  14.715  67.036  1.00  0.00    -0.120 A  
HETATM   19  C   UNL     1      -8.660  13.543  67.475  1.00  0.00    -0.193 A  
HETATM   20  C   UNL     1     -10.053  13.416  67.394  1.00  0.00    -0.237 A  
HETATM   21  C   UNL     1     -10.808  14.427  66.805  1.00  0.00    -0.301 A  
HETATM   22  C   UNL     1     -10.189  15.576  66.316  1.00  0.00    -0.308 A  
HETATM   23 CL   UNL     1     -12.511  14.239  66.658  1.00  0.00    -0.341 Cl 
HETATM   24  C   UNL     1      -8.806  15.723  66.435  1.00  0.00    -0.371 A  
ENDBRANCH   5   8
TORSDOF 1
ENDMDL
MODEL      131
REMARK 921   NORMALIZED FREE ENERGY PREDICTED BY IDOCK:   -3.23 KCAL/MOL
REMARK 922        TOTAL FREE ENERGY PREDICTED BY IDOCK:   -3.81 KCAL/MOL
REMARK 923 INTER-LIGAND FREE ENERGY PREDICTED BY IDOCK:   -4.46 KCAL/MOL
REMARK 924 INTRA-LIGAND FREE ENERGY PREDICTED BY IDOCK:    0.65 KCAL/MOL
REMARK 927      BINDING AFFINITY PREDICTED BY RF-SCORE:    0.00 PKD
ROOT
HETATM    1  C   UNL     1     -12.751  10.220  71.284  1.00  0.00    -0.421 C  
HETATM    2  N   UNL     1     -11.608   9.462  71.787  1.00  0.00    -0.389 NA 
HETATM    3  C   UNL     1     -11.935   8.033  71.968  1.00  0.00    -0.327 C  
HETATM    4  C   UNL     1     -12.105   7.225  70.663  1.00  0.00    -0.186 C  
HETATM    5  N   UNL     1     -10.951   7.396  69.769  1.00  0.00    -0.232 NA 
HETATM    6  C   UNL     1     -10.539   8.792  69.558  1.00  0.00    -0.219 C  
HETATM    7  C   UNL     1     -10.433   9.566  70.890  1.00  0.00    -0.312 C  
ENDROOT
BRANCH   5   8
HETATM    8  C   UNL     1     -10.237   6.328  69.221  1.00  0.00    -0.193 C  
HETATM    9  N   UNL     1     -10.329   5.148  69.772  1.00  0.00    -0.285 NA 
HETATM   10  C   UNL     1      -9.668   4.009  69.278  1.00  0.00    -0.120 A  
HETATM   11  H   UNL     1     -10.909   5.047  70.605  1.00  0.00     0.000 HD 
HETATM   12  C   UNL     1      -9.180   3.086  70.209  1.00  0.00    -0.213 A  
HETATM   13  C   UNL     1      -8.557   1.902  69.799  1.00  0.00    -0.096 A  
HETATM   14  C   UNL     1      -8.432   1.612  68.443  1.00  0.00    -0.083 A  
HETATM   15  C   UNL     1      -8.931   2.505  67.498  1.00  0.00    -0.191 A  
HETATM   16  C   UNL     1      -9.533   3.696  67.917  1.00  0.00    -0.169 A  
HETATM   17  O   UNL     1      -9.984   4.542  66.928  1.00  0.00    -0.208 OA 
HETATM   18  C   UNL     1      -9.333   5.749  66.936  1.00  0.00    -0.127 A  
HETATM   19  C   UNL     1      -9.370   6.610  68.031  1.00  0.00    -0.113 A  
HETATM   20  C   UNL     1      -8.621   7.794  68.008  1.00  0.00    -0.123 A  
HETATM   21  C   UNL     1      -7.907   8.139  66.864  1.00  0.00    -0.096 A  
HETATM   22  C   UNL     1      -7.913   7.304  65.748  1.00  0.00    -0.122 A  
HETATM   23 CL   UNL     1      -7.035   9.621  66.823  1.00  0.00    -0.084 Cl 
HETATM   24  C   UNL     1      -8.625   6.103  65.785  1.00  0.00    -0.153 A  
ENDBRANCH   5   8
TORSDOF 1
ENDMDL
MODEL      132
REMARK 921   NORMALIZED FREE ENERGY PREDICTED BY IDOCK:   -3.20 KCAL/MOL
REMARK 922        TOTAL FREE ENERGY PREDICTED BY IDOCK:   -3.78 KCAL/MOL
REMARK 923 INTER-LIGAND FREE ENERGY PREDICTED BY IDOCK:   -3.38 KCAL/MOL
REMARK 924 INTRA-LIGAND FREE ENERGY PREDICTED BY IDOCK:   -0.40 KCAL/MOL
REMARK 927      BINDING AFFINITY PREDICTED BY RF-SCORE:    0.00 PKD
ROOT
HETATM    1  C   UNL     1     -11.362   7.962  72.583  1.00  0.00    -0.408 C  
HETATM    2  N   UNL     1     -10.909   6.713  71.976  1.00  0.00    -0.227 NA 
HETATM    3  C   UNL     1     -11.480   6.521  70.627  1.00  0.00    -0.374 C  
HETATM    4  C   UNL     1     -10.911   7.450  69.532  1.00  0.00    -0.189 C  
HETATM    5  N   UNL     1      -9.441   7.407  69.498  1.00  0.00    -0.156 NA 
HETATM    6  C   UNL     1      -8.793   7.561  70.809  1.00  0.00    -0.148 C  
HETATM    7  C   UNL     1      -9.433   6.646  71.876  1.00  0.00    -0.150 C  
ENDROOT
BRANCH   5   8
HETATM    8  C   UNL     1      -8.705   7.157  68.338  1.00  0.00    -0.125 C  
HETATM    9  N   UNL     1      -8.095   6.011  68.203  1.00  0.00    -0.109 NA 
HETATM   10  C   UNL     1      -7.352   5.659  67.062  1.00  0.00    -0.080 A  
HETATM   11  H   UNL     1      -8.161   5.335  68.965  1.00  0.00     0.000 HD 
HETATM   12  C   UNL     1      -6.197   4.892  67.250  1.00  0.00    -0.035 A  
HETATM   13  C   UNL     1      -5.430   4.457  66.164  1.00  0.00    -0.013 A  
HETATM   14  C   UNL     1      -5.822   4.766  64.863  1.00  0.00    -0.014 A  
HETATM   15  C   UNL     1      -6.981   5.508  64.651  1.00  0.00    -0.049 A  
HETATM   16  C   UNL     1      -7.729   5.957  65.744  1.00  0.00    -0.096 A  
HETATM   17  O   UNL     1      -8.851   6.704  65.460  1.00  0.00    -0.099 OA 
HETATM   18  C   UNL     1      -8.766   7.982  65.953  1.00  0.00    -0.157 A  
HETATM   19  C   UNL     1      -8.631   8.249  67.314  1.00  0.00    -0.124 A  
HETATM   20  C   UNL     1      -8.472   9.571  67.748  1.00  0.00    -0.119 A  
HETATM   21  C   UNL     1      -8.527  10.614  66.828  1.00  0.00    -0.134 A  
HETATM   22  C   UNL     1      -8.716  10.349  65.472  1.00  0.00    -0.190 A  
HETATM   23 CL   UNL     1      -8.387  12.238  67.375  1.00  0.00    -0.168 Cl 
HETATM   24  C   UNL     1      -8.832   9.029  65.032  1.00  0.00    -0.213 A  
ENDBRANCH   5   8
TORSDOF 1
ENDMDL
MODEL      133
REMARK 921   NORMALIZED FREE ENERGY PREDICTED BY IDOCK:   -3.17 KCAL/MOL
REMARK 922        TOTAL FREE ENERGY PREDICTED BY IDOCK:   -3.75 KCAL/MOL
REMARK 923 INTER-LIGAND FREE ENERGY PREDICTED BY IDOCK:   -3.36 KCAL/MOL
REMARK 924 INTRA-LIGAND FREE ENERGY PREDICTED BY IDOCK:   -0.39 KCAL/MOL
REMARK 927      BINDING AFFINITY PREDICTED BY RF-SCORE:    0.00 PKD
ROOT
HETATM    1  C   UNL     1     -11.950   4.602  73.080  1.00  0.00     0.129 C  
HETATM    2  N   UNL     1     -10.923   5.640  73.020  1.00  0.00    -0.267 NA 
HETATM    3  C   UNL     1      -9.677   5.144  72.403  1.00  0.00    -0.153 C  
HETATM    4  C   UNL     1      -9.748   4.897  70.880  1.00  0.00    -0.195 C  
HETATM    5  N   UNL     1     -10.261   6.076  70.166  1.00  0.00    -0.195 NA 
HETATM    6  C   UNL     1     -11.488   6.652  70.736  1.00  0.00    -0.353 C  
HETATM    7  C   UNL     1     -11.380   6.832  72.266  1.00  0.00    -0.273 C  
ENDROOT
BRANCH   5   8
HETATM    8  C   UNL     1      -9.606   6.665  69.083  1.00  0.00    -0.135 C  
HETATM    9  N   UNL     1      -9.728   6.135  67.896  1.00  0.00    -0.114 NA 
HETATM   10  C   UNL     1      -9.127   6.671  66.743  1.00  0.00    -0.142 A  
HETATM   11  H   UNL     1     -10.288   5.287  67.800  1.00  0.00     0.000 HD 
HETATM   12  C   UNL     1      -8.650   5.773  65.782  1.00  0.00    -0.149 A  
HETATM   13  C   UNL     1      -8.086   6.223  64.584  1.00  0.00    -0.115 A  
HETATM   14  C   UNL     1      -8.010   7.589  64.318  1.00  0.00    -0.109 A  
HETATM   15  C   UNL     1      -8.500   8.501  65.249  1.00  0.00    -0.192 A  
HETATM   16  C   UNL     1      -9.043   8.041  66.454  1.00  0.00    -0.183 A  
HETATM   17  O   UNL     1      -9.489   8.999  67.337  1.00  0.00    -0.139 OA 
HETATM   18  C   UNL     1      -8.790   8.986  68.518  1.00  0.00    -0.134 A  
HETATM   19  C   UNL     1      -8.762   7.873  69.356  1.00  0.00    -0.138 A  
HETATM   20  C   UNL     1      -7.968   7.895  70.510  1.00  0.00    -0.097 A  
HETATM   21  C   UNL     1      -7.274   9.052  70.852  1.00  0.00    -0.103 A  
HETATM   22  C   UNL     1      -7.345  10.184  70.041  1.00  0.00    -0.172 A  
HETATM   23 CL   UNL     1      -6.347   9.089  72.299  1.00  0.00    -0.012 Cl 
HETATM   24  C   UNL     1      -8.102  10.150  68.868  1.00  0.00    -0.117 A  
ENDBRANCH   5   8
TORSDOF 1
ENDMDL
MODEL      134
REMARK 921   NORMALIZED FREE ENERGY PREDICTED BY IDOCK:   -3.16 KCAL/MOL
REMARK 922        TOTAL FREE ENERGY PREDICTED BY IDOCK:   -3.73 KCAL/MOL
REMARK 923 INTER-LIGAND FREE ENERGY PREDICTED BY IDOCK:   -3.43 KCAL/MOL
REMARK 924 INTRA-LIGAND FREE ENERGY PREDICTED BY IDOCK:   -0.30 KCAL/MOL
REMARK 927      BINDING AFFINITY PREDICTED BY RF-SCORE:    0.00 PKD
ROOT
HETATM    1  C   UNL     1      -7.383   7.731  63.963  1.00  0.00    -0.098 C  
HETATM    2  N   UNL     1      -6.424   8.040  65.021  1.00  0.00    -0.048 NA 
HETATM    3  C   UNL     1      -5.727   9.317  64.772  1.00  0.00    -0.063 C  
HETATM    4  C   UNL     1      -6.588  10.586  64.957  1.00  0.00    -0.014 C  
HETATM    5  N   UNL     1      -7.261  10.594  66.265  1.00  0.00    -0.132 NA 
HETATM    6  C   UNL     1      -7.957   9.344  66.604  1.00  0.00    -0.108 C  
HETATM    7  C   UNL     1      -7.068   8.106  66.354  1.00  0.00    -0.075 C  
ENDROOT
BRANCH   5   8
HETATM    8  C   UNL     1      -7.188  11.662  67.161  1.00  0.00    -0.145 C  
HETATM    9  N   UNL     1      -6.263  11.659  68.084  1.00  0.00    -0.045 NA 
HETATM   10  C   UNL     1      -6.094  12.700  69.014  1.00  0.00    -0.085 A  
HETATM   11  H   UNL     1      -5.630  10.860  68.132  1.00  0.00     0.000 HD 
HETATM   12  C   UNL     1      -5.705  12.354  70.313  1.00  0.00    -0.166 A  
HETATM   13  C   UNL     1      -5.465  13.331  71.284  1.00  0.00    -0.184 A  
HETATM   14  C   UNL     1      -5.592  14.681  70.963  1.00  0.00    -0.147 A  
HETATM   15  C   UNL     1      -5.955  15.051  69.670  1.00  0.00    -0.116 A  
HETATM   16  C   UNL     1      -6.214  14.064  68.711  1.00  0.00    -0.087 A  
HETATM   17  O   UNL     1      -6.589  14.502  67.461  1.00  0.00    -0.227 OA 
HETATM   18  C   UNL     1      -7.856  14.096  67.124  1.00  0.00    -0.037 A  
HETATM   19  C   UNL     1      -8.209  12.751  67.031  1.00  0.00    -0.099 A  
HETATM   20  C   UNL     1      -9.538  12.400  66.759  1.00  0.00    -0.224 A  
HETATM   21  C   UNL     1     -10.479  13.394  66.509  1.00  0.00    -0.283 A  
HETATM   22  C   UNL     1     -10.114  14.739  66.549  1.00  0.00    -0.281 A  
HETATM   23 CL   UNL     1     -12.095  12.955  66.120  1.00  0.00    -0.485 Cl 
HETATM   24  C   UNL     1      -8.799  15.092  66.862  1.00  0.00    -0.285 A  
ENDBRANCH   5   8
TORSDOF 1
ENDMDL
MODEL      135
REMARK 921   NORMALIZED FREE ENERGY PREDICTED BY IDOCK:   -3.11 KCAL/MOL
REMARK 922        TOTAL FREE ENERGY PREDICTED BY IDOCK:   -3.68 KCAL/MOL
REMARK 923 INTER-LIGAND FREE ENERGY PREDICTED BY IDOCK:   -3.52 KCAL/MOL
REMARK 924 INTRA-LIGAND FREE ENERGY PREDICTED BY IDOCK:   -0.16 KCAL/MOL
REMARK 927      BINDING AFFINITY PREDICTED BY RF-SCORE:    0.00 PKD
ROOT
HETATM    1  C   UNL     1      -6.920   7.327  62.404  1.00  0.00    -0.069 C  
HETATM    2  N   UNL     1      -6.929   8.787  62.358  1.00  0.00    -0.094 NA 
HETATM    3  C   UNL     1      -8.232   9.340  62.778  1.00  0.00    -0.172 C  
HETATM    4  C   UNL     1      -8.542   9.223  64.286  1.00  0.00    -0.193 C  
HETATM    5  N   UNL     1      -7.447   9.763  65.106  1.00  0.00    -0.116 NA 
HETATM    6  C   UNL     1      -6.108   9.284  64.733  1.00  0.00    -0.067 C  
HETATM    7  C   UNL     1      -5.870   9.377  63.209  1.00  0.00    -0.089 C  
ENDROOT
BRANCH   5   8
HETATM    8  C   UNL     1      -7.634  10.718  66.108  1.00  0.00    -0.139 C  
HETATM    9  N   UNL     1      -6.783  11.703  66.218  1.00  0.00    -0.362 NA 
HETATM   10  C   UNL     1      -6.902  12.724  67.177  1.00  0.00     0.023 A  
HETATM   11  H   UNL     1      -5.991  11.732  65.575  1.00  0.00     0.000 HD 
HETATM   12  C   UNL     1      -5.723  13.226  67.740  1.00  0.00    -0.121 A  
HETATM   13  C   UNL     1      -5.750  14.277  68.663  1.00  0.00    -0.088 A  
HETATM   14  C   UNL     1      -6.963  14.861  69.022  1.00  0.00    -0.120 A  
HETATM   15  C   UNL     1      -8.147  14.394  68.456  1.00  0.00    -0.146 A  
HETATM   16  C   UNL     1      -8.111  13.328  67.551  1.00  0.00    -0.186 A  
HETATM   17  O   UNL     1      -9.321  12.904  67.048  1.00  0.00    -0.219 OA 
HETATM   18  C   UNL     1      -9.609  11.610  67.402  1.00  0.00    -0.166 A  
HETATM   19  C   UNL     1      -8.800  10.537  67.031  1.00  0.00    -0.142 A  
HETATM   20  C   UNL     1      -9.105   9.249  67.488  1.00  0.00    -0.133 A  
HETATM   21  C   UNL     1     -10.254   9.036  68.244  1.00  0.00    -0.204 A  
HETATM   22  C   UNL     1     -11.093  10.101  68.569  1.00  0.00    -0.266 A  
HETATM   23 CL   UNL     1     -10.652   7.442  68.753  1.00  0.00    -0.209 Cl 
HETATM   24  C   UNL     1     -10.768  11.392  68.150  1.00  0.00    -0.241 A  
ENDBRANCH   5   8
TORSDOF 1
ENDMDL
MODEL      136
REMARK 921   NORMALIZED FREE ENERGY PREDICTED BY IDOCK:   -3.05 KCAL/MOL
REMARK 922        TOTAL FREE ENERGY PREDICTED BY IDOCK:   -3.62 KCAL/MOL
REMARK 923 INTER-LIGAND FREE ENERGY PREDICTED BY IDOCK:   -4.11 KCAL/MOL
REMARK 924 INTRA-LIGAND FREE ENERGY PREDICTED BY IDOCK:    0.49 KCAL/MOL
REMARK 927      BINDING AFFINITY PREDICTED BY RF-SCORE:    0.00 PKD
ROOT
HETATM    1  C   UNL     1     -10.782   4.863  65.380  1.00  0.00     0.052 C  
HETATM    2  N   UNL     1      -9.917   5.862  66.003  1.00  0.00     0.021 NA 
HETATM    3  C   UNL     1     -10.638   6.653  67.021  1.00  0.00    -0.333 C  
HETATM    4  C   UNL     1     -10.979   5.896  68.324  1.00  0.00    -0.170 C  
HETATM    5  N   UNL     1      -9.790   5.250  68.898  1.00  0.00    -0.151 NA 
HETATM    6  C   UNL     1      -8.996   4.465  67.942  1.00  0.00    -0.119 C  
HETATM    7  C   UNL     1      -8.727   5.249  66.639  1.00  0.00    -0.113 C  
ENDROOT
BRANCH   5   8
HETATM    8  C   UNL     1      -9.383   5.423  70.223  1.00  0.00    -0.154 C  
HETATM    9  N   UNL     1      -8.358   4.749  70.670  1.00  0.00    -0.094 NA 
HETATM   10  C   UNL     1      -7.860   4.876  71.980  1.00  0.00    -0.108 A  
HETATM   11  H   UNL     1      -7.894   4.098  70.037  1.00  0.00     0.000 HD 
HETATM   12  C   UNL     1      -7.369   3.723  72.602  1.00  0.00    -0.058 A  
HETATM   13  C   UNL     1      -6.810   3.772  73.883  1.00  0.00    -0.046 A  
HETATM   14  C   UNL     1      -6.712   4.987  74.558  1.00  0.00    -0.072 A  
HETATM   15  C   UNL     1      -7.173   6.152  73.948  1.00  0.00    -0.087 A  
HETATM   16  C   UNL     1      -7.751   6.089  72.675  1.00  0.00    -0.100 A  
HETATM   17  O   UNL     1      -8.204   7.276  72.144  1.00  0.00    -0.100 OA 
HETATM   18  C   UNL     1      -9.560   7.270  71.935  1.00  0.00    -0.148 A  
HETATM   19  C   UNL     1     -10.179   6.364  71.076  1.00  0.00    -0.227 A  
HETATM   20  C   UNL     1     -11.576   6.358  70.964  1.00  0.00    -0.386 A  
HETATM   21  C   UNL     1     -12.329   7.306  71.651  1.00  0.00    -0.352 A  
HETATM   22  C   UNL     1     -11.705   8.248  72.468  1.00  0.00    -0.451 A  
HETATM   23 CL   UNL     1     -14.039   7.328  71.464  1.00  0.00    -0.538 Cl 
HETATM   24  C   UNL     1     -10.317   8.227  72.614  1.00  0.00    -0.374 A  
ENDBRANCH   5   8
TORSDOF 1
ENDMDL
MODEL      137
REMARK 921   NORMALIZED FREE ENERGY PREDICTED BY IDOCK:   -3.04 KCAL/MOL
REMARK 922        TOTAL FREE ENERGY PREDICTED BY IDOCK:   -3.62 KCAL/MOL
REMARK 923 INTER-LIGAND FREE ENERGY PREDICTED BY IDOCK:   -3.22 KCAL/MOL
REMARK 924 INTRA-LIGAND FREE ENERGY PREDICTED BY IDOCK:   -0.40 KCAL/MOL
REMARK 927      BINDING AFFINITY PREDICTED BY RF-SCORE:    0.00 PKD
ROOT
HETATM    1  C   UNL     1      -9.850  12.060  67.505  1.00  0.00    -0.186 C  
HETATM    2  N   UNL     1      -8.854  11.203  66.867  1.00  0.00    -0.152 NA 
HETATM    3  C   UNL     1      -7.837  10.734  67.831  1.00  0.00    -0.109 C  
HETATM    4  C   UNL     1      -8.330   9.682  68.849  1.00  0.00    -0.116 C  
HETATM    5  N   UNL     1      -8.989   8.550  68.179  1.00  0.00    -0.142 NA 
HETATM    6  C   UNL     1      -9.997   8.932  67.179  1.00  0.00    -0.226 C  
HETATM    7  C   UNL     1      -9.469  10.021  66.219  1.00  0.00    -0.191 C  
ENDROOT
BRANCH   5   8
HETATM    8  C   UNL     1      -8.640   7.216  68.399  1.00  0.00    -0.123 C  
HETATM    9  N   UNL     1      -7.956   6.576  67.490  1.00  0.00    -0.112 NA 
HETATM   10  C   UNL     1      -7.538   5.241  67.633  1.00  0.00    -0.088 A  
HETATM   11  H   UNL     1      -7.712   7.070  66.631  1.00  0.00     0.000 HD 
HETATM   12  C   UNL     1      -7.534   4.435  66.489  1.00  0.00    -0.082 A  
HETATM   13  C   UNL     1      -7.084   3.111  66.535  1.00  0.00    -0.054 A  
HETATM   14  C   UNL     1      -6.607   2.576  67.730  1.00  0.00    -0.036 A  
HETATM   15  C   UNL     1      -6.579   3.367  68.876  1.00  0.00    -0.040 A  
HETATM   16  C   UNL     1      -7.052   4.683  68.825  1.00  0.00    -0.053 A  
HETATM   17  O   UNL     1      -7.014   5.399  70.001  1.00  0.00    -0.056 OA 
HETATM   18  C   UNL     1      -8.266   5.764  70.430  1.00  0.00    -0.107 A  
HETATM   19  C   UNL     1      -9.106   6.578  69.673  1.00  0.00    -0.141 A  
HETATM   20  C   UNL     1     -10.401   6.852  70.130  1.00  0.00    -0.218 A  
HETATM   21  C   UNL     1     -10.813   6.375  71.371  1.00  0.00    -0.253 A  
HETATM   22  C   UNL     1      -9.953   5.605  72.153  1.00  0.00    -0.214 A  
HETATM   23 CL   UNL     1     -12.385   6.763  71.950  1.00  0.00    -0.382 Cl 
HETATM   24  C   UNL     1      -8.677   5.295  71.679  1.00  0.00    -0.140 A  
ENDBRANCH   5   8
TORSDOF 1
ENDMDL
MODEL      138
REMARK 921   NORMALIZED FREE ENERGY PREDICTED BY IDOCK:   -3.04 KCAL/MOL
REMARK 922        TOTAL FREE ENERGY PREDICTED BY IDOCK:   -3.61 KCAL/MOL
REMARK 923 INTER-LIGAND FREE ENERGY PREDICTED BY IDOCK:   -3.21 KCAL/MOL
REMARK 924 INTRA-LIGAND FREE ENERGY PREDICTED BY IDOCK:   -0.40 KCAL/MOL
REMARK 927      BINDING AFFINITY PREDICTED BY RF-SCORE:    0.00 PKD
ROOT
HETATM    1  C   UNL     1      -6.443   9.924  63.146  1.00  0.00    -0.123 C  
HETATM    2  N   UNL     1      -7.281   8.958  63.852  1.00  0.00    -0.095 NA 
HETATM    3  C   UNL     1      -6.552   8.306  64.959  1.00  0.00    -0.059 C  
HETATM    4  C   UNL     1      -6.272   9.204  66.183  1.00  0.00    -0.064 C  
HETATM    5  N   UNL     1      -7.499   9.855  66.667  1.00  0.00    -0.098 NA 
HETATM    6  C   UNL     1      -8.302  10.504  65.620  1.00  0.00    -0.167 C  
HETATM    7  C   UNL     1      -8.509   9.581  64.400  1.00  0.00    -0.181 C  
ENDROOT
BRANCH   5   8
HETATM    8  C   UNL     1      -7.928   9.800  67.994  1.00  0.00    -0.097 C  
HETATM    9  N   UNL     1      -8.996   9.110  68.293  1.00  0.00    -0.129 NA 
HETATM   10  C   UNL     1      -9.489   8.976  69.603  1.00  0.00    -0.171 A  
HETATM   11  H   UNL     1      -9.498   8.645  67.537  1.00  0.00     0.000 HD 
HETATM   12  C   UNL     1     -10.878   8.938  69.774  1.00  0.00    -0.207 A  
HETATM   13  C   UNL     1     -11.449   8.755  71.037  1.00  0.00    -0.337 A  
HETATM   14  C   UNL     1     -10.635   8.583  72.154  1.00  0.00    -0.419 A  
HETATM   15  C   UNL     1      -9.250   8.593  72.006  1.00  0.00    -0.338 A  
HETATM   16  C   UNL     1      -8.688   8.798  70.741  1.00  0.00    -0.189 A  
HETATM   17  O   UNL     1      -7.313   8.817  70.671  1.00  0.00    -0.055 OA 
HETATM   18  C   UNL     1      -6.827  10.031  70.255  1.00  0.00    -0.147 A  
HETATM   19  C   UNL     1      -7.144  10.574  69.010  1.00  0.00    -0.081 A  
HETATM   20  C   UNL     1      -6.680  11.852  68.674  1.00  0.00    -0.074 A  
HETATM   21  C   UNL     1      -5.844  12.538  69.550  1.00  0.00    -0.105 A  
HETATM   22  C   UNL     1      -5.484  11.972  70.772  1.00  0.00    -0.146 A  
HETATM   23 CL   UNL     1      -5.233  14.083  69.105  1.00  0.00    -0.074 Cl 
HETATM   24  C   UNL     1      -5.980  10.717  71.127  1.00  0.00     0.147 A  
ENDBRANCH   5   8
TORSDOF 1
ENDMDL
MODEL      139
REMARK 921   NORMALIZED FREE ENERGY PREDICTED BY IDOCK:   -3.03 KCAL/MOL
REMARK 922        TOTAL FREE ENERGY PREDICTED BY IDOCK:   -3.60 KCAL/MOL
REMARK 923 INTER-LIGAND FREE ENERGY PREDICTED BY IDOCK:   -3.58 KCAL/MOL
REMARK 924 INTRA-LIGAND FREE ENERGY PREDICTED BY IDOCK:   -0.02 KCAL/MOL
REMARK 927      BINDING AFFINITY PREDICTED BY RF-SCORE:    0.00 PKD
ROOT
HETATM    1  C   UNL     1     -10.209   3.770  64.505  1.00  0.00    -0.204 C  
HETATM    2  N   UNL     1      -9.522   3.975  65.777  1.00  0.00    -0.166 NA 
HETATM    3  C   UNL     1      -8.318   4.817  65.621  1.00  0.00    -0.118 C  
HETATM    4  C   UNL     1      -8.591   6.311  65.339  1.00  0.00    -0.092 C  
HETATM    5  N   UNL     1      -9.516   6.886  66.328  1.00  0.00    -0.120 NA 
HETATM    6  C   UNL     1     -10.730   6.091  66.566  1.00  0.00    -0.161 C  
HETATM    7  C   UNL     1     -10.404   4.599  66.792  1.00  0.00    -0.125 C  
ENDROOT
BRANCH   5   8
HETATM    8  C   UNL     1      -9.242   8.047  67.053  1.00  0.00    -0.147 C  
HETATM    9  N   UNL     1      -8.657   9.051  66.456  1.00  0.00    -0.118 NA 
HETATM   10  C   UNL     1      -8.365  10.268  67.097  1.00  0.00    -0.122 A  
HETATM   11  H   UNL     1      -8.399   8.946  65.475  1.00  0.00     0.000 HD 
HETATM   12  C   UNL     1      -7.178  10.919  66.743  1.00  0.00    -0.134 A  
HETATM   13  C   UNL     1      -6.838  12.159  67.295  1.00  0.00    -0.149 A  
HETATM   14  C   UNL     1      -7.697  12.781  68.198  1.00  0.00    -0.137 A  
HETATM   15  C   UNL     1      -8.895  12.163  68.547  1.00  0.00    -0.079 A  
HETATM   16  C   UNL     1      -9.216  10.913  68.007  1.00  0.00    -0.156 A  
HETATM   17  O   UNL     1     -10.406  10.352  68.412  1.00  0.00    -0.160 OA 
HETATM   18  C   UNL     1     -10.223   9.172  69.089  1.00  0.00    -0.207 A  
HETATM   19  C   UNL     1      -9.614   8.063  68.505  1.00  0.00    -0.159 A  
HETATM   20  C   UNL     1      -9.386   6.913  69.272  1.00  0.00    -0.144 A  
HETATM   21  C   UNL     1      -9.837   6.858  70.588  1.00  0.00    -0.182 A  
HETATM   22  C   UNL     1     -10.494   7.948  71.156  1.00  0.00    -0.230 A  
HETATM   23 CL   UNL     1      -9.603   5.422  71.505  1.00  0.00    -0.185 Cl 
HETATM   24  C   UNL     1     -10.684   9.111  70.406  1.00  0.00    -0.282 A  
ENDBRANCH   5   8
TORSDOF 1
ENDMDL
MODEL      140
REMARK 921   NORMALIZED FREE ENERGY PREDICTED BY IDOCK:   -3.02 KCAL/MOL
REMARK 922        TOTAL FREE ENERGY PREDICTED BY IDOCK:   -3.59 KCAL/MOL
REMARK 923 INTER-LIGAND FREE ENERGY PREDICTED BY IDOCK:   -3.43 KCAL/MOL
REMARK 924 INTRA-LIGAND FREE ENERGY PREDICTED BY IDOCK:   -0.16 KCAL/MOL
REMARK 927      BINDING AFFINITY PREDICTED BY RF-SCORE:    0.00 PKD
ROOT
HETATM    1  C   UNL     1      -5.889   1.734  68.580  1.00  0.00    -0.023 C  
HETATM    2  N   UNL     1      -6.958   1.864  69.567  1.00  0.00    -0.033 NA 
HETATM    3  C   UNL     1      -6.647   2.893  70.580  1.00  0.00    -0.032 C  
HETATM    4  C   UNL     1      -6.711   4.352  70.077  1.00  0.00    -0.033 C  
HETATM    5  N   UNL     1      -7.989   4.636  69.406  1.00  0.00    -0.066 NA 
HETATM    6  C   UNL     1      -8.388   3.640  68.402  1.00  0.00    -0.082 C  
HETATM    7  C   UNL     1      -8.258   2.198  68.940  1.00  0.00    -0.051 C  
ENDROOT
BRANCH   5   8
HETATM    8  C   UNL     1      -8.811   5.714  69.741  1.00  0.00    -0.124 C  
HETATM    9  N   UNL     1      -9.616   5.609  70.764  1.00  0.00    -0.164 NA 
HETATM   10  C   UNL     1     -10.462   6.648  71.192  1.00  0.00    -0.217 A  
HETATM   11  H   UNL     1      -9.633   4.728  71.278  1.00  0.00     0.000 HD 
HETATM   12  C   UNL     1     -11.723   6.296  71.688  1.00  0.00    -0.342 A  
HETATM   13  C   UNL     1     -12.604   7.263  72.182  1.00  0.00    -0.169 A  
HETATM   14  C   UNL     1     -12.227   8.604  72.208  1.00  0.00    -0.447 A  
HETATM   15  C   UNL     1     -10.968   8.975  71.742  1.00  0.00    -0.443 A  
HETATM   16  C   UNL     1     -10.102   8.003  71.230  1.00  0.00    -0.185 A  
HETATM   17  O   UNL     1      -8.882   8.444  70.766  1.00  0.00    -0.135 OA 
HETATM   18  C   UNL     1      -8.721   8.216  69.423  1.00  0.00    -0.143 A  
HETATM   19  C   UNL     1      -8.743   6.935  68.875  1.00  0.00    -0.130 A  
HETATM   20  C   UNL     1      -8.650   6.773  67.487  1.00  0.00    -0.120 A  
HETATM   21  C   UNL     1      -8.458   7.884  66.671  1.00  0.00    -0.131 A  
HETATM   22  C   UNL     1      -8.382   9.162  67.225  1.00  0.00    -0.121 A  
HETATM   23 CL   UNL     1      -8.288   7.672  64.974  1.00  0.00    -0.115 Cl 
HETATM   24  C   UNL     1      -8.518   9.329  68.604  1.00  0.00    -0.123 A  
ENDBRANCH   5   8
TORSDOF 1
ENDMDL
MODEL      141
REMARK 921   NORMALIZED FREE ENERGY PREDICTED BY IDOCK:   -2.99 KCAL/MOL
REMARK 922        TOTAL FREE ENERGY PREDICTED BY IDOCK:   -3.56 KCAL/MOL
REMARK 923 INTER-LIGAND FREE ENERGY PREDICTED BY IDOCK:   -3.47 KCAL/MOL
REMARK 924 INTRA-LIGAND FREE ENERGY PREDICTED BY IDOCK:   -0.09 KCAL/MOL
REMARK 927      BINDING AFFINITY PREDICTED BY RF-SCORE:    0.00 PKD
ROOT
HETATM    1  C   UNL     1     -11.731  11.146  70.437  1.00  0.00    -0.320 C  
HETATM    2  N   UNL     1     -11.766   9.774  69.936  1.00  0.00    -0.092 NA 
HETATM    3  C   UNL     1     -10.468   9.369  69.359  1.00  0.00    -0.220 C  
HETATM    4  C   UNL     1      -9.334   9.141  70.381  1.00  0.00    -0.232 C  
HETATM    5  N   UNL     1      -9.749   8.221  71.451  1.00  0.00    -0.171 NA 
HETATM    6  C   UNL     1     -11.049   8.537  72.061  1.00  0.00    -0.342 C  
HETATM    7  C   UNL     1     -12.134   8.804  70.995  1.00  0.00    -0.225 C  
ENDROOT
BRANCH   5   8
HETATM    8  C   UNL     1      -9.022   7.086  71.816  1.00  0.00    -0.133 C  
HETATM    9  N   UNL     1      -8.251   7.132  72.869  1.00  0.00    -0.105 NA 
HETATM   10  C   UNL     1      -7.501   6.034  73.328  1.00  0.00    -0.097 A  
HETATM   11  H   UNL     1      -8.189   8.010  73.385  1.00  0.00     0.000 HD 
HETATM   12  C   UNL     1      -6.238   6.292  73.872  1.00  0.00    -0.065 A  
HETATM   13  C   UNL     1      -5.450   5.263  74.398  1.00  0.00    -0.027 A  
HETATM   14  C   UNL     1      -5.926   3.954  74.408  1.00  0.00    -0.020 A  
HETATM   15  C   UNL     1      -7.191   3.676  73.893  1.00  0.00    -0.053 A  
HETATM   16  C   UNL     1      -7.962   4.710  73.349  1.00  0.00    -0.099 A  
HETATM   17  O   UNL     1      -9.192   4.359  72.839  1.00  0.00    -0.118 OA 
HETATM   18  C   UNL     1      -9.285   4.597  71.491  1.00  0.00    -0.139 A  
HETATM   19  C   UNL     1      -9.147   5.873  70.946  1.00  0.00    -0.159 A  
HETATM   20  C   UNL     1      -9.175   6.039  69.556  1.00  0.00    -0.145 A  
HETATM   21  C   UNL     1      -9.416   4.944  68.732  1.00  0.00    -0.145 A  
HETATM   22  C   UNL     1      -9.608   3.676  69.279  1.00  0.00    -0.185 A  
HETATM   23 CL   UNL     1      -9.505   5.166  67.029  1.00  0.00    -0.133 Cl 
HETATM   24  C   UNL     1      -9.538   3.501  70.663  1.00  0.00    -0.247 A  
ENDBRANCH   5   8
TORSDOF 1
ENDMDL
MODEL      142
REMARK 921   NORMALIZED FREE ENERGY PREDICTED BY IDOCK:   -2.95 KCAL/MOL
REMARK 922        TOTAL FREE ENERGY PREDICTED BY IDOCK:   -3.51 KCAL/MOL
REMARK 923 INTER-LIGAND FREE ENERGY PREDICTED BY IDOCK:   -3.10 KCAL/MOL
REMARK 924 INTRA-LIGAND FREE ENERGY PREDICTED BY IDOCK:   -0.41 KCAL/MOL
REMARK 927      BINDING AFFINITY PREDICTED BY RF-SCORE:    0.00 PKD
ROOT
HETATM    1  C   UNL     1      -6.825   9.253  64.183  1.00  0.00    -0.091 C  
HETATM    2  N   UNL     1      -7.339   8.038  64.810  1.00  0.00    -0.078 NA 
HETATM    3  C   UNL     1      -6.369   7.459  65.760  1.00  0.00    -0.041 C  
HETATM    4  C   UNL     1      -6.177   8.251  67.072  1.00  0.00    -0.055 C  
HETATM    5  N   UNL     1      -7.463   8.526  67.729  1.00  0.00    -0.096 NA 
HETATM    6  C   UNL     1      -8.498   9.078  66.843  1.00  0.00    -0.119 C  
HETATM    7  C   UNL     1      -8.614   8.279  65.527  1.00  0.00    -0.159 C  
ENDROOT
BRANCH   5   8
HETATM    8  C   UNL     1      -7.727   8.216  69.065  1.00  0.00    -0.099 C  
HETATM    9  N   UNL     1      -7.073   8.841  70.007  1.00  0.00    -0.046 NA 
HETATM   10  C   UNL     1      -7.288   8.615  71.378  1.00  0.00    -0.102 A  
HETATM   11  H   UNL     1      -6.370   9.528  69.734  1.00  0.00     0.000 HD 
HETATM   12  C   UNL     1      -6.176   8.668  72.227  1.00  0.00    -0.076 A  
HETATM   13  C   UNL     1      -6.310   8.506  73.610  1.00  0.00    -0.124 A  
HETATM   14  C   UNL     1      -7.570   8.310  74.172  1.00  0.00    -0.251 A  
HETATM   15  C   UNL     1      -8.694   8.278  73.349  1.00  0.00    -0.274 A  
HETATM   16  C   UNL     1      -8.547   8.419  71.965  1.00  0.00    -0.191 A  
HETATM   17  O   UNL     1      -9.698   8.356  71.212  1.00  0.00    -0.166 OA 
HETATM   18  C   UNL     1      -9.697   7.292  70.345  1.00  0.00    -0.172 A  
HETATM   19  C   UNL     1      -8.739   7.147  69.343  1.00  0.00    -0.134 A  
HETATM   20  C   UNL     1      -8.746   5.999  68.540  1.00  0.00    -0.110 A  
HETATM   21  C   UNL     1      -9.753   5.051  68.695  1.00  0.00    -0.158 A  
HETATM   22  C   UNL     1     -10.742   5.223  69.662  1.00  0.00    -0.155 A  
HETATM   23 CL   UNL     1      -9.787   3.672  67.667  1.00  0.00    -0.093 Cl 
HETATM   24  C   UNL     1     -10.713   6.345  70.492  1.00  0.00    -0.311 A  
ENDBRANCH   5   8
TORSDOF 1
ENDMDL
MODEL      143
REMARK 921   NORMALIZED FREE ENERGY PREDICTED BY IDOCK:   -2.95 KCAL/MOL
REMARK 922        TOTAL FREE ENERGY PREDICTED BY IDOCK:   -3.51 KCAL/MOL
REMARK 923 INTER-LIGAND FREE ENERGY PREDICTED BY IDOCK:   -4.12 KCAL/MOL
REMARK 924 INTRA-LIGAND FREE ENERGY PREDICTED BY IDOCK:    0.61 KCAL/MOL
REMARK 927      BINDING AFFINITY PREDICTED BY RF-SCORE:    0.00 PKD
ROOT
HETATM    1  C   UNL     1     -12.213  15.272  63.966  1.00  0.00     0.005 C  
HETATM    2  N   UNL     1     -12.343  14.770  65.332  1.00  0.00    -0.164 NA 
HETATM    3  C   UNL     1     -12.585  13.313  65.360  1.00  0.00    -0.468 C  
HETATM    4  C   UNL     1     -11.373  12.436  64.978  1.00  0.00    -0.320 C  
HETATM    5  N   UNL     1     -10.182  12.791  65.765  1.00  0.00    -0.285 NA 
HETATM    6  C   UNL     1      -9.886  14.230  65.814  1.00  0.00    -0.287 C  
HETATM    7  C   UNL     1     -11.143  15.063  66.150  1.00  0.00    -0.329 C  
ENDROOT
BRANCH   5   8
HETATM    8  C   UNL     1      -9.428  11.860  66.483  1.00  0.00    -0.217 C  
HETATM    9  N   UNL     1      -9.811  10.612  66.509  1.00  0.00    -0.197 NA 
HETATM   10  C   UNL     1      -9.104   9.600  67.183  1.00  0.00    -0.134 A  
HETATM   11  H   UNL     1     -10.666  10.358  66.015  1.00  0.00     0.000 HD 
HETATM   12  C   UNL     1      -9.848   8.592  67.806  1.00  0.00    -0.218 A  
HETATM   13  C   UNL     1      -9.222   7.522  68.454  1.00  0.00    -0.139 A  
HETATM   14  C   UNL     1      -7.832   7.431  68.469  1.00  0.00    -0.122 A  
HETATM   15  C   UNL     1      -7.070   8.409  67.834  1.00  0.00    -0.083 A  
HETATM   16  C   UNL     1      -7.706   9.488  67.208  1.00  0.00    -0.091 A  
HETATM   17  O   UNL     1      -6.890  10.429  66.621  1.00  0.00    -0.088 OA 
HETATM   18  C   UNL     1      -7.016  11.665  67.202  1.00  0.00    -0.144 A  
HETATM   19  C   UNL     1      -8.223  12.362  67.218  1.00  0.00    -0.184 A  
HETATM   20  C   UNL     1      -8.307  13.586  67.895  1.00  0.00    -0.175 A  
HETATM   21  C   UNL     1      -7.169  14.134  68.479  1.00  0.00    -0.110 A  
HETATM   22  C   UNL     1      -5.949  13.462  68.415  1.00  0.00    -0.092 A  
HETATM   23 CL   UNL     1      -7.267  15.664  69.258  1.00  0.00    -0.184 Cl 
HETATM   24  C   UNL     1      -5.873  12.222  67.779  1.00  0.00    -0.098 A  
ENDBRANCH   5   8
TORSDOF 1
ENDMDL
MODEL      144
REMARK 921   NORMALIZED FREE ENERGY PREDICTED BY IDOCK:   -2.94 KCAL/MOL
REMARK 922        TOTAL FREE ENERGY PREDICTED BY IDOCK:   -3.51 KCAL/MOL
REMARK 923 INTER-LIGAND FREE ENERGY PREDICTED BY IDOCK:   -3.11 KCAL/MOL
REMARK 924 INTRA-LIGAND FREE ENERGY PREDICTED BY IDOCK:   -0.40 KCAL/MOL
REMARK 927      BINDING AFFINITY PREDICTED BY RF-SCORE:    0.00 PKD
ROOT
HETATM    1  C   UNL     1      -6.508   9.078  72.868  1.00  0.00     0.195 C  
HETATM    2  N   UNL     1      -6.905   8.249  71.733  1.00  0.00    -0.073 NA 
HETATM    3  C   UNL     1      -8.315   8.474  71.357  1.00  0.00    -0.161 C  
HETATM    4  C   UNL     1      -8.608   9.830  70.679  1.00  0.00     0.181 C  
HETATM    5  N   UNL     1      -7.710  10.068  69.539  1.00  0.00    -0.129 NA 
HETATM    6  C   UNL     1      -6.286   9.837  69.821  1.00  0.00    -0.048 C  
HETATM    7  C   UNL     1      -6.055   8.491  70.543  1.00  0.00    -0.032 C  
ENDROOT
BRANCH   5   8
HETATM    8  C   UNL     1      -8.160  10.406  68.261  1.00  0.00    -0.113 C  
HETATM    9  N   UNL     1      -8.104   9.515  67.308  1.00  0.00    -0.109 NA 
HETATM   10  C   UNL     1      -8.557   9.754  65.998  1.00  0.00    -0.135 A  
HETATM   11  H   UNL     1      -7.712   8.599  67.524  1.00  0.00     0.000 HD 
HETATM   12  C   UNL     1      -7.838   9.175  64.946  1.00  0.00    -0.117 A  
HETATM   13  C   UNL     1      -8.251   9.320  63.618  1.00  0.00    -0.166 A  
HETATM   14  C   UNL     1      -9.410  10.034  63.320  1.00  0.00    -0.296 A  
HETATM   15  C   UNL     1     -10.155  10.600  64.352  1.00  0.00    -0.418 A  
HETATM   16  C   UNL     1      -9.721  10.467  65.676  1.00  0.00    -0.234 A  
HETATM   17  O   UNL     1     -10.495  11.070  66.643  1.00  0.00    -0.238 OA 
HETATM   18  C   UNL     1      -9.818  12.058  67.313  1.00  0.00    -0.192 A  
HETATM   19  C   UNL     1      -8.661  11.802  68.047  1.00  0.00    -0.158 A  
HETATM   20  C   UNL     1      -7.971  12.865  68.645  1.00  0.00    -0.024 A  
HETATM   21  C   UNL     1      -8.486  14.156  68.568  1.00  0.00    -0.157 A  
HETATM   22  C   UNL     1      -9.672  14.403  67.878  1.00  0.00    -0.223 A  
HETATM   23 CL   UNL     1      -7.664  15.446  69.352  1.00  0.00    -0.219 Cl 
HETATM   24  C   UNL     1     -10.338  13.352  67.245  1.00  0.00    -0.244 A  
ENDBRANCH   5   8
TORSDOF 1
ENDMDL
MODEL      145
REMARK 921   NORMALIZED FREE ENERGY PREDICTED BY IDOCK:   -2.87 KCAL/MOL
REMARK 922        TOTAL FREE ENERGY PREDICTED BY IDOCK:   -3.43 KCAL/MOL
REMARK 923 INTER-LIGAND FREE ENERGY PREDICTED BY IDOCK:   -4.09 KCAL/MOL
REMARK 924 INTRA-LIGAND FREE ENERGY PREDICTED BY IDOCK:    0.65 KCAL/MOL
REMARK 927      BINDING AFFINITY PREDICTED BY RF-SCORE:    0.00 PKD
ROOT
HETATM    1  C   UNL     1     -13.336   9.978  71.071  1.00  0.00    -0.266 C  
HETATM    2  N   UNL     1     -12.192   9.602  71.897  1.00  0.00    -0.368 NA 
HETATM    3  C   UNL     1     -12.404   8.304  72.570  1.00  0.00    -0.276 C  
HETATM    4  C   UNL     1     -12.352   7.067  71.647  1.00  0.00    -0.368 C  
HETATM    5  N   UNL     1     -11.126   7.050  70.836  1.00  0.00    -0.256 NA 
HETATM    6  C   UNL     1     -10.824   8.317  70.155  1.00  0.00    -0.237 C  
HETATM    7  C   UNL     1     -10.938   9.525  71.111  1.00  0.00    -0.368 C  
ENDROOT
BRANCH   5   8
HETATM    8  C   UNL     1     -10.260   5.956  70.773  1.00  0.00    -0.211 C  
HETATM    9  N   UNL     1     -10.341   5.023  71.683  1.00  0.00    -0.206 NA 
HETATM   10  C   UNL     1      -9.531   3.874  71.688  1.00  0.00    -0.151 A  
HETATM   11  H   UNL     1     -11.029   5.133  72.429  1.00  0.00     0.000 HD 
HETATM   12  C   UNL     1      -9.117   3.377  72.928  1.00  0.00    -0.108 A  
HETATM   13  C   UNL     1      -8.352   2.209  73.024  1.00  0.00    -0.062 A  
HETATM   14  C   UNL     1      -8.006   1.504  71.873  1.00  0.00    -0.041 A  
HETATM   15  C   UNL     1      -8.427   1.967  70.629  1.00  0.00    -0.085 A  
HETATM   16  C   UNL     1      -9.173   3.148  70.542  1.00  0.00    -0.140 A  
HETATM   17  O   UNL     1      -9.537   3.557  69.279  1.00  0.00    -0.180 OA 
HETATM   18  C   UNL     1      -8.987   4.769  68.944  1.00  0.00    -0.108 A  
HETATM   19  C   UNL     1      -9.251   5.933  69.665  1.00  0.00    -0.151 A  
HETATM   20  C   UNL     1      -8.599   7.124  69.321  1.00  0.00    -0.137 A  
HETATM   21  C   UNL     1      -7.753   7.156  68.216  1.00  0.00    -0.120 A  
HETATM   22  C   UNL     1      -7.531   6.004  67.463  1.00  0.00    -0.082 A  
HETATM   23 CL   UNL     1      -7.000   8.635  67.767  1.00  0.00    -0.074 Cl 
HETATM   24  C   UNL     1      -8.147   4.806  67.830  1.00  0.00    -0.093 A  
ENDBRANCH   5   8
TORSDOF 1
ENDMDL
MODEL      146
REMARK 921   NORMALIZED FREE ENERGY PREDICTED BY IDOCK:   -2.83 KCAL/MOL
REMARK 922        TOTAL FREE ENERGY PREDICTED BY IDOCK:   -3.39 KCAL/MOL
REMARK 923 INTER-LIGAND FREE ENERGY PREDICTED BY IDOCK:   -3.42 KCAL/MOL
REMARK 924 INTRA-LIGAND FREE ENERGY PREDICTED BY IDOCK:    0.03 KCAL/MOL
REMARK 927      BINDING AFFINITY PREDICTED BY RF-SCORE:    0.00 PKD
ROOT
HETATM    1  C   UNL     1      -9.683   3.735  63.708  1.00  0.00    -0.160 C  
HETATM    2  N   UNL     1      -8.654   4.149  64.659  1.00  0.00    -0.116 NA 
HETATM    3  C   UNL     1      -8.785   5.574  65.022  1.00  0.00    -0.094 C  
HETATM    4  C   UNL     1      -9.990   5.917  65.925  1.00  0.00     0.203 C  
HETATM    5  N   UNL     1     -10.030   5.060  67.119  1.00  0.00    -0.181 NA 
HETATM    6  C   UNL     1      -9.876   3.623  66.848  1.00  0.00     0.068 C  
HETATM    7  C   UNL     1      -8.688   3.341  65.901  1.00  0.00    -0.127 C  
ENDROOT
BRANCH   5   8
HETATM    8  C   UNL     1     -10.122   5.556  68.421  1.00  0.00    -0.178 C  
HETATM    9  N   UNL     1     -10.864   6.605  68.654  1.00  0.00    -0.329 NA 
HETATM   10  C   UNL     1     -11.038   7.161  69.934  1.00  0.00    -0.235 A  
HETATM   11  H   UNL     1     -11.343   7.043  67.867  1.00  0.00     0.000 HD 
HETATM   12  C   UNL     1     -11.142   8.553  70.028  1.00  0.00    -0.152 A  
HETATM   13  C   UNL     1     -11.367   9.183  71.257  1.00  0.00    -0.406 A  
HETATM   14  C   UNL     1     -11.515   8.423  72.415  1.00  0.00    -0.451 A  
HETATM   15  C   UNL     1     -11.440   7.034  72.342  1.00  0.00    -0.300 A  
HETATM   16  C   UNL     1     -11.192   6.415  71.111  1.00  0.00    -0.302 A  
HETATM   17  O   UNL     1     -11.109   5.040  71.117  1.00  0.00     0.092 OA 
HETATM   18  C   UNL     1      -9.869   4.591  70.740  1.00  0.00    -0.210 A  
HETATM   19  C   UNL     1      -9.326   4.865  69.486  1.00  0.00    -0.190 A  
HETATM   20  C   UNL     1      -8.023   4.444  69.188  1.00  0.00    -0.068 A  
HETATM   21  C   UNL     1      -7.310   3.690  70.115  1.00  0.00    -0.041 A  
HETATM   22  C   UNL     1      -7.874   3.370  71.349  1.00  0.00    -0.056 A  
HETATM   23 CL   UNL     1      -5.733   3.129  69.720  1.00  0.00    -0.017 Cl 
HETATM   24  C   UNL     1      -9.155   3.825  71.664  1.00  0.00    -0.169 A  
ENDBRANCH   5   8
TORSDOF 1
ENDMDL
MODEL      147
REMARK 921   NORMALIZED FREE ENERGY PREDICTED BY IDOCK:   -2.83 KCAL/MOL
REMARK 922        TOTAL FREE ENERGY PREDICTED BY IDOCK:   -3.39 KCAL/MOL
REMARK 923 INTER-LIGAND FREE ENERGY PREDICTED BY IDOCK:   -3.94 KCAL/MOL
REMARK 924 INTRA-LIGAND FREE ENERGY PREDICTED BY IDOCK:    0.55 KCAL/MOL
REMARK 927      BINDING AFFINITY PREDICTED BY RF-SCORE:    0.00 PKD
ROOT
HETATM    1  C   UNL     1     -10.857  13.442  64.247  1.00  0.00    -0.363 C  
HETATM    2  N   UNL     1     -11.459  12.181  64.673  1.00  0.00    -0.327 NA 
HETATM    3  C   UNL     1     -10.618  11.022  64.311  1.00  0.00    -0.331 C  
HETATM    4  C   UNL     1      -9.319  10.869  65.132  1.00  0.00    -0.218 C  
HETATM    5  N   UNL     1      -9.588  10.899  66.578  1.00  0.00    -0.190 NA 
HETATM    6  C   UNL     1     -10.447  12.008  67.019  1.00  0.00    -0.221 C  
HETATM    7  C   UNL     1     -11.705  12.147  66.133  1.00  0.00    -0.315 C  
ENDROOT
BRANCH   5   8
HETATM    8  C   UNL     1      -9.144   9.916  67.464  1.00  0.00    -0.134 C  
HETATM    9  N   UNL     1      -8.843  10.250  68.690  1.00  0.00    -0.130 NA 
HETATM   10  C   UNL     1      -8.412   9.327  69.660  1.00  0.00    -0.140 A  
HETATM   11  H   UNL     1      -8.925  11.230  68.958  1.00  0.00     0.000 HD 
HETATM   12  C   UNL     1      -7.446   9.753  70.578  1.00  0.00    -0.119 A  
HETATM   13  C   UNL     1      -7.001   8.915  71.606  1.00  0.00    -0.058 A  
HETATM   14  C   UNL     1      -7.535   7.636  71.745  1.00  0.00    -0.081 A  
HETATM   15  C   UNL     1      -8.515   7.198  70.857  1.00  0.00    -0.133 A  
HETATM   16  C   UNL     1      -8.938   8.036  69.820  1.00  0.00    -0.145 A  
HETATM   17  O   UNL     1      -9.893   7.530  68.967  1.00  0.00    -0.164 OA 
HETATM   18  C   UNL     1      -9.436   7.417  67.678  1.00  0.00    -0.136 A  
HETATM   19  C   UNL     1      -9.007   8.519  66.940  1.00  0.00    -0.166 A  
HETATM   20  C   UNL     1      -8.478   8.329  65.657  1.00  0.00    -0.173 A  
HETATM   21  C   UNL     1      -8.457   7.054  65.098  1.00  0.00    -0.014 A  
HETATM   22  C   UNL     1      -8.937   5.960  65.816  1.00  0.00    -0.131 A  
HETATM   23 CL   UNL     1      -7.859   6.838  63.500  1.00  0.00    -0.122 Cl 
HETATM   24  C   UNL     1      -9.424   6.141  67.112  1.00  0.00    -0.128 A  
ENDBRANCH   5   8
TORSDOF 1
ENDMDL
MODEL      148
REMARK 921   NORMALIZED FREE ENERGY PREDICTED BY IDOCK:   -2.81 KCAL/MOL
REMARK 922        TOTAL FREE ENERGY PREDICTED BY IDOCK:   -3.37 KCAL/MOL
REMARK 923 INTER-LIGAND FREE ENERGY PREDICTED BY IDOCK:   -2.94 KCAL/MOL
REMARK 924 INTRA-LIGAND FREE ENERGY PREDICTED BY IDOCK:   -0.43 KCAL/MOL
REMARK 927      BINDING AFFINITY PREDICTED BY RF-SCORE:    0.00 PKD
ROOT
HETATM    1  C   UNL     1     -10.121  14.005  66.927  1.00  0.00    -0.259 C  
HETATM    2  N   UNL     1      -9.241  13.234  67.802  1.00  0.00    -0.199 NA 
HETATM    3  C   UNL     1      -9.985  12.209  68.562  1.00  0.00    -0.175 C  
HETATM    4  C   UNL     1     -10.484  11.007  67.731  1.00  0.00    -0.199 C  
HETATM    5  N   UNL     1      -9.395  10.402  66.949  1.00  0.00    -0.160 NA 
HETATM    6  C   UNL     1      -8.584  11.360  66.185  1.00  0.00    -0.128 C  
HETATM    7  C   UNL     1      -8.154  12.566  67.049  1.00  0.00    -0.105 C  
ENDROOT
BRANCH   5   8
HETATM    8  C   UNL     1      -9.088   9.040  66.983  1.00  0.00    -0.130 C  
HETATM    9  N   UNL     1      -9.878   8.192  66.381  1.00  0.00    -0.399 NA 
HETATM   10  C   UNL     1      -9.637   6.807  66.339  1.00  0.00    -0.095 A  
HETATM   11  H   UNL     1     -10.712   8.552  65.918  1.00  0.00     0.000 HD 
HETATM   12  C   UNL     1     -10.744   5.953  66.404  1.00  0.00    -0.157 A  
HETATM   13  C   UNL     1     -10.597   4.565  66.316  1.00  0.00    -0.022 A  
HETATM   14  C   UNL     1      -9.333   4.006  66.139  1.00  0.00    -0.174 A  
HETATM   15  C   UNL     1      -8.219   4.837  66.047  1.00  0.00    -0.111 A  
HETATM   16  C   UNL     1      -8.374   6.223  66.158  1.00  0.00    -0.130 A  
HETATM   17  O   UNL     1      -7.228   6.982  66.080  1.00  0.00    -0.071 OA 
HETATM   18  C   UNL     1      -6.980   7.675  67.238  1.00  0.00    -0.084 A  
HETATM   19  C   UNL     1      -7.868   8.622  67.745  1.00  0.00    -0.103 A  
HETATM   20  C   UNL     1      -7.595   9.240  68.973  1.00  0.00    -0.074 A  
HETATM   21  C   UNL     1      -6.405   8.961  69.639  1.00  0.00    -0.042 A  
HETATM   22  C   UNL     1      -5.492   8.054  69.104  1.00  0.00    -0.030 A  
HETATM   23 CL   UNL     1      -6.051   9.766  71.117  1.00  0.00    -0.067 Cl 
HETATM   24  C   UNL     1      -5.782   7.405  67.903  1.00  0.00    -0.030 A  
ENDBRANCH   5   8
TORSDOF 1
ENDMDL
MODEL      149
REMARK 921   NORMALIZED FREE ENERGY PREDICTED BY IDOCK:   -2.72 KCAL/MOL
REMARK 922        TOTAL FREE ENERGY PREDICTED BY IDOCK:   -3.27 KCAL/MOL
REMARK 923 INTER-LIGAND FREE ENERGY PREDICTED BY IDOCK:   -2.93 KCAL/MOL
REMARK 924 INTRA-LIGAND FREE ENERGY PREDICTED BY IDOCK:   -0.34 KCAL/MOL
REMARK 927      BINDING AFFINITY PREDICTED BY RF-SCORE:    0.00 PKD
ROOT
HETATM    1  C   UNL     1      -6.441   8.236  71.942  1.00  0.00    -0.061 C  
HETATM    2  N   UNL     1      -6.777   9.411  71.141  1.00  0.00    -0.229 NA 
HETATM    3  C   UNL     1      -5.815   9.618  70.040  1.00  0.00    -0.042 C  
HETATM    4  C   UNL     1      -5.908   8.600  68.883  1.00  0.00    -0.040 C  
HETATM    5  N   UNL     1      -7.283   8.489  68.372  1.00  0.00    -0.084 NA 
HETATM    6  C   UNL     1      -8.310   8.310  69.410  1.00  0.00    -0.122 C  
HETATM    7  C   UNL     1      -8.139   9.321  70.565  1.00  0.00    -0.174 C  
ENDROOT
BRANCH   5   8
HETATM    8  C   UNL     1      -7.616   8.623  67.023  1.00  0.00    -0.084 C  
HETATM    9  N   UNL     1      -8.054   9.773  66.585  1.00  0.00    -0.116 NA 
HETATM   10  C   UNL     1      -8.390  10.011  65.240  1.00  0.00    -0.154 A  
HETATM   11  H   UNL     1      -8.157  10.538  67.252  1.00  0.00     0.000 HD 
HETATM   12  C   UNL     1      -9.475  10.855  64.982  1.00  0.00    -0.274 A  
HETATM   13  C   UNL     1      -9.844  11.185  63.673  1.00  0.00    -0.387 A  
HETATM   14  C   UNL     1      -9.113  10.689  62.595  1.00  0.00    -0.321 A  
HETATM   15  C   UNL     1      -8.014   9.866  62.829  1.00  0.00    -0.134 A  
HETATM   16  C   UNL     1      -7.667   9.524  64.141  1.00  0.00    -0.124 A  
HETATM   17  O   UNL     1      -6.583   8.689  64.296  1.00  0.00    -0.071 OA 
HETATM   18  C   UNL     1      -6.923   7.493  64.875  1.00  0.00    -0.055 A  
HETATM   19  C   UNL     1      -7.480   7.413  66.150  1.00  0.00    -0.083 A  
HETATM   20  C   UNL     1      -7.878   6.169  66.655  1.00  0.00    -0.104 A  
HETATM   21  C   UNL     1      -7.646   5.014  65.914  1.00  0.00    -0.090 A  
HETATM   22  C   UNL     1      -7.040   5.088  64.661  1.00  0.00    -0.054 A  
HETATM   23 CL   UNL     1      -8.086   3.484  66.565  1.00  0.00    -0.091 Cl 
HETATM   24  C   UNL     1      -6.681   6.332  64.137  1.00  0.00    -0.038 A  
ENDBRANCH   5   8
TORSDOF 1
ENDMDL
MODEL      150
REMARK 921   NORMALIZED FREE ENERGY PREDICTED BY IDOCK:   -2.70 KCAL/MOL
REMARK 922        TOTAL FREE ENERGY PREDICTED BY IDOCK:   -3.26 KCAL/MOL
REMARK 923 INTER-LIGAND FREE ENERGY PREDICTED BY IDOCK:   -2.93 KCAL/MOL
REMARK 924 INTRA-LIGAND FREE ENERGY PREDICTED BY IDOCK:   -0.33 KCAL/MOL
REMARK 927      BINDING AFFINITY PREDICTED BY RF-SCORE:    0.00 PKD
ROOT
HETATM    1  C   UNL     1      -6.939   7.878  63.798  1.00  0.00    -0.071 C  
HETATM    2  N   UNL     1      -6.388   6.786  64.596  1.00  0.00    -0.038 NA 
HETATM    3  C   UNL     1      -5.974   7.243  65.938  1.00  0.00    -0.037 C  
HETATM    4  C   UNL     1      -7.129   7.584  66.904  1.00  0.00    -0.084 C  
HETATM    5  N   UNL     1      -8.100   6.483  66.994  1.00  0.00    -0.112 NA 
HETATM    6  C   UNL     1      -8.543   5.948  65.699  1.00  0.00    -0.155 C  
HETATM    7  C   UNL     1      -7.352   5.671  64.755  1.00  0.00    -0.068 C  
ENDROOT
BRANCH   5   8
HETATM    8  C   UNL     1      -8.516   5.921  68.203  1.00  0.00    -0.114 C  
HETATM    9  N   UNL     1      -8.370   4.637  68.394  1.00  0.00    -0.090 NA 
HETATM   10  C   UNL     1      -8.735   3.986  69.586  1.00  0.00    -0.079 A  
HETATM   11  H   UNL     1      -7.970   4.078  67.640  1.00  0.00     0.000 HD 
HETATM   12  C   UNL     1      -9.267   2.696  69.485  1.00  0.00    -0.197 A  
HETATM   13  C   UNL     1      -9.607   1.959  70.624  1.00  0.00    -0.141 A  
HETATM   14  C   UNL     1      -9.399   2.497  71.892  1.00  0.00    -0.175 A  
HETATM   15  C   UNL     1      -8.849   3.771  72.019  1.00  0.00    -0.131 A  
HETATM   16  C   UNL     1      -8.532   4.508  70.872  1.00  0.00    -0.089 A  
HETATM   17  O   UNL     1      -8.011   5.767  71.072  1.00  0.00    -0.110 OA 
HETATM   18  C   UNL     1      -8.821   6.753  70.567  1.00  0.00    -0.151 A  
HETATM   19  C   UNL     1      -9.144   6.832  69.213  1.00  0.00    -0.139 A  
HETATM   20  C   UNL     1     -10.037   7.816  68.771  1.00  0.00    -0.205 A  
HETATM   21  C   UNL     1     -10.536   8.754  69.670  1.00  0.00    -0.219 A  
HETATM   22  C   UNL     1     -10.170   8.707  71.014  1.00  0.00    -0.278 A  
HETATM   23 CL   UNL     1     -11.588   9.993  69.108  1.00  0.00    -0.088 Cl 
HETATM   24  C   UNL     1      -9.314   7.702  71.465  1.00  0.00    -0.157 A  
ENDBRANCH   5   8
TORSDOF 1
ENDMDL
MODEL      151
REMARK 921   NORMALIZED FREE ENERGY PREDICTED BY IDOCK:   -2.54 KCAL/MOL
REMARK 922        TOTAL FREE ENERGY PREDICTED BY IDOCK:   -3.08 KCAL/MOL
REMARK 923 INTER-LIGAND FREE ENERGY PREDICTED BY IDOCK:   -3.65 KCAL/MOL
REMARK 924 INTRA-LIGAND FREE ENERGY PREDICTED BY IDOCK:    0.57 KCAL/MOL
REMARK 927      BINDING AFFINITY PREDICTED BY RF-SCORE:    0.00 PKD
ROOT
HETATM    1  C   UNL     1     -11.939  12.597  69.649  1.00  0.00    -0.286 C  
HETATM    2  N   UNL     1     -12.369  11.347  69.027  1.00  0.00    -0.386 NA 
HETATM    3  C   UNL     1     -11.520  10.988  67.873  1.00  0.00    -0.282 C  
HETATM    4  C   UNL     1     -10.094  10.512  68.227  1.00  0.00    -0.160 C  
HETATM    5  N   UNL     1     -10.118   9.432  69.224  1.00  0.00    -0.188 NA 
HETATM    6  C   UNL     1     -10.967   9.697  70.395  1.00  0.00    -0.299 C  
HETATM    7  C   UNL     1     -12.363  10.217  69.986  1.00  0.00    -0.009 C  
ENDROOT
BRANCH   5   8
HETATM    8  C   UNL     1      -9.462   8.211  69.053  1.00  0.00    -0.155 C  
HETATM    9  N   UNL     1      -8.740   8.019  67.982  1.00  0.00    -0.125 NA 
HETATM   10  C   UNL     1      -8.024   6.834  67.734  1.00  0.00    -0.113 A  
HETATM   11  H   UNL     1      -8.695   8.766  67.289  1.00  0.00     0.000 HD 
HETATM   12  C   UNL     1      -7.948   6.385  66.411  1.00  0.00    -0.110 A  
HETATM   13  C   UNL     1      -7.212   5.245  66.072  1.00  0.00    -0.073 A  
HETATM   14  C   UNL     1      -6.517   4.544  67.055  1.00  0.00    -0.042 A  
HETATM   15  C   UNL     1      -6.558   4.985  68.375  1.00  0.00    -0.045 A  
HETATM   16  C   UNL     1      -7.315   6.114  68.708  1.00  0.00    -0.086 A  
HETATM   17  O   UNL     1      -7.328   6.481  70.035  1.00  0.00    -0.084 OA 
HETATM   18  C   UNL     1      -8.583   6.407  70.585  1.00  0.00    -0.139 A  
HETATM   19  C   UNL     1      -9.651   7.167  70.110  1.00  0.00    -0.168 A  
HETATM   20  C   UNL     1     -10.926   6.990  70.663  1.00  0.00    -0.292 A  
HETATM   21  C   UNL     1     -11.102   6.117  71.733  1.00  0.00    -0.274 A  
HETATM   22  C   UNL     1     -10.023   5.398  72.243  1.00  0.00    -0.219 A  
HETATM   23 CL   UNL     1     -12.660   5.948  72.443  1.00  0.00     0.025 Cl 
HETATM   24  C   UNL     1      -8.760   5.540  71.665  1.00  0.00    -0.137 A  
ENDBRANCH   5   8
TORSDOF 1
ENDMDL
MODEL      152
REMARK 921   NORMALIZED FREE ENERGY PREDICTED BY IDOCK:   -2.44 KCAL/MOL
REMARK 922        TOTAL FREE ENERGY PREDICTED BY IDOCK:   -2.97 KCAL/MOL
REMARK 923 INTER-LIGAND FREE ENERGY PREDICTED BY IDOCK:   -3.05 KCAL/MOL
REMARK 924 INTRA-LIGAND FREE ENERGY PREDICTED BY IDOCK:    0.08 KCAL/MOL
REMARK 927      BINDING AFFINITY PREDICTED BY RF-SCORE:    0.00 PKD
ROOT
HETATM    1  C   UNL     1      -5.812   2.296  68.691  1.00  0.00    -0.023 C  
HETATM    2  N   UNL     1      -6.965   2.867  69.383  1.00  0.00    -0.040 NA 
HETATM    3  C   UNL     1      -6.626   4.138  70.054  1.00  0.00    -0.033 C  
HETATM    4  C   UNL     1      -6.391   5.339  69.112  1.00  0.00    -0.034 C  
HETATM    5  N   UNL     1      -7.509   5.516  68.174  1.00  0.00    -0.073 NA 
HETATM    6  C   UNL     1      -7.930   4.288  67.483  1.00  0.00    -0.092 C  
HETATM    7  C   UNL     1      -8.103   3.108  68.465  1.00  0.00    -0.060 C  
ENDROOT
BRANCH   5   8
HETATM    8  C   UNL     1      -8.185   6.725  68.000  1.00  0.00    -0.114 C  
HETATM    9  N   UNL     1      -8.024   7.393  66.890  1.00  0.00    -0.113 NA 
HETATM   10  C   UNL     1      -8.682   8.606  66.615  1.00  0.00    -0.123 A  
HETATM   11  H   UNL     1      -7.390   7.016  66.186  1.00  0.00     0.000 HD 
HETATM   12  C   UNL     1      -7.976   9.579  65.898  1.00  0.00    -0.111 A  
HETATM   13  C   UNL     1      -8.573  10.792  65.539  1.00  0.00    -0.181 A  
HETATM   14  C   UNL     1      -9.902  11.042  65.874  1.00  0.00    -0.278 A  
HETATM   15  C   UNL     1     -10.632  10.079  66.565  1.00  0.00    -0.165 A  
HETATM   16  C   UNL     1     -10.019   8.878  66.940  1.00  0.00    -0.247 A  
HETATM   17  O   UNL     1     -10.794   7.981  67.640  1.00  0.00    -0.170 OA 
HETATM   18  C   UNL     1     -10.310   7.747  68.903  1.00  0.00    -0.213 A  
HETATM   19  C   UNL     1      -9.044   7.208  69.129  1.00  0.00    -0.137 A  
HETATM   20  C   UNL     1      -8.576   7.066  70.442  1.00  0.00    -0.142 A  
HETATM   21  C   UNL     1      -9.406   7.390  71.512  1.00  0.00    -0.144 A  
HETATM   22  C   UNL     1     -10.692   7.878  71.286  1.00  0.00    -0.257 A  
HETATM   23 CL   UNL     1      -8.845   7.158  73.121  1.00  0.00    -0.150 Cl 
HETATM   24  C   UNL     1     -11.144   8.061  69.978  1.00  0.00    -0.154 A  
ENDBRANCH   5   8
TORSDOF 1
ENDMDL
MODEL      153
REMARK 921   NORMALIZED FREE ENERGY PREDICTED BY IDOCK:   -2.42 KCAL/MOL
REMARK 922        TOTAL FREE ENERGY PREDICTED BY IDOCK:   -2.96 KCAL/MOL
REMARK 923 INTER-LIGAND FREE ENERGY PREDICTED BY IDOCK:   -3.32 KCAL/MOL
REMARK 924 INTRA-LIGAND FREE ENERGY PREDICTED BY IDOCK:    0.36 KCAL/MOL
REMARK 927      BINDING AFFINITY PREDICTED BY RF-SCORE:    0.00 PKD
ROOT
HETATM    1  C   UNL     1      -5.842  11.432  66.511  1.00  0.00    -0.138 C  
HETATM    2  N   UNL     1      -7.259  11.450  66.868  1.00  0.00    -0.139 NA 
HETATM    3  C   UNL     1      -7.976  10.280  66.323  1.00  0.00    -0.124 C  
HETATM    4  C   UNL     1      -7.653   8.933  67.005  1.00  0.00    -0.094 C  
HETATM    5  N   UNL     1      -7.807   9.017  68.466  1.00  0.00    -0.101 NA 
HETATM    6  C   UNL     1      -7.146  10.174  69.086  1.00  0.00    -0.073 C  
HETATM    7  C   UNL     1      -7.463  11.486  68.335  1.00  0.00    -0.109 C  
ENDROOT
BRANCH   5   8
HETATM    8  C   UNL     1      -8.583   8.127  69.211  1.00  0.00    -0.135 C  
HETATM    9  N   UNL     1      -8.789   8.365  70.478  1.00  0.00    -0.142 NA 
HETATM   10  C   UNL     1      -9.577   7.541  71.302  1.00  0.00    -0.156 A  
HETATM   11  H   UNL     1      -8.356   9.191  70.892  1.00  0.00     0.000 HD 
HETATM   12  C   UNL     1      -9.170   7.372  72.630  1.00  0.00    -0.185 A  
HETATM   13  C   UNL     1      -9.924   6.611  73.529  1.00  0.00    -0.251 A  
HETATM   14  C   UNL     1     -11.118   6.022  73.117  1.00  0.00    -0.236 A  
HETATM   15  C   UNL     1     -11.555   6.197  71.806  1.00  0.00    -0.333 A  
HETATM   16  C   UNL     1     -10.782   6.942  70.908  1.00  0.00    -0.230 A  
HETATM   17  O   UNL     1     -11.265   7.055  69.624  1.00  0.00    -0.243 OA 
HETATM   18  C   UNL     1     -10.429   6.482  68.699  1.00  0.00    -0.218 A  
HETATM   19  C   UNL     1      -9.118   6.916  68.509  1.00  0.00    -0.127 A  
HETATM   20  C   UNL     1      -8.289   6.240  67.604  1.00  0.00    -0.117 A  
HETATM   21  C   UNL     1      -8.801   5.190  66.847  1.00  0.00    -0.110 A  
HETATM   22  C   UNL     1     -10.128   4.791  66.999  1.00  0.00    -0.228 A  
HETATM   23 CL   UNL     1      -7.793   4.402  65.698  1.00  0.00    -0.093 Cl 
HETATM   24  C   UNL     1     -10.943   5.436  67.930  1.00  0.00     0.266 A  
ENDBRANCH   5   8
TORSDOF 1
ENDMDL
MODEL      154
REMARK 921   NORMALIZED FREE ENERGY PREDICTED BY IDOCK:   -2.42 KCAL/MOL
REMARK 922        TOTAL FREE ENERGY PREDICTED BY IDOCK:   -2.95 KCAL/MOL
REMARK 923 INTER-LIGAND FREE ENERGY PREDICTED BY IDOCK:   -2.53 KCAL/MOL
REMARK 924 INTRA-LIGAND FREE ENERGY PREDICTED BY IDOCK:   -0.42 KCAL/MOL
REMARK 927      BINDING AFFINITY PREDICTED BY RF-SCORE:    0.00 PKD
ROOT
HETATM    1  C   UNL     1      -9.054   8.331  72.669  1.00  0.00    -0.257 C  
HETATM    2  N   UNL     1      -8.675   6.926  72.541  1.00  0.00    -0.125 NA 
HETATM    3  C   UNL     1      -9.781   6.106  72.005  1.00  0.00    -0.151 C  
HETATM    4  C   UNL     1     -10.100   6.326  70.510  1.00  0.00    -0.189 C  
HETATM    5  N   UNL     1      -8.894   6.201  69.677  1.00  0.00    -0.134 NA 
HETATM    6  C   UNL     1      -7.734   6.965  70.159  1.00  0.00    -0.101 C  
HETATM    7  C   UNL     1      -7.490   6.746  71.669  1.00  0.00    -0.087 C  
ENDROOT
BRANCH   5   8
HETATM    8  C   UNL     1      -8.812   5.364  68.562  1.00  0.00    -0.100 C  
HETATM    9  N   UNL     1      -9.507   5.653  67.495  1.00  0.00    -0.112 NA 
HETATM   10  C   UNL     1      -9.470   4.885  66.317  1.00  0.00    -0.158 A  
HETATM   11  H   UNL     1     -10.107   6.477  67.516  1.00  0.00     0.000 HD 
HETATM   12  C   UNL     1     -10.659   4.748  65.593  1.00  0.00    -0.220 A  
HETATM   13  C   UNL     1     -10.697   4.044  64.385  1.00  0.00    -0.191 A  
HETATM   14  C   UNL     1      -9.533   3.482  63.866  1.00  0.00    -0.135 A  
HETATM   15  C   UNL     1      -8.332   3.627  64.557  1.00  0.00    -0.093 A  
HETATM   16  C   UNL     1      -8.308   4.314  65.776  1.00  0.00    -0.109 A  
HETATM   17  O   UNL     1      -7.091   4.399  66.414  1.00  0.00    -0.067 OA 
HETATM   18  C   UNL     1      -7.094   3.766  67.631  1.00  0.00    -0.055 A  
HETATM   19  C   UNL     1      -7.943   4.149  68.669  1.00  0.00    -0.072 A  
HETATM   20  C   UNL     1      -7.954   3.414  69.862  1.00  0.00    -0.053 A  
HETATM   21  C   UNL     1      -7.064   2.357  70.032  1.00  0.00    -0.033 A  
HETATM   22  C   UNL     1      -6.178   2.009  69.014  1.00  0.00    -0.025 A  
HETATM   23 CL   UNL     1      -7.045   1.496  71.521  1.00  0.00    -0.030 Cl 
HETATM   24  C   UNL     1      -6.195   2.712  67.809  1.00  0.00    -0.031 A  
ENDBRANCH   5   8
TORSDOF 1
ENDMDL
MODEL      155
REMARK 921   NORMALIZED FREE ENERGY PREDICTED BY IDOCK:   -2.41 KCAL/MOL
REMARK 922        TOTAL FREE ENERGY PREDICTED BY IDOCK:   -2.94 KCAL/MOL
REMARK 923 INTER-LIGAND FREE ENERGY PREDICTED BY IDOCK:   -2.52 KCAL/MOL
REMARK 924 INTRA-LIGAND FREE ENERGY PREDICTED BY IDOCK:   -0.43 KCAL/MOL
REMARK 927      BINDING AFFINITY PREDICTED BY RF-SCORE:    0.00 PKD
ROOT
HETATM    1  C   UNL     1      -8.537  10.981  62.843  1.00  0.00    -0.134 C  
HETATM    2  N   UNL     1      -8.841   9.630  63.309  1.00  0.00    -0.234 NA 
HETATM    3  C   UNL     1      -7.702   9.033  64.036  1.00  0.00    -0.125 C  
HETATM    4  C   UNL     1      -7.425   9.630  65.433  1.00  0.00    -0.111 C  
HETATM    5  N   UNL     1      -8.638   9.642  66.264  1.00  0.00    -0.126 NA 
HETATM    6  C   UNL     1      -9.829  10.195  65.604  1.00  0.00    -0.280 C  
HETATM    7  C   UNL     1     -10.031   9.601  64.192  1.00  0.00     0.821 C  
ENDROOT
BRANCH   5   8
HETATM    8  C   UNL     1      -8.695   9.099  67.550  1.00  0.00    -0.119 C  
HETATM    9  N   UNL     1      -8.124   9.735  68.537  1.00  0.00    -0.103 NA 
HETATM   10  C   UNL     1      -8.150   9.281  69.868  1.00  0.00    -0.124 A  
HETATM   11  H   UNL     1      -7.633  10.605  68.333  1.00  0.00     0.000 HD 
HETATM   12  C   UNL     1      -7.009   9.494  70.650  1.00  0.00    -0.121 A  
HETATM   13  C   UNL     1      -6.972   9.119  71.997  1.00  0.00     0.210 A  
HETATM   14  C   UNL     1      -8.091   8.542  72.593  1.00  0.00    -0.113 A  
HETATM   15  C   UNL     1      -9.247   8.342  71.841  1.00  0.00    -0.306 A  
HETATM   16  C   UNL     1      -9.266   8.700  70.489  1.00  0.00    -0.175 A  
HETATM   17  O   UNL     1     -10.434   8.454  69.802  1.00  0.00    -0.214 OA 
HETATM   18  C   UNL     1     -10.261   7.550  68.784  1.00  0.00    -0.197 A  
HETATM   19  C   UNL     1      -9.393   7.784  67.718  1.00  0.00    -0.155 A  
HETATM   20  C   UNL     1      -9.201   6.790  66.750  1.00  0.00    -0.172 A  
HETATM   21  C   UNL     1      -9.934   5.609  66.816  1.00  0.00    -0.178 A  
HETATM   22  C   UNL     1     -10.842   5.397  67.853  1.00  0.00     0.042 A  
HETATM   23 CL   UNL     1      -9.734   4.417  65.593  1.00  0.00    -0.192 Cl 
HETATM   24  C   UNL     1     -11.003   6.369  68.842  1.00  0.00    -0.412 A  
ENDBRANCH   5   8
TORSDOF 1
ENDMDL
MODEL      156
REMARK 921   NORMALIZED FREE ENERGY PREDICTED BY IDOCK:   -2.30 KCAL/MOL
REMARK 922        TOTAL FREE ENERGY PREDICTED BY IDOCK:   -2.83 KCAL/MOL
REMARK 923 INTER-LIGAND FREE ENERGY PREDICTED BY IDOCK:   -2.43 KCAL/MOL
REMARK 924 INTRA-LIGAND FREE ENERGY PREDICTED BY IDOCK:   -0.40 KCAL/MOL
REMARK 927      BINDING AFFINITY PREDICTED BY RF-SCORE:    0.00 PKD
ROOT
HETATM    1  C   UNL     1      -6.533   8.655  73.485  1.00  0.00    -0.041 C  
HETATM    2  N   UNL     1      -6.224   7.574  72.554  1.00  0.00    -0.046 NA 
HETATM    3  C   UNL     1      -7.440   7.052  71.897  1.00  0.00    -0.087 C  
HETATM    4  C   UNL     1      -8.079   7.991  70.851  1.00  0.00    -0.102 C  
HETATM    5  N   UNL     1      -7.093   8.443  69.858  1.00  0.00    -0.050 NA 
HETATM    6  C   UNL     1      -5.837   8.951  70.430  1.00  0.00    -0.030 C  
HETATM    7  C   UNL     1      -5.268   7.999  71.504  1.00  0.00    -0.034 C  
ENDROOT
BRANCH   5   8
HETATM    8  C   UNL     1      -7.281   8.330  68.479  1.00  0.00    -0.088 C  
HETATM    9  N   UNL     1      -6.528   7.509  67.798  1.00  0.00    -0.052 NA 
HETATM   10  C   UNL     1      -6.660   7.308  66.412  1.00  0.00    -0.053 A  
HETATM   11  H   UNL     1      -5.808   6.985  68.296  1.00  0.00     0.000 HD 
HETATM   12  C   UNL     1      -5.492   7.094  65.673  1.00  0.00    -0.028 A  
HETATM   13  C   UNL     1      -5.538   6.835  64.299  1.00  0.00    -0.031 A  
HETATM   14  C   UNL     1      -6.766   6.765  63.642  1.00  0.00    -0.045 A  
HETATM   15  C   UNL     1      -7.943   6.951  64.362  1.00  0.00    -0.093 A  
HETATM   16  C   UNL     1      -7.885   7.231  65.732  1.00  0.00    -0.108 A  
HETATM   17  O   UNL     1      -9.087   7.425  66.375  1.00  0.00    -0.152 OA 
HETATM   18  C   UNL     1      -9.206   8.692  66.888  1.00  0.00    -0.159 A  
HETATM   19  C   UNL     1      -8.330   9.194  67.848  1.00  0.00    -0.117 A  
HETATM   20  C   UNL     1      -8.457  10.522  68.276  1.00  0.00    -0.123 A  
HETATM   21  C   UNL     1      -9.502  11.306  67.797  1.00  0.00    -0.170 A  
HETATM   22  C   UNL     1     -10.412  10.787  66.877  1.00  0.00    -0.304 A  
HETATM   23 CL   UNL     1      -9.685  12.918  68.369  1.00  0.00    -0.214 Cl 
HETATM   24  C   UNL     1     -10.261   9.477  66.417  1.00  0.00    -0.302 A  
ENDBRANCH   5   8
TORSDOF 1
ENDMDL
MODEL      157
REMARK 921   NORMALIZED FREE ENERGY PREDICTED BY IDOCK:   -2.27 KCAL/MOL
REMARK 922        TOTAL FREE ENERGY PREDICTED BY IDOCK:   -2.80 KCAL/MOL
REMARK 923 INTER-LIGAND FREE ENERGY PREDICTED BY IDOCK:   -2.39 KCAL/MOL
REMARK 924 INTRA-LIGAND FREE ENERGY PREDICTED BY IDOCK:   -0.40 KCAL/MOL
REMARK 927      BINDING AFFINITY PREDICTED BY RF-SCORE:    0.00 PKD
ROOT
HETATM    1  C   UNL     1      -6.945   2.216  68.449  1.00  0.00    -0.040 C  
HETATM    2  N   UNL     1      -6.475   3.043  67.340  1.00  0.00    -0.036 NA 
HETATM    3  C   UNL     1      -7.591   3.505  66.490  1.00  0.00    -0.077 C  
HETATM    4  C   UNL     1      -8.500   4.582  67.122  1.00  0.00    -0.104 C  
HETATM    5  N   UNL     1      -7.716   5.717  67.634  1.00  0.00    -0.096 NA 
HETATM    6  C   UNL     1      -6.565   5.341  68.468  1.00  0.00    -0.045 C  
HETATM    7  C   UNL     1      -5.720   4.228  67.811  1.00  0.00    -0.022 C  
ENDROOT
BRANCH   5   8
HETATM    8  C   UNL     1      -7.978   7.046  67.297  1.00  0.00    -0.111 C  
HETATM    9  N   UNL     1      -8.960   7.673  67.887  1.00  0.00    -0.129 NA 
HETATM   10  C   UNL     1      -9.283   9.018  67.633  1.00  0.00    -0.136 A  
HETATM   11  H   UNL     1      -9.522   7.161  68.567  1.00  0.00     0.000 HD 
HETATM   12  C   UNL     1     -10.636   9.375  67.645  1.00  0.00    -0.333 A  
HETATM   13  C   UNL     1     -11.039  10.700  67.453  1.00  0.00    -0.341 A  
HETATM   14  C   UNL     1     -10.087  11.700  67.267  1.00  0.00    -0.221 A  
HETATM   15  C   UNL     1      -8.734  11.373  67.275  1.00  0.00    -0.148 A  
HETATM   16  C   UNL     1      -8.341  10.041  67.446  1.00  0.00    -0.118 A  
HETATM   17  O   UNL     1      -6.988   9.788  67.422  1.00  0.00    -0.082 OA 
HETATM   18  C   UNL     1      -6.628   8.972  66.379  1.00  0.00    -0.067 A  
HETATM   19  C   UNL     1      -7.123   7.676  66.240  1.00  0.00    -0.070 A  
HETATM   20  C   UNL     1      -6.779   6.920  65.112  1.00  0.00    -0.050 A  
HETATM   21  C   UNL     1      -5.885   7.437  64.179  1.00  0.00    -0.037 A  
HETATM   22  C   UNL     1      -5.347   8.712  64.346  1.00  0.00    -0.051 A  
HETATM   23 CL   UNL     1      -5.423   6.481  62.826  1.00  0.00    -0.023 Cl 
HETATM   24  C   UNL     1      -5.723   9.484  65.447  1.00  0.00    -0.058 A  
ENDBRANCH   5   8
TORSDOF 1
ENDMDL
MODEL      158
REMARK 921   NORMALIZED FREE ENERGY PREDICTED BY IDOCK:   -2.18 KCAL/MOL
REMARK 922        TOTAL FREE ENERGY PREDICTED BY IDOCK:   -2.70 KCAL/MOL
REMARK 923 INTER-LIGAND FREE ENERGY PREDICTED BY IDOCK:   -2.44 KCAL/MOL
REMARK 924 INTRA-LIGAND FREE ENERGY PREDICTED BY IDOCK:   -0.26 KCAL/MOL
REMARK 927      BINDING AFFINITY PREDICTED BY RF-SCORE:    0.00 PKD
ROOT
HETATM    1  C   UNL     1      -8.763  12.245  67.945  1.00  0.00    -0.177 C  
HETATM    2  N   UNL     1      -9.396  11.010  68.401  1.00  0.00    -0.172 NA 
HETATM    3  C   UNL     1     -10.239  10.406  67.349  1.00  0.00    -0.214 C  
HETATM    4  C   UNL     1      -9.468   9.769  66.172  1.00  0.00    -0.205 C  
HETATM    5  N   UNL     1      -8.448   8.821  66.645  1.00  0.00    -0.107 NA 
HETATM    6  C   UNL     1      -7.584   9.335  67.717  1.00  0.00    -0.084 C  
HETATM    7  C   UNL     1      -8.402  10.004  68.843  1.00  0.00    -0.130 C  
ENDROOT
BRANCH   5   8
HETATM    8  C   UNL     1      -8.347   7.506  66.185  1.00  0.00    -0.138 C  
HETATM    9  N   UNL     1      -8.272   7.283  64.901  1.00  0.00    -0.254 NA 
HETATM   10  C   UNL     1      -8.142   5.997  64.345  1.00  0.00    -0.119 A  
HETATM   11  H   UNL     1      -8.309   8.082  64.267  1.00  0.00     0.000 HD 
HETATM   12  C   UNL     1      -8.801   5.742  63.137  1.00  0.00     0.339 A  
HETATM   13  C   UNL     1      -8.682   4.506  62.492  1.00  0.00    -0.113 A  
HETATM   14  C   UNL     1      -7.878   3.507  63.038  1.00  0.00    -0.071 A  
HETATM   15  C   UNL     1      -7.194   3.747  64.228  1.00  0.00    -0.058 A  
HETATM   16  C   UNL     1      -7.337   4.978  64.876  1.00  0.00    -0.067 A  
HETATM   17  O   UNL     1      -6.649   5.137  66.059  1.00  0.00    -0.046 OA 
HETATM   18  C   UNL     1      -7.486   5.329  67.129  1.00  0.00    -0.084 A  
HETATM   19  C   UNL     1      -8.362   6.410  67.207  1.00  0.00    -0.112 A  
HETATM   20  C   UNL     1      -9.247   6.508  68.288  1.00  0.00    -0.116 A  
HETATM   21  C   UNL     1      -9.193   5.570  69.315  1.00  0.00    -0.113 A  
HETATM   22  C   UNL     1      -8.279   4.518  69.263  1.00  0.00    -0.071 A  
HETATM   23 CL   UNL     1     -10.244   5.729  70.667  1.00  0.00    -0.263 Cl 
HETATM   24  C   UNL     1      -7.426   4.394  68.165  1.00  0.00    -0.065 A  
ENDBRANCH   5   8
TORSDOF 1
ENDMDL
MODEL      159
REMARK 921   NORMALIZED FREE ENERGY PREDICTED BY IDOCK:   -2.17 KCAL/MOL
REMARK 922        TOTAL FREE ENERGY PREDICTED BY IDOCK:   -2.69 KCAL/MOL
REMARK 923 INTER-LIGAND FREE ENERGY PREDICTED BY IDOCK:   -2.54 KCAL/MOL
REMARK 924 INTRA-LIGAND FREE ENERGY PREDICTED BY IDOCK:   -0.15 KCAL/MOL
REMARK 927      BINDING AFFINITY PREDICTED BY RF-SCORE:    0.00 PKD
ROOT
HETATM    1  C   UNL     1     -10.284   4.270  64.837  1.00  0.00    -0.175 C  
HETATM    2  N   UNL     1      -9.762   4.146  66.195  1.00  0.00    -0.199 NA 
HETATM    3  C   UNL     1      -8.334   4.519  66.269  1.00  0.00    -0.110 C  
HETATM    4  C   UNL     1      -8.039   6.027  66.118  1.00  0.00    -0.110 C  
HETATM    5  N   UNL     1      -8.846   6.831  67.048  1.00  0.00    -0.113 NA 
HETATM    6  C   UNL     1     -10.279   6.501  67.058  1.00  0.00    -0.215 C  
HETATM    7  C   UNL     1     -10.517   4.978  67.161  1.00  0.00    -0.117 C  
ENDROOT
BRANCH   5   8
HETATM    8  C   UNL     1      -8.303   7.777  67.919  1.00  0.00    -0.123 C  
HETATM    9  N   UNL     1      -7.775   7.380  69.045  1.00  0.00    -0.115 NA 
HETATM   10  C   UNL     1      -7.183   8.255  69.974  1.00  0.00    -0.059 A  
HETATM   11  H   UNL     1      -7.794   6.383  69.263  1.00  0.00     0.000 HD 
HETATM   12  C   UNL     1      -7.347   7.968  71.333  1.00  0.00    -0.070 A  
HETATM   13  C   UNL     1      -6.747   8.758  72.320  1.00  0.00    -0.023 A  
HETATM   14  C   UNL     1      -5.950   9.842  71.958  1.00  0.00     0.257 A  
HETATM   15  C   UNL     1      -5.753  10.133  70.610  1.00  0.00    -0.089 A  
HETATM   16  C   UNL     1      -6.375   9.349  69.631  1.00  0.00    -0.040 A  
HETATM   17  O   UNL     1      -6.153   9.708  68.320  1.00  0.00    -0.050 OA 
HETATM   18  C   UNL     1      -7.307  10.084  67.680  1.00  0.00    -0.089 A  
HETATM   19  C   UNL     1      -8.388   9.219  67.519  1.00  0.00    -0.119 A  
HETATM   20  C   UNL     1      -9.567   9.686  66.924  1.00  0.00    -0.217 A  
HETATM   21  C   UNL     1      -9.625  10.986  66.430  1.00  0.00    -0.198 A  
HETATM   22  C   UNL     1      -8.525  11.835  66.542  1.00  0.00    -0.125 A  
HETATM   23 CL   UNL     1     -11.057  11.534  65.651  1.00  0.00    -0.304 Cl 
HETATM   24  C   UNL     1      -7.364  11.384  67.173  1.00  0.00    -0.138 A  
ENDBRANCH   5   8
TORSDOF 1
ENDMDL
MODEL      160
REMARK 921   NORMALIZED FREE ENERGY PREDICTED BY IDOCK:   -2.17 KCAL/MOL
REMARK 922        TOTAL FREE ENERGY PREDICTED BY IDOCK:   -2.69 KCAL/MOL
REMARK 923 INTER-LIGAND FREE ENERGY PREDICTED BY IDOCK:   -2.81 KCAL/MOL
REMARK 924 INTRA-LIGAND FREE ENERGY PREDICTED BY IDOCK:    0.12 KCAL/MOL
REMARK 927      BINDING AFFINITY PREDICTED BY RF-SCORE:    0.00 PKD
ROOT
HETATM    1  C   UNL     1      -9.676   3.741  63.707  1.00  0.00    -0.160 C  
HETATM    2  N   UNL     1      -8.600   4.163  64.600  1.00  0.00    -0.116 NA 
HETATM    3  C   UNL     1      -8.679   5.604  64.911  1.00  0.00    -0.033 C  
HETATM    4  C   UNL     1      -9.838   6.013  65.847  1.00  0.00     0.203 C  
HETATM    5  N   UNL     1      -9.851   5.204  67.075  1.00  0.00    -0.161 NA 
HETATM    6  C   UNL     1      -9.745   3.754  66.854  1.00  0.00    -0.113 C  
HETATM    7  C   UNL     1      -8.603   3.405  65.873  1.00  0.00    -0.118 C  
ENDROOT
BRANCH   5   8
HETATM    8  C   UNL     1      -9.877   5.752  68.358  1.00  0.00    -0.140 C  
HETATM    9  N   UNL     1     -10.947   5.607  69.093  1.00  0.00    -0.221 NA 
HETATM   10  C   UNL     1     -11.057   6.101  70.406  1.00  0.00    -0.352 A  
HETATM   11  H   UNL     1     -11.743   5.109  68.695  1.00  0.00     0.000 HD 
HETATM   12  C   UNL     1     -12.302   6.594  70.812  1.00  0.00    -0.218 A  
HETATM   13  C   UNL     1     -12.510   7.056  72.115  1.00  0.00    -0.193 A  
HETATM   14  C   UNL     1     -11.474   7.012  73.046  1.00  0.00    -0.083 A  
HETATM   15  C   UNL     1     -10.233   6.503  72.672  1.00  0.00    -0.205 A  
HETATM   16  C   UNL     1     -10.029   6.064  71.359  1.00  0.00    -0.186 A  
HETATM   17  O   UNL     1      -8.771   5.594  71.053  1.00  0.00    -0.130 OA 
HETATM   18  C   UNL     1      -8.148   6.355  70.096  1.00  0.00    -0.120 A  
HETATM   19  C   UNL     1      -8.669   6.514  68.813  1.00  0.00    -0.123 A  
HETATM   20  C   UNL     1      -8.027   7.365  67.905  1.00  0.00    -0.119 A  
HETATM   21  C   UNL     1      -6.834   7.985  68.262  1.00  0.00    -0.072 A  
HETATM   22  C   UNL     1      -6.283   7.784  69.527  1.00  0.00    -0.034 A  
HETATM   23 CL   UNL     1      -6.022   8.984  67.121  1.00  0.00    -0.056 Cl 
HETATM   24  C   UNL     1      -6.944   6.969  70.448  1.00  0.00    -0.062 A  
ENDBRANCH   5   8
TORSDOF 1
ENDMDL
MODEL      161
REMARK 921   NORMALIZED FREE ENERGY PREDICTED BY IDOCK:   -2.13 KCAL/MOL
REMARK 922        TOTAL FREE ENERGY PREDICTED BY IDOCK:   -2.65 KCAL/MOL
REMARK 923 INTER-LIGAND FREE ENERGY PREDICTED BY IDOCK:   -3.08 KCAL/MOL
REMARK 924 INTRA-LIGAND FREE ENERGY PREDICTED BY IDOCK:    0.43 KCAL/MOL
REMARK 927      BINDING AFFINITY PREDICTED BY RF-SCORE:    0.00 PKD
ROOT
HETATM    1  C   UNL     1      -8.596   7.257  74.465  1.00  0.00    -0.195 C  
HETATM    2  N   UNL     1      -7.404   6.954  73.676  1.00  0.00    -0.081 NA 
HETATM    3  C   UNL     1      -7.322   5.519  73.337  1.00  0.00    -0.095 C  
HETATM    4  C   UNL     1      -8.342   5.031  72.286  1.00  0.00    -0.121 C  
HETATM    5  N   UNL     1      -8.310   5.865  71.075  1.00  0.00    -0.122 NA 
HETATM    6  C   UNL     1      -8.358   7.313  71.327  1.00  0.00    -0.111 C  
HETATM    7  C   UNL     1      -7.354   7.739  72.420  1.00  0.00    -0.084 C  
ENDROOT
BRANCH   5   8
HETATM    8  C   UNL     1      -8.162   5.347  69.787  1.00  0.00    -0.100 C  
HETATM    9  N   UNL     1      -7.255   4.435  69.565  1.00  0.00    -0.050 NA 
HETATM   10  C   UNL     1      -7.049   3.837  68.309  1.00  0.00    -0.051 A  
HETATM   11  H   UNL     1      -6.665   4.141  70.344  1.00  0.00     0.000 HD 
HETATM   12  C   UNL     1      -5.734   3.524  67.946  1.00  0.00    -0.022 A  
HETATM   13  C   UNL     1      -5.448   2.882  66.737  1.00  0.00    -0.020 A  
HETATM   14  C   UNL     1      -6.482   2.519  65.876  1.00  0.00    -0.028 A  
HETATM   15  C   UNL     1      -7.800   2.799  66.227  1.00  0.00    -0.081 A  
HETATM   16  C   UNL     1      -8.075   3.462  67.429  1.00  0.00    -0.082 A  
HETATM   17  O   UNL     1      -9.399   3.724  67.701  1.00  0.00    -0.167 OA 
HETATM   18  C   UNL     1      -9.660   5.070  67.773  1.00  0.00    -0.146 A  
HETATM   19  C   UNL     1      -9.047   5.900  68.710  1.00  0.00    -0.116 A  
HETATM   20  C   UNL     1      -9.296   7.278  68.683  1.00  0.00    -0.138 A  
HETATM   21  C   UNL     1     -10.212   7.798  67.773  1.00  0.00    -0.212 A  
HETATM   22  C   UNL     1     -10.866   6.960  66.872  1.00  0.00    -0.380 A  
HETATM   23 CL   UNL     1     -10.555   9.483  67.784  1.00  0.00    -0.312 Cl 
HETATM   24  C   UNL     1     -10.586   5.592  66.868  1.00  0.00    -0.367 A  
ENDBRANCH   5   8
TORSDOF 1
ENDMDL
MODEL      162
REMARK 921   NORMALIZED FREE ENERGY PREDICTED BY IDOCK:   -2.12 KCAL/MOL
REMARK 922        TOTAL FREE ENERGY PREDICTED BY IDOCK:   -2.63 KCAL/MOL
REMARK 923 INTER-LIGAND FREE ENERGY PREDICTED BY IDOCK:   -2.40 KCAL/MOL
REMARK 924 INTRA-LIGAND FREE ENERGY PREDICTED BY IDOCK:   -0.23 KCAL/MOL
REMARK 927      BINDING AFFINITY PREDICTED BY RF-SCORE:    0.00 PKD
ROOT
HETATM    1  C   UNL     1      -7.271  11.315  68.879  1.00  0.00    -0.112 C  
HETATM    2  N   UNL     1      -6.905  10.206  68.002  1.00  0.00    -0.070 NA 
HETATM    3  C   UNL     1      -5.982   9.263  68.666  1.00  0.00    -0.044 C  
HETATM    4  C   UNL     1      -6.613   8.394  69.775  1.00  0.00    -0.039 C  
HETATM    5  N   UNL     1      -7.822   7.705  69.298  1.00  0.00    -0.118 NA 
HETATM    6  C   UNL     1      -8.783   8.569  68.597  1.00  0.00    -0.139 C  
HETATM    7  C   UNL     1      -8.092   9.452  67.534  1.00  0.00    -0.110 C  
ENDROOT
BRANCH   5   8
HETATM    8  C   UNL     1      -8.022   6.329  69.418  1.00  0.00    -0.109 C  
HETATM    9  N   UNL     1      -7.869   5.760  70.583  1.00  0.00    -0.099 NA 
HETATM   10  C   UNL     1      -8.073   4.386  70.807  1.00  0.00    -0.071 A  
HETATM   11  H   UNL     1      -7.587   6.341  71.373  1.00  0.00     0.000 HD 
HETATM   12  C   UNL     1      -7.229   3.745  71.721  1.00  0.00    -0.053 A  
HETATM   13  C   UNL     1      -7.397   2.393  72.038  1.00  0.00    -0.039 A  
HETATM   14  C   UNL     1      -8.433   1.662  71.459  1.00  0.00    -0.068 A  
HETATM   15  C   UNL     1      -9.300   2.285  70.565  1.00  0.00    -0.198 A  
HETATM   16  C   UNL     1      -9.110   3.633  70.237  1.00  0.00    -0.130 A  
HETATM   17  O   UNL     1      -9.991   4.178  69.330  1.00  0.00    -0.138 OA 
HETATM   18  C   UNL     1      -9.368   4.589  68.179  1.00  0.00    -0.140 A  
HETATM   19  C   UNL     1      -8.375   5.568  68.176  1.00  0.00    -0.099 A  
HETATM   20  C   UNL     1      -7.722   5.889  66.979  1.00  0.00    -0.101 A  
HETATM   21  C   UNL     1      -8.120   5.286  65.790  1.00  0.00    -0.112 A  
HETATM   22  C   UNL     1      -9.150   4.346  65.784  1.00  0.00    -0.135 A  
HETATM   23 CL   UNL     1      -7.352   5.728  64.316  1.00  0.00    -0.062 Cl 
HETATM   24  C   UNL     1      -9.773   3.993  66.982  1.00  0.00    -0.214 A  
ENDBRANCH   5   8
TORSDOF 1
ENDMDL
MODEL      163
REMARK 921   NORMALIZED FREE ENERGY PREDICTED BY IDOCK:   -1.94 KCAL/MOL
REMARK 922        TOTAL FREE ENERGY PREDICTED BY IDOCK:   -2.45 KCAL/MOL
REMARK 923 INTER-LIGAND FREE ENERGY PREDICTED BY IDOCK:   -2.16 KCAL/MOL
REMARK 924 INTRA-LIGAND FREE ENERGY PREDICTED BY IDOCK:   -0.29 KCAL/MOL
REMARK 927      BINDING AFFINITY PREDICTED BY RF-SCORE:    0.00 PKD
ROOT
HETATM    1  C   UNL     1      -6.743  11.674  69.611  1.00  0.00    -0.059 C  
HETATM    2  N   UNL     1      -6.360  10.885  68.443  1.00  0.00    -0.053 NA 
HETATM    3  C   UNL     1      -5.568   9.696  68.820  1.00  0.00    -0.036 C  
HETATM    4  C   UNL     1      -6.360   8.573  69.524  1.00  0.00    -0.040 C  
HETATM    5  N   UNL     1      -7.555   8.193  68.756  1.00  0.00    -0.103 NA 
HETATM    6  C   UNL     1      -8.386   9.323  68.314  1.00  0.00    -0.120 C  
HETATM    7  C   UNL     1      -7.538  10.438  67.663  1.00  0.00    -0.089 C  
ENDROOT
BRANCH   5   8
HETATM    8  C   UNL     1      -7.851   6.877  68.393  1.00  0.00    -0.121 C  
HETATM    9  N   UNL     1      -8.110   6.602  67.143  1.00  0.00    -0.112 NA 
HETATM   10  C   UNL     1      -8.392   5.305  66.679  1.00  0.00    -0.108 A  
HETATM   11  H   UNL     1      -8.107   7.367  66.469  1.00  0.00     0.000 HD 
HETATM   12  C   UNL     1      -9.339   5.173  65.657  1.00  0.00    -0.149 A  
HETATM   13  C   UNL     1      -9.641   3.924  65.103  1.00  0.00    -0.181 A  
HETATM   14  C   UNL     1      -8.979   2.783  65.551  1.00  0.00    -0.135 A  
HETATM   15  C   UNL     1      -8.015   2.893  66.551  1.00  0.00    -0.081 A  
HETATM   16  C   UNL     1      -7.737   4.144  67.113  1.00  0.00    -0.088 A  
HETATM   17  O   UNL     1      -6.789   4.174  68.112  1.00  0.00    -0.046 OA 
HETATM   18  C   UNL     1      -7.308   4.589  69.312  1.00  0.00    -0.052 A  
HETATM   19  C   UNL     1      -7.884   5.847  69.481  1.00  0.00    -0.098 A  
HETATM   20  C   UNL     1      -8.466   6.183  70.710  1.00  0.00    -0.131 A  
HETATM   21  C   UNL     1      -8.398   5.291  71.776  1.00  0.00    -0.119 A  
HETATM   22  C   UNL     1      -7.774   4.053  71.622  1.00  0.00    -0.065 A  
HETATM   23 CL   UNL     1      -9.066   5.733  73.298  1.00  0.00    -0.133 Cl 
HETATM   24  C   UNL     1      -7.231   3.700  70.386  1.00  0.00    -0.041 A  
ENDBRANCH   5   8
TORSDOF 1
ENDMDL
MODEL      164
REMARK 921   NORMALIZED FREE ENERGY PREDICTED BY IDOCK:   -1.85 KCAL/MOL
REMARK 922        TOTAL FREE ENERGY PREDICTED BY IDOCK:   -2.35 KCAL/MOL
REMARK 923 INTER-LIGAND FREE ENERGY PREDICTED BY IDOCK:   -2.21 KCAL/MOL
REMARK 924 INTRA-LIGAND FREE ENERGY PREDICTED BY IDOCK:   -0.14 KCAL/MOL
REMARK 927      BINDING AFFINITY PREDICTED BY RF-SCORE:    0.00 PKD
ROOT
HETATM    1  C   UNL     1      -6.429   9.587  63.927  1.00  0.00    -0.100 C  
HETATM    2  N   UNL     1      -7.061   8.271  63.994  1.00  0.00    -0.081 NA 
HETATM    3  C   UNL     1      -6.130   7.242  64.499  1.00  0.00    -0.037 C  
HETATM    4  C   UNL     1      -5.793   7.338  66.003  1.00  0.00    -0.036 C  
HETATM    5  N   UNL     1      -7.010   7.402  66.826  1.00  0.00    -0.075 NA 
HETATM    6  C   UNL     1      -8.006   8.384  66.372  1.00  0.00    -0.099 C  
HETATM    7  C   UNL     1      -8.268   8.277  64.854  1.00  0.00    -0.151 C  
ENDROOT
BRANCH   5   8
HETATM    8  C   UNL     1      -7.257   6.550  67.904  1.00  0.00    -0.087 C  
HETATM    9  N   UNL     1      -6.985   6.956  69.115  1.00  0.00    -0.075 NA 
HETATM   10  C   UNL     1      -7.222   6.179  70.263  1.00  0.00    -0.083 A  
HETATM   11  H   UNL     1      -6.580   7.885  69.234  1.00  0.00     0.000 HD 
HETATM   12  C   UNL     1      -6.301   6.274  71.312  1.00  0.00    -0.048 A  
HETATM   13  C   UNL     1      -6.490   5.574  72.509  1.00  0.00    -0.060 A  
HETATM   14  C   UNL     1      -7.623   4.782  72.684  1.00  0.00    -0.091 A  
HETATM   15  C   UNL     1      -8.565   4.692  71.663  1.00  0.00    -0.125 A  
HETATM   16  C   UNL     1      -8.356   5.378  70.461  1.00  0.00    -0.111 A  
HETATM   17  O   UNL     1      -9.318   5.226  69.488  1.00  0.00    -0.119 OA 
HETATM   18  C   UNL     1      -8.826   4.625  68.357  1.00  0.00    -0.105 A  
HETATM   19  C   UNL     1      -7.798   5.186  67.601  1.00  0.00    -0.095 A  
HETATM   20  C   UNL     1      -7.286   4.486  66.500  1.00  0.00    -0.081 A  
HETATM   21  C   UNL     1      -7.858   3.274  66.123  1.00  0.00    -0.081 A  
HETATM   22  C   UNL     1      -8.923   2.740  66.848  1.00  0.00    -0.171 A  
HETATM   23 CL   UNL     1      -7.261   2.449  64.738  1.00  0.00    -0.053 Cl 
HETATM   24  C   UNL     1      -9.406   3.415  67.970  1.00  0.00    -0.241 A  
ENDBRANCH   5   8
TORSDOF 1
ENDMDL
MODEL      165
REMARK 921   NORMALIZED FREE ENERGY PREDICTED BY IDOCK:   -1.69 KCAL/MOL
REMARK 922        TOTAL FREE ENERGY PREDICTED BY IDOCK:   -2.18 KCAL/MOL
REMARK 923 INTER-LIGAND FREE ENERGY PREDICTED BY IDOCK:   -2.58 KCAL/MOL
REMARK 924 INTRA-LIGAND FREE ENERGY PREDICTED BY IDOCK:    0.40 KCAL/MOL
REMARK 927      BINDING AFFINITY PREDICTED BY RF-SCORE:    0.00 PKD
ROOT
HETATM    1  C   UNL     1      -7.111  19.949  67.778  1.00  0.00    -0.274 C  
HETATM    2  N   UNL     1      -7.636  19.008  68.765  1.00  0.00    -0.336 NA 
HETATM    3  C   UNL     1      -9.005  18.567  68.429  1.00  0.00    -0.322 C  
HETATM    4  C   UNL     1      -9.110  17.611  67.220  1.00  0.00    -0.237 C  
HETATM    5  N   UNL     1      -8.202  16.463  67.360  1.00  0.00    -0.153 NA 
HETATM    6  C   UNL     1      -6.822  16.814  67.725  1.00  0.00    -0.139 C  
HETATM    7  C   UNL     1      -6.776  17.810  68.905  1.00  0.00    -0.237 C  
ENDROOT
BRANCH   5   8
HETATM    8  C   UNL     1      -8.616  15.135  67.242  1.00  0.00    -0.198 C  
HETATM    9  N   UNL     1      -9.768  14.872  66.685  1.00  0.00    -0.249 NA 
HETATM   10  C   UNL     1     -10.258  13.567  66.499  1.00  0.00    -0.283 A  
HETATM   11  H   UNL     1     -10.342  15.654  66.368  1.00  0.00     0.000 HD 
HETATM   12  C   UNL     1     -11.634  13.363  66.643  1.00  0.00    -0.399 A  
HETATM   13  C   UNL     1     -12.209  12.106  66.425  1.00  0.00     0.249 A  
HETATM   14  C   UNL     1     -11.413  11.032  66.035  1.00  0.00     0.396 A  
HETATM   15  C   UNL     1     -10.043  11.216  65.862  1.00  0.00    -0.296 A  
HETATM   16  C   UNL     1      -9.475  12.472  66.104  1.00  0.00    -0.184 A  
HETATM   17  O   UNL     1      -8.112  12.576  65.935  1.00  0.00     0.820 OA 
HETATM   18  C   UNL     1      -7.463  12.894  67.101  1.00  0.00    -0.006 A  
HETATM   19  C   UNL     1      -7.715  14.075  67.798  1.00  0.00    -0.178 A  
HETATM   20  C   UNL     1      -7.077  14.306  69.023  1.00  0.00    -0.116 A  
HETATM   21  C   UNL     1      -6.140  13.394  69.499  1.00  0.00    -0.110 A  
HETATM   22  C   UNL     1      -5.848  12.238  68.775  1.00  0.00    -0.055 A  
HETATM   23 CL   UNL     1      -5.320  13.712  70.976  1.00  0.00    -0.151 Cl 
HETATM   24  C   UNL     1      -6.514  11.985  67.575  1.00  0.00    -0.124 A  
ENDBRANCH   5   8
TORSDOF 1
ENDMDL
MODEL      166
REMARK 921   NORMALIZED FREE ENERGY PREDICTED BY IDOCK:   -1.63 KCAL/MOL
REMARK 922        TOTAL FREE ENERGY PREDICTED BY IDOCK:   -2.12 KCAL/MOL
REMARK 923 INTER-LIGAND FREE ENERGY PREDICTED BY IDOCK:   -1.81 KCAL/MOL
REMARK 924 INTRA-LIGAND FREE ENERGY PREDICTED BY IDOCK:   -0.31 KCAL/MOL
REMARK 927      BINDING AFFINITY PREDICTED BY RF-SCORE:    0.00 PKD
ROOT
HETATM    1  C   UNL     1      -8.471   7.626  63.602  1.00  0.00     0.279 C  
HETATM    2  N   UNL     1      -7.448   7.406  64.621  1.00  0.00    -0.086 NA 
HETATM    3  C   UNL     1      -6.509   8.542  64.709  1.00  0.00    -0.065 C  
HETATM    4  C   UNL     1      -7.088   9.829  65.336  1.00  0.00    -0.113 C  
HETATM    5  N   UNL     1      -7.719   9.559  66.637  1.00  0.00    -0.097 NA 
HETATM    6  C   UNL     1      -8.649   8.420  66.643  1.00  0.00    -0.120 C  
HETATM    7  C   UNL     1      -8.037   7.177  65.961  1.00  0.00    -0.115 C  
ENDROOT
BRANCH   5   8
HETATM    8  C   UNL     1      -7.409  10.262  67.803  1.00  0.00    -0.087 C  
HETATM    9  N   UNL     1      -6.498   9.791  68.610  1.00  0.00    -0.047 NA 
HETATM   10  C   UNL     1      -6.101  10.440  69.793  1.00  0.00    -0.059 A  
HETATM   11  H   UNL     1      -6.050   8.906  68.370  1.00  0.00     0.000 HD 
HETATM   12  C   UNL     1      -5.781   9.641  70.896  1.00  0.00    -0.071 A  
HETATM   13  C   UNL     1      -5.329  10.205  72.094  1.00  0.00     0.097 A  
HETATM   14  C   UNL     1      -5.167  11.585  72.200  1.00  0.00     0.337 A  
HETATM   15  C   UNL     1      -5.456  12.398  71.107  1.00  0.00    -0.071 A  
HETATM   16  C   UNL     1      -5.929  11.827  69.920  1.00  0.00    -0.146 A  
HETATM   17  O   UNL     1      -6.215  12.693  68.888  1.00  0.00    -0.070 OA 
HETATM   18  C   UNL     1      -7.543  12.672  68.543  1.00  0.00    -0.121 A  
HETATM   19  C   UNL     1      -8.176  11.520  68.079  1.00  0.00    -0.143 A  
HETATM   20  C   UNL     1      -9.551  11.543  67.816  1.00  0.00    -0.177 A  
HETATM   21  C   UNL     1     -10.261  12.734  67.944  1.00  0.00    -0.229 A  
HETATM   22  C   UNL     1      -9.616  13.900  68.356  1.00  0.00    -0.215 A  
HETATM   23 CL   UNL     1     -11.938  12.768  67.565  1.00  0.00    -0.398 Cl 
HETATM   24  C   UNL     1      -8.254  13.868  68.660  1.00  0.00    -0.088 A  
ENDBRANCH   5   8
TORSDOF 1
ENDMDL
MODEL      167
REMARK 921   NORMALIZED FREE ENERGY PREDICTED BY IDOCK:   -1.57 KCAL/MOL
REMARK 922        TOTAL FREE ENERGY PREDICTED BY IDOCK:   -2.06 KCAL/MOL
REMARK 923 INTER-LIGAND FREE ENERGY PREDICTED BY IDOCK:   -2.51 KCAL/MOL
REMARK 924 INTRA-LIGAND FREE ENERGY PREDICTED BY IDOCK:    0.45 KCAL/MOL
REMARK 927      BINDING AFFINITY PREDICTED BY RF-SCORE:    0.00 PKD
ROOT
HETATM    1  C   UNL     1      -5.852  10.671  62.559  1.00  0.00    -0.148 C  
HETATM    2  N   UNL     1      -6.838   9.616  62.344  1.00  0.00    -0.098 NA 
HETATM    3  C   UNL     1      -6.267   8.275  62.585  1.00  0.00    -0.087 C  
HETATM    4  C   UNL     1      -5.983   7.935  64.064  1.00  0.00    -0.057 C  
HETATM    5  N   UNL     1      -7.166   8.167  64.907  1.00  0.00    -0.078 NA 
HETATM    6  C   UNL     1      -7.814   9.471  64.708  1.00  0.00    -0.120 C  
HETATM    7  C   UNL     1      -8.029   9.782  63.210  1.00  0.00    -0.145 C  
ENDROOT
BRANCH   5   8
HETATM    8  C   UNL     1      -7.695   7.207  65.772  1.00  0.00    -0.099 C  
HETATM    9  N   UNL     1      -7.814   5.973  65.361  1.00  0.00    -0.098 NA 
HETATM   10  C   UNL     1      -8.311   4.934  66.168  1.00  0.00    -0.112 A  
HETATM   11  H   UNL     1      -7.532   5.752  64.406  1.00  0.00     0.000 HD 
HETATM   12  C   UNL     1      -9.094   3.951  65.551  1.00  0.00    -0.143 A  
HETATM   13  C   UNL     1      -9.584   2.856  66.271  1.00  0.00     0.130 A  
HETATM   14  C   UNL     1      -9.278   2.715  67.623  1.00  0.00    -0.232 A  
HETATM   15  C   UNL     1      -8.481   3.668  68.252  1.00  0.00    -0.109 A  
HETATM   16  C   UNL     1      -8.014   4.771  67.529  1.00  0.00    -0.094 A  
HETATM   17  O   UNL     1      -7.249   5.684  68.221  1.00  0.00    -0.072 OA 
HETATM   18  C   UNL     1      -7.838   6.922  68.277  1.00  0.00    -0.118 A  
HETATM   19  C   UNL     1      -8.130   7.662  67.132  1.00  0.00    -0.118 A  
HETATM   20  C   UNL     1      -8.802   8.885  67.250  1.00  0.00    -0.137 A  
HETATM   21  C   UNL     1      -9.105   9.390  68.512  1.00  0.00    -0.131 A  
HETATM   22  C   UNL     1      -8.765   8.675  69.659  1.00  0.00    -0.132 A  
HETATM   23 CL   UNL     1      -9.880  10.919  68.651  1.00  0.00    -0.184 Cl 
HETATM   24  C   UNL     1      -8.133   7.435  69.541  1.00  0.00    -0.129 A  
ENDBRANCH   5   8
TORSDOF 1
ENDMDL
MODEL      168
REMARK 921   NORMALIZED FREE ENERGY PREDICTED BY IDOCK:   -1.31 KCAL/MOL
REMARK 922        TOTAL FREE ENERGY PREDICTED BY IDOCK:   -1.78 KCAL/MOL
REMARK 923 INTER-LIGAND FREE ENERGY PREDICTED BY IDOCK:   -2.32 KCAL/MOL
REMARK 924 INTRA-LIGAND FREE ENERGY PREDICTED BY IDOCK:    0.54 KCAL/MOL
REMARK 927      BINDING AFFINITY PREDICTED BY RF-SCORE:    0.00 PKD
ROOT
HETATM    1  C   UNL     1      -7.770   8.314  73.692  1.00  0.00    -0.145 C  
HETATM    2  N   UNL     1      -6.779   7.773  72.765  1.00  0.00    -0.065 NA 
HETATM    3  C   UNL     1      -6.943   6.318  72.576  1.00  0.00    -0.075 C  
HETATM    4  C   UNL     1      -8.181   5.894  71.757  1.00  0.00    -0.119 C  
HETATM    5  N   UNL     1      -8.247   6.607  70.472  1.00  0.00    -0.117 NA 
HETATM    6  C   UNL     1      -8.063   8.062  70.568  1.00  0.00    -0.105 C  
HETATM    7  C   UNL     1      -6.841   8.430  71.438  1.00  0.00    -0.069 C  
ENDROOT
BRANCH   5   8
HETATM    8  C   UNL     1      -8.388   5.963  69.241  1.00  0.00    -0.113 C  
HETATM    9  N   UNL     1      -8.575   4.670  69.213  1.00  0.00    -0.082 NA 
HETATM   10  C   UNL     1      -8.752   3.939  68.025  1.00  0.00    -0.102 A  
HETATM   11  H   UNL     1      -8.592   4.165  70.100  1.00  0.00     0.000 HD 
HETATM   12  C   UNL     1      -8.201   2.655  67.965  1.00  0.00    -0.078 A  
HETATM   13  C   UNL     1      -8.376   1.842  66.840  1.00  0.00    -0.083 A  
HETATM   14  C   UNL     1      -9.129   2.296  65.759  1.00  0.00    -0.076 A  
HETATM   15  C   UNL     1      -9.707   3.562  65.807  1.00  0.00    -0.056 A  
HETATM   16  C   UNL     1      -9.508   4.376  66.927  1.00  0.00    -0.178 A  
HETATM   17  O   UNL     1     -10.092   5.624  66.897  1.00  0.00    -0.154 OA 
HETATM   18  C   UNL     1      -9.165   6.635  66.935  1.00  0.00    -0.142 A  
HETATM   19  C   UNL     1      -8.285   6.801  68.003  1.00  0.00    -0.114 A  
HETATM   20  C   UNL     1      -7.310   7.805  67.948  1.00  0.00    -0.102 A  
HETATM   21  C   UNL     1      -7.275   8.678  66.864  1.00  0.00    -0.075 A  
HETATM   22  C   UNL     1      -8.190   8.545  65.820  1.00  0.00    -0.125 A  
HETATM   23 CL   UNL     1      -6.111   9.943  66.830  1.00  0.00    -0.061 Cl 
HETATM   24  C   UNL     1      -9.135   7.518  65.853  1.00  0.00    -0.086 A  
ENDBRANCH   5   8
TORSDOF 1
ENDMDL
MODEL      169
REMARK 921   NORMALIZED FREE ENERGY PREDICTED BY IDOCK:   -1.17 KCAL/MOL
REMARK 922        TOTAL FREE ENERGY PREDICTED BY IDOCK:   -1.64 KCAL/MOL
REMARK 923 INTER-LIGAND FREE ENERGY PREDICTED BY IDOCK:   -2.02 KCAL/MOL
REMARK 924 INTRA-LIGAND FREE ENERGY PREDICTED BY IDOCK:    0.38 KCAL/MOL
REMARK 927      BINDING AFFINITY PREDICTED BY RF-SCORE:    0.00 PKD
ROOT
HETATM    1  C   UNL     1      -8.340   6.969  72.092  1.00  0.00    -0.104 C  
HETATM    2  N   UNL     1      -7.327   6.372  71.226  1.00  0.00    -0.079 NA 
HETATM    3  C   UNL     1      -7.928   5.480  70.213  1.00  0.00    -0.101 C  
HETATM    4  C   UNL     1      -8.707   6.193  69.087  1.00  0.00    -0.121 C  
HETATM    5  N   UNL     1      -7.898   7.245  68.453  1.00  0.00    -0.120 NA 
HETATM    6  C   UNL     1      -7.238   8.161  69.395  1.00  0.00    -0.067 C  
HETATM    7  C   UNL     1      -6.517   7.398  70.528  1.00  0.00    -0.039 C  
ENDROOT
BRANCH   5   8
HETATM    8  C   UNL     1      -7.693   7.334  67.075  1.00  0.00    -0.111 C  
HETATM    9  N   UNL     1      -7.928   8.464  66.466  1.00  0.00    -0.095 NA 
HETATM   10  C   UNL     1      -7.727   8.657  65.087  1.00  0.00    -0.101 A  
HETATM   11  H   UNL     1      -8.276   9.248  67.018  1.00  0.00     0.000 HD 
HETATM   12  C   UNL     1      -8.631   9.481  64.408  1.00  0.00    -0.213 A  
HETATM   13  C   UNL     1      -8.473   9.766  63.047  1.00  0.00    -0.180 A  
HETATM   14  C   UNL     1      -7.388   9.245  62.346  1.00  0.00    -0.104 A  
HETATM   15  C   UNL     1      -6.462   8.441  63.006  1.00  0.00    -0.086 A  
HETATM   16  C   UNL     1      -6.641   8.144  64.362  1.00  0.00    -0.065 A  
HETATM   17  O   UNL     1      -5.699   7.326  64.945  1.00  0.00    -0.035 OA 
HETATM   18  C   UNL     1      -6.237   6.145  65.390  1.00  0.00    -0.037 A  
HETATM   19  C   UNL     1      -7.237   6.098  66.360  1.00  0.00    -0.073 A  
HETATM   20  C   UNL     1      -7.800   4.866  66.716  1.00  0.00    -0.099 A  
HETATM   21  C   UNL     1      -7.306   3.691  66.157  1.00  0.00    -0.072 A  
HETATM   22  C   UNL     1      -6.268   3.733  65.227  1.00  0.00    -0.027 A  
HETATM   23 CL   UNL     1      -7.964   2.178  66.642  1.00  0.00    -0.075 Cl 
HETATM   24  C   UNL     1      -5.735   4.964  64.839  1.00  0.00    -0.014 A  
ENDBRANCH   5   8
TORSDOF 1
ENDMDL
MODEL      170
REMARK 921   NORMALIZED FREE ENERGY PREDICTED BY IDOCK:   -1.16 KCAL/MOL
REMARK 922        TOTAL FREE ENERGY PREDICTED BY IDOCK:   -1.63 KCAL/MOL
REMARK 923 INTER-LIGAND FREE ENERGY PREDICTED BY IDOCK:   -2.17 KCAL/MOL
REMARK 924 INTRA-LIGAND FREE ENERGY PREDICTED BY IDOCK:    0.55 KCAL/MOL
REMARK 927      BINDING AFFINITY PREDICTED BY RF-SCORE:    0.00 PKD
ROOT
HETATM    1  C   UNL     1      -7.587   7.864  66.930  1.00  0.00    -0.099 C  
HETATM    2  N   UNL     1      -8.727   8.623  66.421  1.00  0.00    -0.124 NA 
HETATM    3  C   UNL     1      -9.788   8.766  67.439  1.00  0.00    -0.194 C  
HETATM    4  C   UNL     1      -9.460   9.726  68.603  1.00  0.00    -0.151 C  
HETATM    5  N   UNL     1      -9.016  11.039  68.111  1.00  0.00    -0.145 NA 
HETATM    6  C   UNL     1      -7.979  10.985  67.071  1.00  0.00    -0.137 C  
HETATM    7  C   UNL     1      -8.334   9.974  65.958  1.00  0.00    -0.125 C  
ENDROOT
BRANCH   5   8
HETATM    8  C   UNL     1      -9.581  12.247  68.525  1.00  0.00    -0.125 C  
HETATM    9  N   UNL     1      -8.984  13.368  68.220  1.00  0.00    -0.194 NA 
HETATM   10  C   UNL     1      -9.489  14.633  68.570  1.00  0.00    -0.216 A  
HETATM   11  H   UNL     1      -8.107  13.324  67.701  1.00  0.00     0.000 HD 
HETATM   12  C   UNL     1      -8.567  15.627  68.916  1.00  0.00    -0.211 A  
HETATM   13  C   UNL     1      -8.983  16.926  69.228  1.00  0.00     0.035 A  
HETATM   14  C   UNL     1     -10.335  17.259  69.175  1.00  0.00    -0.290 A  
HETATM   15  C   UNL     1     -11.269  16.292  68.810  1.00  0.00    -0.343 A  
HETATM   16  C   UNL     1     -10.845  14.990  68.522  1.00  0.00    -0.250 A  
HETATM   17  O   UNL     1     -11.825  14.081  68.190  1.00  0.00    -0.338 OA 
HETATM   18  C   UNL     1     -11.907  13.049  69.090  1.00  0.00    -0.310 A  
HETATM   19  C   UNL     1     -10.841  12.184  69.333  1.00  0.00    -0.032 A  
HETATM   20  C   UNL     1     -10.960  11.198  70.321  1.00  0.00     0.156 A  
HETATM   21  C   UNL     1     -12.166  11.038  70.998  1.00  0.00    -0.351 A  
HETATM   22  C   UNL     1     -13.250  11.868  70.716  1.00  0.00     0.375 A  
HETATM   23 CL   UNL     1     -12.322   9.788  72.168  1.00  0.00    -0.329 Cl 
HETATM   24  C   UNL     1     -13.119  12.880  69.763  1.00  0.00     1.223 A  
ENDBRANCH   5   8
TORSDOF 1
ENDMDL
MODEL      171
REMARK 921   NORMALIZED FREE ENERGY PREDICTED BY IDOCK:   -1.11 KCAL/MOL
REMARK 922        TOTAL FREE ENERGY PREDICTED BY IDOCK:   -1.57 KCAL/MOL
REMARK 923 INTER-LIGAND FREE ENERGY PREDICTED BY IDOCK:   -2.12 KCAL/MOL
REMARK 924 INTRA-LIGAND FREE ENERGY PREDICTED BY IDOCK:    0.55 KCAL/MOL
REMARK 927      BINDING AFFINITY PREDICTED BY RF-SCORE:    0.00 PKD
ROOT
HETATM    1  C   UNL     1      -9.184   7.029  72.516  1.00  0.00    -0.138 C  
HETATM    2  N   UNL     1      -8.205   6.235  71.778  1.00  0.00    -0.116 NA 
HETATM    3  C   UNL     1      -8.829   5.491  70.666  1.00  0.00    -0.133 C  
HETATM    4  C   UNL     1      -9.277   6.353  69.466  1.00  0.00    -0.144 C  
HETATM    5  N   UNL     1      -8.187   7.214  68.983  1.00  0.00    -0.124 NA 
HETATM    6  C   UNL     1      -7.491   7.970  70.034  1.00  0.00    -0.074 C  
HETATM    7  C   UNL     1      -7.110   7.070  71.231  1.00  0.00    -0.073 C  
ENDROOT
BRANCH   5   8
HETATM    8  C   UNL     1      -7.776   7.261  67.649  1.00  0.00    -0.112 C  
HETATM    9  N   UNL     1      -7.790   6.166  66.938  1.00  0.00    -0.103 NA 
HETATM   10  C   UNL     1      -7.418   6.119  65.582  1.00  0.00    -0.082 A  
HETATM   11  H   UNL     1      -8.084   5.300  67.389  1.00  0.00     0.000 HD 
HETATM   12  C   UNL     1      -6.743   4.979  65.133  1.00  0.00    -0.048 A  
HETATM   13  C   UNL     1      -6.383   4.831  63.789  1.00  0.00    -0.026 A  
HETATM   14  C   UNL     1      -6.717   5.817  62.863  1.00  0.00    -0.036 A  
HETATM   15  C   UNL     1      -7.410   6.950  63.283  1.00  0.00    -0.080 A  
HETATM   16  C   UNL     1      -7.746   7.099  64.633  1.00  0.00    -0.112 A  
HETATM   17  O   UNL     1      -8.412   8.253  64.980  1.00  0.00    -0.166 OA 
HETATM   18  C   UNL     1      -7.690   9.031  65.851  1.00  0.00    -0.094 A  
HETATM   19  C   UNL     1      -7.307   8.579  67.113  1.00  0.00    -0.084 A  
HETATM   20  C   UNL     1      -6.506   9.391  67.925  1.00  0.00    -0.062 A  
HETATM   21  C   UNL     1      -6.162  10.671  67.500  1.00  0.00    -0.056 A  
HETATM   22  C   UNL     1      -6.591  11.143  66.261  1.00  0.00    -0.069 A  
HETATM   23 CL   UNL     1      -5.225  11.683  68.528  1.00  0.00    -0.043 Cl 
HETATM   24  C   UNL     1      -7.354  10.319  65.431  1.00  0.00    -0.144 A  
ENDBRANCH   5   8
TORSDOF 1
ENDMDL
MODEL      172
REMARK 921   NORMALIZED FREE ENERGY PREDICTED BY IDOCK:    0.69 KCAL/MOL
REMARK 922        TOTAL FREE ENERGY PREDICTED BY IDOCK:    0.33 KCAL/MOL
REMARK 923 INTER-LIGAND FREE ENERGY PREDICTED BY IDOCK:    0.50 KCAL/MOL
REMARK 924 INTRA-LIGAND FREE ENERGY PREDICTED BY IDOCK:   -0.17 KCAL/MOL
REMARK 927      BINDING AFFINITY PREDICTED BY RF-SCORE:    0.00 PKD
ROOT
HETATM    1  C   UNL     1      -6.260   6.964  64.162  1.00  0.00    -0.036 C  
HETATM    2  N   UNL     1      -5.664   6.279  65.306  1.00  0.00    -0.021 NA 
HETATM    3  C   UNL     1      -5.232   7.230  66.350  1.00  0.00    -0.023 C  
HETATM    4  C   UNL     1      -6.374   7.904  67.141  1.00  0.00    -0.055 C  
HETATM    5  N   UNL     1      -7.315   6.912  67.683  1.00  0.00    -0.094 NA 
HETATM    6  C   UNL     1      -7.772   5.907  66.712  1.00  0.00    -0.100 C  
HETATM    7  C   UNL     1      -6.595   5.301  65.916  1.00  0.00    -0.048 C  
ENDROOT
BRANCH   5   8
HETATM    8  C   UNL     1      -7.690   6.860  69.027  1.00  0.00    -0.110 C  
HETATM    9  N   UNL     1      -8.057   7.959  69.630  1.00  0.00    -0.115 NA 
HETATM   10  C   UNL     1      -8.476   8.002  70.972  1.00  0.00    -0.128 A  
HETATM   11  H   UNL     1      -8.040   8.830  69.100  1.00  0.00     0.000 HD 
HETATM   12  C   UNL     1      -8.121   9.125  71.727  1.00  0.00     0.247 A  
HETATM   13  C   UNL     1      -8.540   9.270  73.054  1.00  0.00     1.873 A  
HETATM   14  C   UNL     1      -9.345   8.297  73.643  1.00  0.00     0.053 A  
HETATM   15  C   UNL     1      -9.731   7.182  72.903  1.00  0.00    -0.200 A  
HETATM   16  C   UNL     1      -9.288   7.035  71.583  1.00  0.00    -0.156 A  
HETATM   17  O   UNL     1      -9.691   5.898  70.919  1.00  0.00    -0.167 OA 
HETATM   18  C   UNL     1      -8.633   5.097  70.568  1.00  0.00    -0.118 A  
HETATM   19  C   UNL     1      -7.618   5.532  69.717  1.00  0.00    -0.074 A  
HETATM   20  C   UNL     1      -6.526   4.695  69.457  1.00  0.00    -0.032 A  
HETATM   21  C   UNL     1      -6.498   3.408  69.986  1.00  0.00    -0.032 A  
HETATM   22  C   UNL     1      -7.540   2.953  70.793  1.00  0.00    -0.039 A  
HETATM   23 CL   UNL     1      -5.181   2.366  69.617  1.00  0.00    -0.011 Cl 
HETATM   24  C   UNL     1      -8.609   3.802  71.088  1.00  0.00    -0.110 A  
ENDBRANCH   5   8
TORSDOF 1
ENDMDL
MODEL      173
REMARK 921   NORMALIZED FREE ENERGY PREDICTED BY IDOCK:    2.36 KCAL/MOL
REMARK 922        TOTAL FREE ENERGY PREDICTED BY IDOCK:    2.10 KCAL/MOL
REMARK 923 INTER-LIGAND FREE ENERGY PREDICTED BY IDOCK:    2.37 KCAL/MOL
REMARK 924 INTRA-LIGAND FREE ENERGY PREDICTED BY IDOCK:   -0.27 KCAL/MOL
REMARK 927      BINDING AFFINITY PREDICTED BY RF-SCORE:    0.00 PKD
ROOT
HETATM    1  C   UNL     1      -7.563  10.110  65.219  1.00  0.00    -0.144 C  
HETATM    2  N   UNL     1      -6.884   9.801  66.475  1.00  0.00    -0.083 NA 
HETATM    3  C   UNL     1      -5.743  10.707  66.720  1.00  0.00    -0.062 C  
HETATM    4  C   UNL     1      -6.121  12.157  67.092  1.00  0.00    -0.143 C  
HETATM    5  N   UNL     1      -7.078  12.195  68.208  1.00  0.00    -0.077 NA 
HETATM    6  C   UNL     1      -8.232  11.297  68.057  1.00  0.00    -0.134 C  
HETATM    7  C   UNL     1      -7.801   9.875  67.637  1.00  0.00    -0.098 C  
ENDROOT
BRANCH   5   8
HETATM    8  C   UNL     1      -6.883  12.954  69.364  1.00  0.00     0.040 C  
HETATM    9  N   UNL     1      -6.264  12.419  70.382  1.00  0.00    -0.462 NA 
HETATM   10  C   UNL     1      -5.999  13.111  71.577  1.00  0.00     0.617 A  
HETATM   11  H   UNL     1      -5.958  11.449  70.306  1.00  0.00     0.000 HD 
HETATM   12  C   UNL     1      -6.072  12.391  72.775  1.00  0.00     3.071 A  
HETATM   13  C   UNL     1      -5.773  12.991  74.002  1.00  0.00     0.713 A  
HETATM   14  C   UNL     1      -5.371  14.325  74.049  1.00  0.00    -0.157 A  
HETATM   15  C   UNL     1      -5.268  15.055  72.867  1.00  0.00     0.063 A  
HETATM   16  C   UNL     1      -5.591  14.452  71.646  1.00  0.00    -0.145 A  
HETATM   17  O   UNL     1      -5.487  15.239  70.521  1.00  0.00    -0.130 OA 
HETATM   18  C   UNL     1      -6.694  15.415  69.894  1.00  0.00    -0.130 A  
HETATM   19  C   UNL     1      -7.430  14.349  69.380  1.00  0.00    -0.022 A  
HETATM   20  C   UNL     1      -8.692  14.585  68.819  1.00  0.00    -0.147 A  
HETATM   21  C   UNL     1      -9.168  15.888  68.708  1.00  0.00    -0.218 A  
HETATM   22  C   UNL     1      -8.407  16.960  69.173  1.00  0.00    -0.056 A  
HETATM   23 CL   UNL     1     -10.693  16.174  67.967  1.00  0.00    -0.310 Cl 
HETATM   24  C   UNL     1      -7.168  16.723  69.771  1.00  0.00     0.386 A  
ENDBRANCH   5   8
TORSDOF 1
ENDMDL
MODEL      174
REMARK 921   NORMALIZED FREE ENERGY PREDICTED BY IDOCK:    3.99 KCAL/MOL
REMARK 922        TOTAL FREE ENERGY PREDICTED BY IDOCK:    3.83 KCAL/MOL
REMARK 923 INTER-LIGAND FREE ENERGY PREDICTED BY IDOCK:    3.17 KCAL/MOL
REMARK 924 INTRA-LIGAND FREE ENERGY PREDICTED BY IDOCK:    0.65 KCAL/MOL
REMARK 927      BINDING AFFINITY PREDICTED BY RF-SCORE:    0.00 PKD
ROOT
HETATM    1  C   UNL     1     -10.333  20.520  68.684  1.00  0.00     0.178 C  
HETATM    2  N   UNL     1     -10.892  19.308  69.279  1.00  0.00     1.007 NA 
HETATM    3  C   UNL     1     -11.472  18.413  68.257  1.00  0.00     1.424 C  
HETATM    4  C   UNL     1     -10.448  17.694  67.352  1.00  0.00    -0.356 C  
HETATM    5  N   UNL     1      -9.422  16.999  68.145  1.00  0.00    -0.254 NA 
HETATM    6  C   UNL     1      -8.813  17.813  69.207  1.00  0.00     0.290 C  
HETATM    7  C   UNL     1      -9.879  18.548  70.049  1.00  0.00     1.099 C  
ENDROOT
BRANCH   5   8
HETATM    8  C   UNL     1      -9.098  15.652  67.973  1.00  0.00    -0.183 C  
HETATM    9  N   UNL     1      -9.889  14.890  67.267  1.00  0.00    -0.228 NA 
HETATM   10  C   UNL     1      -9.633  13.529  67.018  1.00  0.00    -0.248 A  
HETATM   11  H   UNL     1     -10.736  15.302  66.875  1.00  0.00     0.000 HD 
HETATM   12  C   UNL     1     -10.729  12.660  66.975  1.00  0.00    -0.268 A  
HETATM   13  C   UNL     1     -10.567  11.302  66.683  1.00  0.00    -0.309 A  
HETATM   14  C   UNL     1      -9.300  10.793  66.405  1.00  0.00    -0.198 A  
HETATM   15  C   UNL     1      -8.198  11.644  66.417  1.00  0.00    -0.052 A  
HETATM   16  C   UNL     1      -8.367  12.997  66.733  1.00  0.00     0.061 A  
HETATM   17  O   UNL     1      -7.231  13.775  66.748  1.00  0.00     0.345 OA 
HETATM   18  C   UNL     1      -6.970  14.294  67.991  1.00  0.00    -0.144 A  
HETATM   19  C   UNL     1      -7.859  15.144  68.646  1.00  0.00    -0.140 A  
HETATM   20  C   UNL     1      -7.571  15.580  69.946  1.00  0.00     0.044 A  
HETATM   21  C   UNL     1      -6.366  15.224  70.544  1.00  0.00     0.079 A  
HETATM   22  C   UNL     1      -5.452  14.417  69.867  1.00  0.00    -0.098 A  
HETATM   23 CL   UNL     1      -5.995  15.808  72.118  1.00  0.00     1.210 Cl 
HETATM   24  C   UNL     1      -5.757  13.947  68.589  1.00  0.00    -0.085 A  
ENDBRANCH   5   8
TORSDOF 1
ENDMDL
MODEL      175
REMARK 921   NORMALIZED FREE ENERGY PREDICTED BY IDOCK:    6.69 KCAL/MOL
REMARK 922        TOTAL FREE ENERGY PREDICTED BY IDOCK:    6.69 KCAL/MOL
REMARK 923 INTER-LIGAND FREE ENERGY PREDICTED BY IDOCK:    6.46 KCAL/MOL
REMARK 924 INTRA-LIGAND FREE ENERGY PREDICTED BY IDOCK:    0.23 KCAL/MOL
REMARK 927      BINDING AFFINITY PREDICTED BY RF-SCORE:    0.00 PKD
ROOT
HETATM    1  C   UNL     1     -10.060  18.554  70.123  1.00  0.00     1.291 C  
HETATM    2  N   UNL     1     -10.712  17.256  70.279  1.00  0.00     0.430 NA 
HETATM    3  C   UNL     1     -11.078  16.666  68.975  1.00  0.00    -0.234 C  
HETATM    4  C   UNL     1      -9.893  16.154  68.128  1.00  0.00    -0.227 C  
HETATM    5  N   UNL     1      -9.032  15.244  68.899  1.00  0.00    -0.196 NA 
HETATM    6  C   UNL     1      -8.646  15.744  70.226  1.00  0.00     1.135 C  
HETATM    7  C   UNL     1      -9.859  16.289  71.010  1.00  0.00     2.447 C  
ENDROOT
BRANCH   5   8
HETATM    8  C   UNL     1      -8.670  13.969  68.458  1.00  0.00    -0.156 C  
HETATM    9  N   UNL     1      -7.409  13.700  68.250  1.00  0.00    -0.107 NA 
HETATM   10  C   UNL     1      -6.946  12.439  67.831  1.00  0.00    -0.106 A  
HETATM   11  H   UNL     1      -6.725  14.442  68.398  1.00  0.00     0.000 HD 
HETATM   12  C   UNL     1      -5.863  12.407  66.946  1.00  0.00     0.182 A  
HETATM   13  C   UNL     1      -5.309  11.194  66.522  1.00  0.00    -0.120 A  
HETATM   14  C   UNL     1      -5.819   9.988  66.996  1.00  0.00    -0.051 A  
HETATM   15  C   UNL     1      -6.882   9.996  67.897  1.00  0.00    -0.075 A  
HETATM   16  C   UNL     1      -7.443  11.214  68.299  1.00  0.00    -0.094 A  
HETATM   17  O   UNL     1      -8.505  11.145  69.173  1.00  0.00    -0.089 OA 
HETATM   18  C   UNL     1      -9.660  11.653  68.634  1.00  0.00    -0.133 A  
HETATM   19  C   UNL     1      -9.769  12.979  68.218  1.00  0.00    -0.221 A  
HETATM   20  C   UNL     1     -10.949  13.417  67.603  1.00  0.00    -0.277 A  
HETATM   21  C   UNL     1     -12.030  12.550  67.482  1.00  0.00    -0.219 A  
HETATM   22  C   UNL     1     -11.940  11.239  67.948  1.00  0.00    -0.080 A  
HETATM   23 CL   UNL     1     -13.495  13.112  66.778  1.00  0.00     3.606 Cl 
HETATM   24  C   UNL     1     -10.750  10.788  68.521  1.00  0.00    -0.245 A  
ENDBRANCH   5   8
TORSDOF 1
ENDMDL
MODEL      176
REMARK 921   NORMALIZED FREE ENERGY PREDICTED BY IDOCK:    7.33 KCAL/MOL
REMARK 922        TOTAL FREE ENERGY PREDICTED BY IDOCK:    7.36 KCAL/MOL
REMARK 923 INTER-LIGAND FREE ENERGY PREDICTED BY IDOCK:    7.21 KCAL/MOL
REMARK 924 INTRA-LIGAND FREE ENERGY PREDICTED BY IDOCK:    0.15 KCAL/MOL
REMARK 927      BINDING AFFINITY PREDICTED BY RF-SCORE:    0.00 PKD
ROOT
HETATM    1  C   UNL     1      -5.341   9.014  64.965  1.00  0.00    -0.038 C  
HETATM    2  N   UNL     1      -6.439   9.841  64.472  1.00  0.00    -0.105 NA 
HETATM    3  C   UNL     1      -7.624   9.759  65.350  1.00  0.00    -0.121 C  
HETATM    4  C   UNL     1      -7.484  10.470  66.714  1.00  0.00    -0.115 C  
HETATM    5  N   UNL     1      -7.038  11.862  66.553  1.00  0.00     0.092 NA 
HETATM    6  C   UNL     1      -5.878  12.035  65.667  1.00  0.00     2.275 C  
HETATM    7  C   UNL     1      -6.049  11.264  64.339  1.00  0.00     1.360 C  
ENDROOT
BRANCH   5   8
HETATM    8  C   UNL     1      -7.700  12.953  67.120  1.00  0.00    -0.050 C  
HETATM    9  N   UNL     1      -7.111  13.639  68.061  1.00  0.00    -0.113 NA 
HETATM   10  C   UNL     1      -7.687  14.767  68.674  1.00  0.00    -0.130 A  
HETATM   11  H   UNL     1      -6.184  13.342  68.369  1.00  0.00     0.000 HD 
HETATM   12  C   UNL     1      -7.446  14.959  70.038  1.00  0.00     0.126 A  
HETATM   13  C   UNL     1      -7.939  16.081  70.712  1.00  0.00     2.954 A  
HETATM   14  C   UNL     1      -8.667  17.047  70.020  1.00  0.00     1.854 A  
HETATM   15  C   UNL     1      -8.899  16.890  68.656  1.00  0.00    -0.262 A  
HETATM   16  C   UNL     1      -8.420  15.752  67.996  1.00  0.00    -0.161 A  
HETATM   17  O   UNL     1      -8.705  15.652  66.652  1.00  0.00    -0.247 OA 
HETATM   18  C   UNL     1      -9.491  14.564  66.365  1.00  0.00    -0.291 A  
HETATM   19  C   UNL     1      -9.083  13.258  66.629  1.00  0.00    -0.181 A  
HETATM   20  C   UNL     1      -9.962  12.195  66.384  1.00  0.00    -0.243 A  
HETATM   21  C   UNL     1     -11.205  12.442  65.810  1.00  0.00    -0.333 A  
HETATM   22  C   UNL     1     -11.592  13.745  65.496  1.00  0.00    -0.335 A  
HETATM   23 CL   UNL     1     -12.256  11.127  65.461  1.00  0.00     1.610 Cl 
HETATM   24  C   UNL     1     -10.734  14.809  65.779  1.00  0.00    -0.333 A  
ENDBRANCH   5   8
TORSDOF 1
ENDMDL
MODEL      177
REMARK 921   NORMALIZED FREE ENERGY PREDICTED BY IDOCK:    7.66 KCAL/MOL
REMARK 922        TOTAL FREE ENERGY PREDICTED BY IDOCK:    7.71 KCAL/MOL
REMARK 923 INTER-LIGAND FREE ENERGY PREDICTED BY IDOCK:    8.14 KCAL/MOL
REMARK 924 INTRA-LIGAND FREE ENERGY PREDICTED BY IDOCK:   -0.43 KCAL/MOL
REMARK 927      BINDING AFFINITY PREDICTED BY RF-SCORE:    0.00 PKD
ROOT
HETATM    1  C   UNL     1     -10.971  18.635  66.963  1.00  0.00    -0.084 C  
HETATM    2  N   UNL     1     -11.577  17.380  66.523  1.00  0.00     1.387 NA 
HETATM    3  C   UNL     1     -10.910  16.843  65.319  1.00  0.00    -0.104 C  
HETATM    4  C   UNL     1      -9.495  16.269  65.550  1.00  0.00     0.111 C  
HETATM    5  N   UNL     1      -9.483  15.288  66.646  1.00  0.00    -0.242 NA 
HETATM    6  C   UNL     1     -10.155  15.734  67.875  1.00  0.00    -0.230 C  
HETATM    7  C   UNL     1     -11.543  16.344  67.582  1.00  0.00     0.282 C  
ENDROOT
BRANCH   5   8
HETATM    8  C   UNL     1      -8.956  14.001  66.521  1.00  0.00    -0.092 C  
HETATM    9  N   UNL     1      -7.661  13.845  66.461  1.00  0.00     0.317 NA 
HETATM   10  C   UNL     1      -7.037  12.588  66.361  1.00  0.00     1.175 A  
HETATM   11  H   UNL     1      -7.071  14.677  66.489  1.00  0.00     0.000 HD 
HETATM   12  C   UNL     1      -5.880  12.497  65.579  1.00  0.00     4.772 A  
HETATM   13  C   UNL     1      -5.171  11.297  65.469  1.00  0.00     0.148 A  
HETATM   14  C   UNL     1      -5.598  10.166  66.162  1.00  0.00    -0.062 A  
HETATM   15  C   UNL     1      -6.733  10.239  66.966  1.00  0.00    -0.079 A  
HETATM   16  C   UNL     1      -7.449  11.438  67.052  1.00  0.00    -0.147 A  
HETATM   17  O   UNL     1      -8.572  11.431  67.848  1.00  0.00    -0.131 OA 
HETATM   18  C   UNL     1      -9.719  11.674  67.134  1.00  0.00    -0.181 A  
HETATM   19  C   UNL     1      -9.923  12.860  66.431  1.00  0.00    -0.267 A  
HETATM   20  C   UNL     1     -11.081  13.017  65.658  1.00  0.00    -0.301 A  
HETATM   21  C   UNL     1     -12.054  12.022  65.659  1.00  0.00     0.043 A  
HETATM   22  C   UNL     1     -11.874  10.859  66.406  1.00  0.00     1.336 A  
HETATM   23 CL   UNL     1     -13.498  12.247  64.753  1.00  0.00     0.816 Cl 
HETATM   24  C   UNL     1     -10.702  10.682  67.142  1.00  0.00    -0.327 A  
ENDBRANCH   5   8
TORSDOF 1
ENDMDL
MODEL      178
REMARK 921   NORMALIZED FREE ENERGY PREDICTED BY IDOCK:    9.52 KCAL/MOL
REMARK 922        TOTAL FREE ENERGY PREDICTED BY IDOCK:    9.69 KCAL/MOL
REMARK 923 INTER-LIGAND FREE ENERGY PREDICTED BY IDOCK:    9.30 KCAL/MOL
REMARK 924 INTRA-LIGAND FREE ENERGY PREDICTED BY IDOCK:    0.39 KCAL/MOL
REMARK 927      BINDING AFFINITY PREDICTED BY RF-SCORE:    0.00 PKD
ROOT
HETATM    1  C   UNL     1      -6.062  20.568  62.952  1.00  0.00    -0.123 C  
HETATM    2  N   UNL     1      -6.579  20.750  64.306  1.00  0.00    -0.254 NA 
HETATM    3  C   UNL     1      -7.946  20.210  64.448  1.00  0.00     2.305 C  
HETATM    4  C   UNL     1      -8.051  18.669  64.439  1.00  0.00     5.968 C  
HETATM    5  N   UNL     1      -7.136  18.061  65.416  1.00  0.00    -0.430 NA 
HETATM    6  C   UNL     1      -5.756  18.566  65.362  1.00  0.00    -0.217 C  
HETATM    7  C   UNL     1      -5.712  20.110  65.323  1.00  0.00    -0.180 C  
ENDROOT
BRANCH   5   8
HETATM    8  C   UNL     1      -7.543  17.137  66.381  1.00  0.00    -0.312 C  
HETATM    9  N   UNL     1      -6.896  16.009  66.500  1.00  0.00    -0.092 NA 
HETATM   10  C   UNL     1      -7.216  15.030  67.457  1.00  0.00    -0.201 A  
HETATM   11  H   UNL     1      -6.118  15.829  65.864  1.00  0.00     0.000 HD 
HETATM   12  C   UNL     1      -7.078  13.688  67.085  1.00  0.00     0.246 A  
HETATM   13  C   UNL     1      -7.326  12.654  67.994  1.00  0.00    -0.114 A  
HETATM   14  C   UNL     1      -7.697  12.949  69.304  1.00  0.00     0.459 A  
HETATM   15  C   UNL     1      -7.817  14.277  69.704  1.00  0.00     0.363 A  
HETATM   16  C   UNL     1      -7.588  15.304  68.782  1.00  0.00    -0.139 A  
HETATM   17  O   UNL     1      -7.746  16.593  69.240  1.00  0.00    -0.224 OA 
HETATM   18  C   UNL     1      -8.756  17.258  68.592  1.00  0.00    -0.268 A  
HETATM   19  C   UNL     1      -8.736  17.487  67.217  1.00  0.00    -0.236 A  
HETATM   20  C   UNL     1      -9.834  18.103  66.602  1.00  0.00    -0.350 A  
HETATM   21  C   UNL     1     -10.900  18.551  67.375  1.00  0.00    -0.294 A  
HETATM   22  C   UNL     1     -10.895  18.371  68.758  1.00  0.00     0.535 A  
HETATM   23 CL   UNL     1     -12.218  19.357  66.619  1.00  0.00     2.777 Cl 
HETATM   24  C   UNL     1      -9.822  17.718  69.367  1.00  0.00     0.079 A  
ENDBRANCH   5   8
TORSDOF 1
ENDMDL
MODEL      179
REMARK 921   NORMALIZED FREE ENERGY PREDICTED BY IDOCK:   23.24 KCAL/MOL
REMARK 922        TOTAL FREE ENERGY PREDICTED BY IDOCK:   24.21 KCAL/MOL
REMARK 923 INTER-LIGAND FREE ENERGY PREDICTED BY IDOCK:   24.35 KCAL/MOL
REMARK 924 INTRA-LIGAND FREE ENERGY PREDICTED BY IDOCK:   -0.14 KCAL/MOL
REMARK 927      BINDING AFFINITY PREDICTED BY RF-SCORE:    0.00 PKD
ROOT
HETATM    1  C   UNL     1     -12.834  11.847  65.478  1.00  0.00     2.093 C  
HETATM    2  N   UNL     1     -12.005  13.047  65.562  1.00  0.00    -0.398 NA 
HETATM    3  C   UNL     1     -12.804  14.242  65.904  1.00  0.00    -0.183 C  
HETATM    4  C   UNL     1     -13.318  14.297  67.360  1.00  0.00     3.885 C  
HETATM    5  N   UNL     1     -12.227  14.093  68.325  1.00  0.00    -0.258 NA 
HETATM    6  C   UNL     1     -11.364  12.937  68.039  1.00  0.00    -0.292 C  
HETATM    7  C   UNL     1     -10.919  12.905  66.560  1.00  0.00    -0.275 C  
ENDROOT
BRANCH   5   8
HETATM    8  C   UNL     1     -11.965  14.962  69.386  1.00  0.00    -0.301 C  
HETATM    9  N   UNL     1     -11.293  16.059  69.161  1.00  0.00    -0.342 NA 
HETATM   10  C   UNL     1     -11.003  17.007  70.159  1.00  0.00     0.391 A  
HETATM   11  H   UNL     1     -10.962  16.238  68.213  1.00  0.00     0.000 HD 
HETATM   12  C   UNL     1      -9.766  17.658  70.097  1.00  0.00     1.579 A  
HETATM   13  C   UNL     1      -9.420  18.650  71.020  1.00  0.00     4.355 A  
HETATM   14  C   UNL     1     -10.322  19.025  72.014  1.00  0.00     3.623 A  
HETATM   15  C   UNL     1     -11.569  18.408  72.081  1.00  0.00     4.808 A  
HETATM   16  C   UNL     1     -11.897  17.401  71.166  1.00  0.00     3.124 A  
HETATM   17  O   UNL     1     -13.138  16.820  71.305  1.00  0.00     2.028 OA 
HETATM   18  C   UNL     1     -13.058  15.482  71.601  1.00  0.00    -0.481 A  
HETATM   19  C   UNL     1     -12.451  14.564  70.746  1.00  0.00    -0.420 A  
HETATM   20  C   UNL     1     -12.332  13.225  71.140  1.00  0.00    -0.323 A  
HETATM   21  C   UNL     1     -12.888  12.805  72.345  1.00  0.00     0.100 A  
HETATM   22  C   UNL     1     -13.543  13.714  73.175  1.00  0.00     0.583 A  
HETATM   23 CL   UNL     1     -12.788  11.148  72.794  1.00  0.00     1.619 Cl 
HETATM   24  C   UNL     1     -13.625  15.057  72.804  1.00  0.00    -0.562 A  
ENDBRANCH   5   8
TORSDOF 1
ENDMDL
MODEL      180
REMARK 921   NORMALIZED FREE ENERGY PREDICTED BY IDOCK:   75.54 KCAL/MOL
REMARK 922        TOTAL FREE ENERGY PREDICTED BY IDOCK:   79.56 KCAL/MOL
REMARK 923 INTER-LIGAND FREE ENERGY PREDICTED BY IDOCK:   79.02 KCAL/MOL
REMARK 924 INTRA-LIGAND FREE ENERGY PREDICTED BY IDOCK:    0.53 KCAL/MOL
REMARK 927      BINDING AFFINITY PREDICTED BY RF-SCORE:    0.00 PKD
ROOT
HETATM    1  C   UNL     1     -11.893  20.582  65.090  1.00  0.00     3.041 C  
HETATM    2  N   UNL     1     -12.494  19.413  65.727  1.00  0.00     5.336 NA 
HETATM    3  C   UNL     1     -11.691  18.194  65.504  1.00  0.00     3.067 C  
HETATM    4  C   UNL     1     -10.356  18.133  66.277  1.00  0.00    -0.397 C  
HETATM    5  N   UNL     1     -10.552  18.383  67.713  1.00  0.00    -0.411 NA 
HETATM    6  C   UNL     1     -11.369  19.565  68.023  1.00  0.00     0.846 C  
HETATM    7  C   UNL     1     -12.667  19.602  67.187  1.00  0.00     4.892 C  
ENDROOT
BRANCH   5   8
HETATM    8  C   UNL     1     -10.080  17.532  68.715  1.00  0.00    -0.363 C  
HETATM    9  N   UNL     1     -10.139  17.918  69.961  1.00  0.00     0.469 NA 
HETATM   10  C   UNL     1      -9.713  17.121  71.038  1.00  0.00     4.292 A  
HETATM   11  H   UNL     1     -10.514  18.845  70.163  1.00  0.00     0.000 HD 
HETATM   12  C   UNL     1      -9.099  17.764  72.119  1.00  0.00    13.514 A  
HETATM   13  C   UNL     1      -8.693  17.052  73.252  1.00  0.00    18.070 A  
HETATM   14  C   UNL     1      -8.915  15.679  73.332  1.00  0.00    12.501 A  
HETATM   15  C   UNL     1      -9.545  15.021  72.279  1.00  0.00     5.085 A  
HETATM   16  C   UNL     1      -9.928  15.738  71.140  1.00  0.00     1.650 A  
HETATM   17  O   UNL     1     -10.526  15.020  70.129  1.00  0.00    -0.189 OA 
HETATM   18  C   UNL     1      -9.791  15.037  68.970  1.00  0.00    -0.236 A  
HETATM   19  C   UNL     1      -9.497  16.218  68.292  1.00  0.00    -0.214 A  
HETATM   20  C   UNL     1      -8.677  16.179  67.157  1.00  0.00    -0.216 A  
HETATM   21  C   UNL     1      -8.226  14.955  66.670  1.00  0.00     0.072 A  
HETATM   22  C   UNL     1      -8.565  13.769  67.319  1.00  0.00    -0.221 A  
HETATM   23 CL   UNL     1      -7.266  14.910  65.244  1.00  0.00     8.581 Cl 
HETATM   24  C   UNL     1      -9.347  13.810  68.475  1.00  0.00    -0.144 A  
ENDBRANCH   5   8
TORSDOF 1
ENDMDL
