MODEL        1
REMARK 921   NORMALIZED FREE ENERGY PREDICTED BY IDOCK:   -6.45 KCAL/MOL
REMARK 922        TOTAL FREE ENERGY PREDICTED BY IDOCK:   -7.52 KCAL/MOL
REMARK 923 INTER-LIGAND FREE ENERGY PREDICTED BY IDOCK:   -7.21 KCAL/MOL
REMARK 924 INTRA-LIGAND FREE ENERGY PREDICTED BY IDOCK:   -0.31 KCAL/MOL
REMARK 927      BINDING AFFINITY PREDICTED BY RF-SCORE:    0.00 PKD
ROOT
HETATM    1  C   UNL     1     -10.290  14.547  66.224  1.00  0.00    -0.300 C  
HETATM    2  C   UNL     1     -11.712  13.979  66.341  1.00  0.00    -0.407 C  
HETATM    3  C   UNL     1     -11.711  12.898  67.423  1.00  0.00    -0.428 A  
HETATM    4  C   UNL     1     -12.216  13.577  64.954  1.00  0.00    -0.410 C  
HETATM    5  C   UNL     1     -11.896  13.262  68.771  1.00  0.00    -0.371 A  
HETATM    6  O   UNL     1     -13.223  12.667  64.948  1.00  0.00    -0.819 OA 
HETATM    7  O   UNL     1     -11.818  14.071  63.906  1.00  0.00    -0.349 OA 
HETATM    8  C   UNL     1     -11.694  12.338  69.806  1.00  0.00    -0.368 A  
HETATM    9  C   UNL     1     -11.319  11.022  69.518  1.00  0.00    -0.356 A  
HETATM   10  C   UNL     1     -11.217  10.638  68.173  1.00  0.00    -0.366 A  
HETATM   11  C   UNL     1     -11.388  11.565  67.141  1.00  0.00    -0.354 A  
ENDROOT
BRANCH   9  12
HETATM   12  C   UNL     1     -10.812  10.076  70.586  1.00  0.00    -0.367 C  
BRANCH  12  13
HETATM   13  C   UNL     1     -11.795   9.575  71.642  1.00  0.00    -0.468 C  
HETATM   14  C   UNL     1     -13.266   9.724  71.238  1.00  0.00    -0.452 C  
HETATM   15  C   UNL     1     -13.965   8.502  71.823  1.00  0.00    -0.491 C  
HETATM   16  C   UNL     1     -12.985   7.360  71.601  1.00  0.00    -0.409 C  
HETATM   17  C   UNL     1     -11.668   8.066  71.775  1.00  0.00    -0.291 C  
HETATM   18  O   UNL     1     -10.608   7.478  71.963  1.00  0.00    -0.204 OA 
ENDBRANCH  12  13
ENDBRANCH   9  12
TORSDOF 2
ENDMDL
MODEL        2
REMARK 921   NORMALIZED FREE ENERGY PREDICTED BY IDOCK:   -6.41 KCAL/MOL
REMARK 922        TOTAL FREE ENERGY PREDICTED BY IDOCK:   -7.47 KCAL/MOL
REMARK 923 INTER-LIGAND FREE ENERGY PREDICTED BY IDOCK:   -7.08 KCAL/MOL
REMARK 924 INTRA-LIGAND FREE ENERGY PREDICTED BY IDOCK:   -0.39 KCAL/MOL
REMARK 927      BINDING AFFINITY PREDICTED BY RF-SCORE:    0.00 PKD
ROOT
HETATM    1  C   UNL     1      -7.731  18.296  68.659  1.00  0.00    -0.318 C  
HETATM    2  C   UNL     1      -9.119  18.804  68.239  1.00  0.00    -0.356 C  
HETATM    3  C   UNL     1      -9.917  17.622  67.685  1.00  0.00    -0.323 A  
HETATM    4  C   UNL     1      -8.961  20.026  67.333  1.00  0.00    -0.347 C  
HETATM    5  C   UNL     1     -10.640  16.797  68.567  1.00  0.00    -0.354 A  
HETATM    6  O   UNL     1     -10.026  20.293  66.535  1.00  0.00    -0.438 OA 
HETATM    7  O   UNL     1      -7.992  20.776  67.349  1.00  0.00    -0.327 OA 
HETATM    8  C   UNL     1     -11.207  15.591  68.131  1.00  0.00    -0.343 A  
HETATM    9  C   UNL     1     -11.082  15.191  66.797  1.00  0.00    -0.307 A  
HETATM   10  C   UNL     1     -10.434  16.053  65.901  1.00  0.00    -0.373 A  
HETATM   11  C   UNL     1      -9.840  17.241  66.341  1.00  0.00    -0.310 A  
ENDROOT
BRANCH   9  12
HETATM   12  C   UNL     1     -11.416  13.786  66.342  1.00  0.00    -0.351 C  
BRANCH  12  13
HETATM   13  C   UNL     1     -10.832  13.289  65.022  1.00  0.00    -0.335 C  
HETATM   14  C   UNL     1     -10.437  11.809  65.038  1.00  0.00    -0.332 C  
HETATM   15  C   UNL     1     -10.756  11.296  63.638  1.00  0.00    -0.438 C  
HETATM   16  C   UNL     1     -12.071  11.969  63.277  1.00  0.00    -0.509 C  
HETATM   17  C   UNL     1     -11.913  13.303  63.953  1.00  0.00    -0.483 C  
HETATM   18  O   UNL     1     -12.612  14.278  63.693  1.00  0.00    -0.831 OA 
ENDBRANCH  12  13
ENDBRANCH   9  12
TORSDOF 2
ENDMDL
MODEL        3
REMARK 921   NORMALIZED FREE ENERGY PREDICTED BY IDOCK:   -6.40 KCAL/MOL
REMARK 922        TOTAL FREE ENERGY PREDICTED BY IDOCK:   -7.46 KCAL/MOL
REMARK 923 INTER-LIGAND FREE ENERGY PREDICTED BY IDOCK:   -7.27 KCAL/MOL
REMARK 924 INTRA-LIGAND FREE ENERGY PREDICTED BY IDOCK:   -0.19 KCAL/MOL
REMARK 927      BINDING AFFINITY PREDICTED BY RF-SCORE:    0.00 PKD
ROOT
HETATM    1  C   UNL     1     -12.379  13.817  64.201  1.00  0.00    -0.382 C  
HETATM    2  C   UNL     1     -11.119  14.346  64.902  1.00  0.00    -0.404 C  
HETATM    3  C   UNL     1     -11.081  13.775  66.320  1.00  0.00    -0.302 A  
HETATM    4  C   UNL     1     -11.059  15.868  64.761  1.00  0.00    -0.384 C  
HETATM    5  C   UNL     1     -10.505  12.511  66.546  1.00  0.00    -0.258 A  
HETATM    6  O   UNL     1     -10.294  16.503  65.684  1.00  0.00    -0.438 OA 
HETATM    7  O   UNL     1     -11.589  16.498  63.853  1.00  0.00    -1.175 OA 
HETATM    8  C   UNL     1     -10.636  11.864  67.783  1.00  0.00    -0.233 A  
HETATM    9  C   UNL     1     -11.332  12.474  68.831  1.00  0.00    -0.346 A  
HETATM   10  C   UNL     1     -11.833  13.769  68.633  1.00  0.00    -0.409 A  
HETATM   11  C   UNL     1     -11.730  14.402  67.391  1.00  0.00    -0.424 A  
ENDROOT
BRANCH   9  12
HETATM   12  C   UNL     1     -11.749  11.714  70.072  1.00  0.00    -0.402 C  
BRANCH  12  13
HETATM   13  C   UNL     1     -11.536  10.203  70.108  1.00  0.00    -0.368 C  
HETATM   14  C   UNL     1     -10.085   9.788  70.377  1.00  0.00    -0.313 C  
HETATM   15  C   UNL     1     -10.183   8.526  71.227  1.00  0.00    -0.287 C  
HETATM   16  C   UNL     1     -11.332   8.800  72.184  1.00  0.00    -0.411 C  
HETATM   17  C   UNL     1     -12.248   9.620  71.317  1.00  0.00    -0.363 C  
HETATM   18  O   UNL     1     -13.428   9.822  71.586  1.00  0.00    -0.376 OA 
ENDBRANCH  12  13
ENDBRANCH   9  12
TORSDOF 2
ENDMDL
MODEL        4
REMARK 921   NORMALIZED FREE ENERGY PREDICTED BY IDOCK:   -6.39 KCAL/MOL
REMARK 922        TOTAL FREE ENERGY PREDICTED BY IDOCK:   -7.45 KCAL/MOL
REMARK 923 INTER-LIGAND FREE ENERGY PREDICTED BY IDOCK:   -7.10 KCAL/MOL
REMARK 924 INTRA-LIGAND FREE ENERGY PREDICTED BY IDOCK:   -0.34 KCAL/MOL
REMARK 927      BINDING AFFINITY PREDICTED BY RF-SCORE:    0.00 PKD
ROOT
HETATM    1  C   UNL     1     -10.816  14.931  66.385  1.00  0.00    -0.325 C  
HETATM    2  C   UNL     1     -12.090  14.072  66.430  1.00  0.00    -0.483 C  
HETATM    3  C   UNL     1     -11.815  12.850  67.307  1.00  0.00    -0.416 A  
HETATM    4  C   UNL     1     -12.579  13.813  65.004  1.00  0.00    -0.389 C  
HETATM    5  C   UNL     1     -11.995  12.939  68.700  1.00  0.00    -0.282 A  
HETATM    6  O   UNL     1     -13.384  12.730  64.859  1.00  0.00    -0.736 OA 
HETATM    7  O   UNL     1     -12.344  14.546  64.050  1.00  0.00    -0.697 OA 
HETATM    8  C   UNL     1     -11.558  11.917  69.555  1.00  0.00    -0.394 A  
HETATM    9  C   UNL     1     -10.947  10.772  69.035  1.00  0.00    -0.289 A  
HETATM   10  C   UNL     1     -10.845  10.645  67.642  1.00  0.00    -0.346 A  
HETATM   11  C   UNL     1     -11.251  11.677  66.790  1.00  0.00    -0.371 A  
ENDROOT
BRANCH   9  12
HETATM   12  C   UNL     1     -10.205   9.785  69.911  1.00  0.00    -0.291 C  
BRANCH  12  13
HETATM   13  C   UNL     1     -10.759   9.487  71.303  1.00  0.00    -0.386 C  
HETATM   14  C   UNL     1     -12.018   8.614  71.294  1.00  0.00    -0.339 C  
HETATM   15  C   UNL     1     -11.898   7.729  72.530  1.00  0.00    -0.354 C  
HETATM   16  C   UNL     1     -10.426   7.350  72.585  1.00  0.00    -0.303 C  
HETATM   17  C   UNL     1      -9.780   8.602  72.058  1.00  0.00    -0.321 C  
HETATM   18  O   UNL     1      -8.587   8.853  72.192  1.00  0.00    -0.381 OA 
ENDBRANCH  12  13
ENDBRANCH   9  12
TORSDOF 2
ENDMDL
MODEL        5
REMARK 921   NORMALIZED FREE ENERGY PREDICTED BY IDOCK:   -6.39 KCAL/MOL
REMARK 922        TOTAL FREE ENERGY PREDICTED BY IDOCK:   -7.44 KCAL/MOL
REMARK 923 INTER-LIGAND FREE ENERGY PREDICTED BY IDOCK:   -7.19 KCAL/MOL
REMARK 924 INTRA-LIGAND FREE ENERGY PREDICTED BY IDOCK:   -0.25 KCAL/MOL
REMARK 927      BINDING AFFINITY PREDICTED BY RF-SCORE:    0.00 PKD
ROOT
HETATM    1  C   UNL     1     -10.658  11.120  64.927  1.00  0.00    -0.356 C  
HETATM    2  C   UNL     1     -10.887  12.597  64.569  1.00  0.00    -0.365 C  
HETATM    3  C   UNL     1     -10.981  13.398  65.868  1.00  0.00    -0.284 A  
HETATM    4  C   UNL     1     -12.059  12.708  63.593  1.00  0.00    -0.547 C  
HETATM    5  C   UNL     1      -9.805  13.873  66.479  1.00  0.00    -0.296 A  
HETATM    6  O   UNL     1     -12.659  13.925  63.550  1.00  0.00    -0.842 OA 
HETATM    7  O   UNL     1     -12.414  11.813  62.836  1.00  0.00    -0.216 OA 
HETATM    8  C   UNL     1      -9.830  14.424  67.768  1.00  0.00    -0.221 A  
HETATM    9  C   UNL     1     -11.034  14.532  68.470  1.00  0.00    -0.261 A  
HETATM   10  C   UNL     1     -12.217  14.136  67.828  1.00  0.00    -0.208 A  
HETATM   11  C   UNL     1     -12.190  13.557  66.556  1.00  0.00    -0.433 A  
ENDROOT
BRANCH   9  12
HETATM   12  C   UNL     1     -11.080  14.844  69.950  1.00  0.00    -0.288 C  
BRANCH  12  13
HETATM   13  C   UNL     1     -12.425  14.772  70.670  1.00  0.00    -0.407 C  
HETATM   14  C   UNL     1     -12.820  13.356  71.101  1.00  0.00    -0.372 C  
HETATM   15  C   UNL     1     -13.544  13.532  72.432  1.00  0.00    -0.709 C  
HETATM   16  C   UNL     1     -12.749  14.606  73.158  1.00  0.00    -0.549 C  
HETATM   17  C   UNL     1     -12.320  15.480  72.011  1.00  0.00    -0.399 C  
HETATM   18  O   UNL     1     -11.897  16.622  72.156  1.00  0.00    -0.437 OA 
ENDBRANCH  12  13
ENDBRANCH   9  12
TORSDOF 2
ENDMDL
MODEL        6
REMARK 921   NORMALIZED FREE ENERGY PREDICTED BY IDOCK:   -6.32 KCAL/MOL
REMARK 922        TOTAL FREE ENERGY PREDICTED BY IDOCK:   -7.37 KCAL/MOL
REMARK 923 INTER-LIGAND FREE ENERGY PREDICTED BY IDOCK:   -7.17 KCAL/MOL
REMARK 924 INTRA-LIGAND FREE ENERGY PREDICTED BY IDOCK:   -0.20 KCAL/MOL
REMARK 927      BINDING AFFINITY PREDICTED BY RF-SCORE:    0.00 PKD
ROOT
HETATM    1  C   UNL     1     -13.137  15.591  71.416  1.00  0.00    -0.580 C  
HETATM    2  C   UNL     1     -12.257  14.338  71.290  1.00  0.00    -0.426 C  
HETATM    3  C   UNL     1     -11.687  14.290  69.872  1.00  0.00    -0.373 A  
HETATM    4  C   UNL     1     -13.042  13.115  71.769  1.00  0.00    -0.383 C  
HETATM    5  C   UNL     1     -10.498  14.983  69.576  1.00  0.00    -0.245 A  
HETATM    6  O   UNL     1     -12.592  11.923  71.302  1.00  0.00    -0.359 OA 
HETATM    7  O   UNL     1     -13.966  13.160  72.571  1.00  0.00    -0.676 OA 
HETATM    8  C   UNL     1     -10.059  15.138  68.254  1.00  0.00    -0.223 A  
HETATM    9  C   UNL     1     -10.788  14.587  67.196  1.00  0.00    -0.296 A  
HETATM   10  C   UNL     1     -11.926  13.825  67.497  1.00  0.00    -0.411 A  
HETATM   11  C   UNL     1     -12.383  13.696  68.812  1.00  0.00    -0.012 A  
ENDROOT
BRANCH   9  12
HETATM   12  C   UNL     1     -10.524  14.962  65.753  1.00  0.00    -0.345 C  
BRANCH  12  13
HETATM   13  C   UNL     1     -10.454  13.849  64.711  1.00  0.00    -0.451 C  
HETATM   14  C   UNL     1     -10.091  12.479  65.294  1.00  0.00    -0.275 C  
HETATM   15  C   UNL     1     -10.892  11.472  64.475  1.00  0.00    -0.390 C  
HETATM   16  C   UNL     1     -12.244  12.139  64.270  1.00  0.00    -0.469 C  
HETATM   17  C   UNL     1     -11.844  13.585  64.157  1.00  0.00    -0.437 C  
HETATM   18  O   UNL     1     -12.582  14.454  63.704  1.00  0.00    -0.817 OA 
ENDBRANCH  12  13
ENDBRANCH   9  12
TORSDOF 2
ENDMDL
MODEL        7
REMARK 921   NORMALIZED FREE ENERGY PREDICTED BY IDOCK:   -6.32 KCAL/MOL
REMARK 922        TOTAL FREE ENERGY PREDICTED BY IDOCK:   -7.36 KCAL/MOL
REMARK 923 INTER-LIGAND FREE ENERGY PREDICTED BY IDOCK:   -6.96 KCAL/MOL
REMARK 924 INTRA-LIGAND FREE ENERGY PREDICTED BY IDOCK:   -0.40 KCAL/MOL
REMARK 927      BINDING AFFINITY PREDICTED BY RF-SCORE:    0.00 PKD
ROOT
HETATM    1  C   UNL     1      -8.908   8.314  71.474  1.00  0.00    -0.216 C  
HETATM    2  C   UNL     1     -10.093   8.022  70.540  1.00  0.00    -0.195 C  
HETATM    3  C   UNL     1     -10.890   9.313  70.356  1.00  0.00    -0.302 A  
HETATM    4  C   UNL     1     -10.854   6.798  71.052  1.00  0.00    -0.242 C  
HETATM    5  C   UNL     1     -10.510  10.229  69.356  1.00  0.00    -0.259 A  
HETATM    6  O   UNL     1     -12.139   6.699  70.626  1.00  0.00    -0.394 OA 
HETATM    7  O   UNL     1     -10.356   5.913  71.737  1.00  0.00    -0.204 OA 
HETATM    8  C   UNL     1     -11.077  11.509  69.292  1.00  0.00    -0.305 A  
HETATM    9  C   UNL     1     -12.054  11.899  70.213  1.00  0.00    -0.409 A  
HETATM   10  C   UNL     1     -12.493  10.958  71.156  1.00  0.00    -0.511 A  
HETATM   11  C   UNL     1     -11.906   9.692  71.242  1.00  0.00    -0.460 A  
ENDROOT
BRANCH   9  12
HETATM   12  C   UNL     1     -12.485  13.342  70.370  1.00  0.00    -0.295 C  
BRANCH  12  13
HETATM   13  C   UNL     1     -12.177  14.056  71.684  1.00  0.00    -0.228 C  
HETATM   14  C   UNL     1     -11.572  15.452  71.503  1.00  0.00    -0.475 C  
HETATM   15  C   UNL     1     -12.146  16.286  72.643  1.00  0.00    -0.628 C  
HETATM   16  C   UNL     1     -13.595  15.837  72.752  1.00  0.00    -0.662 C  
HETATM   17  C   UNL     1     -13.477  14.378  72.402  1.00  0.00    -0.462 C  
HETATM   18  O   UNL     1     -14.356  13.556  72.638  1.00  0.00    -0.716 OA 
ENDBRANCH  12  13
ENDBRANCH   9  12
TORSDOF 2
ENDMDL
MODEL        8
REMARK 921   NORMALIZED FREE ENERGY PREDICTED BY IDOCK:   -6.29 KCAL/MOL
REMARK 922        TOTAL FREE ENERGY PREDICTED BY IDOCK:   -7.33 KCAL/MOL
REMARK 923 INTER-LIGAND FREE ENERGY PREDICTED BY IDOCK:   -7.01 KCAL/MOL
REMARK 924 INTRA-LIGAND FREE ENERGY PREDICTED BY IDOCK:   -0.32 KCAL/MOL
REMARK 927      BINDING AFFINITY PREDICTED BY RF-SCORE:    0.00 PKD
ROOT
HETATM    1  C   UNL     1     -12.040  13.708  63.507  1.00  0.00    -0.341 C  
HETATM    2  C   UNL     1     -10.945  14.220  64.456  1.00  0.00    -0.311 C  
HETATM    3  C   UNL     1     -10.897  13.300  65.676  1.00  0.00    -0.291 A  
HETATM    4  C   UNL     1     -11.153  15.713  64.714  1.00  0.00    -0.412 C  
HETATM    5  C   UNL     1     -10.117  12.129  65.635  1.00  0.00    -0.274 A  
HETATM    6  O   UNL     1     -10.578  16.187  65.848  1.00  0.00    -0.327 OA 
HETATM    7  O   UNL     1     -11.727  16.473  63.944  1.00  0.00    -1.148 OA 
HETATM    8  C   UNL     1     -10.210  11.159  66.643  1.00  0.00    -0.274 A  
HETATM    9  C   UNL     1     -11.072  11.346  67.728  1.00  0.00    -0.323 A  
HETATM   10  C   UNL     1     -11.785  12.550  67.813  1.00  0.00    -0.419 A  
HETATM   11  C   UNL     1     -11.718  13.504  66.792  1.00  0.00    -0.430 A  
ENDROOT
BRANCH   9  12
HETATM   12  C   UNL     1     -11.425  10.223  68.680  1.00  0.00    -0.178 C  
BRANCH  12  13
HETATM   13  C   UNL     1     -11.667  10.562  70.150  1.00  0.00    -0.410 C  
HETATM   14  C   UNL     1     -13.107  10.314  70.612  1.00  0.00    -0.292 C  
HETATM   15  C   UNL     1     -12.984   9.824  72.051  1.00  0.00    -0.515 C  
HETATM   16  C   UNL     1     -11.772   8.905  72.038  1.00  0.00    -0.438 C  
HETATM   17  C   UNL     1     -10.894   9.591  71.027  1.00  0.00    -0.353 C  
HETATM   18  O   UNL     1      -9.696   9.357  70.906  1.00  0.00    -0.272 OA 
ENDBRANCH  12  13
ENDBRANCH   9  12
TORSDOF 2
ENDMDL
MODEL        9
REMARK 921   NORMALIZED FREE ENERGY PREDICTED BY IDOCK:   -6.27 KCAL/MOL
REMARK 922        TOTAL FREE ENERGY PREDICTED BY IDOCK:   -7.31 KCAL/MOL
REMARK 923 INTER-LIGAND FREE ENERGY PREDICTED BY IDOCK:   -6.98 KCAL/MOL
REMARK 924 INTRA-LIGAND FREE ENERGY PREDICTED BY IDOCK:   -0.33 KCAL/MOL
REMARK 927      BINDING AFFINITY PREDICTED BY RF-SCORE:    0.00 PKD
ROOT
HETATM    1  C   UNL     1     -13.240   8.486  71.681  1.00  0.00    -0.371 C  
HETATM    2  C   UNL     1     -11.922   9.242  71.910  1.00  0.00    -0.433 C  
HETATM    3  C   UNL     1     -11.563   9.985  70.622  1.00  0.00    -0.422 A  
HETATM    4  C   UNL     1     -10.876   8.281  72.476  1.00  0.00    -0.351 C  
HETATM    5  C   UNL     1     -12.095  11.267  70.388  1.00  0.00    -0.474 A  
HETATM    6  O   UNL     1      -9.586   8.664  72.298  1.00  0.00    -0.293 OA 
HETATM    7  O   UNL     1     -11.142   7.268  73.112  1.00  0.00    -0.331 OA 
HETATM    8  C   UNL     1     -11.963  11.890  69.138  1.00  0.00    -0.336 A  
HETATM    9  C   UNL     1     -11.279  11.253  68.098  1.00  0.00    -0.351 A  
HETATM   10  C   UNL     1     -10.677  10.014  68.358  1.00  0.00    -0.271 A  
HETATM   11  C   UNL     1     -10.835   9.377  69.593  1.00  0.00    -0.245 A  
ENDROOT
BRANCH   9  12
HETATM   12  C   UNL     1     -11.353  11.741  66.667  1.00  0.00    -0.381 C  
BRANCH  12  13
HETATM   13  C   UNL     1     -11.901  13.141  66.401  1.00  0.00    -0.455 C  
HETATM   14  C   UNL     1     -10.819  14.221  66.307  1.00  0.00    -0.310 C  
HETATM   15  C   UNL     1     -11.318  15.194  65.244  1.00  0.00    -0.318 C  
HETATM   16  C   UNL     1     -11.930  14.304  64.172  1.00  0.00    -0.401 C  
HETATM   17  C   UNL     1     -12.504  13.192  65.007  1.00  0.00    -0.460 C  
HETATM   18  O   UNL     1     -13.336  12.394  64.585  1.00  0.00    -0.778 OA 
ENDBRANCH  12  13
ENDBRANCH   9  12
TORSDOF 2
ENDMDL
MODEL       10
REMARK 921   NORMALIZED FREE ENERGY PREDICTED BY IDOCK:   -6.23 KCAL/MOL
REMARK 922        TOTAL FREE ENERGY PREDICTED BY IDOCK:   -7.27 KCAL/MOL
REMARK 923 INTER-LIGAND FREE ENERGY PREDICTED BY IDOCK:   -6.87 KCAL/MOL
REMARK 924 INTRA-LIGAND FREE ENERGY PREDICTED BY IDOCK:   -0.40 KCAL/MOL
REMARK 927      BINDING AFFINITY PREDICTED BY RF-SCORE:    0.00 PKD
ROOT
HETATM    1  C   UNL     1     -14.047   8.828  71.537  1.00  0.00    -0.383 C  
HETATM    2  C   UNL     1     -12.721   9.383  72.078  1.00  0.00    -0.483 C  
HETATM    3  C   UNL     1     -12.299  10.562  71.200  1.00  0.00    -0.510 A  
HETATM    4  C   UNL     1     -11.719   8.239  72.240  1.00  0.00    -0.388 C  
HETATM    5  C   UNL     1     -12.791  11.851  71.482  1.00  0.00    -0.421 A  
HETATM    6  O   UNL     1     -10.415   8.614  72.259  1.00  0.00    -0.330 OA 
HETATM    7  O   UNL     1     -12.032   7.068  72.416  1.00  0.00    -0.239 OA 
HETATM    8  C   UNL     1     -12.600  12.912  70.585  1.00  0.00    -0.256 A  
HETATM    9  C   UNL     1     -11.895  12.715  69.394  1.00  0.00    -0.356 A  
HETATM   10  C   UNL     1     -11.332  11.453  69.154  1.00  0.00    -0.353 A  
HETATM   11  C   UNL     1     -11.549  10.386  70.031  1.00  0.00    -0.378 A  
ENDROOT
BRANCH   9  12
HETATM   12  C   UNL     1     -11.907  13.732  68.273  1.00  0.00    -0.413 C  
BRANCH  12  13
HETATM   13  C   UNL     1     -11.794  13.232  66.835  1.00  0.00    -0.446 C  
HETATM   14  C   UNL     1     -12.726  13.953  65.854  1.00  0.00    -0.466 C  
HETATM   15  C   UNL     1     -11.939  14.044  64.551  1.00  0.00    -0.470 C  
HETATM   16  C   UNL     1     -10.517  14.362  64.986  1.00  0.00    -0.454 C  
HETATM   17  C   UNL     1     -10.427  13.595  66.278  1.00  0.00    -0.291 C  
HETATM   18  O   UNL     1      -9.365  13.333  66.834  1.00  0.00    -0.230 OA 
ENDBRANCH  12  13
ENDBRANCH   9  12
TORSDOF 2
ENDMDL
MODEL       11
REMARK 921   NORMALIZED FREE ENERGY PREDICTED BY IDOCK:   -6.23 KCAL/MOL
REMARK 922        TOTAL FREE ENERGY PREDICTED BY IDOCK:   -7.27 KCAL/MOL
REMARK 923 INTER-LIGAND FREE ENERGY PREDICTED BY IDOCK:   -7.12 KCAL/MOL
REMARK 924 INTRA-LIGAND FREE ENERGY PREDICTED BY IDOCK:   -0.15 KCAL/MOL
REMARK 927      BINDING AFFINITY PREDICTED BY RF-SCORE:    0.00 PKD
ROOT
HETATM    1  C   UNL     1     -12.643  12.399  63.699  1.00  0.00    -0.550 C  
HETATM    2  C   UNL     1     -11.507  13.164  64.395  1.00  0.00    -0.407 C  
HETATM    3  C   UNL     1     -11.165  12.437  65.697  1.00  0.00    -0.360 A  
HETATM    4  C   UNL     1     -11.878  14.644  64.498  1.00  0.00    -0.431 C  
HETATM    5  C   UNL     1     -10.247  11.370  65.678  1.00  0.00    -0.298 A  
HETATM    6  O   UNL     1     -11.220  15.337  65.462  1.00  0.00    -0.329 OA 
HETATM    7  O   UNL     1     -12.652  15.215  63.740  1.00  0.00    -0.752 OA 
HETATM    8  C   UNL     1     -10.066  10.549  66.800  1.00  0.00    -0.270 A  
HETATM    9  C   UNL     1     -10.785  10.786  67.975  1.00  0.00    -0.270 A  
HETATM   10  C   UNL     1     -11.637  11.899  68.021  1.00  0.00    -0.401 A  
HETATM   11  C   UNL     1     -11.843  12.700  66.894  1.00  0.00    -0.425 A  
ENDROOT
BRANCH   9  12
HETATM   12  C   UNL     1     -10.847   9.776  69.100  1.00  0.00    -0.231 C  
BRANCH  12  13
HETATM   13  C   UNL     1     -11.362  10.233  70.463  1.00  0.00    -0.422 C  
HETATM   14  C   UNL     1     -12.889  10.218  70.584  1.00  0.00    -0.362 C  
HETATM   15  C   UNL     1     -13.171   9.803  72.024  1.00  0.00    -0.557 C  
HETATM   16  C   UNL     1     -12.140   8.724  72.317  1.00  0.00    -0.423 C  
HETATM   17  C   UNL     1     -10.963   9.218  71.522  1.00  0.00    -0.375 C  
HETATM   18  O   UNL     1      -9.818   8.811  71.689  1.00  0.00    -0.252 OA 
ENDBRANCH  12  13
ENDBRANCH   9  12
TORSDOF 2
ENDMDL
MODEL       12
REMARK 921   NORMALIZED FREE ENERGY PREDICTED BY IDOCK:   -6.23 KCAL/MOL
REMARK 922        TOTAL FREE ENERGY PREDICTED BY IDOCK:   -7.26 KCAL/MOL
REMARK 923 INTER-LIGAND FREE ENERGY PREDICTED BY IDOCK:   -6.77 KCAL/MOL
REMARK 924 INTRA-LIGAND FREE ENERGY PREDICTED BY IDOCK:   -0.49 KCAL/MOL
REMARK 927      BINDING AFFINITY PREDICTED BY RF-SCORE:    0.00 PKD
ROOT
HETATM    1  C   UNL     1      -9.227  18.662  68.496  1.00  0.00    -0.377 C  
HETATM    2  C   UNL     1     -10.440  18.531  67.562  1.00  0.00    -0.453 C  
HETATM    3  C   UNL     1     -10.641  17.050  67.239  1.00  0.00    -0.267 A  
HETATM    4  C   UNL     1     -10.277  19.488  66.380  1.00  0.00    -0.479 C  
HETATM    5  C   UNL     1     -11.402  16.245  68.109  1.00  0.00    -0.248 A  
HETATM    6  O   UNL     1     -10.999  19.168  65.276  1.00  0.00    -0.512 OA 
HETATM    7  O   UNL     1      -9.612  20.516  66.411  1.00  0.00    -0.290 OA 
HETATM    8  C   UNL     1     -11.435  14.851  67.964  1.00  0.00    -0.355 A  
HETATM    9  C   UNL     1     -10.724  14.229  66.933  1.00  0.00    -0.290 A  
HETATM   10  C   UNL     1     -10.036  15.037  66.017  1.00  0.00    -0.334 A  
HETATM   11  C   UNL     1      -9.975  16.424  66.179  1.00  0.00    -0.360 A  
ENDROOT
BRANCH   9  12
HETATM   12  C   UNL     1     -10.492  12.733  66.903  1.00  0.00    -0.250 C  
BRANCH  12  13
HETATM   13  C   UNL     1     -11.248  11.899  65.872  1.00  0.00    -0.373 C  
HETATM   14  C   UNL     1     -12.332  12.679  65.119  1.00  0.00    -0.547 C  
HETATM   15  C   UNL     1     -12.315  12.117  63.702  1.00  0.00    -0.673 C  
HETATM   16  C   UNL     1     -10.840  11.914  63.391  1.00  0.00    -0.469 C  
HETATM   17  C   UNL     1     -10.307  11.518  64.741  1.00  0.00    -0.289 C  
HETATM   18  O   UNL     1      -9.214  10.983  64.904  1.00  0.00    -0.208 OA 
ENDBRANCH  12  13
ENDBRANCH   9  12
TORSDOF 2
ENDMDL
MODEL       13
REMARK 921   NORMALIZED FREE ENERGY PREDICTED BY IDOCK:   -6.19 KCAL/MOL
REMARK 922        TOTAL FREE ENERGY PREDICTED BY IDOCK:   -7.22 KCAL/MOL
REMARK 923 INTER-LIGAND FREE ENERGY PREDICTED BY IDOCK:   -6.88 KCAL/MOL
REMARK 924 INTRA-LIGAND FREE ENERGY PREDICTED BY IDOCK:   -0.34 KCAL/MOL
REMARK 927      BINDING AFFINITY PREDICTED BY RF-SCORE:    0.00 PKD
ROOT
HETATM    1  C   UNL     1     -10.849  14.909  66.383  1.00  0.00    -0.325 C  
HETATM    2  C   UNL     1     -12.132  14.064  66.399  1.00  0.00    -0.483 C  
HETATM    3  C   UNL     1     -11.906  12.863  67.318  1.00  0.00    -0.416 A  
HETATM    4  C   UNL     1     -12.567  13.772  64.962  1.00  0.00    -0.389 C  
HETATM    5  C   UNL     1     -12.141  12.991  68.700  1.00  0.00    -0.189 A  
HETATM    6  O   UNL     1     -13.378  12.694  64.813  1.00  0.00    -0.787 OA 
HETATM    7  O   UNL     1     -12.287  14.477  64.000  1.00  0.00    -0.697 OA 
HETATM    8  C   UNL     1     -11.748  11.988  69.598  1.00  0.00    -0.405 A  
HETATM    9  C   UNL     1     -11.129  10.824  69.133  1.00  0.00    -0.304 A  
HETATM   10  C   UNL     1     -10.973  10.659  67.749  1.00  0.00    -0.364 A  
HETATM   11  C   UNL     1     -11.334  11.672  66.855  1.00  0.00    -0.364 A  
ENDROOT
BRANCH   9  12
HETATM   12  C   UNL     1     -10.434   9.853  70.064  1.00  0.00    -0.331 C  
BRANCH  12  13
HETATM   13  C   UNL     1     -11.125   8.531  70.388  1.00  0.00    -0.246 C  
HETATM   14  C   UNL     1     -10.157   7.367  70.623  1.00  0.00    -0.191 C  
HETATM   15  C   UNL     1     -10.804   6.524  71.715  1.00  0.00    -0.277 C  
HETATM   16  C   UNL     1     -11.389   7.540  72.684  1.00  0.00    -0.395 C  
HETATM   17  C   UNL     1     -11.808   8.636  71.742  1.00  0.00    -0.337 C  
HETATM   18  O   UNL     1     -12.584   9.533  72.056  1.00  0.00    -0.379 OA 
ENDBRANCH  12  13
ENDBRANCH   9  12
TORSDOF 2
ENDMDL
MODEL       14
REMARK 921   NORMALIZED FREE ENERGY PREDICTED BY IDOCK:   -6.14 KCAL/MOL
REMARK 922        TOTAL FREE ENERGY PREDICTED BY IDOCK:   -7.17 KCAL/MOL
REMARK 923 INTER-LIGAND FREE ENERGY PREDICTED BY IDOCK:   -6.81 KCAL/MOL
REMARK 924 INTRA-LIGAND FREE ENERGY PREDICTED BY IDOCK:   -0.36 KCAL/MOL
REMARK 927      BINDING AFFINITY PREDICTED BY RF-SCORE:    0.00 PKD
ROOT
HETATM    1  C   UNL     1      -9.750  14.920  67.132  1.00  0.00    -0.229 C  
HETATM    2  C   UNL     1     -11.269  14.725  67.008  1.00  0.00    -0.347 C  
HETATM    3  C   UNL     1     -11.717  13.738  68.087  1.00  0.00    -0.392 A  
HETATM    4  C   UNL     1     -11.622  14.384  65.560  1.00  0.00    -0.347 C  
HETATM    5  C   UNL     1     -12.024  14.210  69.377  1.00  0.00    -0.382 A  
HETATM    6  O   UNL     1     -12.809  13.750  65.390  1.00  0.00    -0.650 OA 
HETATM    7  O   UNL     1     -10.945  14.708  64.591  1.00  0.00    -0.378 OA 
HETATM    8  C   UNL     1     -12.233  13.323  70.443  1.00  0.00    -0.404 A  
HETATM    9  C   UNL     1     -12.159  11.942  70.240  1.00  0.00    -0.409 A  
HETATM   10  C   UNL     1     -11.937  11.471  68.938  1.00  0.00    -0.364 A  
HETATM   11  C   UNL     1     -11.696  12.354  67.881  1.00  0.00    -0.421 A  
ENDROOT
BRANCH   9  12
HETATM   12  C   UNL     1     -12.088  10.960  71.391  1.00  0.00    -0.241 C  
BRANCH  12  13
HETATM   13  C   UNL     1     -11.701   9.513  71.092  1.00  0.00    -0.438 C  
HETATM   14  C   UNL     1     -10.209   9.221  71.280  1.00  0.00    -0.383 C  
HETATM   15  C   UNL     1     -10.147   7.799  71.827  1.00  0.00    -0.223 C  
HETATM   16  C   UNL     1     -11.307   7.718  72.808  1.00  0.00    -0.446 C  
HETATM   17  C   UNL     1     -12.324   8.598  72.133  1.00  0.00    -0.386 C  
HETATM   18  O   UNL     1     -13.515   8.597  72.427  1.00  0.00    -0.369 OA 
ENDBRANCH  12  13
ENDBRANCH   9  12
TORSDOF 2
ENDMDL
MODEL       15
REMARK 921   NORMALIZED FREE ENERGY PREDICTED BY IDOCK:   -6.13 KCAL/MOL
REMARK 922        TOTAL FREE ENERGY PREDICTED BY IDOCK:   -7.15 KCAL/MOL
REMARK 923 INTER-LIGAND FREE ENERGY PREDICTED BY IDOCK:   -6.59 KCAL/MOL
REMARK 924 INTRA-LIGAND FREE ENERGY PREDICTED BY IDOCK:   -0.56 KCAL/MOL
REMARK 927      BINDING AFFINITY PREDICTED BY RF-SCORE:    0.00 PKD
ROOT
HETATM    1  C   UNL     1     -11.385  11.932  66.550  1.00  0.00    -0.403 C  
HETATM    2  C   UNL     1     -11.076  12.965  65.455  1.00  0.00    -0.306 C  
HETATM    3  C   UNL     1     -10.442  14.190  66.114  1.00  0.00    -0.297 A  
HETATM    4  C   UNL     1     -12.328  13.197  64.607  1.00  0.00    -0.405 C  
HETATM    5  C   UNL     1      -9.053  14.219  66.337  1.00  0.00    -0.171 A  
HETATM    6  O   UNL     1     -12.354  14.372  63.928  1.00  0.00    -0.720 OA 
HETATM    7  O   UNL     1     -13.228  12.377  64.467  1.00  0.00    -0.834 OA 
HETATM    8  C   UNL     1      -8.465  15.222  67.121  1.00  0.00    -0.235 A  
HETATM    9  C   UNL     1      -9.250  16.232  67.686  1.00  0.00    -0.206 A  
HETATM   10  C   UNL     1     -10.622  16.250  67.394  1.00  0.00    -0.307 A  
HETATM   11  C   UNL     1     -11.214  15.234  66.639  1.00  0.00    -0.232 A  
ENDROOT
BRANCH   9  12
HETATM   12  C   UNL     1      -8.722  17.158  68.761  1.00  0.00    -0.235 C  
BRANCH  12  13
HETATM   13  C   UNL     1      -8.237  18.547  68.352  1.00  0.00    -0.351 C  
HETATM   14  C   UNL     1      -7.748  18.630  66.903  1.00  0.00    -0.241 C  
HETATM   15  C   UNL     1      -8.166  20.014  66.420  1.00  0.00    -0.338 C  
HETATM   16  C   UNL     1      -9.550  20.223  67.015  1.00  0.00    -0.572 C  
HETATM   17  C   UNL     1      -9.414  19.508  68.331  1.00  0.00    -0.376 C  
HETATM   18  O   UNL     1     -10.196  19.661  69.265  1.00  0.00    -0.365 OA 
ENDBRANCH  12  13
ENDBRANCH   9  12
TORSDOF 2
ENDMDL
MODEL       16
REMARK 921   NORMALIZED FREE ENERGY PREDICTED BY IDOCK:   -6.10 KCAL/MOL
REMARK 922        TOTAL FREE ENERGY PREDICTED BY IDOCK:   -7.12 KCAL/MOL
REMARK 923 INTER-LIGAND FREE ENERGY PREDICTED BY IDOCK:   -6.86 KCAL/MOL
REMARK 924 INTRA-LIGAND FREE ENERGY PREDICTED BY IDOCK:   -0.26 KCAL/MOL
REMARK 927      BINDING AFFINITY PREDICTED BY RF-SCORE:    0.00 PKD
ROOT
HETATM    1  C   UNL     1     -10.349  19.847  66.155  1.00  0.00    -0.604 C  
HETATM    2  C   UNL     1      -9.176  18.935  66.547  1.00  0.00    -0.342 C  
HETATM    3  C   UNL     1      -9.738  17.719  67.284  1.00  0.00    -0.285 A  
HETATM    4  C   UNL     1      -8.111  19.760  67.272  1.00  0.00    -0.292 C  
HETATM    5  C   UNL     1     -10.177  16.602  66.549  1.00  0.00    -0.314 A  
HETATM    6  O   UNL     1      -7.268  19.046  68.060  1.00  0.00    -0.236 OA 
HETATM    7  O   UNL     1      -7.951  20.965  67.121  1.00  0.00    -0.280 OA 
HETATM    8  C   UNL     1     -10.886  15.561  67.165  1.00  0.00    -0.316 A  
HETATM    9  C   UNL     1     -11.157  15.603  68.536  1.00  0.00    -0.322 A  
HETATM   10  C   UNL     1     -10.646  16.673  69.283  1.00  0.00    -0.343 A  
HETATM   11  C   UNL     1      -9.966  17.728  68.665  1.00  0.00    -0.379 A  
ENDROOT
BRANCH   9  12
HETATM   12  C   UNL     1     -12.151  14.668  69.190  1.00  0.00    -0.283 C  
BRANCH  12  13
HETATM   13  C   UNL     1     -12.181  14.586  70.715  1.00  0.00    -0.403 C  
HETATM   14  C   UNL     1     -13.193  15.534  71.366  1.00  0.00    -0.587 C  
HETATM   15  C   UNL     1     -13.733  14.774  72.572  1.00  0.00    -0.572 C  
HETATM   16  C   UNL     1     -13.886  13.342  72.083  1.00  0.00    -0.605 C  
HETATM   17  C   UNL     1     -12.720  13.229  71.139  1.00  0.00    -0.320 C  
HETATM   18  O   UNL     1     -12.285  12.157  70.730  1.00  0.00    -0.377 OA 
ENDBRANCH  12  13
ENDBRANCH   9  12
TORSDOF 2
ENDMDL
MODEL       17
REMARK 921   NORMALIZED FREE ENERGY PREDICTED BY IDOCK:   -6.10 KCAL/MOL
REMARK 922        TOTAL FREE ENERGY PREDICTED BY IDOCK:   -7.12 KCAL/MOL
REMARK 923 INTER-LIGAND FREE ENERGY PREDICTED BY IDOCK:   -6.69 KCAL/MOL
REMARK 924 INTRA-LIGAND FREE ENERGY PREDICTED BY IDOCK:   -0.43 KCAL/MOL
REMARK 927      BINDING AFFINITY PREDICTED BY RF-SCORE:    0.00 PKD
ROOT
HETATM    1  C   UNL     1     -10.782  19.358  67.126  1.00  0.00    -0.593 C  
HETATM    2  C   UNL     1      -9.638  18.340  67.002  1.00  0.00    -0.291 C  
HETATM    3  C   UNL     1     -10.233  16.994  66.588  1.00  0.00    -0.310 A  
HETATM    4  C   UNL     1      -8.792  18.368  68.276  1.00  0.00    -0.305 C  
HETATM    5  C   UNL     1     -10.441  16.715  65.224  1.00  0.00    -0.195 A  
HETATM    6  O   UNL     1      -8.060  17.249  68.506  1.00  0.00    -0.245 OA 
HETATM    7  O   UNL     1      -8.699  19.336  69.021  1.00  0.00    -0.335 OA 
HETATM    8  C   UNL     1     -11.172  15.590  64.817  1.00  0.00    -0.399 A  
HETATM    9  C   UNL     1     -11.697  14.705  65.764  1.00  0.00    -0.302 A  
HETATM   10  C   UNL     1     -11.418  14.937  67.119  1.00  0.00    -0.344 A  
HETATM   11  C   UNL     1     -10.716  16.076  67.528  1.00  0.00    -0.314 A  
ENDROOT
BRANCH   9  12
HETATM   12  C   UNL     1     -12.723  13.652  65.403  1.00  0.00    -0.500 C  
BRANCH  12  13
HETATM   13  C   UNL     1     -12.239  12.353  64.763  1.00  0.00    -0.493 C  
HETATM   14  C   UNL     1     -11.349  12.563  63.533  1.00  0.00    -0.556 C  
HETATM   15  C   UNL     1     -10.317  11.442  63.592  1.00  0.00    -0.463 C  
HETATM   16  C   UNL     1      -9.963  11.327  65.067  1.00  0.00    -0.323 C  
HETATM   17  C   UNL     1     -11.285  11.645  65.711  1.00  0.00    -0.230 C  
HETATM   18  O   UNL     1     -11.541  11.394  66.885  1.00  0.00    -0.492 OA 
ENDBRANCH  12  13
ENDBRANCH   9  12
TORSDOF 2
ENDMDL
MODEL       18
REMARK 921   NORMALIZED FREE ENERGY PREDICTED BY IDOCK:   -6.08 KCAL/MOL
REMARK 922        TOTAL FREE ENERGY PREDICTED BY IDOCK:   -7.09 KCAL/MOL
REMARK 923 INTER-LIGAND FREE ENERGY PREDICTED BY IDOCK:   -6.66 KCAL/MOL
REMARK 924 INTRA-LIGAND FREE ENERGY PREDICTED BY IDOCK:   -0.43 KCAL/MOL
REMARK 927      BINDING AFFINITY PREDICTED BY RF-SCORE:    0.00 PKD
ROOT
HETATM    1  C   UNL     1     -12.621  15.914  72.178  1.00  0.00    -0.522 C  
HETATM    2  C   UNL     1     -11.969  14.617  71.677  1.00  0.00    -0.379 C  
HETATM    3  C   UNL     1     -11.387  14.876  70.286  1.00  0.00    -0.296 A  
HETATM    4  C   UNL     1     -12.962  13.462  71.814  1.00  0.00    -0.342 C  
HETATM    5  C   UNL     1     -10.091  15.410  70.162  1.00  0.00    -0.156 A  
HETATM    6  O   UNL     1     -12.716  12.392  71.015  1.00  0.00    -0.326 OA 
HETATM    7  O   UNL     1     -13.881  13.435  72.624  1.00  0.00    -0.726 OA 
HETATM    8  C   UNL     1      -9.605  15.856  68.925  1.00  0.00    -0.230 A  
HETATM    9  C   UNL     1     -10.397  15.761  67.777  1.00  0.00    -0.275 A  
HETATM   10  C   UNL     1     -11.655  15.151  67.885  1.00  0.00    -0.326 A  
HETATM   11  C   UNL     1     -12.154  14.736  69.123  1.00  0.00    -0.278 A  
ENDROOT
BRANCH   9  12
HETATM   12  C   UNL     1     -10.044  16.479  66.492  1.00  0.00    -0.307 C  
BRANCH  12  13
HETATM   13  C   UNL     1     -10.173  18.000  66.448  1.00  0.00    -0.393 C  
HETATM   14  C   UNL     1     -10.828  18.602  67.695  1.00  0.00    -0.347 C  
HETATM   15  C   UNL     1     -10.113  19.929  67.920  1.00  0.00    -0.571 C  
HETATM   16  C   UNL     1      -8.654  19.634  67.608  1.00  0.00    -0.365 C  
HETATM   17  C   UNL     1      -8.789  18.627  66.499  1.00  0.00    -0.304 C  
HETATM   18  O   UNL     1      -7.867  18.323  65.749  1.00  0.00    -0.517 OA 
ENDBRANCH  12  13
ENDBRANCH   9  12
TORSDOF 2
ENDMDL
MODEL       19
REMARK 921   NORMALIZED FREE ENERGY PREDICTED BY IDOCK:   -6.01 KCAL/MOL
REMARK 922        TOTAL FREE ENERGY PREDICTED BY IDOCK:   -7.02 KCAL/MOL
REMARK 923 INTER-LIGAND FREE ENERGY PREDICTED BY IDOCK:   -6.54 KCAL/MOL
REMARK 924 INTRA-LIGAND FREE ENERGY PREDICTED BY IDOCK:   -0.49 KCAL/MOL
REMARK 927      BINDING AFFINITY PREDICTED BY RF-SCORE:    0.00 PKD
ROOT
HETATM    1  C   UNL     1     -12.347  12.509  70.897  1.00  0.00    -0.349 C  
HETATM    2  C   UNL     1     -13.089  13.818  70.587  1.00  0.00    -0.093 C  
HETATM    3  C   UNL     1     -12.130  14.750  69.844  1.00  0.00    -0.381 A  
HETATM    4  C   UNL     1     -13.732  14.354  71.867  1.00  0.00    -0.431 C  
HETATM    5  C   UNL     1     -12.009  14.651  68.445  1.00  0.00    -0.289 A  
HETATM    6  O   UNL     1     -14.012  15.682  71.858  1.00  0.00    -0.475 OA 
HETATM    7  O   UNL     1     -14.054  13.657  72.821  1.00  0.00    -0.711 OA 
HETATM    8  C   UNL     1     -10.997  15.334  67.755  1.00  0.00    -0.312 A  
HETATM    9  C   UNL     1     -10.094  16.148  68.445  1.00  0.00    -0.236 A  
HETATM   10  C   UNL     1     -10.268  16.313  69.827  1.00  0.00    -0.169 A  
HETATM   11  C   UNL     1     -11.256  15.608  70.521  1.00  0.00    -0.382 A  
ENDROOT
BRANCH   9  12
HETATM   12  C   UNL     1      -8.826  16.670  67.803  1.00  0.00    -0.206 C  
BRANCH  12  13
HETATM   13  C   UNL     1      -8.877  18.011  67.074  1.00  0.00    -0.259 C  
HETATM   14  C   UNL     1     -10.179  18.245  66.300  1.00  0.00    -0.414 C  
HETATM   15  C   UNL     1     -10.459  19.738  66.435  1.00  0.00    -0.618 C  
HETATM   16  C   UNL     1     -10.083  20.068  67.871  1.00  0.00    -0.559 C  
HETATM   17  C   UNL     1      -8.921  19.139  68.091  1.00  0.00    -0.322 C  
HETATM   18  O   UNL     1      -8.125  19.264  69.017  1.00  0.00    -0.332 OA 
ENDBRANCH  12  13
ENDBRANCH   9  12
TORSDOF 2
ENDMDL
MODEL       20
REMARK 921   NORMALIZED FREE ENERGY PREDICTED BY IDOCK:   -5.97 KCAL/MOL
REMARK 922        TOTAL FREE ENERGY PREDICTED BY IDOCK:   -6.98 KCAL/MOL
REMARK 923 INTER-LIGAND FREE ENERGY PREDICTED BY IDOCK:   -6.57 KCAL/MOL
REMARK 924 INTRA-LIGAND FREE ENERGY PREDICTED BY IDOCK:   -0.41 KCAL/MOL
REMARK 927      BINDING AFFINITY PREDICTED BY RF-SCORE:    0.00 PKD
ROOT
HETATM    1  C   UNL     1     -12.214  12.488  63.492  1.00  0.00    -0.652 C  
HETATM    2  C   UNL     1     -11.348  11.908  64.620  1.00  0.00    -0.355 C  
HETATM    3  C   UNL     1     -11.091  13.012  65.646  1.00  0.00    -0.301 A  
HETATM    4  C   UNL     1     -10.125  11.215  64.018  1.00  0.00    -0.336 C  
HETATM    5  C   UNL     1     -12.028  13.240  66.672  1.00  0.00    -0.446 A  
HETATM    6  O   UNL     1      -9.072  11.069  64.862  1.00  0.00    -0.197 OA 
HETATM    7  O   UNL     1     -10.084  10.747  62.887  1.00  0.00    -0.273 OA 
HETATM    8  C   UNL     1     -11.936  14.369  67.500  1.00  0.00    -0.389 A  
HETATM    9  C   UNL     1     -10.894  15.286  67.334  1.00  0.00    -0.304 A  
HETATM   10  C   UNL     1      -9.914  15.014  66.369  1.00  0.00    -0.295 A  
HETATM   11  C   UNL     1     -10.022  13.907  65.521  1.00  0.00    -0.275 A  
ENDROOT
BRANCH   9  12
HETATM   12  C   UNL     1     -10.907  16.648  67.994  1.00  0.00    -0.337 C  
BRANCH  12  13
HETATM   13  C   UNL     1     -10.048  17.758  67.392  1.00  0.00    -0.338 C  
HETATM   14  C   UNL     1     -10.771  19.103  67.271  1.00  0.00    -0.585 C  
HETATM   15  C   UNL     1      -9.703  20.156  67.549  1.00  0.00    -0.557 C  
HETATM   16  C   UNL     1      -8.878  19.570  68.685  1.00  0.00    -0.386 C  
HETATM   17  C   UNL     1      -8.921  18.103  68.353  1.00  0.00    -0.293 C  
HETATM   18  O   UNL     1      -8.154  17.279  68.840  1.00  0.00    -0.257 OA 
ENDBRANCH  12  13
ENDBRANCH   9  12
TORSDOF 2
ENDMDL
MODEL       21
REMARK 921   NORMALIZED FREE ENERGY PREDICTED BY IDOCK:   -5.95 KCAL/MOL
REMARK 922        TOTAL FREE ENERGY PREDICTED BY IDOCK:   -6.95 KCAL/MOL
REMARK 923 INTER-LIGAND FREE ENERGY PREDICTED BY IDOCK:   -6.59 KCAL/MOL
REMARK 924 INTRA-LIGAND FREE ENERGY PREDICTED BY IDOCK:   -0.36 KCAL/MOL
REMARK 927      BINDING AFFINITY PREDICTED BY RF-SCORE:    0.00 PKD
ROOT
HETATM    1  C   UNL     1      -9.114   8.728  71.668  1.00  0.00    -0.314 C  
HETATM    2  C   UNL     1     -10.505   8.288  71.185  1.00  0.00    -0.254 C  
HETATM    3  C   UNL     1     -11.073   9.388  70.287  1.00  0.00    -0.299 A  
HETATM    4  C   UNL     1     -11.350   7.862  72.387  1.00  0.00    -0.369 C  
HETATM    5  C   UNL     1     -10.755   9.400  68.915  1.00  0.00    -0.203 A  
HETATM    6  O   UNL     1     -12.692   7.893  72.187  1.00  0.00    -0.290 OA 
HETATM    7  O   UNL     1     -10.887   7.447  73.442  1.00  0.00    -0.388 OA 
HETATM    8  C   UNL     1     -11.079  10.497  68.105  1.00  0.00    -0.346 A  
HETATM    9  C   UNL     1     -11.746  11.602  68.642  1.00  0.00    -0.386 A  
HETATM   10  C   UNL     1     -12.138  11.554  69.988  1.00  0.00    -0.408 A  
HETATM   11  C   UNL     1     -11.788  10.474  70.805  1.00  0.00    -0.465 A  
ENDROOT
BRANCH   9  12
HETATM   12  C   UNL     1     -11.862  12.915  67.898  1.00  0.00    -0.388 C  
BRANCH  12  13
HETATM   13  C   UNL     1     -11.802  12.895  66.372  1.00  0.00    -0.478 C  
HETATM   14  C   UNL     1     -12.777  13.868  65.702  1.00  0.00    -0.534 C  
HETATM   15  C   UNL     1     -12.044  14.381  64.468  1.00  0.00    -0.498 C  
HETATM   16  C   UNL     1     -10.608  14.575  64.931  1.00  0.00    -0.450 C  
HETATM   17  C   UNL     1     -10.461  13.443  65.911  1.00  0.00    -0.287 C  
HETATM   18  O   UNL     1      -9.376  13.041  66.318  1.00  0.00    -0.230 OA 
ENDBRANCH  12  13
ENDBRANCH   9  12
TORSDOF 2
ENDMDL
MODEL       22
REMARK 921   NORMALIZED FREE ENERGY PREDICTED BY IDOCK:   -5.94 KCAL/MOL
REMARK 922        TOTAL FREE ENERGY PREDICTED BY IDOCK:   -6.94 KCAL/MOL
REMARK 923 INTER-LIGAND FREE ENERGY PREDICTED BY IDOCK:   -6.62 KCAL/MOL
REMARK 924 INTRA-LIGAND FREE ENERGY PREDICTED BY IDOCK:   -0.32 KCAL/MOL
REMARK 927      BINDING AFFINITY PREDICTED BY RF-SCORE:    0.00 PKD
ROOT
HETATM    1  C   UNL     1     -10.910  10.408  67.634  1.00  0.00    -0.361 C  
HETATM    2  C   UNL     1     -11.906  11.280  68.413  1.00  0.00    -0.331 C  
HETATM    3  C   UNL     1     -11.530  12.747  68.203  1.00  0.00    -0.357 A  
HETATM    4  C   UNL     1     -11.997  10.783  69.857  1.00  0.00    -0.342 C  
HETATM    5  C   UNL     1     -12.021  13.438  67.079  1.00  0.00    -0.429 A  
HETATM    6  O   UNL     1     -12.455  11.694  70.753  1.00  0.00    -0.360 OA 
HETATM    7  O   UNL     1     -11.754   9.634  70.207  1.00  0.00    -0.240 OA 
HETATM    8  C   UNL     1     -11.535  14.708  66.739  1.00  0.00    -0.371 A  
HETATM    9  C   UNL     1     -10.560  15.328  67.526  1.00  0.00    -0.273 A  
HETATM   10  C   UNL     1     -10.133  14.677  68.692  1.00  0.00    -0.238 A  
HETATM   11  C   UNL     1     -10.592  13.397  69.015  1.00  0.00    -0.106 A  
ENDROOT
BRANCH   9  12
HETATM   12  C   UNL     1      -9.801  16.550  67.055  1.00  0.00    -0.259 C  
BRANCH  12  13
HETATM   13  C   UNL     1     -10.398  17.929  67.328  1.00  0.00    -0.374 C  
HETATM   14  C   UNL     1      -9.520  18.818  68.215  1.00  0.00    -0.389 C  
HETATM   15  C   UNL     1      -9.713  20.232  67.678  1.00  0.00    -0.555 C  
HETATM   16  C   UNL     1      -9.750  20.063  66.167  1.00  0.00    -0.517 C  
HETATM   17  C   UNL     1     -10.435  18.730  66.037  1.00  0.00    -0.432 C  
HETATM   18  O   UNL     1     -10.930  18.325  64.989  1.00  0.00    -0.684 OA 
ENDBRANCH  12  13
ENDBRANCH   9  12
TORSDOF 2
ENDMDL
MODEL       23
REMARK 921   NORMALIZED FREE ENERGY PREDICTED BY IDOCK:   -5.90 KCAL/MOL
REMARK 922        TOTAL FREE ENERGY PREDICTED BY IDOCK:   -6.90 KCAL/MOL
REMARK 923 INTER-LIGAND FREE ENERGY PREDICTED BY IDOCK:   -6.56 KCAL/MOL
REMARK 924 INTRA-LIGAND FREE ENERGY PREDICTED BY IDOCK:   -0.34 KCAL/MOL
REMARK 927      BINDING AFFINITY PREDICTED BY RF-SCORE:    0.00 PKD
ROOT
HETATM    1  C   UNL     1     -13.298   8.452  71.656  1.00  0.00    -0.361 C  
HETATM    2  C   UNL     1     -12.001   9.219  71.953  1.00  0.00    -0.433 C  
HETATM    3  C   UNL     1     -11.708  10.145  70.771  1.00  0.00    -0.446 A  
HETATM    4  C   UNL     1     -10.905   8.230  72.354  1.00  0.00    -0.351 C  
HETATM    5  C   UNL     1     -12.291  11.426  70.730  1.00  0.00    -0.483 A  
HETATM    6  O   UNL     1      -9.635   8.683  72.197  1.00  0.00    -0.287 OA 
HETATM    7  O   UNL     1     -11.117   7.131  72.851  1.00  0.00    -0.292 OA 
HETATM    8  C   UNL     1     -12.219  12.218  69.575  1.00  0.00    -0.153 A  
HETATM    9  C   UNL     1     -11.547  11.756  68.440  1.00  0.00    -0.380 A  
HETATM   10  C   UNL     1     -10.894  10.517  68.510  1.00  0.00    -0.275 A  
HETATM   11  C   UNL     1     -10.992   9.712  69.649  1.00  0.00    -0.253 A  
ENDROOT
BRANCH   9  12
HETATM   12  C   UNL     1     -11.682  12.432  67.092  1.00  0.00    -0.415 C  
BRANCH  12  13
HETATM   13  C   UNL     1     -11.796  13.954  67.047  1.00  0.00    -0.447 C  
HETATM   14  C   UNL     1     -10.522  14.682  67.490  1.00  0.00    -0.247 C  
HETATM   15  C   UNL     1     -10.445  15.922  66.605  1.00  0.00    -0.306 C  
HETATM   16  C   UNL     1     -10.887  15.439  65.233  1.00  0.00    -0.423 C  
HETATM   17  C   UNL     1     -11.921  14.410  65.603  1.00  0.00    -0.354 C  
HETATM   18  O   UNL     1     -12.743  13.965  64.808  1.00  0.00    -0.650 OA 
ENDBRANCH  12  13
ENDBRANCH   9  12
TORSDOF 2
ENDMDL
MODEL       24
REMARK 921   NORMALIZED FREE ENERGY PREDICTED BY IDOCK:   -5.88 KCAL/MOL
REMARK 922        TOTAL FREE ENERGY PREDICTED BY IDOCK:   -6.87 KCAL/MOL
REMARK 923 INTER-LIGAND FREE ENERGY PREDICTED BY IDOCK:   -6.69 KCAL/MOL
REMARK 924 INTRA-LIGAND FREE ENERGY PREDICTED BY IDOCK:   -0.18 KCAL/MOL
REMARK 927      BINDING AFFINITY PREDICTED BY RF-SCORE:    0.00 PKD
ROOT
HETATM    1  C   UNL     1     -10.070   9.207  71.192  1.00  0.00    -0.384 C  
HETATM    2  C   UNL     1     -11.419   9.166  70.457  1.00  0.00    -0.271 C  
HETATM    3  C   UNL     1     -11.416  10.258  69.385  1.00  0.00    -0.248 A  
HETATM    4  C   UNL     1     -12.556   9.194  71.479  1.00  0.00    -0.343 C  
HETATM    5  C   UNL     1     -10.874   9.984  68.115  1.00  0.00    -0.303 A  
HETATM    6  O   UNL     1     -13.752   9.620  70.998  1.00  0.00    -0.274 OA 
HETATM    7  O   UNL     1     -12.455   8.801  72.634  1.00  0.00    -0.361 OA 
HETATM    8  C   UNL     1     -10.662  11.008  67.181  1.00  0.00    -0.313 A  
HETATM    9  C   UNL     1     -11.004  12.328  67.487  1.00  0.00    -0.298 A  
HETATM   10  C   UNL     1     -11.621  12.588  68.720  1.00  0.00    -0.366 A  
HETATM   11  C   UNL     1     -11.804  11.573  69.665  1.00  0.00    -0.421 A  
ENDROOT
BRANCH   9  12
HETATM   12  C   UNL     1     -10.538  13.498  66.646  1.00  0.00    -0.280 C  
BRANCH  12  13
HETATM   13  C   UNL     1     -10.813  13.471  65.145  1.00  0.00    -0.336 C  
HETATM   14  C   UNL     1     -10.249  12.236  64.434  1.00  0.00    -0.341 C  
HETATM   15  C   UNL     1     -11.267  11.901  63.350  1.00  0.00    -0.463 C  
HETATM   16  C   UNL     1     -12.617  12.139  64.009  1.00  0.00    -0.507 C  
HETATM   17  C   UNL     1     -12.305  13.305  64.906  1.00  0.00    -0.425 C  
HETATM   18  O   UNL     1     -13.167  14.012  65.417  1.00  0.00    -0.761 OA 
ENDBRANCH  12  13
ENDBRANCH   9  12
TORSDOF 2
ENDMDL
MODEL       25
REMARK 921   NORMALIZED FREE ENERGY PREDICTED BY IDOCK:   -5.88 KCAL/MOL
REMARK 922        TOTAL FREE ENERGY PREDICTED BY IDOCK:   -6.87 KCAL/MOL
REMARK 923 INTER-LIGAND FREE ENERGY PREDICTED BY IDOCK:   -6.65 KCAL/MOL
REMARK 924 INTRA-LIGAND FREE ENERGY PREDICTED BY IDOCK:   -0.22 KCAL/MOL
REMARK 927      BINDING AFFINITY PREDICTED BY RF-SCORE:    0.00 PKD
ROOT
HETATM    1  C   UNL     1     -12.781  12.084  63.462  1.00  0.00    -0.567 C  
HETATM    2  C   UNL     1     -11.511  12.702  64.067  1.00  0.00    -0.475 C  
HETATM    3  C   UNL     1     -10.987  11.758  65.151  1.00  0.00    -0.351 A  
HETATM    4  C   UNL     1     -11.794  14.148  64.478  1.00  0.00    -0.436 C  
HETATM    5  C   UNL     1     -10.132  10.698  64.796  1.00  0.00    -0.412 A  
HETATM    6  O   UNL     1     -10.953  14.656  65.414  1.00  0.00    -0.316 OA 
HETATM    7  O   UNL     1     -12.659  14.852  63.971  1.00  0.00    -0.832 OA 
HETATM    8  C   UNL     1      -9.801   9.694  65.717  1.00  0.00    -0.373 A  
HETATM    9  C   UNL     1     -10.300   9.737  67.022  1.00  0.00    -0.305 A  
HETATM   10  C   UNL     1     -11.082  10.838  67.400  1.00  0.00    -0.363 A  
HETATM   11  C   UNL     1     -11.440  11.823  66.474  1.00  0.00    -0.325 A  
ENDROOT
BRANCH   9  12
HETATM   12  C   UNL     1     -10.215   8.550  67.957  1.00  0.00    -0.264 C  
BRANCH  12  13
HETATM   13  C   UNL     1     -10.652   7.181  67.441  1.00  0.00    -0.372 C  
HETATM   14  C   UNL     1      -9.557   6.429  66.677  1.00  0.00    -0.194 C  
HETATM   15  C   UNL     1      -9.761   4.960  67.030  1.00  0.00    -0.193 C  
HETATM   16  C   UNL     1     -10.112   4.970  68.510  1.00  0.00    -0.184 C  
HETATM   17  C   UNL     1     -10.896   6.250  68.617  1.00  0.00    -0.333 C  
HETATM   18  O   UNL     1     -11.617   6.521  69.572  1.00  0.00    -0.357 OA 
ENDBRANCH  12  13
ENDBRANCH   9  12
TORSDOF 2
ENDMDL
MODEL       26
REMARK 921   NORMALIZED FREE ENERGY PREDICTED BY IDOCK:   -5.88 KCAL/MOL
REMARK 922        TOTAL FREE ENERGY PREDICTED BY IDOCK:   -6.87 KCAL/MOL
REMARK 923 INTER-LIGAND FREE ENERGY PREDICTED BY IDOCK:   -6.50 KCAL/MOL
REMARK 924 INTRA-LIGAND FREE ENERGY PREDICTED BY IDOCK:   -0.37 KCAL/MOL
REMARK 927      BINDING AFFINITY PREDICTED BY RF-SCORE:    0.00 PKD
ROOT
HETATM    1  C   UNL     1     -10.083  15.362  69.427  1.00  0.00    -0.269 C  
HETATM    2  C   UNL     1     -11.451  14.985  68.839  1.00  0.00    -0.333 C  
HETATM    3  C   UNL     1     -11.889  13.655  69.454  1.00  0.00    -0.392 A  
HETATM    4  C   UNL     1     -11.389  15.062  67.313  1.00  0.00    -0.332 C  
HETATM    5  C   UNL     1     -12.572  13.648  70.685  1.00  0.00    -0.366 A  
HETATM    6  O   UNL     1     -12.333  14.337  66.661  1.00  0.00    -0.446 OA 
HETATM    7  O   UNL     1     -10.607  15.770  66.690  1.00  0.00    -0.306 OA 
HETATM    8  C   UNL     1     -12.803  12.453  71.380  1.00  0.00    -0.360 A  
HETATM    9  C   UNL     1     -12.373  11.232  70.852  1.00  0.00    -0.490 A  
HETATM   10  C   UNL     1     -11.768  11.229  69.587  1.00  0.00    -0.420 A  
HETATM   11  C   UNL     1     -11.508  12.423  68.907  1.00  0.00    -0.355 A  
ENDROOT
BRANCH   9  12
HETATM   12  C   UNL     1     -12.336   9.964  71.679  1.00  0.00    -0.496 C  
BRANCH  12  13
HETATM   13  C   UNL     1     -11.447   8.814  71.211  1.00  0.00    -0.355 C  
HETATM   14  C   UNL     1     -10.102   8.736  71.941  1.00  0.00    -0.409 C  
HETATM   15  C   UNL     1      -9.804   7.246  72.069  1.00  0.00    -0.183 C  
HETATM   16  C   UNL     1     -11.150   6.616  72.395  1.00  0.00    -0.294 C  
HETATM   17  C   UNL     1     -12.083   7.491  71.603  1.00  0.00    -0.311 C  
HETATM   18  O   UNL     1     -13.241   7.179  71.342  1.00  0.00    -0.385 OA 
ENDBRANCH  12  13
ENDBRANCH   9  12
TORSDOF 2
ENDMDL
MODEL       27
REMARK 921   NORMALIZED FREE ENERGY PREDICTED BY IDOCK:   -5.84 KCAL/MOL
REMARK 922        TOTAL FREE ENERGY PREDICTED BY IDOCK:   -6.83 KCAL/MOL
REMARK 923 INTER-LIGAND FREE ENERGY PREDICTED BY IDOCK:   -6.49 KCAL/MOL
REMARK 924 INTRA-LIGAND FREE ENERGY PREDICTED BY IDOCK:   -0.33 KCAL/MOL
REMARK 927      BINDING AFFINITY PREDICTED BY RF-SCORE:    0.00 PKD
ROOT
HETATM    1  C   UNL     1      -8.894  17.445  68.439  1.00  0.00    -0.271 C  
HETATM    2  C   UNL     1     -10.194  17.389  67.624  1.00  0.00    -0.342 C  
HETATM    3  C   UNL     1     -10.773  15.977  67.737  1.00  0.00    -0.323 A  
HETATM    4  C   UNL     1      -9.936  17.926  66.215  1.00  0.00    -0.331 C  
HETATM    5  C   UNL     1     -11.606  15.652  68.824  1.00  0.00    -0.393 A  
HETATM    6  O   UNL     1     -10.825  17.524  65.273  1.00  0.00    -0.592 OA 
HETATM    7  O   UNL     1      -9.047  18.721  65.933  1.00  0.00    -0.456 OA 
HETATM    8  C   UNL     1     -11.983  14.325  69.077  1.00  0.00    -0.360 A  
HETATM    9  C   UNL     1     -11.552  13.294  68.238  1.00  0.00    -0.369 A  
HETATM   10  C   UNL     1     -10.793  13.629  67.107  1.00  0.00    -0.292 A  
HETATM   11  C   UNL     1     -10.389  14.946  66.871  1.00  0.00    -0.264 A  
ENDROOT
BRANCH   9  12
HETATM   12  C   UNL     1     -11.685  11.835  68.619  1.00  0.00    -0.389 C  
BRANCH  12  13
HETATM   13  C   UNL     1     -11.466  11.441  70.078  1.00  0.00    -0.331 C  
HETATM   14  C   UNL     1     -12.764  11.213  70.859  1.00  0.00    -0.438 C  
HETATM   15  C   UNL     1     -12.458  10.068  71.818  1.00  0.00    -0.475 C  
HETATM   16  C   UNL     1     -11.607   9.106  71.002  1.00  0.00    -0.370 C  
HETATM   17  C   UNL     1     -10.829  10.062  70.139  1.00  0.00    -0.311 C  
HETATM   18  O   UNL     1      -9.815   9.743  69.525  1.00  0.00    -0.188 OA 
ENDBRANCH  12  13
ENDBRANCH   9  12
TORSDOF 2
ENDMDL
MODEL       28
REMARK 921   NORMALIZED FREE ENERGY PREDICTED BY IDOCK:   -5.83 KCAL/MOL
REMARK 922        TOTAL FREE ENERGY PREDICTED BY IDOCK:   -6.82 KCAL/MOL
REMARK 923 INTER-LIGAND FREE ENERGY PREDICTED BY IDOCK:   -6.50 KCAL/MOL
REMARK 924 INTRA-LIGAND FREE ENERGY PREDICTED BY IDOCK:   -0.32 KCAL/MOL
REMARK 927      BINDING AFFINITY PREDICTED BY RF-SCORE:    0.00 PKD
ROOT
HETATM    1  C   UNL     1     -11.342  11.115  69.997  1.00  0.00    -0.326 C  
HETATM    2  C   UNL     1     -12.503  12.111  70.136  1.00  0.00    -0.108 C  
HETATM    3  C   UNL     1     -12.041  13.467  69.598  1.00  0.00    -0.349 A  
HETATM    4  C   UNL     1     -13.037  12.074  71.569  1.00  0.00    -0.261 C  
HETATM    5  C   UNL     1     -12.152  13.744  68.222  1.00  0.00    -0.314 A  
HETATM    6  O   UNL     1     -13.718  13.181  71.959  1.00  0.00    -0.464 OA 
HETATM    7  O   UNL     1     -12.941  11.107  72.315  1.00  0.00    -0.295 OA 
HETATM    8  C   UNL     1     -11.553  14.880  67.661  1.00  0.00    -0.357 A  
HETATM    9  C   UNL     1     -10.843  15.777  68.464  1.00  0.00    -0.290 A  
HETATM   10  C   UNL     1     -10.804  15.546  69.847  1.00  0.00    -0.311 A  
HETATM   11  C   UNL     1     -11.374  14.397  70.404  1.00  0.00    -0.148 A  
ENDROOT
BRANCH   9  12
HETATM   12  C   UNL     1      -9.945  16.847  67.880  1.00  0.00    -0.274 C  
BRANCH  12  13
HETATM   13  C   UNL     1     -10.505  18.258  67.713  1.00  0.00    -0.430 C  
HETATM   14  C   UNL     1      -9.690  19.335  68.436  1.00  0.00    -0.474 C  
HETATM   15  C   UNL     1      -9.758  20.560  67.531  1.00  0.00    -0.554 C  
HETATM   16  C   UNL     1      -9.636  20.000  66.123  1.00  0.00    -0.476 C  
HETATM   17  C   UNL     1     -10.363  18.691  66.264  1.00  0.00    -0.444 C  
HETATM   18  O   UNL     1     -10.757  18.032  65.306  1.00  0.00    -0.625 OA 
ENDBRANCH  12  13
ENDBRANCH   9  12
TORSDOF 2
ENDMDL
MODEL       29
REMARK 921   NORMALIZED FREE ENERGY PREDICTED BY IDOCK:   -5.83 KCAL/MOL
REMARK 922        TOTAL FREE ENERGY PREDICTED BY IDOCK:   -6.82 KCAL/MOL
REMARK 923 INTER-LIGAND FREE ENERGY PREDICTED BY IDOCK:   -6.48 KCAL/MOL
REMARK 924 INTRA-LIGAND FREE ENERGY PREDICTED BY IDOCK:   -0.34 KCAL/MOL
REMARK 927      BINDING AFFINITY PREDICTED BY RF-SCORE:    0.00 PKD
ROOT
HETATM    1  C   UNL     1     -14.400   8.668  71.467  1.00  0.00    -0.402 C  
HETATM    2  C   UNL     1     -13.095   9.117  72.141  1.00  0.00    -0.516 C  
HETATM    3  C   UNL     1     -12.609  10.391  71.449  1.00  0.00    -0.539 A  
HETATM    4  C   UNL     1     -12.120   7.939  72.199  1.00  0.00    -0.326 C  
HETATM    5  C   UNL     1     -13.095  11.642  71.874  1.00  0.00    -0.490 A  
HETATM    6  O   UNL     1     -10.813   8.279  72.332  1.00  0.00    -0.306 OA 
HETATM    7  O   UNL     1     -12.461   6.763  72.203  1.00  0.00    -0.266 OA 
HETATM    8  C   UNL     1     -12.841  12.808  71.137  1.00  0.00    -0.315 A  
HETATM    9  C   UNL     1     -12.078  12.753  69.966  1.00  0.00    -0.355 A  
HETATM   10  C   UNL     1     -11.524  11.522  69.589  1.00  0.00    -0.373 A  
HETATM   11  C   UNL     1     -11.803  10.353  70.305  1.00  0.00    -0.399 A  
ENDROOT
BRANCH   9  12
HETATM   12  C   UNL     1     -12.016  13.909  68.990  1.00  0.00    -0.402 C  
BRANCH  12  13
HETATM   13  C   UNL     1     -10.734  14.735  68.920  1.00  0.00    -0.253 C  
HETATM   14  C   UNL     1     -10.350  15.161  67.499  1.00  0.00    -0.242 C  
HETATM   15  C   UNL     1      -9.742  16.551  67.650  1.00  0.00    -0.239 C  
HETATM   16  C   UNL     1     -10.613  17.236  68.692  1.00  0.00    -0.329 C  
HETATM   17  C   UNL     1     -10.961  16.080  69.589  1.00  0.00    -0.326 C  
HETATM   18  O   UNL     1     -11.415  16.219  70.721  1.00  0.00    -0.401 OA 
ENDBRANCH  12  13
ENDBRANCH   9  12
TORSDOF 2
ENDMDL
MODEL       30
REMARK 921   NORMALIZED FREE ENERGY PREDICTED BY IDOCK:   -5.82 KCAL/MOL
REMARK 922        TOTAL FREE ENERGY PREDICTED BY IDOCK:   -6.81 KCAL/MOL
REMARK 923 INTER-LIGAND FREE ENERGY PREDICTED BY IDOCK:   -6.47 KCAL/MOL
REMARK 924 INTRA-LIGAND FREE ENERGY PREDICTED BY IDOCK:   -0.34 KCAL/MOL
REMARK 927      BINDING AFFINITY PREDICTED BY RF-SCORE:    0.00 PKD
ROOT
HETATM    1  C   UNL     1     -11.308  15.668  64.410  1.00  0.00    -0.272 C  
HETATM    2  C   UNL     1     -10.313  15.797  65.573  1.00  0.00    -0.430 C  
HETATM    3  C   UNL     1     -10.588  14.670  66.570  1.00  0.00    -0.300 A  
HETATM    4  C   UNL     1     -10.342  17.228  66.112  1.00  0.00    -0.317 C  
HETATM    5  C   UNL     1      -9.987  13.411  66.379  1.00  0.00    -0.293 A  
HETATM    6  O   UNL     1      -9.889  17.374  67.383  1.00  0.00    -0.267 OA 
HETATM    7  O   UNL     1     -10.674  18.206  65.454  1.00  0.00    -0.620 OA 
HETATM    8  C   UNL     1     -10.375  12.300  67.142  1.00  0.00    -0.234 A  
HETATM    9  C   UNL     1     -11.359  12.425  68.127  1.00  0.00    -0.341 A  
HETATM   10  C   UNL     1     -11.897  13.696  68.374  1.00  0.00    -0.407 A  
HETATM   11  C   UNL     1     -11.535  14.799  67.593  1.00  0.00    -0.363 A  
ENDROOT
BRANCH   9  12
HETATM   12  C   UNL     1     -12.013  11.221  68.770  1.00  0.00    -0.350 C  
BRANCH  12  13
HETATM   13  C   UNL     1     -11.826  11.004  70.270  1.00  0.00    -0.456 C  
HETATM   14  C   UNL     1     -13.029  10.346  70.955  1.00  0.00    -0.475 C  
HETATM   15  C   UNL     1     -12.432   9.443  72.028  1.00  0.00    -0.440 C  
HETATM   16  C   UNL     1     -11.205   8.830  71.371  1.00  0.00    -0.362 C  
HETATM   17  C   UNL     1     -10.740   9.966  70.500  1.00  0.00    -0.317 C  
HETATM   18  O   UNL     1      -9.620  10.019  70.003  1.00  0.00    -0.231 OA 
ENDBRANCH  12  13
ENDBRANCH   9  12
TORSDOF 2
ENDMDL
MODEL       31
REMARK 921   NORMALIZED FREE ENERGY PREDICTED BY IDOCK:   -5.81 KCAL/MOL
REMARK 922        TOTAL FREE ENERGY PREDICTED BY IDOCK:   -6.80 KCAL/MOL
REMARK 923 INTER-LIGAND FREE ENERGY PREDICTED BY IDOCK:   -6.40 KCAL/MOL
REMARK 924 INTRA-LIGAND FREE ENERGY PREDICTED BY IDOCK:   -0.40 KCAL/MOL
REMARK 927      BINDING AFFINITY PREDICTED BY RF-SCORE:    0.00 PKD
ROOT
HETATM    1  C   UNL     1     -13.134   7.305  71.347  1.00  0.00    -0.412 C  
HETATM    2  C   UNL     1     -12.184   8.149  72.211  1.00  0.00    -0.397 C  
HETATM    3  C   UNL     1     -11.686   9.325  71.370  1.00  0.00    -0.431 A  
HETATM    4  C   UNL     1     -11.125   7.241  72.838  1.00  0.00    -0.325 C  
HETATM    5  C   UNL     1     -12.450  10.506  71.305  1.00  0.00    -0.524 A  
HETATM    6  O   UNL     1      -9.987   7.868  73.230  1.00  0.00    -0.303 OA 
HETATM    7  O   UNL     1     -11.283   6.045  73.055  1.00  0.00    -0.254 OA 
HETATM    8  C   UNL     1     -12.139  11.521  70.388  1.00  0.00    -0.471 A  
HETATM    9  C   UNL     1     -11.046  11.387  69.527  1.00  0.00    -0.274 A  
HETATM   10  C   UNL     1     -10.236  10.249  69.651  1.00  0.00    -0.268 A  
HETATM   11  C   UNL     1     -10.562   9.222  70.542  1.00  0.00    -0.309 A  
ENDROOT
BRANCH   9  12
HETATM   12  C   UNL     1     -10.839  12.302  68.339  1.00  0.00    -0.257 C  
BRANCH  12  13
HETATM   13  C   UNL     1     -11.786  12.176  67.148  1.00  0.00    -0.372 C  
HETATM   14  C   UNL     1     -12.269  13.522  66.597  1.00  0.00    -0.411 C  
HETATM   15  C   UNL     1     -12.369  13.321  65.089  1.00  0.00    -0.516 C  
HETATM   16  C   UNL     1     -11.152  12.482  64.734  1.00  0.00    -0.338 C  
HETATM   17  C   UNL     1     -11.028  11.614  65.957  1.00  0.00    -0.286 C  
HETATM   18  O   UNL     1     -10.354  10.589  65.990  1.00  0.00    -0.248 OA 
ENDBRANCH  12  13
ENDBRANCH   9  12
TORSDOF 2
ENDMDL
MODEL       32
REMARK 921   NORMALIZED FREE ENERGY PREDICTED BY IDOCK:   -5.80 KCAL/MOL
REMARK 922        TOTAL FREE ENERGY PREDICTED BY IDOCK:   -6.79 KCAL/MOL
REMARK 923 INTER-LIGAND FREE ENERGY PREDICTED BY IDOCK:   -6.38 KCAL/MOL
REMARK 924 INTRA-LIGAND FREE ENERGY PREDICTED BY IDOCK:   -0.40 KCAL/MOL
REMARK 927      BINDING AFFINITY PREDICTED BY RF-SCORE:    0.00 PKD
ROOT
HETATM    1  C   UNL     1     -10.402  11.896  63.612  1.00  0.00    -0.477 C  
HETATM    2  C   UNL     1     -10.779  13.053  64.549  1.00  0.00    -0.404 C  
HETATM    3  C   UNL     1     -10.652  12.565  65.993  1.00  0.00    -0.289 A  
HETATM    4  C   UNL     1     -12.130  13.633  64.124  1.00  0.00    -0.435 C  
HETATM    5  C   UNL     1      -9.405  12.632  66.642  1.00  0.00    -0.236 A  
HETATM    6  O   UNL     1     -12.792  14.318  65.091  1.00  0.00    -0.659 OA 
HETATM    7  O   UNL     1     -12.581  13.568  62.987  1.00  0.00    -0.716 OA 
HETATM    8  C   UNL     1      -9.197  12.007  67.880  1.00  0.00    -0.190 A  
HETATM    9  C   UNL     1     -10.238  11.317  68.508  1.00  0.00    -0.214 A  
HETATM   10  C   UNL     1     -11.503  11.323  67.902  1.00  0.00    -0.360 A  
HETATM   11  C   UNL     1     -11.703  11.918  66.653  1.00  0.00    -0.264 A  
ENDROOT
BRANCH   9  12
HETATM   12  C   UNL     1      -9.999  10.393  69.684  1.00  0.00    -0.209 C  
BRANCH  12  13
HETATM   13  C   UNL     1     -11.027   9.302  69.975  1.00  0.00    -0.254 C  
HETATM   14  C   UNL     1     -10.408   7.960  70.380  1.00  0.00    -0.212 C  
HETATM   15  C   UNL     1     -11.361   7.378  71.417  1.00  0.00    -0.282 C  
HETATM   16  C   UNL     1     -11.783   8.572  72.259  1.00  0.00    -0.443 C  
HETATM   17  C   UNL     1     -11.811   9.665  71.226  1.00  0.00    -0.381 C  
HETATM   18  O   UNL     1     -12.372  10.743  71.399  1.00  0.00    -0.358 OA 
ENDBRANCH  12  13
ENDBRANCH   9  12
TORSDOF 2
ENDMDL
MODEL       33
REMARK 921   NORMALIZED FREE ENERGY PREDICTED BY IDOCK:   -5.80 KCAL/MOL
REMARK 922        TOTAL FREE ENERGY PREDICTED BY IDOCK:   -6.79 KCAL/MOL
REMARK 923 INTER-LIGAND FREE ENERGY PREDICTED BY IDOCK:   -6.45 KCAL/MOL
REMARK 924 INTRA-LIGAND FREE ENERGY PREDICTED BY IDOCK:   -0.34 KCAL/MOL
REMARK 927      BINDING AFFINITY PREDICTED BY RF-SCORE:    0.00 PKD
ROOT
HETATM    1  C   UNL     1     -10.023   9.957  66.058  1.00  0.00    -0.338 C  
HETATM    2  C   UNL     1      -9.680  11.386  65.612  1.00  0.00    -0.263 C  
HETATM    3  C   UNL     1     -10.372  12.365  66.562  1.00  0.00    -0.248 A  
HETATM    4  C   UNL     1      -9.973  11.538  64.119  1.00  0.00    -0.287 C  
HETATM    5  C   UNL     1      -9.737  12.737  67.762  1.00  0.00    -0.207 A  
HETATM    6  O   UNL     1     -10.160  12.813  63.695  1.00  0.00    -0.378 OA 
HETATM    7  O   UNL     1      -9.974  10.610  63.319  1.00  0.00    -0.321 OA 
HETATM    8  C   UNL     1     -10.420  13.460  68.750  1.00  0.00    -0.203 A  
HETATM    9  C   UNL     1     -11.750  13.845  68.555  1.00  0.00    -0.390 A  
HETATM   10  C   UNL     1     -12.355  13.548  67.325  1.00  0.00    -0.179 A  
HETATM   11  C   UNL     1     -11.686  12.800  66.351  1.00  0.00    -0.464 A  
ENDROOT
BRANCH   9  12
HETATM   12  C   UNL     1     -12.614  14.364  69.685  1.00  0.00    -0.102 C  
BRANCH  12  13
HETATM   13  C   UNL     1     -11.977  14.559  71.059  1.00  0.00    -0.394 C  
HETATM   14  C   UNL     1     -11.811  16.028  71.460  1.00  0.00    -0.554 C  
HETATM   15  C   UNL     1     -12.056  16.060  72.965  1.00  0.00    -0.628 C  
HETATM   16  C   UNL     1     -13.211  15.094  73.183  1.00  0.00    -0.603 C  
HETATM   17  C   UNL     1     -12.926  14.055  72.133  1.00  0.00    -0.369 C  
HETATM   18  O   UNL     1     -13.441  12.941  72.131  1.00  0.00    -0.523 OA 
ENDBRANCH  12  13
ENDBRANCH   9  12
TORSDOF 2
ENDMDL
MODEL       34
REMARK 921   NORMALIZED FREE ENERGY PREDICTED BY IDOCK:   -5.77 KCAL/MOL
REMARK 922        TOTAL FREE ENERGY PREDICTED BY IDOCK:   -6.75 KCAL/MOL
REMARK 923 INTER-LIGAND FREE ENERGY PREDICTED BY IDOCK:   -6.42 KCAL/MOL
REMARK 924 INTRA-LIGAND FREE ENERGY PREDICTED BY IDOCK:   -0.34 KCAL/MOL
REMARK 927      BINDING AFFINITY PREDICTED BY RF-SCORE:    0.00 PKD
ROOT
HETATM    1  C   UNL     1     -11.803   6.289  72.156  1.00  0.00    -0.365 C  
HETATM    2  C   UNL     1     -11.190   7.490  72.892  1.00  0.00    -0.396 C  
HETATM    3  C   UNL     1     -11.033   8.638  71.894  1.00  0.00    -0.412 A  
HETATM    4  C   UNL     1      -9.935   7.040  73.642  1.00  0.00    -0.310 C  
HETATM    5  C   UNL     1     -12.114   9.510  71.663  1.00  0.00    -0.474 A  
HETATM    6  O   UNL     1      -9.057   8.031  73.942  1.00  0.00    -0.257 OA 
HETATM    7  O   UNL     1      -9.734   5.894  74.026  1.00  0.00    -0.156 OA 
HETATM    8  C   UNL     1     -12.084  10.438  70.612  1.00  0.00    -0.443 A  
HETATM    9  C   UNL     1     -10.965  10.530  69.779  1.00  0.00    -0.350 A  
HETATM   10  C   UNL     1      -9.856   9.720  70.062  1.00  0.00    -0.295 A  
HETATM   11  C   UNL     1      -9.896   8.772  71.089  1.00  0.00    -0.313 A  
ENDROOT
BRANCH   9  12
HETATM   12  C   UNL     1     -10.992  11.296  68.474  1.00  0.00    -0.266 C  
BRANCH  12  13
HETATM   13  C   UNL     1     -11.865  12.545  68.379  1.00  0.00    -0.353 C  
HETATM   14  C   UNL     1     -11.310  13.747  69.151  1.00  0.00    -0.329 C  
HETATM   15  C   UNL     1     -11.674  14.964  68.308  1.00  0.00    -0.342 C  
HETATM   16  C   UNL     1     -11.447  14.515  66.873  1.00  0.00    -0.375 C  
HETATM   17  C   UNL     1     -11.849  13.067  66.952  1.00  0.00    -0.380 C  
HETATM   18  O   UNL     1     -12.096  12.381  65.965  1.00  0.00    -0.600 OA 
ENDBRANCH  12  13
ENDBRANCH   9  12
TORSDOF 2
ENDMDL
MODEL       35
REMARK 921   NORMALIZED FREE ENERGY PREDICTED BY IDOCK:   -5.74 KCAL/MOL
REMARK 922        TOTAL FREE ENERGY PREDICTED BY IDOCK:   -6.71 KCAL/MOL
REMARK 923 INTER-LIGAND FREE ENERGY PREDICTED BY IDOCK:   -6.32 KCAL/MOL
REMARK 924 INTRA-LIGAND FREE ENERGY PREDICTED BY IDOCK:   -0.40 KCAL/MOL
REMARK 927      BINDING AFFINITY PREDICTED BY RF-SCORE:    0.00 PKD
ROOT
HETATM    1  C   UNL     1     -11.077  11.869  65.606  1.00  0.00    -0.362 C  
HETATM    2  C   UNL     1     -11.591  12.723  66.775  1.00  0.00    -0.431 C  
HETATM    3  C   UNL     1     -10.773  14.014  66.825  1.00  0.00    -0.285 A  
HETATM    4  C   UNL     1     -11.632  11.872  68.046  1.00  0.00    -0.332 C  
HETATM    5  C   UNL     1     -11.160  15.113  66.036  1.00  0.00    -0.312 A  
HETATM    6  O   UNL     1     -11.616  12.573  69.208  1.00  0.00    -0.284 OA 
HETATM    7  O   UNL     1     -11.746  10.653  68.056  1.00  0.00    -0.495 OA 
HETATM    8  C   UNL     1     -10.326  16.232  65.893  1.00  0.00    -0.381 A  
HETATM    9  C   UNL     1      -9.094  16.286  66.550  1.00  0.00    -0.302 A  
HETATM   10  C   UNL     1      -8.747  15.229  67.403  1.00  0.00    -0.194 A  
HETATM   11  C   UNL     1      -9.562  14.098  67.522  1.00  0.00    -0.223 A  
ENDROOT
BRANCH   9  12
HETATM   12  C   UNL     1      -8.043  17.321  66.209  1.00  0.00    -0.315 C  
BRANCH  12  13
HETATM   13  C   UNL     1      -8.248  18.755  66.690  1.00  0.00    -0.298 C  
HETATM   14  C   UNL     1      -9.614  19.342  66.320  1.00  0.00    -0.437 C  
HETATM   15  C   UNL     1     -10.000  20.228  67.499  1.00  0.00    -0.557 C  
HETATM   16  C   UNL     1      -9.553  19.446  68.725  1.00  0.00    -0.495 C  
HETATM   17  C   UNL     1      -8.309  18.776  68.208  1.00  0.00    -0.330 C  
HETATM   18  O   UNL     1      -7.463  18.270  68.939  1.00  0.00    -0.286 OA 
ENDBRANCH  12  13
ENDBRANCH   9  12
TORSDOF 2
ENDMDL
MODEL       36
REMARK 921   NORMALIZED FREE ENERGY PREDICTED BY IDOCK:   -5.74 KCAL/MOL
REMARK 922        TOTAL FREE ENERGY PREDICTED BY IDOCK:   -6.71 KCAL/MOL
REMARK 923 INTER-LIGAND FREE ENERGY PREDICTED BY IDOCK:   -6.34 KCAL/MOL
REMARK 924 INTRA-LIGAND FREE ENERGY PREDICTED BY IDOCK:   -0.38 KCAL/MOL
REMARK 927      BINDING AFFINITY PREDICTED BY RF-SCORE:    0.00 PKD
ROOT
HETATM    1  C   UNL     1      -7.606  19.570  68.993  1.00  0.00    -0.356 C  
HETATM    2  C   UNL     1      -8.255  19.776  67.616  1.00  0.00    -0.340 C  
HETATM    3  C   UNL     1      -9.000  18.495  67.238  1.00  0.00    -0.275 A  
HETATM    4  C   UNL     1      -7.204  20.289  66.630  1.00  0.00    -0.265 C  
HETATM    5  C   UNL     1     -10.324  18.306  67.677  1.00  0.00    -0.414 A  
HETATM    6  O   UNL     1      -7.493  20.081  65.320  1.00  0.00    -0.330 OA 
HETATM    7  O   UNL     1      -6.199  20.910  66.954  1.00  0.00    -0.227 OA 
HETATM    8  C   UNL     1     -10.966  17.067  67.534  1.00  0.00    -0.119 A  
HETATM    9  C   UNL     1     -10.305  15.993  66.930  1.00  0.00    -0.289 A  
HETATM   10  C   UNL     1      -9.018  16.206  66.417  1.00  0.00    -0.353 A  
HETATM   11  C   UNL     1      -8.365  17.431  66.588  1.00  0.00    -0.295 A  
ENDROOT
BRANCH   9  12
HETATM   12  C   UNL     1     -10.832  14.576  67.008  1.00  0.00    -0.297 C  
BRANCH  12  13
HETATM   13  C   UNL     1     -11.950  14.160  66.055  1.00  0.00    -0.427 C  
HETATM   14  C   UNL     1     -11.696  14.551  64.596  1.00  0.00    -0.438 C  
HETATM   15  C   UNL     1     -12.284  13.411  63.770  1.00  0.00    -0.482 C  
HETATM   16  C   UNL     1     -11.915  12.153  64.541  1.00  0.00    -0.415 C  
HETATM   17  C   UNL     1     -11.998  12.644  65.961  1.00  0.00    -0.417 C  
HETATM   18  O   UNL     1     -12.055  11.895  66.931  1.00  0.00    -0.599 OA 
ENDBRANCH  12  13
ENDBRANCH   9  12
TORSDOF 2
ENDMDL
MODEL       37
REMARK 921   NORMALIZED FREE ENERGY PREDICTED BY IDOCK:   -5.73 KCAL/MOL
REMARK 922        TOTAL FREE ENERGY PREDICTED BY IDOCK:   -6.70 KCAL/MOL
REMARK 923 INTER-LIGAND FREE ENERGY PREDICTED BY IDOCK:   -6.38 KCAL/MOL
REMARK 924 INTRA-LIGAND FREE ENERGY PREDICTED BY IDOCK:   -0.32 KCAL/MOL
REMARK 927      BINDING AFFINITY PREDICTED BY RF-SCORE:    0.00 PKD
ROOT
HETATM    1  C   UNL     1     -10.574  15.316  66.297  1.00  0.00    -0.312 C  
HETATM    2  C   UNL     1     -11.746  14.484  65.752  1.00  0.00    -0.344 C  
HETATM    3  C   UNL     1     -11.403  13.003  65.919  1.00  0.00    -0.344 A  
HETATM    4  C   UNL     1     -12.100  14.965  64.344  1.00  0.00    -0.401 C  
HETATM    5  C   UNL     1     -11.691  12.354  67.135  1.00  0.00    -0.415 A  
HETATM    6  O   UNL     1     -12.769  14.065  63.579  1.00  0.00    -0.805 OA 
HETATM    7  O   UNL     1     -11.878  16.094  63.925  1.00  0.00    -0.921 OA 
HETATM    8  C   UNL     1     -11.207  11.066  67.402  1.00  0.00    -0.355 A  
HETATM    9  C   UNL     1     -10.438  10.387  66.452  1.00  0.00    -0.246 A  
HETATM   10  C   UNL     1     -10.223  10.998  65.209  1.00  0.00    -0.344 A  
HETATM   11  C   UNL     1     -10.677  12.296  64.953  1.00  0.00    -0.335 A  
ENDROOT
BRANCH   9  12
HETATM   12  C   UNL     1      -9.658   9.135  66.792  1.00  0.00    -0.253 C  
BRANCH  12  13
HETATM   13  C   UNL     1     -10.368   8.018  67.555  1.00  0.00    -0.330 C  
HETATM   14  C   UNL     1     -10.507   6.717  66.757  1.00  0.00    -0.298 C  
HETATM   15  C   UNL     1     -10.350   5.601  67.785  1.00  0.00    -0.260 C  
HETATM   16  C   UNL     1      -9.243   6.087  68.708  1.00  0.00    -0.123 C  
HETATM   17  C   UNL     1      -9.500   7.569  68.719  1.00  0.00    -0.148 C  
HETATM   18  O   UNL     1      -9.024   8.329  69.557  1.00  0.00    -0.147 OA 
ENDBRANCH  12  13
ENDBRANCH   9  12
TORSDOF 2
ENDMDL
MODEL       38
REMARK 921   NORMALIZED FREE ENERGY PREDICTED BY IDOCK:   -5.68 KCAL/MOL
REMARK 922        TOTAL FREE ENERGY PREDICTED BY IDOCK:   -6.66 KCAL/MOL
REMARK 923 INTER-LIGAND FREE ENERGY PREDICTED BY IDOCK:   -6.35 KCAL/MOL
REMARK 924 INTRA-LIGAND FREE ENERGY PREDICTED BY IDOCK:   -0.30 KCAL/MOL
REMARK 927      BINDING AFFINITY PREDICTED BY RF-SCORE:    0.00 PKD
ROOT
HETATM    1  C   UNL     1     -10.846  19.372  65.622  1.00  0.00    -0.323 C  
HETATM    2  C   UNL     1      -9.665  18.831  66.442  1.00  0.00    -0.378 C  
HETATM    3  C   UNL     1     -10.042  17.447  66.974  1.00  0.00    -0.313 A  
HETATM    4  C   UNL     1      -9.234  19.880  67.469  1.00  0.00    -0.346 C  
HETATM    5  C   UNL     1      -9.825  16.311  66.173  1.00  0.00    -0.358 A  
HETATM    6  O   UNL     1      -8.545  19.395  68.533  1.00  0.00    -0.349 OA 
HETATM    7  O   UNL     1      -9.414  21.085  67.340  1.00  0.00    -0.358 OA 
HETATM    8  C   UNL     1     -10.346  15.059  66.532  1.00  0.00    -0.287 A  
HETATM    9  C   UNL     1     -11.080  14.910  67.713  1.00  0.00    -0.313 A  
HETATM   10  C   UNL     1     -11.223  16.024  68.553  1.00  0.00    -0.374 A  
HETATM   11  C   UNL     1     -10.733  17.279  68.180  1.00  0.00    -0.363 A  
ENDROOT
BRANCH   9  12
HETATM   12  C   UNL     1     -11.898  13.670  68.002  1.00  0.00    -0.397 C  
BRANCH  12  13
HETATM   13  C   UNL     1     -11.445  12.743  69.128  1.00  0.00    -0.361 C  
HETATM   14  C   UNL     1     -12.199  12.955  70.445  1.00  0.00    -0.381 C  
HETATM   15  C   UNL     1     -12.331  11.564  71.056  1.00  0.00    -0.434 C  
HETATM   16  C   UNL     1     -12.630  10.655  69.875  1.00  0.00    -0.168 C  
HETATM   17  C   UNL     1     -11.822  11.311  68.788  1.00  0.00    -0.329 C  
HETATM   18  O   UNL     1     -11.540  10.756  67.730  1.00  0.00    -0.521 OA 
ENDBRANCH  12  13
ENDBRANCH   9  12
TORSDOF 2
ENDMDL
MODEL       39
REMARK 921   NORMALIZED FREE ENERGY PREDICTED BY IDOCK:   -5.68 KCAL/MOL
REMARK 922        TOTAL FREE ENERGY PREDICTED BY IDOCK:   -6.65 KCAL/MOL
REMARK 923 INTER-LIGAND FREE ENERGY PREDICTED BY IDOCK:   -6.16 KCAL/MOL
REMARK 924 INTRA-LIGAND FREE ENERGY PREDICTED BY IDOCK:   -0.49 KCAL/MOL
REMARK 927      BINDING AFFINITY PREDICTED BY RF-SCORE:    0.00 PKD
ROOT
HETATM    1  C   UNL     1      -8.509  17.243  68.064  1.00  0.00    -0.229 C  
HETATM    2  C   UNL     1      -9.865  17.686  67.494  1.00  0.00    -0.299 C  
HETATM    3  C   UNL     1     -10.592  16.448  66.965  1.00  0.00    -0.260 A  
HETATM    4  C   UNL     1      -9.654  18.843  66.517  1.00  0.00    -0.346 C  
HETATM    5  C   UNL     1     -11.372  15.671  67.842  1.00  0.00    -0.302 A  
HETATM    6  O   UNL     1     -10.653  19.026  65.616  1.00  0.00    -0.554 OA 
HETATM    7  O   UNL     1      -8.704  19.615  66.557  1.00  0.00    -0.328 OA 
HETATM    8  C   UNL     1     -11.878  14.424  67.450  1.00  0.00    -0.430 A  
HETATM    9  C   UNL     1     -11.633  13.932  66.165  1.00  0.00    -0.371 A  
HETATM   10  C   UNL     1     -10.928  14.743  65.264  1.00  0.00    -0.382 A  
HETATM   11  C   UNL     1     -10.395  15.973  65.663  1.00  0.00    -0.414 A  
ENDROOT
BRANCH   9  12
HETATM   12  C   UNL     1     -11.903  12.490  65.788  1.00  0.00    -0.494 C  
BRANCH  12  13
HETATM   13  C   UNL     1     -10.930  11.417  66.270  1.00  0.00    -0.303 C  
HETATM   14  C   UNL     1      -9.457  11.832  66.183  1.00  0.00    -0.240 C  
HETATM   15  C   UNL     1      -8.791  11.195  67.397  1.00  0.00    -0.139 C  
HETATM   16  C   UNL     1      -9.805  11.361  68.518  1.00  0.00    -0.200 C  
HETATM   17  C   UNL     1     -11.100  11.214  67.766  1.00  0.00    -0.285 C  
HETATM   18  O   UNL     1     -12.176  10.995  68.314  1.00  0.00    -0.582 OA 
ENDBRANCH  12  13
ENDBRANCH   9  12
TORSDOF 2
ENDMDL
MODEL       40
REMARK 921   NORMALIZED FREE ENERGY PREDICTED BY IDOCK:   -5.67 KCAL/MOL
REMARK 922        TOTAL FREE ENERGY PREDICTED BY IDOCK:   -6.65 KCAL/MOL
REMARK 923 INTER-LIGAND FREE ENERGY PREDICTED BY IDOCK:   -6.24 KCAL/MOL
REMARK 924 INTRA-LIGAND FREE ENERGY PREDICTED BY IDOCK:   -0.41 KCAL/MOL
REMARK 927      BINDING AFFINITY PREDICTED BY RF-SCORE:    0.00 PKD
ROOT
HETATM    1  C   UNL     1      -9.684   9.598  70.300  1.00  0.00    -0.314 C  
HETATM    2  C   UNL     1     -11.188   9.578  69.988  1.00  0.00    -0.243 C  
HETATM    3  C   UNL     1     -11.543  10.868  69.246  1.00  0.00    -0.388 A  
HETATM    4  C   UNL     1     -11.969   9.270  71.266  1.00  0.00    -0.340 C  
HETATM    5  C   UNL     1     -11.396  10.929  67.847  1.00  0.00    -0.380 A  
HETATM    6  O   UNL     1     -13.267   9.664  71.257  1.00  0.00    -0.366 OA 
HETATM    7  O   UNL     1     -11.513   8.651  72.220  1.00  0.00    -0.365 OA 
HETATM    8  C   UNL     1     -11.508  12.145  67.159  1.00  0.00    -0.413 A  
HETATM    9  C   UNL     1     -11.788  13.328  67.851  1.00  0.00    -0.388 A  
HETATM   10  C   UNL     1     -12.018  13.253  69.232  1.00  0.00    -0.354 A  
HETATM   11  C   UNL     1     -11.875  12.046  69.925  1.00  0.00    -0.405 A  
ENDROOT
BRANCH   9  12
HETATM   12  C   UNL     1     -11.635  14.691  67.211  1.00  0.00    -0.404 C  
BRANCH  12  13
HETATM   13  C   UNL     1     -10.287  15.401  67.321  1.00  0.00    -0.271 C  
HETATM   14  C   UNL     1      -9.785  15.982  65.995  1.00  0.00    -0.376 C  
HETATM   15  C   UNL     1      -9.075  17.277  66.371  1.00  0.00    -0.281 C  
HETATM   16  C   UNL     1      -9.947  17.888  67.456  1.00  0.00    -0.322 C  
HETATM   17  C   UNL     1     -10.443  16.656  68.163  1.00  0.00    -0.321 C  
HETATM   18  O   UNL     1     -10.952  16.678  69.280  1.00  0.00    -0.311 OA 
ENDBRANCH  12  13
ENDBRANCH   9  12
TORSDOF 2
ENDMDL
MODEL       41
REMARK 921   NORMALIZED FREE ENERGY PREDICTED BY IDOCK:   -5.66 KCAL/MOL
REMARK 922        TOTAL FREE ENERGY PREDICTED BY IDOCK:   -6.63 KCAL/MOL
REMARK 923 INTER-LIGAND FREE ENERGY PREDICTED BY IDOCK:   -6.33 KCAL/MOL
REMARK 924 INTRA-LIGAND FREE ENERGY PREDICTED BY IDOCK:   -0.31 KCAL/MOL
REMARK 927      BINDING AFFINITY PREDICTED BY RF-SCORE:    0.00 PKD
ROOT
HETATM    1  C   UNL     1      -9.664  11.152  63.835  1.00  0.00    -0.325 C  
HETATM    2  C   UNL     1     -10.711  11.358  64.941  1.00  0.00    -0.350 C  
HETATM    3  C   UNL     1     -10.679  12.827  65.365  1.00  0.00    -0.309 A  
HETATM    4  C   UNL     1     -10.508  10.311  66.037  1.00  0.00    -0.111 C  
HETATM    5  C   UNL     1     -11.446  13.772  64.657  1.00  0.00    -0.385 A  
HETATM    6  O   UNL     1     -11.025  10.636  67.248  1.00  0.00    -0.296 OA 
HETATM    7  O   UNL     1      -9.987   9.217  65.856  1.00  0.00    -0.295 OA 
HETATM    8  C   UNL     1     -11.284  15.148  64.877  1.00  0.00    -0.424 A  
HETATM    9  C   UNL     1     -10.367  15.611  65.824  1.00  0.00    -0.386 A  
HETATM   10  C   UNL     1      -9.665  14.668  66.588  1.00  0.00    -0.283 A  
HETATM   11  C   UNL     1      -9.801  13.297  66.348  1.00  0.00    -0.281 A  
ENDROOT
BRANCH   9  12
HETATM   12  C   UNL     1      -9.947  17.064  65.897  1.00  0.00    -0.239 C  
BRANCH  12  13
HETATM   13  C   UNL     1     -10.578  17.952  66.967  1.00  0.00    -0.287 C  
HETATM   14  C   UNL     1      -9.832  17.933  68.305  1.00  0.00    -0.348 C  
HETATM   15  C   UNL     1      -9.952  19.353  68.848  1.00  0.00    -0.519 C  
HETATM   16  C   UNL     1      -9.780  20.243  67.627  1.00  0.00    -0.555 C  
HETATM   17  C   UNL     1     -10.439  19.410  66.561  1.00  0.00    -0.476 C  
HETATM   18  O   UNL     1     -10.784  19.859  65.473  1.00  0.00    -0.461 OA 
ENDBRANCH  12  13
ENDBRANCH   9  12
TORSDOF 2
ENDMDL
MODEL       42
REMARK 921   NORMALIZED FREE ENERGY PREDICTED BY IDOCK:   -5.64 KCAL/MOL
REMARK 922        TOTAL FREE ENERGY PREDICTED BY IDOCK:   -6.60 KCAL/MOL
REMARK 923 INTER-LIGAND FREE ENERGY PREDICTED BY IDOCK:   -6.27 KCAL/MOL
REMARK 924 INTRA-LIGAND FREE ENERGY PREDICTED BY IDOCK:   -0.33 KCAL/MOL
REMARK 927      BINDING AFFINITY PREDICTED BY RF-SCORE:    0.00 PKD
ROOT
HETATM    1  C   UNL     1      -9.535  18.761  68.455  1.00  0.00    -0.400 C  
HETATM    2  C   UNL     1     -10.585  18.271  67.447  1.00  0.00    -0.425 C  
HETATM    3  C   UNL     1     -10.501  16.746  67.367  1.00  0.00    -0.310 A  
HETATM    4  C   UNL     1     -10.437  19.048  66.139  1.00  0.00    -0.467 C  
HETATM    5  C   UNL     1     -11.221  15.960  68.287  1.00  0.00    -0.354 A  
HETATM    6  O   UNL     1     -10.956  18.437  65.044  1.00  0.00    -0.644 OA 
HETATM    7  O   UNL     1      -9.958  20.172  66.055  1.00  0.00    -0.456 OA 
HETATM    8  C   UNL     1     -11.008  14.577  68.382  1.00  0.00    -0.255 A  
HETATM    9  C   UNL     1     -10.084  13.943  67.545  1.00  0.00    -0.244 A  
HETATM   10  C   UNL     1      -9.429  14.712  66.572  1.00  0.00    -0.319 A  
HETATM   11  C   UNL     1      -9.617  16.096  66.498  1.00  0.00    -0.285 A  
ENDROOT
BRANCH   9  12
HETATM   12  C   UNL     1      -9.608  12.528  67.795  1.00  0.00    -0.203 C  
BRANCH  12  13
HETATM   13  C   UNL     1     -10.088  11.422  66.858  1.00  0.00    -0.245 C  
HETATM   14  C   UNL     1      -8.970  10.491  66.377  1.00  0.00    -0.174 C  
HETATM   15  C   UNL     1      -9.612   9.110  66.288  1.00  0.00    -0.321 C  
HETATM   16  C   UNL     1     -10.513   9.031  67.511  1.00  0.00    -0.338 C  
HETATM   17  C   UNL     1     -10.977  10.458  67.627  1.00  0.00    -0.312 C  
HETATM   18  O   UNL     1     -11.942  10.800  68.303  1.00  0.00    -0.520 OA 
ENDBRANCH  12  13
ENDBRANCH   9  12
TORSDOF 2
ENDMDL
MODEL       43
REMARK 921   NORMALIZED FREE ENERGY PREDICTED BY IDOCK:   -5.63 KCAL/MOL
REMARK 922        TOTAL FREE ENERGY PREDICTED BY IDOCK:   -6.59 KCAL/MOL
REMARK 923 INTER-LIGAND FREE ENERGY PREDICTED BY IDOCK:   -6.19 KCAL/MOL
REMARK 924 INTRA-LIGAND FREE ENERGY PREDICTED BY IDOCK:   -0.41 KCAL/MOL
REMARK 927      BINDING AFFINITY PREDICTED BY RF-SCORE:    0.00 PKD
ROOT
HETATM    1  C   UNL     1     -12.198  13.096  67.243  1.00  0.00    -0.234 C  
HETATM    2  C   UNL     1     -11.243  12.879  66.059  1.00  0.00    -0.325 C  
HETATM    3  C   UNL     1     -10.124  13.918  66.147  1.00  0.00    -0.317 A  
HETATM    4  C   UNL     1     -12.047  12.828  64.759  1.00  0.00    -0.432 C  
HETATM    5  C   UNL     1      -8.986  13.650  66.932  1.00  0.00    -0.229 A  
HETATM    6  O   UNL     1     -11.341  13.101  63.634  1.00  0.00    -0.383 OA 
HETATM    7  O   UNL     1     -13.225  12.497  64.690  1.00  0.00    -0.848 OA 
HETATM    8  C   UNL     1      -8.043  14.651  67.207  1.00  0.00    -0.230 A  
HETATM    9  C   UNL     1      -8.205  15.939  66.688  1.00  0.00    -0.317 A  
HETATM   10  C   UNL     1      -9.293  16.182  65.837  1.00  0.00    -0.316 A  
HETATM   11  C   UNL     1     -10.251  15.195  65.588  1.00  0.00    -0.387 A  
ENDROOT
BRANCH   9  12
HETATM   12  C   UNL     1      -7.389  17.115  67.180  1.00  0.00    -0.198 C  
BRANCH  12  13
HETATM   13  C   UNL     1      -7.881  18.526  66.868  1.00  0.00    -0.245 C  
HETATM   14  C   UNL     1      -7.770  19.496  68.049  1.00  0.00    -0.334 C  
HETATM   15  C   UNL     1      -7.413  20.842  67.427  1.00  0.00    -0.374 C  
HETATM   16  C   UNL     1      -6.423  20.501  66.324  1.00  0.00    -0.272 C  
HETATM   17  C   UNL     1      -6.953  19.174  65.854  1.00  0.00    -0.273 C  
HETATM   18  O   UNL     1      -6.633  18.660  64.786  1.00  0.00    -0.472 OA 
ENDBRANCH  12  13
ENDBRANCH   9  12
TORSDOF 2
ENDMDL
MODEL       44
REMARK 921   NORMALIZED FREE ENERGY PREDICTED BY IDOCK:   -5.60 KCAL/MOL
REMARK 922        TOTAL FREE ENERGY PREDICTED BY IDOCK:   -6.56 KCAL/MOL
REMARK 923 INTER-LIGAND FREE ENERGY PREDICTED BY IDOCK:   -6.07 KCAL/MOL
REMARK 924 INTRA-LIGAND FREE ENERGY PREDICTED BY IDOCK:   -0.50 KCAL/MOL
REMARK 927      BINDING AFFINITY PREDICTED BY RF-SCORE:    0.00 PKD
ROOT
HETATM    1  C   UNL     1     -11.313  14.333  69.521  1.00  0.00    -0.315 C  
HETATM    2  C   UNL     1     -12.108  13.234  68.800  1.00  0.00    -0.254 C  
HETATM    3  C   UNL     1     -11.851  11.906  69.514  1.00  0.00    -0.395 A  
HETATM    4  C   UNL     1     -11.808  13.290  67.301  1.00  0.00    -0.372 C  
HETATM    5  C   UNL     1     -12.639  11.550  70.625  1.00  0.00    -0.337 A  
HETATM    6  O   UNL     1     -12.054  12.142  66.621  1.00  0.00    -0.622 OA 
HETATM    7  O   UNL     1     -11.441  14.298  66.708  1.00  0.00    -0.337 OA 
HETATM    8  C   UNL     1     -12.303  10.453  71.430  1.00  0.00    -0.500 A  
HETATM    9  C   UNL     1     -11.182   9.672  71.132  1.00  0.00    -0.454 A  
HETATM   10  C   UNL     1     -10.447   9.975  69.978  1.00  0.00    -0.337 A  
HETATM   11  C   UNL     1     -10.761  11.089  69.192  1.00  0.00    -0.274 A  
ENDROOT
BRANCH   9  12
HETATM   12  C   UNL     1     -10.614   8.669  72.114  1.00  0.00    -0.411 C  
BRANCH  12  13
HETATM   13  C   UNL     1     -10.635   7.189  71.738  1.00  0.00    -0.230 C  
HETATM   14  C   UNL     1     -11.622   6.850  70.616  1.00  0.00    -0.402 C  
HETATM   15  C   UNL     1     -10.943   5.750  69.808  1.00  0.00    -0.397 C  
HETATM   16  C   UNL     1      -9.480   6.164  69.754  1.00  0.00    -0.168 C  
HETATM   17  C   UNL     1      -9.308   6.809  71.102  1.00  0.00    -0.159 C  
HETATM   18  O   UNL     1      -8.213   7.036  71.606  1.00  0.00    -0.104 OA 
ENDBRANCH  12  13
ENDBRANCH   9  12
TORSDOF 2
ENDMDL
MODEL       45
REMARK 921   NORMALIZED FREE ENERGY PREDICTED BY IDOCK:   -5.58 KCAL/MOL
REMARK 922        TOTAL FREE ENERGY PREDICTED BY IDOCK:   -6.54 KCAL/MOL
REMARK 923 INTER-LIGAND FREE ENERGY PREDICTED BY IDOCK:   -6.26 KCAL/MOL
REMARK 924 INTRA-LIGAND FREE ENERGY PREDICTED BY IDOCK:   -0.28 KCAL/MOL
REMARK 927      BINDING AFFINITY PREDICTED BY RF-SCORE:    0.00 PKD
ROOT
HETATM    1  C   UNL     1     -11.247   5.766  72.360  1.00  0.00    -0.343 C  
HETATM    2  C   UNL     1     -10.892   6.988  73.220  1.00  0.00    -0.345 C  
HETATM    3  C   UNL     1     -11.174   8.250  72.402  1.00  0.00    -0.451 A  
HETATM    4  C   UNL     1      -9.479   6.822  73.782  1.00  0.00    -0.188 C  
HETATM    5  C   UNL     1     -12.468   8.803  72.401  1.00  0.00    -0.421 A  
HETATM    6  O   UNL     1      -8.868   7.975  74.156  1.00  0.00    -0.240 OA 
HETATM    7  O   UNL     1      -8.933   5.741  73.965  1.00  0.00    -0.125 OA 
HETATM    8  C   UNL     1     -12.819   9.826  71.508  1.00  0.00    -0.502 A  
HETATM    9  C   UNL     1     -11.878  10.333  70.607  1.00  0.00    -0.439 A  
HETATM   10  C   UNL     1     -10.566   9.841  70.667  1.00  0.00    -0.382 A  
HETATM   11  C   UNL     1     -10.223   8.800  71.534  1.00  0.00    -0.371 A  
ENDROOT
BRANCH   9  12
HETATM   12  C   UNL     1     -12.271  11.219  69.444  1.00  0.00    -0.315 C  
BRANCH  12  13
HETATM   13  C   UNL     1     -11.193  11.628  68.443  1.00  0.00    -0.307 C  
HETATM   14  C   UNL     1     -10.988  10.619  67.307  1.00  0.00    -0.348 C  
HETATM   15  C   UNL     1     -10.672  11.463  66.077  1.00  0.00    -0.318 C  
HETATM   16  C   UNL     1     -11.604  12.660  66.187  1.00  0.00    -0.445 C  
HETATM   17  C   UNL     1     -11.653  12.858  67.678  1.00  0.00    -0.355 C  
HETATM   18  O   UNL     1     -12.060  13.887  68.208  1.00  0.00    -0.366 OA 
ENDBRANCH  12  13
ENDBRANCH   9  12
TORSDOF 2
ENDMDL
MODEL       46
REMARK 921   NORMALIZED FREE ENERGY PREDICTED BY IDOCK:   -5.56 KCAL/MOL
REMARK 922        TOTAL FREE ENERGY PREDICTED BY IDOCK:   -6.52 KCAL/MOL
REMARK 923 INTER-LIGAND FREE ENERGY PREDICTED BY IDOCK:   -6.16 KCAL/MOL
REMARK 924 INTRA-LIGAND FREE ENERGY PREDICTED BY IDOCK:   -0.35 KCAL/MOL
REMARK 927      BINDING AFFINITY PREDICTED BY RF-SCORE:    0.00 PKD
ROOT
HETATM    1  C   UNL     1      -9.942  12.405  63.969  1.00  0.00    -0.260 C  
HETATM    2  C   UNL     1     -10.585  11.374  64.909  1.00  0.00    -0.368 C  
HETATM    3  C   UNL     1     -10.840  12.046  66.259  1.00  0.00    -0.316 A  
HETATM    4  C   UNL     1      -9.746  10.096  64.912  1.00  0.00    -0.324 C  
HETATM    5  C   UNL     1     -12.031  12.767  66.464  1.00  0.00    -0.428 A  
HETATM    6  O   UNL     1      -9.912   9.300  65.999  1.00  0.00    -0.290 OA 
HETATM    7  O   UNL     1      -9.022   9.744  63.989  1.00  0.00    -0.218 OA 
HETATM    8  C   UNL     1     -12.208  13.567  67.602  1.00  0.00    -0.215 A  
HETATM    9  C   UNL     1     -11.206  13.650  68.573  1.00  0.00    -0.310 A  
HETATM   10  C   UNL     1     -10.055  12.866  68.410  1.00  0.00    -0.227 A  
HETATM   11  C   UNL     1      -9.862  12.093  67.261  1.00  0.00    -0.202 A  
ENDROOT
BRANCH   9  12
HETATM   12  C   UNL     1     -11.220  14.704  69.659  1.00  0.00    -0.307 C  
BRANCH  12  13
HETATM   13  C   UNL     1     -12.471  14.843  70.524  1.00  0.00    -0.419 C  
HETATM   14  C   UNL     1     -12.970  13.517  71.107  1.00  0.00    -0.338 C  
HETATM   15  C   UNL     1     -13.507  13.867  72.490  1.00  0.00    -0.676 C  
HETATM   16  C   UNL     1     -12.517  14.883  73.037  1.00  0.00    -0.488 C  
HETATM   17  C   UNL     1     -12.130  15.621  71.784  1.00  0.00    -0.431 C  
HETATM   18  O   UNL     1     -11.567  16.711  71.791  1.00  0.00    -0.348 OA 
ENDBRANCH  12  13
ENDBRANCH   9  12
TORSDOF 2
ENDMDL
MODEL       47
REMARK 921   NORMALIZED FREE ENERGY PREDICTED BY IDOCK:   -5.51 KCAL/MOL
REMARK 922        TOTAL FREE ENERGY PREDICTED BY IDOCK:   -6.47 KCAL/MOL
REMARK 923 INTER-LIGAND FREE ENERGY PREDICTED BY IDOCK:   -6.09 KCAL/MOL
REMARK 924 INTRA-LIGAND FREE ENERGY PREDICTED BY IDOCK:   -0.38 KCAL/MOL
REMARK 927      BINDING AFFINITY PREDICTED BY RF-SCORE:    0.00 PKD
ROOT
HETATM    1  C   UNL     1     -10.363  14.798  66.521  1.00  0.00    -0.287 C  
HETATM    2  C   UNL     1     -11.799  14.261  66.627  1.00  0.00    -0.442 C  
HETATM    3  C   UNL     1     -11.817  13.135  67.662  1.00  0.00    -0.405 A  
HETATM    4  C   UNL     1     -12.323  13.931  65.228  1.00  0.00    -0.464 C  
HETATM    5  C   UNL     1     -11.983  13.446  69.025  1.00  0.00    -0.357 A  
HETATM    6  O   UNL     1     -13.352  13.047  65.192  1.00  0.00    -0.623 OA 
HETATM    7  O   UNL     1     -11.920  14.459  64.199  1.00  0.00    -0.422 OA 
HETATM    8  C   UNL     1     -11.796  12.475  70.019  1.00  0.00    -0.363 A  
HETATM    9  C   UNL     1     -11.458  11.163  69.672  1.00  0.00    -0.383 A  
HETATM   10  C   UNL     1     -11.375  10.833  68.312  1.00  0.00    -0.376 A  
HETATM   11  C   UNL     1     -11.530  11.808  67.321  1.00  0.00    -0.373 A  
ENDROOT
BRANCH   9  12
HETATM   12  C   UNL     1     -10.967  10.160  70.695  1.00  0.00    -0.357 C  
BRANCH  12  13
HETATM   13  C   UNL     1     -10.013   9.060  70.237  1.00  0.00    -0.229 C  
HETATM   14  C   UNL     1      -8.679   9.044  70.992  1.00  0.00    -0.280 C  
HETATM   15  C   UNL     1      -8.310   7.570  71.117  1.00  0.00    -0.109 C  
HETATM   16  C   UNL     1      -9.628   6.871  71.413  1.00  0.00    -0.167 C  
HETATM   17  C   UNL     1     -10.588   7.703  70.609  1.00  0.00    -0.221 C  
HETATM   18  O   UNL     1     -11.724   7.335  70.324  1.00  0.00    -0.229 OA 
ENDBRANCH  12  13
ENDBRANCH   9  12
TORSDOF 2
ENDMDL
MODEL       48
REMARK 921   NORMALIZED FREE ENERGY PREDICTED BY IDOCK:   -5.50 KCAL/MOL
REMARK 922        TOTAL FREE ENERGY PREDICTED BY IDOCK:   -6.45 KCAL/MOL
REMARK 923 INTER-LIGAND FREE ENERGY PREDICTED BY IDOCK:   -6.38 KCAL/MOL
REMARK 924 INTRA-LIGAND FREE ENERGY PREDICTED BY IDOCK:   -0.08 KCAL/MOL
REMARK 927      BINDING AFFINITY PREDICTED BY RF-SCORE:    0.00 PKD
ROOT
HETATM    1  C   UNL     1     -13.423   8.875  71.847  1.00  0.00    -0.464 C  
HETATM    2  C   UNL     1     -12.009   9.463  71.974  1.00  0.00    -0.345 C  
HETATM    3  C   UNL     1     -11.673  10.193  70.674  1.00  0.00    -0.425 A  
HETATM    4  C   UNL     1     -11.043   8.370  72.432  1.00  0.00    -0.361 C  
HETATM    5  C   UNL     1     -12.064  11.535  70.508  1.00  0.00    -0.472 A  
HETATM    6  O   UNL     1      -9.735   8.602  72.151  1.00  0.00    -0.292 OA 
HETATM    7  O   UNL     1     -11.375   7.379  73.072  1.00  0.00    -0.311 OA 
HETATM    8  C   UNL     1     -11.963  12.171  69.262  1.00  0.00    -0.318 A  
HETATM    9  C   UNL     1     -11.450  11.487  68.157  1.00  0.00    -0.385 A  
HETATM   10  C   UNL     1     -10.981  10.178  68.342  1.00  0.00    -0.293 A  
HETATM   11  C   UNL     1     -11.111   9.531  69.575  1.00  0.00    -0.168 A  
ENDROOT
BRANCH   9  12
HETATM   12  C   UNL     1     -11.584  12.018  66.745  1.00  0.00    -0.391 C  
BRANCH  12  13
HETATM   13  C   UNL     1     -10.401  11.864  65.792  1.00  0.00    -0.285 C  
HETATM   14  C   UNL     1     -10.267  10.459  65.196  1.00  0.00    -0.326 C  
HETATM   15  C   UNL     1      -9.765  10.676  63.773  1.00  0.00    -0.382 C  
HETATM   16  C   UNL     1     -10.529  11.896  63.281  1.00  0.00    -0.427 C  
HETATM   17  C   UNL     1     -10.642  12.701  64.547  1.00  0.00    -0.346 C  
HETATM   18  O   UNL     1     -10.936  13.892  64.564  1.00  0.00    -0.388 OA 
ENDBRANCH  12  13
ENDBRANCH   9  12
TORSDOF 2
ENDMDL
MODEL       49
REMARK 921   NORMALIZED FREE ENERGY PREDICTED BY IDOCK:   -5.41 KCAL/MOL
REMARK 922        TOTAL FREE ENERGY PREDICTED BY IDOCK:   -6.35 KCAL/MOL
REMARK 923 INTER-LIGAND FREE ENERGY PREDICTED BY IDOCK:   -5.96 KCAL/MOL
REMARK 924 INTRA-LIGAND FREE ENERGY PREDICTED BY IDOCK:   -0.39 KCAL/MOL
REMARK 927      BINDING AFFINITY PREDICTED BY RF-SCORE:    0.00 PKD
ROOT
HETATM    1  C   UNL     1     -12.731  12.110  63.444  1.00  0.00    -0.508 C  
HETATM    2  C   UNL     1     -11.457  12.712  64.057  1.00  0.00    -0.475 C  
HETATM    3  C   UNL     1     -11.030  11.837  65.236  1.00  0.00    -0.350 A  
HETATM    4  C   UNL     1     -11.681  14.199  64.336  1.00  0.00    -0.392 C  
HETATM    5  C   UNL     1     -10.218  10.709  65.007  1.00  0.00    -0.380 A  
HETATM    6  O   UNL     1     -10.855  14.741  65.267  1.00  0.00    -0.333 OA 
HETATM    7  O   UNL     1     -12.485  14.901  63.735  1.00  0.00    -0.768 OA 
HETATM    8  C   UNL     1      -9.980   9.770  66.020  1.00  0.00    -0.342 A  
HETATM    9  C   UNL     1     -10.532   9.944  67.292  1.00  0.00    -0.319 A  
HETATM   10  C   UNL     1     -11.270  11.110  67.544  1.00  0.00    -0.369 A  
HETATM   11  C   UNL     1     -11.535  12.032  66.527  1.00  0.00    -0.413 A  
ENDROOT
BRANCH   9  12
HETATM   12  C   UNL     1     -10.549   8.836  68.323  1.00  0.00    -0.194 C  
BRANCH  12  13
HETATM   13  C   UNL     1      -9.252   8.503  69.057  1.00  0.00    -0.146 C  
HETATM   14  C   UNL     1      -8.529   9.730  69.623  1.00  0.00    -0.194 C  
HETATM   15  C   UNL     1      -7.916   9.260  70.937  1.00  0.00    -0.161 C  
HETATM   16  C   UNL     1      -8.976   8.360  71.552  1.00  0.00    -0.251 C  
HETATM   17  C   UNL     1      -9.573   7.727  70.324  1.00  0.00    -0.175 C  
HETATM   18  O   UNL     1     -10.273   6.720  70.358  1.00  0.00    -0.189 OA 
ENDBRANCH  12  13
ENDBRANCH   9  12
TORSDOF 2
ENDMDL
MODEL       50
REMARK 921   NORMALIZED FREE ENERGY PREDICTED BY IDOCK:   -5.41 KCAL/MOL
REMARK 922        TOTAL FREE ENERGY PREDICTED BY IDOCK:   -6.35 KCAL/MOL
REMARK 923 INTER-LIGAND FREE ENERGY PREDICTED BY IDOCK:   -5.96 KCAL/MOL
REMARK 924 INTRA-LIGAND FREE ENERGY PREDICTED BY IDOCK:   -0.39 KCAL/MOL
REMARK 927      BINDING AFFINITY PREDICTED BY RF-SCORE:    0.00 PKD
ROOT
HETATM    1  C   UNL     1     -11.706  12.473  67.160  1.00  0.00    -0.425 C  
HETATM    2  C   UNL     1     -11.213  13.172  65.884  1.00  0.00    -0.311 C  
HETATM    3  C   UNL     1     -10.408  14.407  66.291  1.00  0.00    -0.300 A  
HETATM    4  C   UNL     1     -12.393  13.391  64.935  1.00  0.00    -0.412 C  
HETATM    5  C   UNL     1      -9.036  14.278  66.582  1.00  0.00    -0.249 A  
HETATM    6  O   UNL     1     -12.218  14.371  64.013  1.00  0.00    -0.547 OA 
HETATM    7  O   UNL     1     -13.408  12.705  64.928  1.00  0.00    -0.741 OA 
HETATM    8  C   UNL     1      -8.315  15.333  67.157  1.00  0.00    -0.244 A  
HETATM    9  C   UNL     1      -8.942  16.550  67.439  1.00  0.00    -0.207 A  
HETATM   10  C   UNL     1     -10.287  16.707  67.072  1.00  0.00    -0.301 A  
HETATM   11  C   UNL     1     -11.016  15.645  66.527  1.00  0.00    -0.206 A  
ENDROOT
BRANCH   9  12
HETATM   12  C   UNL     1      -8.298  17.606  68.311  1.00  0.00    -0.274 C  
BRANCH  12  13
HETATM   13  C   UNL     1      -7.165  18.444  67.725  1.00  0.00    -0.227 C  
HETATM   14  C   UNL     1      -7.496  19.067  66.364  1.00  0.00    -0.274 C  
HETATM   15  C   UNL     1      -6.807  20.427  66.370  1.00  0.00    -0.290 C  
HETATM   16  C   UNL     1      -7.017  20.954  67.782  1.00  0.00    -0.312 C  
HETATM   17  C   UNL     1      -6.954  19.682  68.582  1.00  0.00    -0.326 C  
HETATM   18  O   UNL     1      -6.791  19.658  69.798  1.00  0.00    -0.314 OA 
ENDBRANCH  12  13
ENDBRANCH   9  12
TORSDOF 2
ENDMDL
MODEL       51
REMARK 921   NORMALIZED FREE ENERGY PREDICTED BY IDOCK:   -5.41 KCAL/MOL
REMARK 922        TOTAL FREE ENERGY PREDICTED BY IDOCK:   -6.35 KCAL/MOL
REMARK 923 INTER-LIGAND FREE ENERGY PREDICTED BY IDOCK:   -5.99 KCAL/MOL
REMARK 924 INTRA-LIGAND FREE ENERGY PREDICTED BY IDOCK:   -0.36 KCAL/MOL
REMARK 927      BINDING AFFINITY PREDICTED BY RF-SCORE:    0.00 PKD
ROOT
HETATM    1  C   UNL     1     -11.535  11.750  66.733  1.00  0.00    -0.352 C  
HETATM    2  C   UNL     1     -10.899  12.494  67.917  1.00  0.00    -0.251 C  
HETATM    3  C   UNL     1     -11.006  11.606  69.158  1.00  0.00    -0.270 A  
HETATM    4  C   UNL     1     -11.492  13.901  68.012  1.00  0.00    -0.307 C  
HETATM    5  C   UNL     1     -10.012  10.642  69.411  1.00  0.00    -0.183 A  
HETATM    6  O   UNL     1     -11.384  14.490  69.229  1.00  0.00    -0.257 OA 
HETATM    7  O   UNL     1     -11.970  14.513  67.064  1.00  0.00    -0.404 OA 
HETATM    8  C   UNL     1     -10.179   9.674  70.412  1.00  0.00    -0.348 A  
HETATM    9  C   UNL     1     -11.336   9.659  71.197  1.00  0.00    -0.456 A  
HETATM   10  C   UNL     1     -12.287  10.671  71.001  1.00  0.00    -0.507 A  
HETATM   11  C   UNL     1     -12.137  11.617  69.982  1.00  0.00    -0.395 A  
ENDROOT
BRANCH   9  12
HETATM   12  C   UNL     1     -11.695   8.484  72.080  1.00  0.00    -0.448 C  
BRANCH  12  13
HETATM   13  C   UNL     1     -10.636   7.415  72.340  1.00  0.00    -0.285 C  
HETATM   14  C   UNL     1     -10.495   7.029  73.816  1.00  0.00    -0.392 C  
HETATM   15  C   UNL     1     -10.190   5.535  73.809  1.00  0.00    -0.246 C  
HETATM   16  C   UNL     1     -11.082   4.969  72.715  1.00  0.00    -0.310 C  
HETATM   17  C   UNL     1     -11.081   6.100  71.722  1.00  0.00    -0.274 C  
HETATM   18  O   UNL     1     -11.441   5.973  70.556  1.00  0.00    -0.304 OA 
ENDBRANCH  12  13
ENDBRANCH   9  12
TORSDOF 2
ENDMDL
MODEL       52
REMARK 921   NORMALIZED FREE ENERGY PREDICTED BY IDOCK:   -5.39 KCAL/MOL
REMARK 922        TOTAL FREE ENERGY PREDICTED BY IDOCK:   -6.33 KCAL/MOL
REMARK 923 INTER-LIGAND FREE ENERGY PREDICTED BY IDOCK:   -5.79 KCAL/MOL
REMARK 924 INTRA-LIGAND FREE ENERGY PREDICTED BY IDOCK:   -0.54 KCAL/MOL
REMARK 927      BINDING AFFINITY PREDICTED BY RF-SCORE:    0.00 PKD
ROOT
HETATM    1  C   UNL     1     -10.773  19.015  65.717  1.00  0.00    -0.350 C  
HETATM    2  C   UNL     1      -9.549  18.711  66.594  1.00  0.00    -0.347 C  
HETATM    3  C   UNL     1      -9.633  17.253  67.048  1.00  0.00    -0.262 A  
HETATM    4  C   UNL     1      -9.427  19.776  67.685  1.00  0.00    -0.352 C  
HETATM    5  C   UNL     1      -9.117  16.236  66.222  1.00  0.00    -0.366 A  
HETATM    6  O   UNL     1      -8.709  19.405  68.775  1.00  0.00    -0.364 OA 
HETATM    7  O   UNL     1      -9.868  20.915  67.589  1.00  0.00    -0.364 OA 
HETATM    8  C   UNL     1      -9.360  14.883  66.500  1.00  0.00    -0.308 A  
HETATM    9  C   UNL     1     -10.108  14.513  67.622  1.00  0.00    -0.228 A  
HETATM   10  C   UNL     1     -10.549  15.522  68.490  1.00  0.00    -0.246 A  
HETATM   11  C   UNL     1     -10.335  16.873  68.198  1.00  0.00    -0.336 A  
ENDROOT
BRANCH   9  12
HETATM   12  C   UNL     1     -10.639  13.108  67.809  1.00  0.00    -0.242 C  
BRANCH  12  13
HETATM   13  C   UNL     1     -11.765  12.627  66.898  1.00  0.00    -0.453 C  
HETATM   14  C   UNL     1     -12.593  13.761  66.286  1.00  0.00    -0.372 C  
HETATM   15  C   UNL     1     -12.956  13.279  64.886  1.00  0.00    -0.199 C  
HETATM   16  C   UNL     1     -11.699  12.584  64.385  1.00  0.00    -0.432 C  
HETATM   17  C   UNL     1     -11.171  11.980  65.657  1.00  0.00    -0.327 C  
HETATM   18  O   UNL     1     -10.324  11.093  65.681  1.00  0.00    -0.242 OA 
ENDBRANCH  12  13
ENDBRANCH   9  12
TORSDOF 2
ENDMDL
MODEL       53
REMARK 921   NORMALIZED FREE ENERGY PREDICTED BY IDOCK:   -5.39 KCAL/MOL
REMARK 922        TOTAL FREE ENERGY PREDICTED BY IDOCK:   -6.32 KCAL/MOL
REMARK 923 INTER-LIGAND FREE ENERGY PREDICTED BY IDOCK:   -5.84 KCAL/MOL
REMARK 924 INTRA-LIGAND FREE ENERGY PREDICTED BY IDOCK:   -0.49 KCAL/MOL
REMARK 927      BINDING AFFINITY PREDICTED BY RF-SCORE:    0.00 PKD
ROOT
HETATM    1  C   UNL     1      -9.792   9.826  70.292  1.00  0.00    -0.296 C  
HETATM    2  C   UNL     1     -11.306   9.876  70.039  1.00  0.00    -0.303 C  
HETATM    3  C   UNL     1     -11.667  11.279  69.548  1.00  0.00    -0.415 A  
HETATM    4  C   UNL     1     -12.046   9.356  71.273  1.00  0.00    -0.345 C  
HETATM    5  C   UNL     1     -11.569  11.583  68.177  1.00  0.00    -0.378 A  
HETATM    6  O   UNL     1     -13.338   9.758  71.382  1.00  0.00    -0.379 OA 
HETATM    7  O   UNL     1     -11.567   8.575  72.086  1.00  0.00    -0.332 OA 
HETATM    8  C   UNL     1     -11.685  12.903  67.717  1.00  0.00    -0.412 A  
HETATM    9  C   UNL     1     -11.921  13.948  68.614  1.00  0.00    -0.401 A  
HETATM   10  C   UNL     1     -12.103  13.634  69.969  1.00  0.00    -0.417 A  
HETATM   11  C   UNL     1     -11.955  12.324  70.434  1.00  0.00    -0.349 A  
ENDROOT
BRANCH   9  12
HETATM   12  C   UNL     1     -11.769  15.401  68.218  1.00  0.00    -0.313 C  
BRANCH  12  13
HETATM   13  C   UNL     1     -10.374  16.022  68.245  1.00  0.00    -0.261 C  
HETATM   14  C   UNL     1      -9.339  15.184  69.003  1.00  0.00    -0.219 C  
HETATM   15  C   UNL     1      -8.034  15.375  68.237  1.00  0.00    -0.128 C  
HETATM   16  C   UNL     1      -8.447  15.358  66.773  1.00  0.00    -0.307 C  
HETATM   17  C   UNL     1      -9.794  16.023  66.840  1.00  0.00    -0.245 C  
HETATM   18  O   UNL     1     -10.371  16.478  65.857  1.00  0.00    -0.336 OA 
ENDBRANCH  12  13
ENDBRANCH   9  12
TORSDOF 2
ENDMDL
MODEL       54
REMARK 921   NORMALIZED FREE ENERGY PREDICTED BY IDOCK:   -5.38 KCAL/MOL
REMARK 922        TOTAL FREE ENERGY PREDICTED BY IDOCK:   -6.32 KCAL/MOL
REMARK 923 INTER-LIGAND FREE ENERGY PREDICTED BY IDOCK:   -5.79 KCAL/MOL
REMARK 924 INTRA-LIGAND FREE ENERGY PREDICTED BY IDOCK:   -0.53 KCAL/MOL
REMARK 927      BINDING AFFINITY PREDICTED BY RF-SCORE:    0.00 PKD
ROOT
HETATM    1  C   UNL     1     -10.070  15.325  65.990  1.00  0.00    -0.340 C  
HETATM    2  C   UNL     1     -11.384  14.625  65.610  1.00  0.00    -0.338 C  
HETATM    3  C   UNL     1     -11.164  13.114  65.687  1.00  0.00    -0.306 A  
HETATM    4  C   UNL     1     -11.896  15.190  64.285  1.00  0.00    -0.251 C  
HETATM    5  C   UNL     1     -11.328  12.448  66.916  1.00  0.00    -0.392 A  
HETATM    6  O   UNL     1     -12.755  14.385  63.609  1.00  0.00    -0.773 OA 
HETATM    7  O   UNL     1     -11.633  16.310  63.865  1.00  0.00    -0.987 OA 
HETATM    8  C   UNL     1     -10.935  11.111  67.076  1.00  0.00    -0.348 A  
HETATM    9  C   UNL     1     -10.386  10.402  66.004  1.00  0.00    -0.262 A  
HETATM   10  C   UNL     1     -10.300  11.039  64.757  1.00  0.00    -0.389 A  
HETATM   11  C   UNL     1     -10.662  12.381  64.604  1.00  0.00    -0.339 A  
ENDROOT
BRANCH   9  12
HETATM   12  C   UNL     1      -9.687   9.072  66.190  1.00  0.00    -0.354 C  
BRANCH  12  13
HETATM   13  C   UNL     1      -8.376   9.040  66.972  1.00  0.00    -0.116 C  
HETATM   14  C   UNL     1      -7.587  10.353  66.910  1.00  0.00    -0.107 C  
HETATM   15  C   UNL     1      -6.941  10.494  68.284  1.00  0.00    -0.073 C  
HETATM   16  C   UNL     1      -8.008  10.020  69.258  1.00  0.00    -0.130 C  
HETATM   17  C   UNL     1      -8.675   8.934  68.458  1.00  0.00    -0.134 C  
HETATM   18  O   UNL     1      -9.409   8.086  68.955  1.00  0.00    -0.150 OA 
ENDBRANCH  12  13
ENDBRANCH   9  12
TORSDOF 2
ENDMDL
MODEL       55
REMARK 921   NORMALIZED FREE ENERGY PREDICTED BY IDOCK:   -5.36 KCAL/MOL
REMARK 922        TOTAL FREE ENERGY PREDICTED BY IDOCK:   -6.30 KCAL/MOL
REMARK 923 INTER-LIGAND FREE ENERGY PREDICTED BY IDOCK:   -5.88 KCAL/MOL
REMARK 924 INTRA-LIGAND FREE ENERGY PREDICTED BY IDOCK:   -0.41 KCAL/MOL
REMARK 927      BINDING AFFINITY PREDICTED BY RF-SCORE:    0.00 PKD
ROOT
HETATM    1  C   UNL     1      -7.587   9.517  70.534  1.00  0.00    -0.165 C  
HETATM    2  C   UNL     1      -8.928   8.770  70.481  1.00  0.00    -0.203 C  
HETATM    3  C   UNL     1      -9.810   9.439  69.426  1.00  0.00    -0.183 A  
HETATM    4  C   UNL     1      -9.500   8.649  71.895  1.00  0.00    -0.299 C  
HETATM    5  C   UNL     1      -9.700   9.049  68.078  1.00  0.00    -0.179 A  
HETATM    6  O   UNL     1     -10.839   8.442  71.958  1.00  0.00    -0.272 OA 
HETATM    7  O   UNL     1      -8.822   8.660  72.915  1.00  0.00    -0.367 OA 
HETATM    8  C   UNL     1     -10.331   9.775  67.058  1.00  0.00    -0.305 A  
HETATM    9  C   UNL     1     -11.105  10.899  67.364  1.00  0.00    -0.373 A  
HETATM   10  C   UNL     1     -11.284  11.237  68.713  1.00  0.00    -0.311 A  
HETATM   11  C   UNL     1     -10.629  10.533  69.729  1.00  0.00    -0.274 A  
ENDROOT
BRANCH   9  12
HETATM   12  C   UNL     1     -11.564  11.875  66.302  1.00  0.00    -0.317 C  
BRANCH  12  13
HETATM   13  C   UNL     1     -11.310  13.365  66.523  1.00  0.00    -0.346 C  
HETATM   14  C   UNL     1      -9.863  13.792  66.251  1.00  0.00    -0.314 C  
HETATM   15  C   UNL     1      -9.967  15.187  65.644  1.00  0.00    -0.387 C  
HETATM   16  C   UNL     1     -11.171  15.110  64.718  1.00  0.00    -0.396 C  
HETATM   17  C   UNL     1     -12.065  14.167  65.477  1.00  0.00    -0.414 C  
HETATM   18  O   UNL     1     -13.263  14.038  65.242  1.00  0.00    -0.782 OA 
ENDBRANCH  12  13
ENDBRANCH   9  12
TORSDOF 2
ENDMDL
MODEL       56
REMARK 921   NORMALIZED FREE ENERGY PREDICTED BY IDOCK:   -5.35 KCAL/MOL
REMARK 922        TOTAL FREE ENERGY PREDICTED BY IDOCK:   -6.28 KCAL/MOL
REMARK 923 INTER-LIGAND FREE ENERGY PREDICTED BY IDOCK:   -5.80 KCAL/MOL
REMARK 924 INTRA-LIGAND FREE ENERGY PREDICTED BY IDOCK:   -0.49 KCAL/MOL
REMARK 927      BINDING AFFINITY PREDICTED BY RF-SCORE:    0.00 PKD
ROOT
HETATM    1  C   UNL     1     -11.208  14.747  66.352  1.00  0.00    -0.342 C  
HETATM    2  C   UNL     1     -12.209  13.582  66.304  1.00  0.00    -0.468 C  
HETATM    3  C   UNL     1     -11.684  12.458  67.198  1.00  0.00    -0.415 A  
HETATM    4  C   UNL     1     -12.511  13.231  64.846  1.00  0.00    -0.409 C  
HETATM    5  C   UNL     1     -11.979  12.470  68.575  1.00  0.00    -0.266 A  
HETATM    6  O   UNL     1     -12.989  11.977  64.642  1.00  0.00    -0.519 OA 
HETATM    7  O   UNL     1     -12.411  14.018  63.912  1.00  0.00    -0.696 OA 
HETATM    8  C   UNL     1     -11.349  11.583  69.459  1.00  0.00    -0.342 A  
HETATM    9  C   UNL     1     -10.422  10.650  68.985  1.00  0.00    -0.237 A  
HETATM   10  C   UNL     1     -10.191  10.582  67.604  1.00  0.00    -0.234 A  
HETATM   11  C   UNL     1     -10.795  11.487  66.724  1.00  0.00    -0.330 A  
ENDROOT
BRANCH   9  12
HETATM   12  C   UNL     1      -9.510   9.876  69.913  1.00  0.00    -0.256 C  
BRANCH  12  13
HETATM   13  C   UNL     1      -9.991   8.533  70.456  1.00  0.00    -0.214 C  
HETATM   14  C   UNL     1     -11.489   8.496  70.776  1.00  0.00    -0.281 C  
HETATM   15  C   UNL     1     -11.939   7.084  70.415  1.00  0.00    -0.256 C  
HETATM   16  C   UNL     1     -11.189   6.762  69.132  1.00  0.00    -0.236 C  
HETATM   17  C   UNL     1      -9.887   7.479  69.365  1.00  0.00    -0.166 C  
HETATM   18  O   UNL     1      -8.871   7.260  68.714  1.00  0.00    -0.128 OA 
ENDBRANCH  12  13
ENDBRANCH   9  12
TORSDOF 2
ENDMDL
MODEL       57
REMARK 921   NORMALIZED FREE ENERGY PREDICTED BY IDOCK:   -5.34 KCAL/MOL
REMARK 922        TOTAL FREE ENERGY PREDICTED BY IDOCK:   -6.28 KCAL/MOL
REMARK 923 INTER-LIGAND FREE ENERGY PREDICTED BY IDOCK:   -5.93 KCAL/MOL
REMARK 924 INTRA-LIGAND FREE ENERGY PREDICTED BY IDOCK:   -0.35 KCAL/MOL
REMARK 927      BINDING AFFINITY PREDICTED BY RF-SCORE:    0.00 PKD
ROOT
HETATM    1  C   UNL     1     -11.820  13.711  67.536  1.00  0.00    -0.416 C  
HETATM    2  C   UNL     1     -11.294  14.056  66.134  1.00  0.00    -0.322 C  
HETATM    3  C   UNL     1     -10.295  15.206  66.264  1.00  0.00    -0.303 A  
HETATM    4  C   UNL     1     -12.475  14.260  65.184  1.00  0.00    -0.416 C  
HETATM    5  C   UNL     1      -8.945  14.927  66.548  1.00  0.00    -0.288 A  
HETATM    6  O   UNL     1     -12.203  14.997  64.077  1.00  0.00    -0.607 OA 
HETATM    7  O   UNL     1     -13.580  13.753  65.337  1.00  0.00    -0.517 OA 
HETATM    8  C   UNL     1      -8.047  15.950  66.881  1.00  0.00    -0.285 A  
HETATM    9  C   UNL     1      -8.472  17.282  66.919  1.00  0.00    -0.251 A  
HETATM   10  C   UNL     1      -9.795  17.569  66.553  1.00  0.00    -0.315 A  
HETATM   11  C   UNL     1     -10.701  16.546  66.252  1.00  0.00    -0.146 A  
ENDROOT
BRANCH   9  12
HETATM   12  C   UNL     1      -7.636  18.378  67.543  1.00  0.00    -0.226 C  
BRANCH  12  13
HETATM   13  C   UNL     1      -6.472  18.955  66.739  1.00  0.00    -0.201 C  
HETATM   14  C   UNL     1      -6.325  18.346  65.340  1.00  0.00    -0.273 C  
HETATM   15  C   UNL     1      -5.859  19.496  64.453  1.00  0.00    -0.318 C  
HETATM   16  C   UNL     1      -6.658  20.697  64.936  1.00  0.00    -0.274 C  
HETATM   17  C   UNL     1      -6.757  20.410  66.409  1.00  0.00    -0.245 C  
HETATM   18  O   UNL     1      -7.073  21.256  67.240  1.00  0.00    -0.522 OA 
ENDBRANCH  12  13
ENDBRANCH   9  12
TORSDOF 2
ENDMDL
MODEL       58
REMARK 921   NORMALIZED FREE ENERGY PREDICTED BY IDOCK:   -5.29 KCAL/MOL
REMARK 922        TOTAL FREE ENERGY PREDICTED BY IDOCK:   -6.22 KCAL/MOL
REMARK 923 INTER-LIGAND FREE ENERGY PREDICTED BY IDOCK:   -5.71 KCAL/MOL
REMARK 924 INTRA-LIGAND FREE ENERGY PREDICTED BY IDOCK:   -0.51 KCAL/MOL
REMARK 927      BINDING AFFINITY PREDICTED BY RF-SCORE:    0.00 PKD
ROOT
HETATM    1  C   UNL     1     -12.527  12.662  65.123  1.00  0.00    -0.531 C  
HETATM    2  C   UNL     1     -11.306  12.523  66.045  1.00  0.00    -0.386 C  
HETATM    3  C   UNL     1     -10.830  13.925  66.428  1.00  0.00    -0.291 A  
HETATM    4  C   UNL     1     -10.282  11.591  65.395  1.00  0.00    -0.264 C  
HETATM    5  C   UNL     1     -11.411  14.581  67.529  1.00  0.00    -0.375 A  
HETATM    6  O   UNL     1      -9.009  11.732  65.844  1.00  0.00    -0.167 OA 
HETATM    7  O   UNL     1     -10.562  10.719  64.582  1.00  0.00    -0.328 OA 
HETATM    8  C   UNL     1     -11.156  15.936  67.785  1.00  0.00    -0.288 A  
HETATM    9  C   UNL     1     -10.298  16.663  66.955  1.00  0.00    -0.301 A  
HETATM   10  C   UNL     1      -9.653  15.989  65.908  1.00  0.00    -0.370 A  
HETATM   11  C   UNL     1      -9.931  14.647  65.633  1.00  0.00    -0.381 A  
ENDROOT
BRANCH   9  12
HETATM   12  C   UNL     1     -10.214  18.174  67.009  1.00  0.00    -0.373 C  
BRANCH  12  13
HETATM   13  C   UNL     1      -9.097  18.813  67.831  1.00  0.00    -0.318 C  
HETATM   14  C   UNL     1      -8.322  17.818  68.700  1.00  0.00    -0.274 C  
HETATM   15  C   UNL     1      -6.881  18.316  68.688  1.00  0.00    -0.261 C  
HETATM   16  C   UNL     1      -6.650  18.777  67.257  1.00  0.00    -0.203 C  
HETATM   17  C   UNL     1      -8.007  19.317  66.900  1.00  0.00    -0.260 C  
HETATM   18  O   UNL     1      -8.208  20.050  65.936  1.00  0.00    -0.334 OA 
ENDBRANCH  12  13
ENDBRANCH   9  12
TORSDOF 2
ENDMDL
MODEL       59
REMARK 921   NORMALIZED FREE ENERGY PREDICTED BY IDOCK:   -5.28 KCAL/MOL
REMARK 922        TOTAL FREE ENERGY PREDICTED BY IDOCK:   -6.20 KCAL/MOL
REMARK 923 INTER-LIGAND FREE ENERGY PREDICTED BY IDOCK:   -6.10 KCAL/MOL
REMARK 924 INTRA-LIGAND FREE ENERGY PREDICTED BY IDOCK:   -0.10 KCAL/MOL
REMARK 927      BINDING AFFINITY PREDICTED BY RF-SCORE:    0.00 PKD
ROOT
HETATM    1  C   UNL     1      -8.000  18.352  68.061  1.00  0.00    -0.289 C  
HETATM    2  C   UNL     1      -9.433  18.648  67.593  1.00  0.00    -0.316 C  
HETATM    3  C   UNL     1     -10.278  17.391  67.803  1.00  0.00    -0.345 A  
HETATM    4  C   UNL     1      -9.396  19.236  66.181  1.00  0.00    -0.269 C  
HETATM    5  C   UNL     1     -10.883  17.161  69.053  1.00  0.00    -0.129 A  
HETATM    6  O   UNL     1     -10.550  19.118  65.477  1.00  0.00    -0.536 OA 
HETATM    7  O   UNL     1      -8.440  19.841  65.711  1.00  0.00    -0.383 OA 
HETATM    8  C   UNL     1     -11.485  15.931  69.352  1.00  0.00    -0.351 A  
HETATM    9  C   UNL     1     -11.514  14.906  68.401  1.00  0.00    -0.338 A  
HETATM   10  C   UNL     1     -10.986  15.165  67.128  1.00  0.00    -0.326 A  
HETATM   11  C   UNL     1     -10.356  16.380  66.839  1.00  0.00    -0.300 A  
ENDROOT
BRANCH   9  12
HETATM   12  C   UNL     1     -11.885  13.483  68.760  1.00  0.00    -0.390 C  
BRANCH  12  13
HETATM   13  C   UNL     1     -11.811  13.058  70.224  1.00  0.00    -0.294 C  
HETATM   14  C   UNL     1     -12.959  13.598  71.084  1.00  0.00    -0.353 C  
HETATM   15  C   UNL     1     -13.262  12.490  72.086  1.00  0.00    -0.508 C  
HETATM   16  C   UNL     1     -13.144  11.205  71.281  1.00  0.00    -0.353 C  
HETATM   17  C   UNL     1     -12.035  11.558  70.327  1.00  0.00    -0.368 C  
HETATM   18  O   UNL     1     -11.413  10.722  69.679  1.00  0.00    -0.254 OA 
ENDBRANCH  12  13
ENDBRANCH   9  12
TORSDOF 2
ENDMDL
MODEL       60
REMARK 921   NORMALIZED FREE ENERGY PREDICTED BY IDOCK:   -5.27 KCAL/MOL
REMARK 922        TOTAL FREE ENERGY PREDICTED BY IDOCK:   -6.20 KCAL/MOL
REMARK 923 INTER-LIGAND FREE ENERGY PREDICTED BY IDOCK:   -5.65 KCAL/MOL
REMARK 924 INTRA-LIGAND FREE ENERGY PREDICTED BY IDOCK:   -0.55 KCAL/MOL
REMARK 927      BINDING AFFINITY PREDICTED BY RF-SCORE:    0.00 PKD
ROOT
HETATM    1  C   UNL     1      -6.039  18.294  68.449  1.00  0.00    -0.193 C  
HETATM    2  C   UNL     1      -7.555  18.541  68.426  1.00  0.00    -0.312 C  
HETATM    3  C   UNL     1      -8.244  17.265  67.939  1.00  0.00    -0.219 A  
HETATM    4  C   UNL     1      -7.850  19.830  67.657  1.00  0.00    -0.291 C  
HETATM    5  C   UNL     1      -8.564  16.251  68.862  1.00  0.00    -0.260 A  
HETATM    6  O   UNL     1      -9.111  19.933  67.166  1.00  0.00    -0.316 OA 
HETATM    7  O   UNL     1      -7.057  20.756  67.535  1.00  0.00    -0.329 OA 
HETATM    8  C   UNL     1      -9.000  14.990  68.432  1.00  0.00    -0.179 A  
HETATM    9  C   UNL     1      -9.144  14.717  67.069  1.00  0.00    -0.257 A  
HETATM   10  C   UNL     1      -8.906  15.753  66.154  1.00  0.00    -0.346 A  
HETATM   11  C   UNL     1      -8.441  17.001  66.579  1.00  0.00    -0.306 A  
ENDROOT
BRANCH   9  12
HETATM   12  C   UNL     1      -9.327  13.309  66.543  1.00  0.00    -0.221 C  
BRANCH  12  13
HETATM   13  C   UNL     1     -10.730  12.856  66.147  1.00  0.00    -0.290 C  
HETATM   14  C   UNL     1     -11.846  13.767  66.671  1.00  0.00    -0.445 C  
HETATM   15  C   UNL     1     -12.904  13.773  65.573  1.00  0.00    -0.464 C  
HETATM   16  C   UNL     1     -12.108  13.821  64.278  1.00  0.00    -0.481 C  
HETATM   17  C   UNL     1     -10.902  12.999  64.643  1.00  0.00    -0.354 C  
HETATM   18  O   UNL     1     -10.127  12.535  63.813  1.00  0.00    -0.388 OA 
ENDBRANCH  12  13
ENDBRANCH   9  12
TORSDOF 2
ENDMDL
MODEL       61
REMARK 921   NORMALIZED FREE ENERGY PREDICTED BY IDOCK:   -5.27 KCAL/MOL
REMARK 922        TOTAL FREE ENERGY PREDICTED BY IDOCK:   -6.20 KCAL/MOL
REMARK 923 INTER-LIGAND FREE ENERGY PREDICTED BY IDOCK:   -5.87 KCAL/MOL
REMARK 924 INTRA-LIGAND FREE ENERGY PREDICTED BY IDOCK:   -0.33 KCAL/MOL
REMARK 927      BINDING AFFINITY PREDICTED BY RF-SCORE:    0.00 PKD
ROOT
HETATM    1  C   UNL     1     -10.702  13.499  68.742  1.00  0.00    -0.261 C  
HETATM    2  C   UNL     1      -9.927  13.085  67.481  1.00  0.00    -0.212 C  
HETATM    3  C   UNL     1      -9.203  14.317  66.935  1.00  0.00    -0.268 A  
HETATM    4  C   UNL     1     -10.866  12.346  66.526  1.00  0.00    -0.250 C  
HETATM    5  C   UNL     1      -7.932  14.655  67.435  1.00  0.00    -0.223 A  
HETATM    6  O   UNL     1     -10.472  12.331  65.228  1.00  0.00    -0.266 OA 
HETATM    7  O   UNL     1     -11.869  11.738  66.879  1.00  0.00    -0.591 OA 
HETATM    8  C   UNL     1      -7.330  15.882  67.118  1.00  0.00    -0.258 A  
HETATM    9  C   UNL     1      -7.978  16.791  66.277  1.00  0.00    -0.352 A  
HETATM   10  C   UNL     1      -9.206  16.418  65.711  1.00  0.00    -0.110 A  
HETATM   11  C   UNL     1      -9.822  15.210  66.052  1.00  0.00    -0.349 A  
ENDROOT
BRANCH   9  12
HETATM   12  C   UNL     1      -7.517  18.226  66.134  1.00  0.00    -0.291 C  
BRANCH  12  13
HETATM   13  C   UNL     1      -8.367  19.330  66.760  1.00  0.00    -0.311 C  
HETATM   14  C   UNL     1      -9.825  19.331  66.288  1.00  0.00    -0.456 C  
HETATM   15  C   UNL     1     -10.638  19.751  67.508  1.00  0.00    -0.544 C  
HETATM   16  C   UNL     1      -9.971  19.038  68.674  1.00  0.00    -0.482 C  
HETATM   17  C   UNL     1      -8.529  19.063  68.247  1.00  0.00    -0.331 C  
HETATM   18  O   UNL     1      -7.595  18.850  69.015  1.00  0.00    -0.314 OA 
ENDBRANCH  12  13
ENDBRANCH   9  12
TORSDOF 2
ENDMDL
MODEL       62
REMARK 921   NORMALIZED FREE ENERGY PREDICTED BY IDOCK:   -5.26 KCAL/MOL
REMARK 922        TOTAL FREE ENERGY PREDICTED BY IDOCK:   -6.18 KCAL/MOL
REMARK 923 INTER-LIGAND FREE ENERGY PREDICTED BY IDOCK:   -5.83 KCAL/MOL
REMARK 924 INTRA-LIGAND FREE ENERGY PREDICTED BY IDOCK:   -0.35 KCAL/MOL
REMARK 927      BINDING AFFINITY PREDICTED BY RF-SCORE:    0.00 PKD
ROOT
HETATM    1  C   UNL     1      -6.794  19.457  65.498  1.00  0.00    -0.303 C  
HETATM    2  C   UNL     1      -6.757  18.956  66.950  1.00  0.00    -0.204 C  
HETATM    3  C   UNL     1      -7.780  17.829  67.097  1.00  0.00    -0.224 A  
HETATM    4  C   UNL     1      -6.886  20.146  67.902  1.00  0.00    -0.278 C  
HETATM    5  C   UNL     1      -7.411  16.508  66.779  1.00  0.00    -0.281 A  
HETATM    6  O   UNL     1      -7.324  19.840  69.150  1.00  0.00    -0.336 OA 
HETATM    7  O   UNL     1      -6.561  21.293  67.621  1.00  0.00    -0.423 OA 
HETATM    8  C   UNL     1      -8.369  15.487  66.698  1.00  0.00    -0.286 A  
HETATM    9  C   UNL     1      -9.716  15.758  66.952  1.00  0.00    -0.240 A  
HETATM   10  C   UNL     1     -10.072  17.055  67.351  1.00  0.00    -0.291 A  
HETATM   11  C   UNL     1      -9.123  18.082  67.401  1.00  0.00    -0.250 A  
ENDROOT
BRANCH   9  12
HETATM   12  C   UNL     1     -10.816  14.778  66.602  1.00  0.00    -0.319 C  
BRANCH  12  13
HETATM   13  C   UNL     1     -10.681  13.958  65.321  1.00  0.00    -0.352 C  
HETATM   14  C   UNL     1     -10.889  12.454  65.524  1.00  0.00    -0.316 C  
HETATM   15  C   UNL     1     -11.594  11.975  64.260  1.00  0.00    -0.435 C  
HETATM   16  C   UNL     1     -12.587  13.080  63.936  1.00  0.00    -0.290 C  
HETATM   17  C   UNL     1     -11.825  14.299  64.379  1.00  0.00    -0.426 C  
HETATM   18  O   UNL     1     -12.126  15.440  64.045  1.00  0.00    -0.574 OA 
ENDBRANCH  12  13
ENDBRANCH   9  12
TORSDOF 2
ENDMDL
MODEL       63
REMARK 921   NORMALIZED FREE ENERGY PREDICTED BY IDOCK:   -5.25 KCAL/MOL
REMARK 922        TOTAL FREE ENERGY PREDICTED BY IDOCK:   -6.17 KCAL/MOL
REMARK 923 INTER-LIGAND FREE ENERGY PREDICTED BY IDOCK:   -5.77 KCAL/MOL
REMARK 924 INTRA-LIGAND FREE ENERGY PREDICTED BY IDOCK:   -0.41 KCAL/MOL
REMARK 927      BINDING AFFINITY PREDICTED BY RF-SCORE:    0.00 PKD
ROOT
HETATM    1  C   UNL     1     -10.850  19.102  67.523  1.00  0.00    -0.512 C  
HETATM    2  C   UNL     1      -9.998  18.917  66.259  1.00  0.00    -0.429 C  
HETATM    3  C   UNL     1      -9.923  17.423  65.942  1.00  0.00    -0.166 A  
HETATM    4  C   UNL     1      -8.673  19.663  66.425  1.00  0.00    -0.368 C  
HETATM    5  C   UNL     1     -10.939  16.822  65.175  1.00  0.00    -0.109 A  
HETATM    6  O   UNL     1      -7.664  19.229  65.627  1.00  0.00    -0.450 OA 
HETATM    7  O   UNL     1      -8.514  20.631  67.158  1.00  0.00    -0.311 OA 
HETATM    8  C   UNL     1     -11.019  15.429  65.041  1.00  0.00    -0.450 A  
HETATM    9  C   UNL     1     -10.074  14.603  65.655  1.00  0.00    -0.389 A  
HETATM   10  C   UNL     1      -9.013  15.204  66.348  1.00  0.00    -0.314 A  
HETATM   11  C   UNL     1      -8.950  16.592  66.510  1.00  0.00    -0.312 A  
ENDROOT
BRANCH   9  12
HETATM   12  C   UNL     1     -10.272  13.107  65.785  1.00  0.00    -0.294 C  
BRANCH  12  13
HETATM   13  C   UNL     1     -10.266  12.490  67.181  1.00  0.00    -0.225 C  
HETATM   14  C   UNL     1     -11.590  12.654  67.936  1.00  0.00    -0.401 C  
HETATM   15  C   UNL     1     -11.751  11.370  68.742  1.00  0.00    -0.404 C  
HETATM   16  C   UNL     1     -11.271  10.271  67.807  1.00  0.00    -0.262 C  
HETATM   17  C   UNL     1     -10.168  10.977  67.066  1.00  0.00    -0.211 C  
HETATM   18  O   UNL     1      -9.313  10.390  66.410  1.00  0.00    -0.158 OA 
ENDBRANCH  12  13
ENDBRANCH   9  12
TORSDOF 2
ENDMDL
MODEL       64
REMARK 921   NORMALIZED FREE ENERGY PREDICTED BY IDOCK:   -5.22 KCAL/MOL
REMARK 922        TOTAL FREE ENERGY PREDICTED BY IDOCK:   -6.14 KCAL/MOL
REMARK 923 INTER-LIGAND FREE ENERGY PREDICTED BY IDOCK:   -5.68 KCAL/MOL
REMARK 924 INTRA-LIGAND FREE ENERGY PREDICTED BY IDOCK:   -0.46 KCAL/MOL
REMARK 927      BINDING AFFINITY PREDICTED BY RF-SCORE:    0.00 PKD
ROOT
HETATM    1  C   UNL     1      -8.281  18.540  66.365  1.00  0.00    -0.289 C  
HETATM    2  C   UNL     1      -8.747  18.761  67.812  1.00  0.00    -0.309 C  
HETATM    3  C   UNL     1      -9.412  17.475  68.305  1.00  0.00    -0.296 A  
HETATM    4  C   UNL     1      -9.570  20.047  67.891  1.00  0.00    -0.367 C  
HETATM    5  C   UNL     1      -8.622  16.452  68.863  1.00  0.00    -0.250 A  
HETATM    6  O   UNL     1     -10.409  20.130  68.955  1.00  0.00    -0.382 OA 
HETATM    7  O   UNL     1      -9.456  20.987  67.114  1.00  0.00    -0.323 OA 
HETATM    8  C   UNL     1      -9.159  15.185  69.131  1.00  0.00    -0.215 A  
HETATM    9  C   UNL     1     -10.505  14.915  68.865  1.00  0.00    -0.242 A  
HETATM   10  C   UNL     1     -11.312  15.958  68.388  1.00  0.00    -0.361 A  
HETATM   11  C   UNL     1     -10.771  17.213  68.090  1.00  0.00    -0.366 A  
ENDROOT
BRANCH   9  12
HETATM   12  C   UNL     1     -11.059  13.506  68.861  1.00  0.00    -0.305 C  
BRANCH  12  13
HETATM   13  C   UNL     1     -11.406  12.863  67.520  1.00  0.00    -0.354 C  
HETATM   14  C   UNL     1     -10.298  12.988  66.469  1.00  0.00    -0.278 C  
HETATM   15  C   UNL     1     -10.351  11.686  65.678  1.00  0.00    -0.306 C  
HETATM   16  C   UNL     1     -10.611  10.614  66.725  1.00  0.00    -0.297 C  
HETATM   17  C   UNL     1     -11.495  11.355  67.690  1.00  0.00    -0.273 C  
HETATM   18  O   UNL     1     -12.178  10.797  68.544  1.00  0.00    -0.470 OA 
ENDBRANCH  12  13
ENDBRANCH   9  12
TORSDOF 2
ENDMDL
MODEL       65
REMARK 921   NORMALIZED FREE ENERGY PREDICTED BY IDOCK:   -5.19 KCAL/MOL
REMARK 922        TOTAL FREE ENERGY PREDICTED BY IDOCK:   -6.10 KCAL/MOL
REMARK 923 INTER-LIGAND FREE ENERGY PREDICTED BY IDOCK:   -5.80 KCAL/MOL
REMARK 924 INTRA-LIGAND FREE ENERGY PREDICTED BY IDOCK:   -0.31 KCAL/MOL
REMARK 927      BINDING AFFINITY PREDICTED BY RF-SCORE:    0.00 PKD
ROOT
HETATM    1  C   UNL     1      -6.889  17.087  68.776  1.00  0.00    -0.199 C  
HETATM    2  C   UNL     1      -7.731  17.635  67.613  1.00  0.00    -0.211 C  
HETATM    3  C   UNL     1      -8.830  16.620  67.293  1.00  0.00    -0.206 A  
HETATM    4  C   UNL     1      -6.807  18.049  66.467  1.00  0.00    -0.219 C  
HETATM    5  C   UNL     1     -10.043  16.660  68.006  1.00  0.00    -0.262 A  
HETATM    6  O   UNL     1      -7.396  18.109  65.246  1.00  0.00    -0.408 OA 
HETATM    7  O   UNL     1      -5.636  18.379  66.610  1.00  0.00    -0.139 OA 
HETATM    8  C   UNL     1     -10.985  15.628  67.893  1.00  0.00    -0.319 A  
HETATM    9  C   UNL     1     -10.745  14.539  67.049  1.00  0.00    -0.291 A  
HETATM   10  C   UNL     1      -9.575  14.541  66.275  1.00  0.00    -0.328 A  
HETATM   11  C   UNL     1      -8.620  15.553  66.411  1.00  0.00    -0.292 A  
ENDROOT
BRANCH   9  12
HETATM   12  C   UNL     1     -11.578  13.276  67.105  1.00  0.00    -0.402 C  
BRANCH  12  13
HETATM   13  C   UNL     1     -12.156  12.725  65.804  1.00  0.00    -0.505 C  
HETATM   14  C   UNL     1     -12.334  13.783  64.710  1.00  0.00    -0.420 C  
HETATM   15  C   UNL     1     -12.022  13.061  63.403  1.00  0.00    -0.592 C  
HETATM   16  C   UNL     1     -10.839  12.166  63.736  1.00  0.00    -0.490 C  
HETATM   17  C   UNL     1     -11.148  11.788  65.159  1.00  0.00    -0.282 C  
HETATM   18  O   UNL     1     -10.611  10.849  65.739  1.00  0.00    -0.232 OA 
ENDBRANCH  12  13
ENDBRANCH   9  12
TORSDOF 2
ENDMDL
MODEL       66
REMARK 921   NORMALIZED FREE ENERGY PREDICTED BY IDOCK:   -5.18 KCAL/MOL
REMARK 922        TOTAL FREE ENERGY PREDICTED BY IDOCK:   -6.09 KCAL/MOL
REMARK 923 INTER-LIGAND FREE ENERGY PREDICTED BY IDOCK:   -5.74 KCAL/MOL
REMARK 924 INTRA-LIGAND FREE ENERGY PREDICTED BY IDOCK:   -0.35 KCAL/MOL
REMARK 927      BINDING AFFINITY PREDICTED BY RF-SCORE:    0.00 PKD
ROOT
HETATM    1  C   UNL     1     -11.017  19.563  65.674  1.00  0.00    -0.221 C  
HETATM    2  C   UNL     1      -9.803  19.070  66.477  1.00  0.00    -0.415 C  
HETATM    3  C   UNL     1     -10.114  17.671  67.011  1.00  0.00    -0.330 A  
HETATM    4  C   UNL     1      -9.404  20.135  67.500  1.00  0.00    -0.382 C  
HETATM    5  C   UNL     1      -9.859  16.546  66.204  1.00  0.00    -0.355 A  
HETATM    6  O   UNL     1      -8.680  19.679  68.554  1.00  0.00    -0.348 OA 
HETATM    7  O   UNL     1      -9.636  21.332  67.376  1.00  0.00    -0.266 OA 
HETATM    8  C   UNL     1     -10.321  15.273  66.568  1.00  0.00    -0.289 A  
HETATM    9  C   UNL     1     -11.032  15.091  67.758  1.00  0.00    -0.298 A  
HETATM   10  C   UNL     1     -11.212  16.196  68.602  1.00  0.00    -0.369 A  
HETATM   11  C   UNL     1     -10.780  17.472  68.226  1.00  0.00    -0.309 A  
ENDROOT
BRANCH   9  12
HETATM   12  C   UNL     1     -11.793  13.817  68.055  1.00  0.00    -0.408 C  
BRANCH  12  13
HETATM   13  C   UNL     1     -11.047  12.660  68.716  1.00  0.00    -0.307 C  
HETATM   14  C   UNL     1     -11.840  11.968  69.830  1.00  0.00    -0.401 C  
HETATM   15  C   UNL     1     -11.468  10.493  69.728  1.00  0.00    -0.365 C  
HETATM   16  C   UNL     1     -11.408  10.218  68.233  1.00  0.00    -0.245 C  
HETATM   17  C   UNL     1     -10.880  11.528  67.715  1.00  0.00    -0.221 C  
HETATM   18  O   UNL     1     -10.405  11.666  66.591  1.00  0.00    -0.211 OA 
ENDBRANCH  12  13
ENDBRANCH   9  12
TORSDOF 2
ENDMDL
MODEL       67
REMARK 921   NORMALIZED FREE ENERGY PREDICTED BY IDOCK:   -5.17 KCAL/MOL
REMARK 922        TOTAL FREE ENERGY PREDICTED BY IDOCK:   -6.09 KCAL/MOL
REMARK 923 INTER-LIGAND FREE ENERGY PREDICTED BY IDOCK:   -5.77 KCAL/MOL
REMARK 924 INTRA-LIGAND FREE ENERGY PREDICTED BY IDOCK:   -0.32 KCAL/MOL
REMARK 927      BINDING AFFINITY PREDICTED BY RF-SCORE:    0.00 PKD
ROOT
HETATM    1  C   UNL     1      -7.473  18.583  68.784  1.00  0.00    -0.309 C  
HETATM    2  C   UNL     1      -8.788  19.097  68.178  1.00  0.00    -0.360 C  
HETATM    3  C   UNL     1      -9.700  17.897  67.917  1.00  0.00    -0.288 A  
HETATM    4  C   UNL     1      -8.478  20.009  66.989  1.00  0.00    -0.333 C  
HETATM    5  C   UNL     1     -10.528  17.416  68.949  1.00  0.00    -0.312 A  
HETATM    6  O   UNL     1      -9.490  20.158  66.098  1.00  0.00    -0.372 OA 
HETATM    7  O   UNL     1      -7.432  20.633  66.854  1.00  0.00    -0.296 OA 
HETATM    8  C   UNL     1     -11.216  16.201  68.820  1.00  0.00    -0.365 A  
HETATM    9  C   UNL     1     -11.108  15.447  67.648  1.00  0.00    -0.316 A  
HETATM   10  C   UNL     1     -10.351  15.967  66.588  1.00  0.00    -0.299 A  
HETATM   11  C   UNL     1      -9.639  17.163  66.727  1.00  0.00    -0.279 A  
ENDROOT
BRANCH   9  12
HETATM   12  C   UNL     1     -11.587  14.013  67.564  1.00  0.00    -0.397 C  
BRANCH  12  13
HETATM   13  C   UNL     1     -11.037  13.001  68.567  1.00  0.00    -0.298 C  
HETATM   14  C   UNL     1     -11.935  12.794  69.791  1.00  0.00    -0.362 C  
HETATM   15  C   UNL     1     -11.800  11.315  70.138  1.00  0.00    -0.449 C  
HETATM   16  C   UNL     1     -11.777  10.609  68.791  1.00  0.00    -0.259 C  
HETATM   17  C   UNL     1     -11.046  11.615  67.945  1.00  0.00    -0.247 C  
HETATM   18  O   UNL     1     -10.550  11.346  66.855  1.00  0.00    -0.229 OA 
ENDBRANCH  12  13
ENDBRANCH   9  12
TORSDOF 2
ENDMDL
MODEL       68
REMARK 921   NORMALIZED FREE ENERGY PREDICTED BY IDOCK:   -5.17 KCAL/MOL
REMARK 922        TOTAL FREE ENERGY PREDICTED BY IDOCK:   -6.09 KCAL/MOL
REMARK 923 INTER-LIGAND FREE ENERGY PREDICTED BY IDOCK:   -5.78 KCAL/MOL
REMARK 924 INTRA-LIGAND FREE ENERGY PREDICTED BY IDOCK:   -0.31 KCAL/MOL
REMARK 927      BINDING AFFINITY PREDICTED BY RF-SCORE:    0.00 PKD
ROOT
HETATM    1  C   UNL     1     -10.392  12.508  64.313  1.00  0.00    -0.396 C  
HETATM    2  C   UNL     1     -11.274  13.719  64.651  1.00  0.00    -0.383 C  
HETATM    3  C   UNL     1     -10.603  14.504  65.779  1.00  0.00    -0.326 A  
HETATM    4  C   UNL     1     -12.712  13.252  64.884  1.00  0.00    -0.327 C  
HETATM    5  C   UNL     1      -9.632  15.475  65.469  1.00  0.00    -0.257 A  
HETATM    6  O   UNL     1     -13.480  14.097  65.618  1.00  0.00    -0.576 OA 
HETATM    7  O   UNL     1     -13.193  12.235  64.400  1.00  0.00    -0.806 OA 
HETATM    8  C   UNL     1      -8.848  16.062  66.473  1.00  0.00    -0.340 A  
HETATM    9  C   UNL     1      -9.030  15.707  67.813  1.00  0.00    -0.176 A  
HETATM   10  C   UNL     1     -10.054  14.803  68.129  1.00  0.00    -0.221 A  
HETATM   11  C   UNL     1     -10.815  14.192  67.127  1.00  0.00    -0.291 A  
ENDROOT
BRANCH   9  12
HETATM   12  C   UNL     1      -8.034  16.084  68.889  1.00  0.00    -0.212 C  
BRANCH  12  13
HETATM   13  C   UNL     1      -7.048  17.215  68.606  1.00  0.00    -0.217 C  
HETATM   14  C   UNL     1      -7.667  18.614  68.698  1.00  0.00    -0.344 C  
HETATM   15  C   UNL     1      -6.570  19.498  69.280  1.00  0.00    -0.374 C  
HETATM   16  C   UNL     1      -5.907  18.633  70.340  1.00  0.00    -0.134 C  
HETATM   17  C   UNL     1      -6.008  17.269  69.713  1.00  0.00    -0.243 C  
HETATM   18  O   UNL     1      -5.350  16.304  70.088  1.00  0.00    -0.156 OA 
ENDBRANCH  12  13
ENDBRANCH   9  12
TORSDOF 2
ENDMDL
MODEL       69
REMARK 921   NORMALIZED FREE ENERGY PREDICTED BY IDOCK:   -5.17 KCAL/MOL
REMARK 922        TOTAL FREE ENERGY PREDICTED BY IDOCK:   -6.08 KCAL/MOL
REMARK 923 INTER-LIGAND FREE ENERGY PREDICTED BY IDOCK:   -5.69 KCAL/MOL
REMARK 924 INTRA-LIGAND FREE ENERGY PREDICTED BY IDOCK:   -0.40 KCAL/MOL
REMARK 927      BINDING AFFINITY PREDICTED BY RF-SCORE:    0.00 PKD
ROOT
HETATM    1  C   UNL     1      -8.589  17.879  68.285  1.00  0.00    -0.277 C  
HETATM    2  C   UNL     1      -9.926  18.156  67.582  1.00  0.00    -0.344 C  
HETATM    3  C   UNL     1     -10.572  16.815  67.230  1.00  0.00    -0.275 A  
HETATM    4  C   UNL     1      -9.704  19.146  66.438  1.00  0.00    -0.364 C  
HETATM    5  C   UNL     1     -11.371  16.156  68.184  1.00  0.00    -0.270 A  
HETATM    6  O   UNL     1     -10.655  19.130  65.470  1.00  0.00    -0.536 OA 
HETATM    7  O   UNL     1      -8.788  19.959  66.397  1.00  0.00    -0.350 OA 
HETATM    8  C   UNL     1     -11.805  14.838  67.980  1.00  0.00    -0.324 A  
HETATM    9  C   UNL     1     -11.467  14.154  66.809  1.00  0.00    -0.383 A  
HETATM   10  C   UNL     1     -10.743  14.839  65.823  1.00  0.00    -0.333 A  
HETATM   11  C   UNL     1     -10.282  16.142  66.037  1.00  0.00    -0.374 A  
ENDROOT
BRANCH   9  12
HETATM   12  C   UNL     1     -11.657  12.659  66.665  1.00  0.00    -0.443 C  
BRANCH  12  13
HETATM   13  C   UNL     1     -10.440  11.751  66.817  1.00  0.00    -0.260 C  
HETATM   14  C   UNL     1     -10.612  10.658  67.877  1.00  0.00    -0.266 C  
HETATM   15  C   UNL     1      -9.873   9.445  67.323  1.00  0.00    -0.232 C  
HETATM   16  C   UNL     1     -10.198   9.448  65.837  1.00  0.00    -0.123 C  
HETATM   17  C   UNL     1     -10.264  10.924  65.554  1.00  0.00    -0.271 C  
HETATM   18  O   UNL     1     -10.220  11.395  64.422  1.00  0.00    -0.262 OA 
ENDBRANCH  12  13
ENDBRANCH   9  12
TORSDOF 2
ENDMDL
MODEL       70
REMARK 921   NORMALIZED FREE ENERGY PREDICTED BY IDOCK:   -5.15 KCAL/MOL
REMARK 922        TOTAL FREE ENERGY PREDICTED BY IDOCK:   -6.06 KCAL/MOL
REMARK 923 INTER-LIGAND FREE ENERGY PREDICTED BY IDOCK:   -5.50 KCAL/MOL
REMARK 924 INTRA-LIGAND FREE ENERGY PREDICTED BY IDOCK:   -0.56 KCAL/MOL
REMARK 927      BINDING AFFINITY PREDICTED BY RF-SCORE:    0.00 PKD
ROOT
HETATM    1  C   UNL     1     -12.350  12.529  70.787  1.00  0.00    -0.376 C  
HETATM    2  C   UNL     1     -12.521  11.266  69.929  1.00  0.00    -0.220 C  
HETATM    3  C   UNL     1     -12.013  10.067  70.731  1.00  0.00    -0.426 A  
HETATM    4  C   UNL     1     -11.898  11.499  68.552  1.00  0.00    -0.297 C  
HETATM    5  C   UNL     1     -12.882   9.408  71.622  1.00  0.00    -0.461 A  
HETATM    6  O   UNL     1     -11.564  10.372  67.872  1.00  0.00    -0.406 OA 
HETATM    7  O   UNL     1     -11.761  12.601  68.034  1.00  0.00    -0.321 OA 
HETATM    8  C   UNL     1     -12.403   8.447  72.524  1.00  0.00    -0.358 A  
HETATM    9  C   UNL     1     -11.047   8.107  72.543  1.00  0.00    -0.446 A  
HETATM   10  C   UNL     1     -10.198   8.701  71.598  1.00  0.00    -0.366 A  
HETATM   11  C   UNL     1     -10.667   9.683  70.720  1.00  0.00    -0.401 A  
ENDROOT
BRANCH   9  12
HETATM   12  C   UNL     1     -10.433   7.304  73.670  1.00  0.00    -0.391 C  
BRANCH  12  13
HETATM   13  C   UNL     1     -10.003   5.865  73.390  1.00  0.00    -0.182 C  
HETATM   14  C   UNL     1     -10.828   5.174  72.299  1.00  0.00    -0.241 C  
HETATM   15  C   UNL     1      -9.839   4.281  71.558  1.00  0.00    -0.260 C  
HETATM   16  C   UNL     1      -8.569   5.113  71.466  1.00  0.00    -0.132 C  
HETATM   17  C   UNL     1      -8.616   5.864  72.769  1.00  0.00    -0.122 C  
HETATM   18  O   UNL     1      -7.645   6.442  73.249  1.00  0.00    -0.090 OA 
ENDBRANCH  12  13
ENDBRANCH   9  12
TORSDOF 2
ENDMDL
MODEL       71
REMARK 921   NORMALIZED FREE ENERGY PREDICTED BY IDOCK:   -5.15 KCAL/MOL
REMARK 922        TOTAL FREE ENERGY PREDICTED BY IDOCK:   -6.06 KCAL/MOL
REMARK 923 INTER-LIGAND FREE ENERGY PREDICTED BY IDOCK:   -5.66 KCAL/MOL
REMARK 924 INTRA-LIGAND FREE ENERGY PREDICTED BY IDOCK:   -0.40 KCAL/MOL
REMARK 927      BINDING AFFINITY PREDICTED BY RF-SCORE:    0.00 PKD
ROOT
HETATM    1  C   UNL     1     -10.281  10.687  69.490  1.00  0.00    -0.190 C  
HETATM    2  C   UNL     1     -11.737  11.142  69.666  1.00  0.00    -0.410 C  
HETATM    3  C   UNL     1     -11.817  12.635  69.342  1.00  0.00    -0.356 A  
HETATM    4  C   UNL     1     -12.248  10.697  71.037  1.00  0.00    -0.393 C  
HETATM    5  C   UNL     1     -11.996  13.049  68.008  1.00  0.00    -0.335 A  
HETATM    6  O   UNL     1     -13.310  11.397  71.511  1.00  0.00    -0.291 OA 
HETATM    7  O   UNL     1     -11.807   9.738  71.659  1.00  0.00    -0.389 OA 
HETATM    8  C   UNL     1     -11.864  14.397  67.644  1.00  0.00    -0.412 A  
HETATM    9  C   UNL     1     -11.570  15.366  68.607  1.00  0.00    -0.373 A  
HETATM   10  C   UNL     1     -11.476  14.965  69.948  1.00  0.00    -0.321 A  
HETATM   11  C   UNL     1     -11.575  13.618  70.309  1.00  0.00    -0.162 A  
ENDROOT
BRANCH   9  12
HETATM   12  C   UNL     1     -11.137  16.768  68.235  1.00  0.00    -0.259 C  
BRANCH  12  13
HETATM   13  C   UNL     1      -9.645  17.094  68.233  1.00  0.00    -0.280 C  
HETATM   14  C   UNL     1      -8.864  16.411  67.105  1.00  0.00    -0.214 C  
HETATM   15  C   UNL     1      -7.800  17.420  66.690  1.00  0.00    -0.292 C  
HETATM   16  C   UNL     1      -8.511  18.764  66.734  1.00  0.00    -0.292 C  
HETATM   17  C   UNL     1      -9.448  18.562  67.894  1.00  0.00    -0.296 C  
HETATM   18  O   UNL     1     -10.016  19.485  68.469  1.00  0.00    -0.397 OA 
ENDBRANCH  12  13
ENDBRANCH   9  12
TORSDOF 2
ENDMDL
MODEL       72
REMARK 921   NORMALIZED FREE ENERGY PREDICTED BY IDOCK:   -5.14 KCAL/MOL
REMARK 922        TOTAL FREE ENERGY PREDICTED BY IDOCK:   -6.05 KCAL/MOL
REMARK 923 INTER-LIGAND FREE ENERGY PREDICTED BY IDOCK:   -5.66 KCAL/MOL
REMARK 924 INTRA-LIGAND FREE ENERGY PREDICTED BY IDOCK:   -0.39 KCAL/MOL
REMARK 927      BINDING AFFINITY PREDICTED BY RF-SCORE:    0.00 PKD
ROOT
HETATM    1  C   UNL     1      -9.188  11.463  66.671  1.00  0.00    -0.191 C  
HETATM    2  C   UNL     1     -10.682  11.619  66.995  1.00  0.00    -0.292 C  
HETATM    3  C   UNL     1     -10.934  13.065  67.423  1.00  0.00    -0.284 A  
HETATM    4  C   UNL     1     -11.109  10.518  67.968  1.00  0.00    -0.300 C  
HETATM    5  C   UNL     1     -11.188  14.046  66.445  1.00  0.00    -0.321 A  
HETATM    6  O   UNL     1     -12.230  10.786  68.684  1.00  0.00    -0.472 OA 
HETATM    7  O   UNL     1     -10.550   9.433  68.070  1.00  0.00    -0.230 OA 
HETATM    8  C   UNL     1     -11.214  15.408  66.774  1.00  0.00    -0.197 A  
HETATM    9  C   UNL     1     -11.007  15.823  68.093  1.00  0.00    -0.330 A  
HETATM   10  C   UNL     1     -10.839  14.842  69.081  1.00  0.00    -0.267 A  
HETATM   11  C   UNL     1     -10.780  13.484  68.749  1.00  0.00    -0.261 A  
ENDROOT
BRANCH   9  12
HETATM   12  C   UNL     1     -10.741  17.269  68.451  1.00  0.00    -0.332 C  
BRANCH  12  13
HETATM   13  C   UNL     1      -9.734  18.054  67.613  1.00  0.00    -0.291 C  
HETATM   14  C   UNL     1     -10.101  19.531  67.429  1.00  0.00    -0.525 C  
HETATM   15  C   UNL     1      -8.771  20.276  67.436  1.00  0.00    -0.428 C  
HETATM   16  C   UNL     1      -7.953  19.583  68.515  1.00  0.00    -0.383 C  
HETATM   17  C   UNL     1      -8.420  18.160  68.369  1.00  0.00    -0.299 C  
HETATM   18  O   UNL     1      -7.820  17.202  68.845  1.00  0.00    -0.255 OA 
ENDBRANCH  12  13
ENDBRANCH   9  12
TORSDOF 2
ENDMDL
MODEL       73
REMARK 921   NORMALIZED FREE ENERGY PREDICTED BY IDOCK:   -5.09 KCAL/MOL
REMARK 922        TOTAL FREE ENERGY PREDICTED BY IDOCK:   -5.99 KCAL/MOL
REMARK 923 INTER-LIGAND FREE ENERGY PREDICTED BY IDOCK:   -5.60 KCAL/MOL
REMARK 924 INTRA-LIGAND FREE ENERGY PREDICTED BY IDOCK:   -0.39 KCAL/MOL
REMARK 927      BINDING AFFINITY PREDICTED BY RF-SCORE:    0.00 PKD
ROOT
HETATM    1  C   UNL     1     -10.715  18.389  66.958  1.00  0.00    -0.330 C  
HETATM    2  C   UNL     1      -9.940  17.177  66.419  1.00  0.00    -0.315 C  
HETATM    3  C   UNL     1     -10.306  15.956  67.264  1.00  0.00    -0.293 A  
HETATM    4  C   UNL     1      -8.456  17.530  66.307  1.00  0.00    -0.212 C  
HETATM    5  C   UNL     1     -11.445  15.198  66.935  1.00  0.00    -0.215 A  
HETATM    6  O   UNL     1      -7.611  16.468  66.295  1.00  0.00    -0.268 OA 
HETATM    7  O   UNL     1      -8.027  18.668  66.165  1.00  0.00    -0.363 OA 
HETATM    8  C   UNL     1     -11.931  14.206  67.799  1.00  0.00    -0.389 A  
HETATM    9  C   UNL     1     -11.279  13.936  69.005  1.00  0.00    -0.312 A  
HETATM   10  C   UNL     1     -10.096  14.633  69.294  1.00  0.00    -0.125 A  
HETATM   11  C   UNL     1      -9.628  15.644  68.449  1.00  0.00    -0.199 A  
ENDROOT
BRANCH   9  12
HETATM   12  C   UNL     1     -11.911  13.095  70.094  1.00  0.00    -0.381 C  
BRANCH  12  13
HETATM   13  C   UNL     1     -12.168  11.616  69.815  1.00  0.00    -0.285 C  
HETATM   14  C   UNL     1     -10.942  10.863  69.289  1.00  0.00    -0.295 C  
HETATM   15  C   UNL     1     -11.038   9.469  69.898  1.00  0.00    -0.244 C  
HETATM   16  C   UNL     1     -11.523   9.707  71.320  1.00  0.00    -0.463 C  
HETATM   17  C   UNL     1     -12.430  10.892  71.125  1.00  0.00    -0.405 C  
HETATM   18  O   UNL     1     -13.259  11.250  71.957  1.00  0.00    -0.506 OA 
ENDBRANCH  12  13
ENDBRANCH   9  12
TORSDOF 2
ENDMDL
MODEL       74
REMARK 921   NORMALIZED FREE ENERGY PREDICTED BY IDOCK:   -5.03 KCAL/MOL
REMARK 922        TOTAL FREE ENERGY PREDICTED BY IDOCK:   -5.93 KCAL/MOL
REMARK 923 INTER-LIGAND FREE ENERGY PREDICTED BY IDOCK:   -5.40 KCAL/MOL
REMARK 924 INTRA-LIGAND FREE ENERGY PREDICTED BY IDOCK:   -0.53 KCAL/MOL
REMARK 927      BINDING AFFINITY PREDICTED BY RF-SCORE:    0.00 PKD
ROOT
HETATM    1  C   UNL     1     -10.138   9.716  65.691  1.00  0.00    -0.231 C  
HETATM    2  C   UNL     1     -10.550  10.337  67.035  1.00  0.00    -0.302 C  
HETATM    3  C   UNL     1     -10.585  11.857  66.872  1.00  0.00    -0.264 A  
HETATM    4  C   UNL     1      -9.665   9.773  68.148  1.00  0.00    -0.145 C  
HETATM    5  C   UNL     1     -11.751  12.478  66.388  1.00  0.00    -0.458 A  
HETATM    6  O   UNL     1      -9.592  10.536  69.268  1.00  0.00    -0.208 OA 
HETATM    7  O   UNL     1      -9.106   8.684  68.100  1.00  0.00    -0.140 OA 
HETATM    8  C   UNL     1     -11.755  13.833  66.028  1.00  0.00    -0.383 A  
HETATM    9  C   UNL     1     -10.597  14.605  66.162  1.00  0.00    -0.314 A  
HETATM   10  C   UNL     1      -9.460  14.008  66.724  1.00  0.00    -0.292 A  
HETATM   11  C   UNL     1      -9.444  12.649  67.053  1.00  0.00    -0.220 A  
ENDROOT
BRANCH   9  12
HETATM   12  C   UNL     1     -10.463  15.974  65.529  1.00  0.00    -0.426 C  
BRANCH  12  13
HETATM   13  C   UNL     1     -10.337  17.191  66.442  1.00  0.00    -0.307 C  
HETATM   14  C   UNL     1     -10.903  16.970  67.849  1.00  0.00    -0.302 C  
HETATM   15  C   UNL     1      -9.982  17.753  68.777  1.00  0.00    -0.367 C  
HETATM   16  C   UNL     1      -8.587  17.514  68.219  1.00  0.00    -0.266 C  
HETATM   17  C   UNL     1      -8.869  17.448  66.743  1.00  0.00    -0.251 C  
HETATM   18  O   UNL     1      -7.998  17.552  65.885  1.00  0.00    -0.527 OA 
ENDBRANCH  12  13
ENDBRANCH   9  12
TORSDOF 2
ENDMDL
MODEL       75
REMARK 921   NORMALIZED FREE ENERGY PREDICTED BY IDOCK:   -5.03 KCAL/MOL
REMARK 922        TOTAL FREE ENERGY PREDICTED BY IDOCK:   -5.92 KCAL/MOL
REMARK 923 INTER-LIGAND FREE ENERGY PREDICTED BY IDOCK:   -5.37 KCAL/MOL
REMARK 924 INTRA-LIGAND FREE ENERGY PREDICTED BY IDOCK:   -0.56 KCAL/MOL
REMARK 927      BINDING AFFINITY PREDICTED BY RF-SCORE:    0.00 PKD
ROOT
HETATM    1  C   UNL     1     -12.807   7.257  71.933  1.00  0.00    -0.299 C  
HETATM    2  C   UNL     1     -11.797   8.292  72.452  1.00  0.00    -0.461 C  
HETATM    3  C   UNL     1     -11.611   9.364  71.376  1.00  0.00    -0.451 A  
HETATM    4  C   UNL     1     -10.541   7.574  72.947  1.00  0.00    -0.337 C  
HETATM    5  C   UNL     1     -12.494  10.459  71.324  1.00  0.00    -0.521 A  
HETATM    6  O   UNL     1      -9.421   8.339  72.997  1.00  0.00    -0.264 OA 
HETATM    7  O   UNL     1     -10.521   6.416  73.348  1.00  0.00    -0.225 OA 
HETATM    8  C   UNL     1     -12.488  11.344  70.237  1.00  0.00    -0.312 A  
HETATM    9  C   UNL     1     -11.586  11.167  69.184  1.00  0.00    -0.393 A  
HETATM   10  C   UNL     1     -10.650  10.127  69.277  1.00  0.00    -0.254 A  
HETATM   11  C   UNL     1     -10.675   9.224  70.344  1.00  0.00    -0.300 A  
ENDROOT
BRANCH   9  12
HETATM   12  C   UNL     1     -11.725  11.906  67.870  1.00  0.00    -0.368 C  
BRANCH  12  13
HETATM   13  C   UNL     1     -10.729  13.018  67.550  1.00  0.00    -0.248 C  
HETATM   14  C   UNL     1     -10.241  13.785  68.784  1.00  0.00    -0.168 C  
HETATM   15  C   UNL     1      -8.782  14.119  68.493  1.00  0.00    -0.166 C  
HETATM   16  C   UNL     1      -8.233  12.872  67.817  1.00  0.00    -0.174 C  
HETATM   17  C   UNL     1      -9.434  12.408  67.040  1.00  0.00    -0.211 C  
HETATM   18  O   UNL     1      -9.371  11.594  66.123  1.00  0.00    -0.216 OA 
ENDBRANCH  12  13
ENDBRANCH   9  12
TORSDOF 2
ENDMDL
MODEL       76
REMARK 921   NORMALIZED FREE ENERGY PREDICTED BY IDOCK:   -5.01 KCAL/MOL
REMARK 922        TOTAL FREE ENERGY PREDICTED BY IDOCK:   -5.90 KCAL/MOL
REMARK 923 INTER-LIGAND FREE ENERGY PREDICTED BY IDOCK:   -6.24 KCAL/MOL
REMARK 924 INTRA-LIGAND FREE ENERGY PREDICTED BY IDOCK:    0.34 KCAL/MOL
REMARK 927      BINDING AFFINITY PREDICTED BY RF-SCORE:    0.00 PKD
ROOT
HETATM    1  C   UNL     1     -12.533   7.025  70.839  1.00  0.00    -0.319 C  
HETATM    2  C   UNL     1     -11.552   7.799  71.733  1.00  0.00    -0.312 C  
HETATM    3  C   UNL     1     -11.689   9.289  71.419  1.00  0.00    -0.431 A  
HETATM    4  C   UNL     1     -10.157   7.184  71.610  1.00  0.00    -0.185 C  
HETATM    5  C   UNL     1     -12.672  10.052  72.077  1.00  0.00    -0.439 A  
HETATM    6  O   UNL     1      -9.133   8.005  71.954  1.00  0.00    -0.132 OA 
HETATM    7  O   UNL     1      -9.942   6.019  71.297  1.00  0.00    -0.179 OA 
HETATM    8  C   UNL     1     -12.968  11.361  71.669  1.00  0.00    -0.523 A  
HETATM    9  C   UNL     1     -12.275  11.945  70.606  1.00  0.00    -0.424 A  
HETATM   10  C   UNL     1     -11.238  11.216  70.005  1.00  0.00    -0.261 A  
HETATM   11  C   UNL     1     -10.963   9.900  70.389  1.00  0.00    -0.379 A  
ENDROOT
BRANCH   9  12
HETATM   12  C   UNL     1     -12.742  13.225  69.945  1.00  0.00     0.175 C  
BRANCH  12  13
HETATM   13  C   UNL     1     -13.198  14.380  70.834  1.00  0.00    -0.347 C  
HETATM   14  C   UNL     1     -13.588  13.952  72.252  1.00  0.00    -0.642 C  
HETATM   15  C   UNL     1     -13.138  15.097  73.152  1.00  0.00    -0.625 C  
HETATM   16  C   UNL     1     -11.797  15.528  72.578  1.00  0.00    -0.572 C  
HETATM   17  C   UNL     1     -12.022  15.303  71.107  1.00  0.00    -0.345 C  
HETATM   18  O   UNL     1     -11.305  15.783  70.235  1.00  0.00    -0.299 OA 
ENDBRANCH  12  13
ENDBRANCH   9  12
TORSDOF 2
ENDMDL
MODEL       77
REMARK 921   NORMALIZED FREE ENERGY PREDICTED BY IDOCK:   -4.95 KCAL/MOL
REMARK 922        TOTAL FREE ENERGY PREDICTED BY IDOCK:   -5.83 KCAL/MOL
REMARK 923 INTER-LIGAND FREE ENERGY PREDICTED BY IDOCK:   -5.34 KCAL/MOL
REMARK 924 INTRA-LIGAND FREE ENERGY PREDICTED BY IDOCK:   -0.49 KCAL/MOL
REMARK 927      BINDING AFFINITY PREDICTED BY RF-SCORE:    0.00 PKD
ROOT
HETATM    1  C   UNL     1     -10.240  12.156  63.792  1.00  0.00    -0.449 C  
HETATM    2  C   UNL     1     -10.795  13.222  64.749  1.00  0.00    -0.374 C  
HETATM    3  C   UNL     1     -10.696  12.685  66.177  1.00  0.00    -0.293 A  
HETATM    4  C   UNL     1     -12.175  13.671  64.265  1.00  0.00    -0.396 C  
HETATM    5  C   UNL     1      -9.502  12.856  66.904  1.00  0.00    -0.237 A  
HETATM    6  O   UNL     1     -12.962  14.236  65.215  1.00  0.00    -0.679 OA 
HETATM    7  O   UNL     1     -12.551  13.609  63.101  1.00  0.00    -0.792 OA 
HETATM    8  C   UNL     1      -9.297  12.201  68.127  1.00  0.00    -0.204 A  
HETATM    9  C   UNL     1     -10.289  11.375  68.663  1.00  0.00    -0.219 A  
HETATM   10  C   UNL     1     -11.510  11.272  67.981  1.00  0.00    -0.369 A  
HETATM   11  C   UNL     1     -11.705  11.898  66.746  1.00  0.00    -0.281 A  
ENDROOT
BRANCH   9  12
HETATM   12  C   UNL     1     -10.017  10.430  69.813  1.00  0.00    -0.167 C  
BRANCH  12  13
HETATM   13  C   UNL     1      -9.178   9.181  69.549  1.00  0.00    -0.160 C  
HETATM   14  C   UNL     1      -8.970   8.881  68.061  1.00  0.00    -0.140 C  
HETATM   15  C   UNL     1      -7.558   8.313  67.963  1.00  0.00    -0.102 C  
HETATM   16  C   UNL     1      -6.741   9.156  68.931  1.00  0.00    -0.052 C  
HETATM   17  C   UNL     1      -7.752   9.421  70.013  1.00  0.00    -0.123 C  
HETATM   18  O   UNL     1      -7.450   9.826  71.132  1.00  0.00    -0.301 OA 
ENDBRANCH  12  13
ENDBRANCH   9  12
TORSDOF 2
ENDMDL
MODEL       78
REMARK 921   NORMALIZED FREE ENERGY PREDICTED BY IDOCK:   -4.95 KCAL/MOL
REMARK 922        TOTAL FREE ENERGY PREDICTED BY IDOCK:   -5.83 KCAL/MOL
REMARK 923 INTER-LIGAND FREE ENERGY PREDICTED BY IDOCK:   -5.43 KCAL/MOL
REMARK 924 INTRA-LIGAND FREE ENERGY PREDICTED BY IDOCK:   -0.40 KCAL/MOL
REMARK 927      BINDING AFFINITY PREDICTED BY RF-SCORE:    0.00 PKD
ROOT
HETATM    1  C   UNL     1     -10.649  18.767  65.935  1.00  0.00    -0.405 C  
HETATM    2  C   UNL     1      -9.570  17.993  66.708  1.00  0.00    -0.303 C  
HETATM    3  C   UNL     1     -10.018  16.536  66.831  1.00  0.00    -0.273 A  
HETATM    4  C   UNL     1      -9.243  18.735  68.005  1.00  0.00    -0.302 C  
HETATM    5  C   UNL     1      -9.727  15.629  65.795  1.00  0.00    -0.380 A  
HETATM    6  O   UNL     1      -8.679  17.974  68.978  1.00  0.00    -0.159 OA 
HETATM    7  O   UNL     1      -9.395  19.939  68.168  1.00  0.00    -0.341 OA 
HETATM    8  C   UNL     1     -10.296  14.347  65.771  1.00  0.00    -0.340 A  
HETATM    9  C   UNL     1     -11.156  13.935  66.794  1.00  0.00    -0.310 A  
HETATM   10  C   UNL     1     -11.379  14.808  67.869  1.00  0.00    -0.331 A  
HETATM   11  C   UNL     1     -10.838  16.097  67.878  1.00  0.00    -0.332 A  
ENDROOT
BRANCH   9  12
HETATM   12  C   UNL     1     -12.014  12.694  66.674  1.00  0.00    -0.382 C  
BRANCH  12  13
HETATM   13  C   UNL     1     -11.395  11.343  67.023  1.00  0.00    -0.309 C  
HETATM   14  C   UNL     1      -9.869  11.308  66.884  1.00  0.00    -0.220 C  
HETATM   15  C   UNL     1      -9.387  10.401  68.011  1.00  0.00    -0.145 C  
HETATM   16  C   UNL     1     -10.269  10.765  69.196  1.00  0.00    -0.229 C  
HETATM   17  C   UNL     1     -11.571  11.074  68.509  1.00  0.00    -0.310 C  
HETATM   18  O   UNL     1     -12.645  11.139  69.098  1.00  0.00    -0.358 OA 
ENDBRANCH  12  13
ENDBRANCH   9  12
TORSDOF 2
ENDMDL
MODEL       79
REMARK 921   NORMALIZED FREE ENERGY PREDICTED BY IDOCK:   -4.94 KCAL/MOL
REMARK 922        TOTAL FREE ENERGY PREDICTED BY IDOCK:   -5.82 KCAL/MOL
REMARK 923 INTER-LIGAND FREE ENERGY PREDICTED BY IDOCK:   -5.47 KCAL/MOL
REMARK 924 INTRA-LIGAND FREE ENERGY PREDICTED BY IDOCK:   -0.35 KCAL/MOL
REMARK 927      BINDING AFFINITY PREDICTED BY RF-SCORE:    0.00 PKD
ROOT
HETATM    1  C   UNL     1     -10.751   9.369  67.608  1.00  0.00    -0.295 C  
HETATM    2  C   UNL     1     -10.536  10.490  68.636  1.00  0.00    -0.211 C  
HETATM    3  C   UNL     1     -10.499   9.863  70.031  1.00  0.00    -0.331 A  
HETATM    4  C   UNL     1     -11.557  11.603  68.397  1.00  0.00    -0.312 C  
HETATM    5  C   UNL     1      -9.286   9.359  70.536  1.00  0.00    -0.319 A  
HETATM    6  O   UNL     1     -11.793  12.407  69.465  1.00  0.00    -0.298 OA 
HETATM    7  O   UNL     1     -12.090  11.830  67.318  1.00  0.00    -0.595 OA 
HETATM    8  C   UNL     1      -9.251   8.594  71.711  1.00  0.00    -0.338 A  
HETATM    9  C   UNL     1     -10.427   8.332  72.420  1.00  0.00    -0.404 A  
HETATM   10  C   UNL     1     -11.623   8.905  71.964  1.00  0.00    -0.435 A  
HETATM   11  C   UNL     1     -11.664   9.641  70.775  1.00  0.00    -0.390 A  
ENDROOT
BRANCH   9  12
HETATM   12  C   UNL     1     -10.492   7.288  73.515  1.00  0.00    -0.421 C  
BRANCH  12  13
HETATM   13  C   UNL     1      -9.829   5.934  73.272  1.00  0.00    -0.176 C  
HETATM   14  C   UNL     1      -8.725   5.597  74.280  1.00  0.00    -0.118 C  
HETATM   15  C   UNL     1      -8.829   4.091  74.496  1.00  0.00    -0.098 C  
HETATM   16  C   UNL     1     -10.324   3.814  74.529  1.00  0.00    -0.261 C  
HETATM   17  C   UNL     1     -10.832   4.824  73.537  1.00  0.00    -0.300 C  
HETATM   18  O   UNL     1     -11.950   4.771  73.034  1.00  0.00    -0.171 OA 
ENDBRANCH  12  13
ENDBRANCH   9  12
TORSDOF 2
ENDMDL
MODEL       80
REMARK 921   NORMALIZED FREE ENERGY PREDICTED BY IDOCK:   -4.90 KCAL/MOL
REMARK 922        TOTAL FREE ENERGY PREDICTED BY IDOCK:   -5.78 KCAL/MOL
REMARK 923 INTER-LIGAND FREE ENERGY PREDICTED BY IDOCK:   -5.45 KCAL/MOL
REMARK 924 INTRA-LIGAND FREE ENERGY PREDICTED BY IDOCK:   -0.33 KCAL/MOL
REMARK 927      BINDING AFFINITY PREDICTED BY RF-SCORE:    0.00 PKD
ROOT
HETATM    1  C   UNL     1      -8.502  20.367  67.862  1.00  0.00    -0.141 C  
HETATM    2  C   UNL     1      -8.592  19.284  66.776  1.00  0.00    -0.326 C  
HETATM    3  C   UNL     1      -9.178  18.019  67.404  1.00  0.00    -0.253 A  
HETATM    4  C   UNL     1      -7.238  19.153  66.075  1.00  0.00    -0.274 C  
HETATM    5  C   UNL     1     -10.575  17.862  67.478  1.00  0.00    -0.386 A  
HETATM    6  O   UNL     1      -7.029  17.970  65.443  1.00  0.00    -0.481 OA 
HETATM    7  O   UNL     1      -6.408  20.051  66.005  1.00  0.00    -0.191 OA 
HETATM    8  C   UNL     1     -11.150  16.826  68.228  1.00  0.00    -0.259 A  
HETATM    9  C   UNL     1     -10.341  15.910  68.907  1.00  0.00    -0.228 A  
HETATM   10  C   UNL     1      -8.950  16.016  68.764  1.00  0.00    -0.226 A  
HETATM   11  C   UNL     1      -8.375  17.067  68.043  1.00  0.00    -0.211 A  
ENDROOT
BRANCH   9  12
HETATM   12  C   UNL     1     -10.895  14.963  69.950  1.00  0.00    -0.228 C  
BRANCH  12  13
HETATM   13  C   UNL     1     -11.826  13.841  69.495  1.00  0.00    -0.394 C  
HETATM   14  C   UNL     1     -11.105  12.688  68.789  1.00  0.00    -0.307 C  
HETATM   15  C   UNL     1     -11.857  11.430  69.211  1.00  0.00    -0.417 C  
HETATM   16  C   UNL     1     -12.173  11.652  70.682  1.00  0.00    -0.461 C  
HETATM   17  C   UNL     1     -12.405  13.138  70.712  1.00  0.00    -0.321 C  
HETATM   18  O   UNL     1     -12.964  13.715  71.639  1.00  0.00    -0.342 OA 
ENDBRANCH  12  13
ENDBRANCH   9  12
TORSDOF 2
ENDMDL
MODEL       81
REMARK 921   NORMALIZED FREE ENERGY PREDICTED BY IDOCK:   -4.90 KCAL/MOL
REMARK 922        TOTAL FREE ENERGY PREDICTED BY IDOCK:   -5.78 KCAL/MOL
REMARK 923 INTER-LIGAND FREE ENERGY PREDICTED BY IDOCK:   -5.26 KCAL/MOL
REMARK 924 INTRA-LIGAND FREE ENERGY PREDICTED BY IDOCK:   -0.52 KCAL/MOL
REMARK 927      BINDING AFFINITY PREDICTED BY RF-SCORE:    0.00 PKD
ROOT
HETATM    1  C   UNL     1     -10.657  17.262  67.884  1.00  0.00    -0.384 C  
HETATM    2  C   UNL     1      -9.608  17.073  66.778  1.00  0.00    -0.274 C  
HETATM    3  C   UNL     1      -9.876  15.736  66.084  1.00  0.00    -0.341 A  
HETATM    4  C   UNL     1      -8.210  17.290  67.359  1.00  0.00    -0.191 C  
HETATM    5  C   UNL     1     -10.800  15.676  65.023  1.00  0.00    -0.468 A  
HETATM    6  O   UNL     1      -7.199  16.723  66.654  1.00  0.00    -0.212 OA 
HETATM    7  O   UNL     1      -7.973  17.979  68.344  1.00  0.00    -0.282 OA 
HETATM    8  C   UNL     1     -11.228  14.446  64.504  1.00  0.00    -0.314 A  
HETATM    9  C   UNL     1     -10.727  13.246  65.019  1.00  0.00    -0.346 A  
HETATM   10  C   UNL     1      -9.744  13.309  66.017  1.00  0.00    -0.230 A  
HETATM   11  C   UNL     1      -9.339  14.533  66.558  1.00  0.00    -0.307 A  
ENDROOT
BRANCH   9  12
HETATM   12  C   UNL     1     -11.357  11.907  64.702  1.00  0.00    -0.355 C  
BRANCH  12  13
HETATM   13  C   UNL     1     -10.544  10.888  63.907  1.00  0.00    -0.285 C  
HETATM   14  C   UNL     1      -9.491  11.518  62.989  1.00  0.00    -0.346 C  
HETATM   15  C   UNL     1      -8.308  10.556  63.021  1.00  0.00    -0.159 C  
HETATM   16  C   UNL     1      -8.221  10.107  64.472  1.00  0.00    -0.162 C  
HETATM   17  C   UNL     1      -9.675  10.082  64.859  1.00  0.00    -0.307 C  
HETATM   18  O   UNL     1     -10.096   9.505  65.857  1.00  0.00    -0.294 OA 
ENDBRANCH  12  13
ENDBRANCH   9  12
TORSDOF 2
ENDMDL
MODEL       82
REMARK 921   NORMALIZED FREE ENERGY PREDICTED BY IDOCK:   -4.89 KCAL/MOL
REMARK 922        TOTAL FREE ENERGY PREDICTED BY IDOCK:   -5.77 KCAL/MOL
REMARK 923 INTER-LIGAND FREE ENERGY PREDICTED BY IDOCK:   -5.47 KCAL/MOL
REMARK 924 INTRA-LIGAND FREE ENERGY PREDICTED BY IDOCK:   -0.30 KCAL/MOL
REMARK 927      BINDING AFFINITY PREDICTED BY RF-SCORE:    0.00 PKD
ROOT
HETATM    1  C   UNL     1      -9.378   5.614  70.825  1.00  0.00    -0.194 C  
HETATM    2  C   UNL     1     -10.843   5.975  70.538  1.00  0.00    -0.382 C  
HETATM    3  C   UNL     1     -10.869   7.065  69.466  1.00  0.00    -0.265 A  
HETATM    4  C   UNL     1     -11.561   6.274  71.855  1.00  0.00    -0.317 C  
HETATM    5  C   UNL     1     -10.839   6.703  68.105  1.00  0.00    -0.334 A  
HETATM    6  O   UNL     1     -12.681   7.031  71.742  1.00  0.00    -0.349 OA 
HETATM    7  O   UNL     1     -11.222   5.823  72.943  1.00  0.00    -0.275 OA 
HETATM    8  C   UNL     1     -10.650   7.665  67.103  1.00  0.00    -0.410 A  
HETATM    9  C   UNL     1     -10.507   9.016  67.436  1.00  0.00    -0.338 A  
HETATM   10  C   UNL     1     -10.622   9.386  68.783  1.00  0.00    -0.234 A  
HETATM   11  C   UNL     1     -10.778   8.424  69.787  1.00  0.00    -0.211 A  
ENDROOT
BRANCH   9  12
HETATM   12  C   UNL     1     -10.019  10.044  66.438  1.00  0.00    -0.300 C  
BRANCH  12  13
HETATM   13  C   UNL     1     -11.033  11.013  65.834  1.00  0.00    -0.115 C  
HETATM   14  C   UNL     1     -11.222  12.297  66.648  1.00  0.00    -0.367 C  
HETATM   15  C   UNL     1     -11.449  13.395  65.614  1.00  0.00    -0.335 C  
HETATM   16  C   UNL     1     -10.479  13.065  64.490  1.00  0.00    -0.413 C  
HETATM   17  C   UNL     1     -10.492  11.561  64.524  1.00  0.00    -0.314 C  
HETATM   18  O   UNL     1     -10.072  10.862  63.606  1.00  0.00    -0.318 OA 
ENDBRANCH  12  13
ENDBRANCH   9  12
TORSDOF 2
ENDMDL
MODEL       83
REMARK 921   NORMALIZED FREE ENERGY PREDICTED BY IDOCK:   -4.87 KCAL/MOL
REMARK 922        TOTAL FREE ENERGY PREDICTED BY IDOCK:   -5.75 KCAL/MOL
REMARK 923 INTER-LIGAND FREE ENERGY PREDICTED BY IDOCK:   -5.40 KCAL/MOL
REMARK 924 INTRA-LIGAND FREE ENERGY PREDICTED BY IDOCK:   -0.35 KCAL/MOL
REMARK 927      BINDING AFFINITY PREDICTED BY RF-SCORE:    0.00 PKD
ROOT
HETATM    1  C   UNL     1     -10.901  18.349  67.392  1.00  0.00    -0.306 C  
HETATM    2  C   UNL     1      -9.847  17.910  66.365  1.00  0.00    -0.339 C  
HETATM    3  C   UNL     1     -10.005  16.408  66.125  1.00  0.00    -0.360 A  
HETATM    4  C   UNL     1      -8.469  18.405  66.807  1.00  0.00    -0.264 C  
HETATM    5  C   UNL     1     -10.928  15.950  65.165  1.00  0.00    -0.389 A  
HETATM    6  O   UNL     1      -7.417  17.728  66.279  1.00  0.00    -0.252 OA 
HETATM    7  O   UNL     1      -8.284  19.381  67.524  1.00  0.00    -0.275 OA 
HETATM    8  C   UNL     1     -11.254  14.590  65.063  1.00  0.00    -0.384 A  
HETATM    9  C   UNL     1     -10.651  13.652  65.906  1.00  0.00    -0.289 A  
HETATM   10  C   UNL     1      -9.671  14.097  66.805  1.00  0.00    -0.283 A  
HETATM   11  C   UNL     1      -9.367  15.456  66.930  1.00  0.00    -0.255 A  
ENDROOT
BRANCH   9  12
HETATM   12  C   UNL     1     -11.169  12.235  66.037  1.00  0.00    -0.375 C  
BRANCH  12  13
HETATM   13  C   UNL     1     -10.294  11.202  66.743  1.00  0.00    -0.284 C  
HETATM   14  C   UNL     1     -11.005  10.466  67.884  1.00  0.00    -0.354 C  
HETATM   15  C   UNL     1     -10.459   9.043  67.840  1.00  0.00    -0.291 C  
HETATM   16  C   UNL     1     -10.361   8.718  66.358  1.00  0.00    -0.169 C  
HETATM   17  C   UNL     1      -9.989  10.060  65.788  1.00  0.00    -0.276 C  
HETATM   18  O   UNL     1      -9.530  10.209  64.660  1.00  0.00    -0.252 OA 
ENDBRANCH  12  13
ENDBRANCH   9  12
TORSDOF 2
ENDMDL
MODEL       84
REMARK 921   NORMALIZED FREE ENERGY PREDICTED BY IDOCK:   -4.84 KCAL/MOL
REMARK 922        TOTAL FREE ENERGY PREDICTED BY IDOCK:   -5.71 KCAL/MOL
REMARK 923 INTER-LIGAND FREE ENERGY PREDICTED BY IDOCK:   -5.34 KCAL/MOL
REMARK 924 INTRA-LIGAND FREE ENERGY PREDICTED BY IDOCK:   -0.37 KCAL/MOL
REMARK 927      BINDING AFFINITY PREDICTED BY RF-SCORE:    0.00 PKD
ROOT
HETATM    1  C   UNL     1      -9.560  16.903  67.854  1.00  0.00    -0.244 C  
HETATM    2  C   UNL     1     -10.756  16.600  66.938  1.00  0.00    -0.153 C  
HETATM    3  C   UNL     1     -10.937  15.083  66.871  1.00  0.00    -0.324 A  
HETATM    4  C   UNL     1     -10.583  17.342  65.612  1.00  0.00    -0.166 C  
HETATM    5  C   UNL     1     -11.704  14.429  67.854  1.00  0.00    -0.388 A  
HETATM    6  O   UNL     1     -11.283  16.829  64.569  1.00  0.00    -0.997 OA 
HETATM    7  O   UNL     1      -9.928  18.369  65.477  1.00  0.00    -0.394 OA 
HETATM    8  C   UNL     1     -11.721  13.030  67.950  1.00  0.00    -0.402 A  
HETATM    9  C   UNL     1     -10.988  12.250  67.051  1.00  0.00    -0.314 A  
HETATM   10  C   UNL     1     -10.292  12.898  66.020  1.00  0.00    -0.294 A  
HETATM   11  C   UNL     1     -10.248  14.293  65.943  1.00  0.00    -0.338 A  
ENDROOT
BRANCH   9  12
HETATM   12  C   UNL     1     -10.740  10.774  67.281  1.00  0.00    -0.325 C  
BRANCH  12  13
HETATM   13  C   UNL     1      -9.339  10.325  67.688  1.00  0.00    -0.158 C  
HETATM   14  C   UNL     1      -8.544  11.392  68.447  1.00  0.00    -0.156 C  
HETATM   15  C   UNL     1      -7.721  10.620  69.474  1.00  0.00    -0.113 C  
HETATM   16  C   UNL     1      -8.661   9.535  69.977  1.00  0.00    -0.242 C  
HETATM   17  C   UNL     1      -9.444   9.224  68.731  1.00  0.00    -0.150 C  
HETATM   18  O   UNL     1     -10.122   8.210  68.597  1.00  0.00    -0.186 OA 
ENDBRANCH  12  13
ENDBRANCH   9  12
TORSDOF 2
ENDMDL
MODEL       85
REMARK 921   NORMALIZED FREE ENERGY PREDICTED BY IDOCK:   -4.83 KCAL/MOL
REMARK 922        TOTAL FREE ENERGY PREDICTED BY IDOCK:   -5.70 KCAL/MOL
REMARK 923 INTER-LIGAND FREE ENERGY PREDICTED BY IDOCK:   -5.41 KCAL/MOL
REMARK 924 INTRA-LIGAND FREE ENERGY PREDICTED BY IDOCK:   -0.30 KCAL/MOL
REMARK 927      BINDING AFFINITY PREDICTED BY RF-SCORE:    0.00 PKD
ROOT
HETATM    1  C   UNL     1     -11.083   5.923  69.670  1.00  0.00    -0.414 C  
HETATM    2  C   UNL     1     -10.346   6.667  70.794  1.00  0.00    -0.232 C  
HETATM    3  C   UNL     1     -10.601   8.166  70.627  1.00  0.00    -0.229 A  
HETATM    4  C   UNL     1      -8.888   6.207  70.839  1.00  0.00    -0.136 C  
HETATM    5  C   UNL     1     -11.754   8.743  71.192  1.00  0.00    -0.344 A  
HETATM    6  O   UNL     1      -8.030   7.071  71.437  1.00  0.00    -0.102 OA 
HETATM    7  O   UNL     1      -8.497   5.117  70.440  1.00  0.00    -0.105 OA 
HETATM    8  C   UNL     1     -12.130  10.058  70.887  1.00  0.00    -0.448 A  
HETATM    9  C   UNL     1     -11.352  10.836  70.025  1.00  0.00    -0.397 A  
HETATM   10  C   UNL     1     -10.160  10.290  69.529  1.00  0.00    -0.260 A  
HETATM   11  C   UNL     1      -9.799   8.968  69.806  1.00  0.00    -0.188 A  
ENDROOT
BRANCH   9  12
HETATM   12  C   UNL     1     -11.854  12.139  69.440  1.00  0.00    -0.370 C  
BRANCH  12  13
HETATM   13  C   UNL     1     -11.187  12.675  68.175  1.00  0.00    -0.311 C  
HETATM   14  C   UNL     1     -11.648  11.980  66.890  1.00  0.00    -0.389 C  
HETATM   15  C   UNL     1     -11.665  13.075  65.829  1.00  0.00    -0.427 C  
HETATM   16  C   UNL     1     -12.215  14.295  66.550  1.00  0.00    -0.419 C  
HETATM   17  C   UNL     1     -11.644  14.104  67.929  1.00  0.00    -0.338 C  
HETATM   18  O   UNL     1     -11.594  14.998  68.768  1.00  0.00    -0.303 OA 
ENDBRANCH  12  13
ENDBRANCH   9  12
TORSDOF 2
ENDMDL
MODEL       86
REMARK 921   NORMALIZED FREE ENERGY PREDICTED BY IDOCK:   -4.83 KCAL/MOL
REMARK 922        TOTAL FREE ENERGY PREDICTED BY IDOCK:   -5.70 KCAL/MOL
REMARK 923 INTER-LIGAND FREE ENERGY PREDICTED BY IDOCK:   -5.35 KCAL/MOL
REMARK 924 INTRA-LIGAND FREE ENERGY PREDICTED BY IDOCK:   -0.36 KCAL/MOL
REMARK 927      BINDING AFFINITY PREDICTED BY RF-SCORE:    0.00 PKD
ROOT
HETATM    1  C   UNL     1     -11.445   9.366  71.470  1.00  0.00    -0.467 C  
HETATM    2  C   UNL     1     -10.140   8.851  70.845  1.00  0.00    -0.304 C  
HETATM    3  C   UNL     1      -9.964   9.516  69.479  1.00  0.00    -0.205 A  
HETATM    4  C   UNL     1     -10.126   7.322  70.885  1.00  0.00    -0.188 C  
HETATM    5  C   UNL     1      -9.343  10.776  69.393  1.00  0.00    -0.021 A  
HETATM    6  O   UNL     1      -9.296   6.730  69.989  1.00  0.00    -0.157 OA 
HETATM    7  O   UNL     1     -10.747   6.647  71.697  1.00  0.00    -0.222 OA 
HETATM    8  C   UNL     1      -9.351  11.508  68.198  1.00  0.00    -0.185 A  
HETATM    9  C   UNL     1      -9.964  10.990  67.053  1.00  0.00    -0.223 A  
HETATM   10  C   UNL     1     -10.508   9.699  67.116  1.00  0.00    -0.317 A  
HETATM   11  C   UNL     1     -10.529   8.981  68.315  1.00  0.00    -0.247 A  
ENDROOT
BRANCH   9  12
HETATM   12  C   UNL     1     -10.253  11.843  65.837  1.00  0.00    -0.270 C  
BRANCH  12  13
HETATM   13  C   UNL     1     -10.942  13.191  66.039  1.00  0.00    -0.295 C  
HETATM   14  C   UNL     1     -10.147  14.381  65.491  1.00  0.00    -0.382 C  
HETATM   15  C   UNL     1     -11.196  15.347  64.953  1.00  0.00    -0.410 C  
HETATM   16  C   UNL     1     -12.232  14.454  64.288  1.00  0.00    -0.450 C  
HETATM   17  C   UNL     1     -12.200  13.248  65.187  1.00  0.00    -0.443 C  
HETATM   18  O   UNL     1     -13.078  12.391  65.196  1.00  0.00    -0.558 OA 
ENDBRANCH  12  13
ENDBRANCH   9  12
TORSDOF 2
ENDMDL
MODEL       87
REMARK 921   NORMALIZED FREE ENERGY PREDICTED BY IDOCK:   -4.82 KCAL/MOL
REMARK 922        TOTAL FREE ENERGY PREDICTED BY IDOCK:   -5.69 KCAL/MOL
REMARK 923 INTER-LIGAND FREE ENERGY PREDICTED BY IDOCK:   -5.17 KCAL/MOL
REMARK 924 INTRA-LIGAND FREE ENERGY PREDICTED BY IDOCK:   -0.52 KCAL/MOL
REMARK 927      BINDING AFFINITY PREDICTED BY RF-SCORE:    0.00 PKD
ROOT
HETATM    1  C   UNL     1      -6.999  17.866  65.843  1.00  0.00    -0.313 C  
HETATM    2  C   UNL     1      -6.701  17.441  67.289  1.00  0.00    -0.188 C  
HETATM    3  C   UNL     1      -7.835  16.533  67.767  1.00  0.00    -0.164 A  
HETATM    4  C   UNL     1      -6.397  18.681  68.131  1.00  0.00    -0.207 C  
HETATM    5  C   UNL     1      -7.781  15.152  67.499  1.00  0.00    -0.205 A  
HETATM    6  O   UNL     1      -6.569  18.525  69.468  1.00  0.00    -0.252 OA 
HETATM    7  O   UNL     1      -5.959  19.731  67.678  1.00  0.00    -0.188 OA 
HETATM    8  C   UNL     1      -8.889  14.324  67.732  1.00  0.00    -0.185 A  
HETATM    9  C   UNL     1     -10.071  14.854  68.257  1.00  0.00    -0.221 A  
HETATM   10  C   UNL     1     -10.097  16.213  68.603  1.00  0.00    -0.231 A  
HETATM   11  C   UNL     1      -9.004  17.046  68.342  1.00  0.00    -0.247 A  
ENDROOT
BRANCH   9  12
HETATM   12  C   UNL     1     -11.372  14.079  68.257  1.00  0.00    -0.317 C  
BRANCH  12  13
HETATM   13  C   UNL     1     -12.087  13.854  66.927  1.00  0.00    -0.467 C  
HETATM   14  C   UNL     1     -11.636  14.805  65.813  1.00  0.00    -0.290 C  
HETATM   15  C   UNL     1     -11.680  13.974  64.536  1.00  0.00    -0.428 C  
HETATM   16  C   UNL     1     -11.151  12.609  64.952  1.00  0.00    -0.331 C  
HETATM   17  C   UNL     1     -11.682  12.505  66.356  1.00  0.00    -0.397 C  
HETATM   18  O   UNL     1     -11.739  11.448  66.978  1.00  0.00    -0.535 OA 
ENDBRANCH  12  13
ENDBRANCH   9  12
TORSDOF 2
ENDMDL
MODEL       88
REMARK 921   NORMALIZED FREE ENERGY PREDICTED BY IDOCK:   -4.79 KCAL/MOL
REMARK 922        TOTAL FREE ENERGY PREDICTED BY IDOCK:   -5.66 KCAL/MOL
REMARK 923 INTER-LIGAND FREE ENERGY PREDICTED BY IDOCK:   -5.34 KCAL/MOL
REMARK 924 INTRA-LIGAND FREE ENERGY PREDICTED BY IDOCK:   -0.32 KCAL/MOL
REMARK 927      BINDING AFFINITY PREDICTED BY RF-SCORE:    0.00 PKD
ROOT
HETATM    1  C   UNL     1      -7.373  19.518  68.843  1.00  0.00    -0.398 C  
HETATM    2  C   UNL     1      -8.116  19.767  67.522  1.00  0.00    -0.337 C  
HETATM    3  C   UNL     1      -8.996  18.551  67.228  1.00  0.00    -0.275 A  
HETATM    4  C   UNL     1      -7.114  20.181  66.444  1.00  0.00    -0.265 C  
HETATM    5  C   UNL     1     -10.289  18.478  67.780  1.00  0.00    -0.435 A  
HETATM    6  O   UNL     1      -7.530  19.988  65.166  1.00  0.00    -0.311 OA 
HETATM    7  O   UNL     1      -6.037  20.717  66.673  1.00  0.00    -0.198 OA 
HETATM    8  C   UNL     1     -11.042  17.297  67.710  1.00  0.00    -0.037 A  
HETATM    9  C   UNL     1     -10.528  16.166  67.069  1.00  0.00    -0.306 A  
HETATM   10  C   UNL     1      -9.275  16.266  66.446  1.00  0.00    -0.332 A  
HETATM   11  C   UNL     1      -8.510  17.432  66.542  1.00  0.00    -0.298 A  
ENDROOT
BRANCH   9  12
HETATM   12  C   UNL     1     -11.163  14.800  67.212  1.00  0.00    -0.351 C  
BRANCH  12  13
HETATM   13  C   UNL     1     -10.276  13.565  67.069  1.00  0.00    -0.249 C  
HETATM   14  C   UNL     1      -9.370  13.310  68.278  1.00  0.00    -0.205 C  
HETATM   15  C   UNL     1      -9.300  11.792  68.410  1.00  0.00    -0.185 C  
HETATM   16  C   UNL     1     -10.713  11.318  68.109  1.00  0.00    -0.244 C  
HETATM   17  C   UNL     1     -11.143  12.316  67.069  1.00  0.00    -0.287 C  
HETATM   18  O   UNL     1     -12.112  12.150  66.335  1.00  0.00    -0.630 OA 
ENDBRANCH  12  13
ENDBRANCH   9  12
TORSDOF 2
ENDMDL
MODEL       89
REMARK 921   NORMALIZED FREE ENERGY PREDICTED BY IDOCK:   -4.76 KCAL/MOL
REMARK 922        TOTAL FREE ENERGY PREDICTED BY IDOCK:   -5.63 KCAL/MOL
REMARK 923 INTER-LIGAND FREE ENERGY PREDICTED BY IDOCK:   -5.57 KCAL/MOL
REMARK 924 INTRA-LIGAND FREE ENERGY PREDICTED BY IDOCK:   -0.06 KCAL/MOL
REMARK 927      BINDING AFFINITY PREDICTED BY RF-SCORE:    0.00 PKD
ROOT
HETATM    1  C   UNL     1      -6.774  17.915  67.058  1.00  0.00    -0.203 C  
HETATM    2  C   UNL     1      -7.991  17.556  67.924  1.00  0.00    -0.227 C  
HETATM    3  C   UNL     1      -8.803  16.486  67.194  1.00  0.00    -0.213 A  
HETATM    4  C   UNL     1      -8.725  18.837  68.326  1.00  0.00    -0.333 C  
HETATM    5  C   UNL     1      -8.467  15.128  67.354  1.00  0.00    -0.202 A  
HETATM    6  O   UNL     1     -10.024  18.669  68.680  1.00  0.00    -0.363 OA 
HETATM    7  O   UNL     1      -8.196  19.939  68.405  1.00  0.00    -0.286 OA 
HETATM    8  C   UNL     1      -9.045  14.138  66.546  1.00  0.00    -0.198 A  
HETATM    9  C   UNL     1      -9.988  14.480  65.572  1.00  0.00    -0.373 A  
HETATM   10  C   UNL     1     -10.385  15.821  65.471  1.00  0.00    -0.430 A  
HETATM   11  C   UNL     1      -9.787  16.813  66.253  1.00  0.00    -0.327 A  
ENDROOT
BRANCH   9  12
HETATM   12  C   UNL     1     -10.422  13.509  64.494  1.00  0.00    -0.426 C  
BRANCH  12  13
HETATM   13  C   UNL     1     -10.890  12.117  64.912  1.00  0.00    -0.352 C  
HETATM   14  C   UNL     1      -9.752  11.184  65.338  1.00  0.00    -0.275 C  
HETATM   15  C   UNL     1     -10.331  10.340  66.469  1.00  0.00    -0.276 C  
HETATM   16  C   UNL     1     -11.172  11.315  67.279  1.00  0.00    -0.364 C  
HETATM   17  C   UNL     1     -11.697  12.219  66.196  1.00  0.00    -0.376 C  
HETATM   18  O   UNL     1     -12.646  12.980  66.355  1.00  0.00    -0.343 OA 
ENDBRANCH  12  13
ENDBRANCH   9  12
TORSDOF 2
ENDMDL
MODEL       90
REMARK 921   NORMALIZED FREE ENERGY PREDICTED BY IDOCK:   -4.75 KCAL/MOL
REMARK 922        TOTAL FREE ENERGY PREDICTED BY IDOCK:   -5.61 KCAL/MOL
REMARK 923 INTER-LIGAND FREE ENERGY PREDICTED BY IDOCK:   -5.24 KCAL/MOL
REMARK 924 INTRA-LIGAND FREE ENERGY PREDICTED BY IDOCK:   -0.37 KCAL/MOL
REMARK 927      BINDING AFFINITY PREDICTED BY RF-SCORE:    0.00 PKD
ROOT
HETATM    1  C   UNL     1      -6.082  14.620  69.864  1.00  0.00    -0.141 C  
HETATM    2  C   UNL     1      -5.762  14.350  68.386  1.00  0.00    -0.106 C  
HETATM    3  C   UNL     1      -6.841  15.015  67.531  1.00  0.00    -0.197 A  
HETATM    4  C   UNL     1      -5.531  12.852  68.179  1.00  0.00    -0.085 C  
HETATM    5  C   UNL     1      -6.706  16.369  67.168  1.00  0.00    -0.239 A  
HETATM    6  O   UNL     1      -5.696  12.415  66.906  1.00  0.00    -0.314 OA 
HETATM    7  O   UNL     1      -5.155  12.085  69.057  1.00  0.00    -0.055 OA 
HETATM    8  C   UNL     1      -7.764  17.068  66.569  1.00  0.00    -0.327 A  
HETATM    9  C   UNL     1      -8.976  16.426  66.301  1.00  0.00    -0.368 A  
HETATM   10  C   UNL     1      -9.081  15.056  66.584  1.00  0.00    -0.309 A  
HETATM   11  C   UNL     1      -8.039  14.365  67.210  1.00  0.00    -0.209 A  
ENDROOT
BRANCH   9  12
HETATM   12  C   UNL     1     -10.229  17.190  65.929  1.00  0.00    -0.290 C  
BRANCH  12  13
HETATM   13  C   UNL     1     -10.774  18.220  66.916  1.00  0.00    -0.272 C  
HETATM   14  C   UNL     1     -10.151  18.128  68.313  1.00  0.00    -0.398 C  
HETATM   15  C   UNL     1     -10.059  19.569  68.803  1.00  0.00    -0.519 C  
HETATM   16  C   UNL     1      -9.636  20.362  67.577  1.00  0.00    -0.560 C  
HETATM   17  C   UNL     1     -10.346  19.612  66.483  1.00  0.00    -0.493 C  
HETATM   18  O   UNL     1     -10.519  20.067  65.356  1.00  0.00    -0.361 OA 
ENDBRANCH  12  13
ENDBRANCH   9  12
TORSDOF 2
ENDMDL
MODEL       91
REMARK 921   NORMALIZED FREE ENERGY PREDICTED BY IDOCK:   -4.72 KCAL/MOL
REMARK 922        TOTAL FREE ENERGY PREDICTED BY IDOCK:   -5.58 KCAL/MOL
REMARK 923 INTER-LIGAND FREE ENERGY PREDICTED BY IDOCK:   -5.16 KCAL/MOL
REMARK 924 INTRA-LIGAND FREE ENERGY PREDICTED BY IDOCK:   -0.42 KCAL/MOL
REMARK 927      BINDING AFFINITY PREDICTED BY RF-SCORE:    0.00 PKD
ROOT
HETATM    1  C   UNL     1      -7.759  10.005  64.689  1.00  0.00    -0.146 C  
HETATM    2  C   UNL     1      -8.913  10.931  65.102  1.00  0.00    -0.195 C  
HETATM    3  C   UNL     1      -9.381  10.523  66.500  1.00  0.00    -0.189 A  
HETATM    4  C   UNL     1      -9.967  10.957  63.994  1.00  0.00    -0.344 C  
HETATM    5  C   UNL     1      -8.735  11.055  67.632  1.00  0.00    -0.128 A  
HETATM    6  O   UNL     1     -11.208  11.338  64.388  1.00  0.00    -0.271 OA 
HETATM    7  O   UNL     1      -9.731  10.729  62.813  1.00  0.00    -0.301 OA 
HETATM    8  C   UNL     1      -8.990  10.551  68.916  1.00  0.00    -0.175 A  
HETATM    9  C   UNL     1      -9.912   9.517  69.101  1.00  0.00    -0.185 A  
HETATM   10  C   UNL     1     -10.617   9.045  67.984  1.00  0.00    -0.242 A  
HETATM   11  C   UNL     1     -10.341   9.524  66.700  1.00  0.00    -0.280 A  
ENDROOT
BRANCH   9  12
HETATM   12  C   UNL     1     -10.012   8.749  70.402  1.00  0.00    -0.219 C  
BRANCH  12  13
HETATM   13  C   UNL     1     -10.915   9.298  71.504  1.00  0.00    -0.446 C  
HETATM   14  C   UNL     1     -11.853  10.416  71.037  1.00  0.00    -0.458 C  
HETATM   15  C   UNL     1     -13.143  10.209  71.823  1.00  0.00    -0.568 C  
HETATM   16  C   UNL     1     -13.332   8.700  71.852  1.00  0.00    -0.418 C  
HETATM   17  C   UNL     1     -11.906   8.226  71.927  1.00  0.00    -0.324 C  
HETATM   18  O   UNL     1     -11.591   7.086  72.255  1.00  0.00    -0.269 OA 
ENDBRANCH  12  13
ENDBRANCH   9  12
TORSDOF 2
ENDMDL
MODEL       92
REMARK 921   NORMALIZED FREE ENERGY PREDICTED BY IDOCK:   -4.71 KCAL/MOL
REMARK 922        TOTAL FREE ENERGY PREDICTED BY IDOCK:   -5.57 KCAL/MOL
REMARK 923 INTER-LIGAND FREE ENERGY PREDICTED BY IDOCK:   -5.20 KCAL/MOL
REMARK 924 INTRA-LIGAND FREE ENERGY PREDICTED BY IDOCK:   -0.36 KCAL/MOL
REMARK 927      BINDING AFFINITY PREDICTED BY RF-SCORE:    0.00 PKD
ROOT
HETATM    1  C   UNL     1     -10.952  10.852  68.700  1.00  0.00    -0.274 C  
HETATM    2  C   UNL     1      -9.879  10.679  67.614  1.00  0.00    -0.191 C  
HETATM    3  C   UNL     1      -9.503  12.064  67.086  1.00  0.00    -0.187 A  
HETATM    4  C   UNL     1     -10.353   9.646  66.591  1.00  0.00    -0.208 C  
HETATM    5  C   UNL     1      -8.513  12.815  67.747  1.00  0.00    -0.177 A  
HETATM    6  O   UNL     1      -9.755   9.724  65.375  1.00  0.00    -0.286 OA 
HETATM    7  O   UNL     1     -11.155   8.753  66.833  1.00  0.00     0.114 OA 
HETATM    8  C   UNL     1      -8.288  14.161  67.425  1.00  0.00    -0.210 A  
HETATM    9  C   UNL     1      -9.035  14.784  66.421  1.00  0.00    -0.223 A  
HETATM   10  C   UNL     1      -9.962  14.012  65.705  1.00  0.00    -0.309 A  
HETATM   11  C   UNL     1     -10.210  12.679  66.046  1.00  0.00    -0.287 A  
ENDROOT
BRANCH   9  12
HETATM   12  C   UNL     1      -9.039  16.286  66.232  1.00  0.00    -0.366 C  
BRANCH  12  13
HETATM   13  C   UNL     1     -10.159  17.099  66.876  1.00  0.00    -0.298 C  
HETATM   14  C   UNL     1      -9.708  17.923  68.087  1.00  0.00    -0.320 C  
HETATM   15  C   UNL     1     -10.525  19.209  68.020  1.00  0.00    -0.461 C  
HETATM   16  C   UNL     1     -10.565  19.558  66.540  1.00  0.00    -0.579 C  
HETATM   17  C   UNL     1     -10.609  18.189  65.917  1.00  0.00    -0.234 C  
HETATM   18  O   UNL     1     -10.935  17.989  64.751  1.00  0.00    -0.706 OA 
ENDBRANCH  12  13
ENDBRANCH   9  12
TORSDOF 2
ENDMDL
MODEL       93
REMARK 921   NORMALIZED FREE ENERGY PREDICTED BY IDOCK:   -4.70 KCAL/MOL
REMARK 922        TOTAL FREE ENERGY PREDICTED BY IDOCK:   -5.55 KCAL/MOL
REMARK 923 INTER-LIGAND FREE ENERGY PREDICTED BY IDOCK:   -5.21 KCAL/MOL
REMARK 924 INTRA-LIGAND FREE ENERGY PREDICTED BY IDOCK:   -0.35 KCAL/MOL
REMARK 927      BINDING AFFINITY PREDICTED BY RF-SCORE:    0.00 PKD
ROOT
HETATM    1  C   UNL     1      -8.090  17.902  67.723  1.00  0.00    -0.231 C  
HETATM    2  C   UNL     1      -9.567  18.006  67.311  1.00  0.00    -0.269 C  
HETATM    3  C   UNL     1     -10.067  16.606  66.952  1.00  0.00    -0.280 A  
HETATM    4  C   UNL     1      -9.723  19.097  66.250  1.00  0.00    -0.365 C  
HETATM    5  C   UNL     1     -10.555  15.761  67.966  1.00  0.00    -0.279 A  
HETATM    6  O   UNL     1     -10.835  18.995  65.478  1.00  0.00    -0.463 OA 
HETATM    7  O   UNL     1      -8.963  20.049  66.122  1.00  0.00    -0.353 OA 
HETATM    8  C   UNL     1     -10.824  14.407  67.715  1.00  0.00    -0.263 A  
HETATM    9  C   UNL     1     -10.629  13.871  66.439  1.00  0.00    -0.280 A  
HETATM   10  C   UNL     1     -10.224  14.733  65.409  1.00  0.00    -0.415 A  
HETATM   11  C   UNL     1      -9.924  16.075  65.664  1.00  0.00    -0.346 A  
ENDROOT
BRANCH   9  12
HETATM   12  C   UNL     1     -10.624  12.379  66.183  1.00  0.00    -0.283 C  
BRANCH  12  13
HETATM   13  C   UNL     1     -10.031  11.459  67.247  1.00  0.00    -0.217 C  
HETATM   14  C   UNL     1     -11.058  10.530  67.904  1.00  0.00    -0.367 C  
HETATM   15  C   UNL     1     -10.309   9.227  68.161  1.00  0.00    -0.261 C  
HETATM   16  C   UNL     1      -9.443   9.035  66.926  1.00  0.00    -0.219 C  
HETATM   17  C   UNL     1      -9.095  10.459  66.588  1.00  0.00    -0.151 C  
HETATM   18  O   UNL     1      -8.181  10.768  65.830  1.00  0.00    -0.162 OA 
ENDBRANCH  12  13
ENDBRANCH   9  12
TORSDOF 2
ENDMDL
MODEL       94
REMARK 921   NORMALIZED FREE ENERGY PREDICTED BY IDOCK:   -4.69 KCAL/MOL
REMARK 922        TOTAL FREE ENERGY PREDICTED BY IDOCK:   -5.54 KCAL/MOL
REMARK 923 INTER-LIGAND FREE ENERGY PREDICTED BY IDOCK:   -5.18 KCAL/MOL
REMARK 924 INTRA-LIGAND FREE ENERGY PREDICTED BY IDOCK:   -0.36 KCAL/MOL
REMARK 927      BINDING AFFINITY PREDICTED BY RF-SCORE:    0.00 PKD
ROOT
HETATM    1  C   UNL     1      -8.821   7.378  66.096  1.00  0.00    -0.185 C  
HETATM    2  C   UNL     1      -8.015   8.663  65.858  1.00  0.00    -0.105 C  
HETATM    3  C   UNL     1      -8.992   9.838  65.783  1.00  0.00    -0.195 A  
HETATM    4  C   UNL     1      -7.074   8.461  64.669  1.00  0.00    -0.080 C  
HETATM    5  C   UNL     1      -9.400  10.480  66.967  1.00  0.00    -0.176 A  
HETATM    6  O   UNL     1      -6.655   9.603  64.065  1.00  0.00    -0.101 OA 
HETATM    7  O   UNL     1      -6.648   7.372  64.304  1.00  0.00    -0.046 OA 
HETATM    8  C   UNL     1     -10.446  11.413  66.963  1.00  0.00    -0.271 A  
HETATM    9  C   UNL     1     -11.097  11.742  65.770  1.00  0.00    -0.351 A  
HETATM   10  C   UNL     1     -10.635  11.166  64.578  1.00  0.00    -0.397 A  
HETATM   11  C   UNL     1      -9.613  10.211  64.585  1.00  0.00    -0.379 A  
ENDROOT
BRANCH   9  12
HETATM   12  C   UNL     1     -12.401  12.511  65.748  1.00  0.00    -0.227 C  
BRANCH  12  13
HETATM   13  C   UNL     1     -12.355  14.029  65.904  1.00  0.00    -0.515 C  
HETATM   14  C   UNL     1     -11.195  14.527  66.772  1.00  0.00    -0.336 C  
HETATM   15  C   UNL     1     -10.757  15.842  66.136  1.00  0.00    -0.293 C  
HETATM   16  C   UNL     1     -10.840  15.587  64.639  1.00  0.00    -0.277 C  
HETATM   17  C   UNL     1     -12.027  14.666  64.563  1.00  0.00    -0.460 C  
HETATM   18  O   UNL     1     -12.632  14.430  63.522  1.00  0.00    -0.784 OA 
ENDBRANCH  12  13
ENDBRANCH   9  12
TORSDOF 2
ENDMDL
MODEL       95
REMARK 921   NORMALIZED FREE ENERGY PREDICTED BY IDOCK:   -4.67 KCAL/MOL
REMARK 922        TOTAL FREE ENERGY PREDICTED BY IDOCK:   -5.52 KCAL/MOL
REMARK 923 INTER-LIGAND FREE ENERGY PREDICTED BY IDOCK:   -5.16 KCAL/MOL
REMARK 924 INTRA-LIGAND FREE ENERGY PREDICTED BY IDOCK:   -0.36 KCAL/MOL
REMARK 927      BINDING AFFINITY PREDICTED BY RF-SCORE:    0.00 PKD
ROOT
HETATM    1  C   UNL     1      -8.062  19.682  69.493  1.00  0.00     0.208 C  
HETATM    2  C   UNL     1      -7.744  20.049  68.035  1.00  0.00    -0.301 C  
HETATM    3  C   UNL     1      -8.452  19.047  67.122  1.00  0.00    -0.297 A  
HETATM    4  C   UNL     1      -6.231  20.200  67.867  1.00  0.00    -0.232 C  
HETATM    5  C   UNL     1      -9.788  19.276  66.741  1.00  0.00    -0.430 A  
HETATM    6  O   UNL     1      -5.777  20.065  66.595  1.00  0.00    -0.171 OA 
HETATM    7  O   UNL     1      -5.462  20.494  68.774  1.00  0.00    -0.249 OA 
HETATM    8  C   UNL     1     -10.534  18.288  66.084  1.00  0.00    -0.403 A  
HETATM    9  C   UNL     1      -9.957  17.053  65.774  1.00  0.00    -0.177 A  
HETATM   10  C   UNL     1      -8.602  16.856  66.078  1.00  0.00    -0.194 A  
HETATM   11  C   UNL     1      -7.865  17.828  66.761  1.00  0.00    -0.262 A  
ENDROOT
BRANCH   9  12
HETATM   12  C   UNL     1     -10.784  15.864  65.334  1.00  0.00    -0.415 C  
BRANCH  12  13
HETATM   13  C   UNL     1     -10.629  14.547  66.093  1.00  0.00    -0.308 C  
HETATM   14  C   UNL     1     -11.730  14.296  67.128  1.00  0.00    -0.430 C  
HETATM   15  C   UNL     1     -11.973  12.791  67.094  1.00  0.00    -0.351 C  
HETATM   16  C   UNL     1     -11.893  12.426  65.619  1.00  0.00    -0.468 C  
HETATM   17  C   UNL     1     -10.839  13.385  65.137  1.00  0.00    -0.313 C  
HETATM   18  O   UNL     1     -10.249  13.255  64.068  1.00  0.00    -0.366 OA 
ENDBRANCH  12  13
ENDBRANCH   9  12
TORSDOF 2
ENDMDL
MODEL       96
REMARK 921   NORMALIZED FREE ENERGY PREDICTED BY IDOCK:   -4.65 KCAL/MOL
REMARK 922        TOTAL FREE ENERGY PREDICTED BY IDOCK:   -5.50 KCAL/MOL
REMARK 923 INTER-LIGAND FREE ENERGY PREDICTED BY IDOCK:   -5.16 KCAL/MOL
REMARK 924 INTRA-LIGAND FREE ENERGY PREDICTED BY IDOCK:   -0.34 KCAL/MOL
REMARK 927      BINDING AFFINITY PREDICTED BY RF-SCORE:    0.00 PKD
ROOT
HETATM    1  C   UNL     1      -7.883  20.032  65.961  1.00  0.00    -0.307 C  
HETATM    2  C   UNL     1      -7.061  19.205  66.961  1.00  0.00    -0.213 C  
HETATM    3  C   UNL     1      -7.878  17.974  67.356  1.00  0.00    -0.223 A  
HETATM    4  C   UNL     1      -6.573  20.112  68.092  1.00  0.00    -0.292 C  
HETATM    5  C   UNL     1      -7.817  16.814  66.560  1.00  0.00    -0.338 A  
HETATM    6  O   UNL     1      -6.248  19.472  69.244  1.00  0.00    -0.263 OA 
HETATM    7  O   UNL     1      -6.406  21.321  67.983  1.00  0.00    -0.324 OA 
HETATM    8  C   UNL     1      -8.703  15.747  66.765  1.00  0.00    -0.305 A  
HETATM    9  C   UNL     1      -9.660  15.806  67.783  1.00  0.00    -0.214 A  
HETATM   10  C   UNL     1      -9.665  16.925  68.629  1.00  0.00    -0.267 A  
HETATM   11  C   UNL     1      -8.803  18.004  68.406  1.00  0.00    -0.300 A  
ENDROOT
BRANCH   9  12
HETATM   12  C   UNL     1     -10.812  14.828  67.865  1.00  0.00    -0.269 C  
BRANCH  12  13
HETATM   13  C   UNL     1     -10.600  13.512  68.611  1.00  0.00    -0.259 C  
HETATM   14  C   UNL     1     -11.809  13.073  69.444  1.00  0.00    -0.380 C  
HETATM   15  C   UNL     1     -11.833  11.552  69.340  1.00  0.00    -0.417 C  
HETATM   16  C   UNL     1     -11.466  11.264  67.893  1.00  0.00    -0.360 C  
HETATM   17  C   UNL     1     -10.491  12.374  67.610  1.00  0.00    -0.216 C  
HETATM   18  O   UNL     1      -9.724  12.370  66.652  1.00  0.00    -0.214 OA 
ENDBRANCH  12  13
ENDBRANCH   9  12
TORSDOF 2
ENDMDL
MODEL       97
REMARK 921   NORMALIZED FREE ENERGY PREDICTED BY IDOCK:   -4.65 KCAL/MOL
REMARK 922        TOTAL FREE ENERGY PREDICTED BY IDOCK:   -5.50 KCAL/MOL
REMARK 923 INTER-LIGAND FREE ENERGY PREDICTED BY IDOCK:   -5.35 KCAL/MOL
REMARK 924 INTRA-LIGAND FREE ENERGY PREDICTED BY IDOCK:   -0.15 KCAL/MOL
REMARK 927      BINDING AFFINITY PREDICTED BY RF-SCORE:    0.00 PKD
ROOT
HETATM    1  C   UNL     1     -10.534  10.970  64.440  1.00  0.00    -0.422 C  
HETATM    2  C   UNL     1     -10.708  12.126  65.436  1.00  0.00    -0.323 C  
HETATM    3  C   UNL     1     -10.405  11.601  66.841  1.00  0.00    -0.253 A  
HETATM    4  C   UNL     1     -12.070  12.786  65.216  1.00  0.00    -0.457 C  
HETATM    5  C   UNL     1      -9.077  11.586  67.306  1.00  0.00    -0.164 A  
HETATM    6  O   UNL     1     -12.549  13.486  66.276  1.00  0.00    -0.359 OA 
HETATM    7  O   UNL     1     -12.681  12.770  64.155  1.00  0.00    -0.658 OA 
HETATM    8  C   UNL     1      -8.732  10.925  68.493  1.00  0.00    -0.153 A  
HETATM    9  C   UNL     1      -9.710  10.279  69.254  1.00  0.00    -0.240 A  
HETATM   10  C   UNL     1     -11.046  10.366  68.835  1.00  0.00    -0.296 A  
HETATM   11  C   UNL     1     -11.387  10.997  67.635  1.00  0.00    -0.355 A  
ENDROOT
BRANCH   9  12
HETATM   12  C   UNL     1      -9.360   9.319  70.372  1.00  0.00    -0.295 C  
BRANCH  12  13
HETATM   13  C   UNL     1      -9.602   7.827  70.154  1.00  0.00    -0.168 C  
HETATM   14  C   UNL     1     -11.080   7.426  70.214  1.00  0.00    -0.278 C  
HETATM   15  C   UNL     1     -11.233   6.316  69.179  1.00  0.00    -0.439 C  
HETATM   16  C   UNL     1     -10.372   6.765  68.009  1.00  0.00    -0.224 C  
HETATM   17  C   UNL     1      -9.244   7.460  68.723  1.00  0.00    -0.144 C  
HETATM   18  O   UNL     1      -8.174   7.731  68.189  1.00  0.00    -0.122 OA 
ENDBRANCH  12  13
ENDBRANCH   9  12
TORSDOF 2
ENDMDL
MODEL       98
REMARK 921   NORMALIZED FREE ENERGY PREDICTED BY IDOCK:   -4.65 KCAL/MOL
REMARK 922        TOTAL FREE ENERGY PREDICTED BY IDOCK:   -5.50 KCAL/MOL
REMARK 923 INTER-LIGAND FREE ENERGY PREDICTED BY IDOCK:   -5.23 KCAL/MOL
REMARK 924 INTRA-LIGAND FREE ENERGY PREDICTED BY IDOCK:   -0.27 KCAL/MOL
REMARK 927      BINDING AFFINITY PREDICTED BY RF-SCORE:    0.00 PKD
ROOT
HETATM    1  C   UNL     1      -8.672   9.051  70.981  1.00  0.00    -0.280 C  
HETATM    2  C   UNL     1      -8.851   8.834  69.471  1.00  0.00    -0.144 C  
HETATM    3  C   UNL     1      -9.676   9.994  68.912  1.00  0.00    -0.181 A  
HETATM    4  C   UNL     1      -9.376   7.419  69.219  1.00  0.00    -0.154 C  
HETATM    5  C   UNL     1      -9.030  11.183  68.522  1.00  0.00    -0.168 A  
HETATM    6  O   UNL     1     -10.003   7.241  68.028  1.00  0.00    -0.147 OA 
HETATM    7  O   UNL     1      -9.199   6.473  69.976  1.00  0.00    -0.156 OA 
HETATM    8  C   UNL     1      -9.762  12.336  68.206  1.00  0.00    -0.219 A  
HETATM    9  C   UNL     1     -11.159  12.323  68.253  1.00  0.00    -0.282 A  
HETATM   10  C   UNL     1     -11.805  11.117  68.558  1.00  0.00    -0.330 A  
HETATM   11  C   UNL     1     -11.076   9.974  68.905  1.00  0.00    -0.219 A  
ENDROOT
BRANCH   9  12
HETATM   12  C   UNL     1     -11.979  13.595  68.205  1.00  0.00    -0.385 C  
BRANCH  12  13
HETATM   13  C   UNL     1     -11.985  14.411  66.914  1.00  0.00    -0.425 C  
HETATM   14  C   UNL     1     -10.707  15.226  66.692  1.00  0.00    -0.309 C  
HETATM   15  C   UNL     1     -10.472  15.195  65.186  1.00  0.00    -0.437 C  
HETATM   16  C   UNL     1     -10.829  13.775  64.774  1.00  0.00    -0.410 C  
HETATM   17  C   UNL     1     -11.958  13.470  65.721  1.00  0.00    -0.403 C  
HETATM   18  O   UNL     1     -12.739  12.538  65.560  1.00  0.00    -0.583 OA 
ENDBRANCH  12  13
ENDBRANCH   9  12
TORSDOF 2
ENDMDL
MODEL       99
REMARK 921   NORMALIZED FREE ENERGY PREDICTED BY IDOCK:   -4.58 KCAL/MOL
REMARK 922        TOTAL FREE ENERGY PREDICTED BY IDOCK:   -5.43 KCAL/MOL
REMARK 923 INTER-LIGAND FREE ENERGY PREDICTED BY IDOCK:   -5.15 KCAL/MOL
REMARK 924 INTRA-LIGAND FREE ENERGY PREDICTED BY IDOCK:   -0.28 KCAL/MOL
REMARK 927      BINDING AFFINITY PREDICTED BY RF-SCORE:    0.00 PKD
ROOT
HETATM    1  C   UNL     1     -10.096  10.772  64.294  1.00  0.00    -0.427 C  
HETATM    2  C   UNL     1     -10.145  12.133  65.004  1.00  0.00    -0.289 C  
HETATM    3  C   UNL     1     -10.340  11.888  66.501  1.00  0.00    -0.249 A  
HETATM    4  C   UNL     1     -11.163  13.035  64.305  1.00  0.00    -0.373 C  
HETATM    5  C   UNL     1      -9.219  11.659  67.321  1.00  0.00    -0.170 A  
HETATM    6  O   UNL     1     -11.644  14.055  65.061  1.00  0.00    -0.324 OA 
HETATM    7  O   UNL     1     -11.492  12.923  63.130  1.00  0.00    -0.361 OA 
HETATM    8  C   UNL     1      -9.366  11.226  68.646  1.00  0.00    -0.167 A  
HETATM    9  C   UNL     1     -10.639  11.030  69.190  1.00  0.00    -0.253 A  
HETATM   10  C   UNL     1     -11.756  11.340  68.401  1.00  0.00    -0.365 A  
HETATM   11  C   UNL     1     -11.611  11.741  67.069  1.00  0.00    -0.321 A  
ENDROOT
BRANCH   9  12
HETATM   12  C   UNL     1     -10.853  10.298  70.498  1.00  0.00    -0.281 C  
BRANCH  12  13
HETATM   13  C   UNL     1      -9.938   9.121  70.833  1.00  0.00    -0.357 C  
HETATM   14  C   UNL     1     -10.080   8.619  72.274  1.00  0.00    -0.363 C  
HETATM   15  C   UNL     1      -9.895   7.108  72.188  1.00  0.00    -0.171 C  
HETATM   16  C   UNL     1     -10.631   6.706  70.919  1.00  0.00    -0.263 C  
HETATM   17  C   UNL     1     -10.374   7.900  70.041  1.00  0.00    -0.221 C  
HETATM   18  O   UNL     1     -10.541   7.890  68.825  1.00  0.00    -0.200 OA 
ENDBRANCH  12  13
ENDBRANCH   9  12
TORSDOF 2
ENDMDL
MODEL      100
REMARK 921   NORMALIZED FREE ENERGY PREDICTED BY IDOCK:   -4.58 KCAL/MOL
REMARK 922        TOTAL FREE ENERGY PREDICTED BY IDOCK:   -5.42 KCAL/MOL
REMARK 923 INTER-LIGAND FREE ENERGY PREDICTED BY IDOCK:   -5.07 KCAL/MOL
REMARK 924 INTRA-LIGAND FREE ENERGY PREDICTED BY IDOCK:   -0.35 KCAL/MOL
REMARK 927      BINDING AFFINITY PREDICTED BY RF-SCORE:    0.00 PKD
ROOT
HETATM    1  C   UNL     1     -10.584  14.692  66.446  1.00  0.00    -0.301 C  
HETATM    2  C   UNL     1     -11.714  13.651  66.432  1.00  0.00    -0.403 C  
HETATM    3  C   UNL     1     -11.143  12.314  66.908  1.00  0.00    -0.341 A  
HETATM    4  C   UNL     1     -12.407  13.670  65.069  1.00  0.00    -0.427 C  
HETATM    5  C   UNL     1     -11.089  12.031  68.285  1.00  0.00    -0.290 A  
HETATM    6  O   UNL     1     -13.084  12.537  64.752  1.00  0.00    -0.853 OA 
HETATM    7  O   UNL     1     -12.433  14.640  64.322  1.00  0.00    -0.648 OA 
HETATM    8  C   UNL     1     -10.387  10.919  68.770  1.00  0.00    -0.215 A  
HETATM    9  C   UNL     1      -9.738  10.051  67.887  1.00  0.00    -0.168 A  
HETATM   10  C   UNL     1      -9.863  10.285  66.510  1.00  0.00    -0.265 A  
HETATM   11  C   UNL     1     -10.535  11.412  66.027  1.00  0.00    -0.305 A  
ENDROOT
BRANCH   9  12
HETATM   12  C   UNL     1      -8.739   9.016  68.361  1.00  0.00    -0.130 C  
BRANCH  12  13
HETATM   13  C   UNL     1      -8.803   8.554  69.815  1.00  0.00    -0.137 C  
HETATM   14  C   UNL     1      -8.883   7.032  69.977  1.00  0.00    -0.142 C  
HETATM   15  C   UNL     1      -8.076   6.722  71.233  1.00  0.00    -0.111 C  
HETATM   16  C   UNL     1      -6.874   7.651  71.152  1.00  0.00    -0.049 C  
HETATM   17  C   UNL     1      -7.484   8.864  70.503  1.00  0.00    -0.089 C  
HETATM   18  O   UNL     1      -6.948   9.968  70.501  1.00  0.00    -0.197 OA 
ENDBRANCH  12  13
ENDBRANCH   9  12
TORSDOF 2
ENDMDL
MODEL      101
REMARK 921   NORMALIZED FREE ENERGY PREDICTED BY IDOCK:   -4.55 KCAL/MOL
REMARK 922        TOTAL FREE ENERGY PREDICTED BY IDOCK:   -5.38 KCAL/MOL
REMARK 923 INTER-LIGAND FREE ENERGY PREDICTED BY IDOCK:   -4.83 KCAL/MOL
REMARK 924 INTRA-LIGAND FREE ENERGY PREDICTED BY IDOCK:   -0.55 KCAL/MOL
REMARK 927      BINDING AFFINITY PREDICTED BY RF-SCORE:    0.00 PKD
ROOT
HETATM    1  C   UNL     1      -6.458  12.778  69.433  1.00  0.00    -0.096 C  
HETATM    2  C   UNL     1      -7.279  13.074  68.169  1.00  0.00    -0.116 C  
HETATM    3  C   UNL     1      -7.484  14.586  68.071  1.00  0.00    -0.142 A  
HETATM    4  C   UNL     1      -8.532  12.197  68.159  1.00  0.00    -0.175 C  
HETATM    5  C   UNL     1      -6.503  15.383  67.450  1.00  0.00    -0.115 A  
HETATM    6  O   UNL     1      -9.549  12.654  67.385  1.00  0.00    -0.187 OA 
HETATM    7  O   UNL     1      -8.624  11.119  68.734  1.00  0.00    -0.160 OA 
HETATM    8  C   UNL     1      -6.551  16.782  67.525  1.00  0.00    -0.172 A  
HETATM    9  C   UNL     1      -7.592  17.420  68.207  1.00  0.00    -0.234 A  
HETATM   10  C   UNL     1      -8.614  16.629  68.752  1.00  0.00    -0.261 A  
HETATM   11  C   UNL     1      -8.551  15.233  68.706  1.00  0.00    -0.190 A  
ENDROOT
BRANCH   9  12
HETATM   12  C   UNL     1      -7.541  18.890  68.563  1.00  0.00    -0.357 C  
BRANCH  12  13
HETATM   13  C   UNL     1      -8.423  19.861  67.781  1.00  0.00    -0.356 C  
HETATM   14  C   UNL     1      -8.608  19.479  66.309  1.00  0.00    -0.382 C  
HETATM   15  C   UNL     1     -10.040  19.882  65.970  1.00  0.00    -0.589 C  
HETATM   16  C   UNL     1     -10.844  19.502  67.204  1.00  0.00    -0.555 C  
HETATM   17  C   UNL     1      -9.849  19.778  68.299  1.00  0.00    -0.428 C  
HETATM   18  O   UNL     1     -10.161  19.883  69.481  1.00  0.00    -0.315 OA 
ENDBRANCH  12  13
ENDBRANCH   9  12
TORSDOF 2
ENDMDL
MODEL      102
REMARK 921   NORMALIZED FREE ENERGY PREDICTED BY IDOCK:   -4.53 KCAL/MOL
REMARK 922        TOTAL FREE ENERGY PREDICTED BY IDOCK:   -5.37 KCAL/MOL
REMARK 923 INTER-LIGAND FREE ENERGY PREDICTED BY IDOCK:   -4.84 KCAL/MOL
REMARK 924 INTRA-LIGAND FREE ENERGY PREDICTED BY IDOCK:   -0.53 KCAL/MOL
REMARK 927      BINDING AFFINITY PREDICTED BY RF-SCORE:    0.00 PKD
ROOT
HETATM    1  C   UNL     1      -9.095   5.778  68.945  1.00  0.00    -0.121 C  
HETATM    2  C   UNL     1     -10.500   6.400  68.917  1.00  0.00    -0.264 C  
HETATM    3  C   UNL     1     -10.384   7.825  68.374  1.00  0.00    -0.231 A  
HETATM    4  C   UNL     1     -11.161   6.225  70.285  1.00  0.00    -0.388 C  
HETATM    5  C   UNL     1     -10.412   8.044  66.983  1.00  0.00    -0.410 A  
HETATM    6  O   UNL     1     -12.169   7.094  70.552  1.00  0.00    -0.244 OA 
HETATM    7  O   UNL     1     -10.880   5.335  71.078  1.00  0.00    -0.178 OA 
HETATM    8  C   UNL     1     -10.101   9.299  66.441  1.00  0.00    -0.337 A  
HETATM    9  C   UNL     1      -9.773  10.370  67.276  1.00  0.00    -0.195 A  
HETATM   10  C   UNL     1      -9.828  10.174  68.664  1.00  0.00    -0.170 A  
HETATM   11  C   UNL     1     -10.106   8.916  69.206  1.00  0.00    -0.205 A  
ENDROOT
BRANCH   9  12
HETATM   12  C   UNL     1      -9.156  11.647  66.746  1.00  0.00    -0.186 C  
BRANCH  12  13
HETATM   13  C   UNL     1     -10.078  12.816  66.407  1.00  0.00    -0.266 C  
HETATM   14  C   UNL     1     -11.499  12.392  66.021  1.00  0.00    -0.431 C  
HETATM   15  C   UNL     1     -12.406  13.480  66.584  1.00  0.00    -0.351 C  
HETATM   16  C   UNL     1     -11.803  13.815  67.940  1.00  0.00    -0.413 C  
HETATM   17  C   UNL     1     -10.335  13.638  67.659  1.00  0.00    -0.239 C  
HETATM   18  O   UNL     1      -9.452  14.077  68.389  1.00  0.00    -0.209 OA 
ENDBRANCH  12  13
ENDBRANCH   9  12
TORSDOF 2
ENDMDL
MODEL      103
REMARK 921   NORMALIZED FREE ENERGY PREDICTED BY IDOCK:   -4.52 KCAL/MOL
REMARK 922        TOTAL FREE ENERGY PREDICTED BY IDOCK:   -5.35 KCAL/MOL
REMARK 923 INTER-LIGAND FREE ENERGY PREDICTED BY IDOCK:   -4.94 KCAL/MOL
REMARK 924 INTRA-LIGAND FREE ENERGY PREDICTED BY IDOCK:   -0.41 KCAL/MOL
REMARK 927      BINDING AFFINITY PREDICTED BY RF-SCORE:    0.00 PKD
ROOT
HETATM    1  C   UNL     1     -10.161  10.529  64.998  1.00  0.00    -0.390 C  
HETATM    2  C   UNL     1      -9.282   9.270  65.037  1.00  0.00    -0.242 C  
HETATM    3  C   UNL     1      -9.305   8.710  66.460  1.00  0.00    -0.257 A  
HETATM    4  C   UNL     1      -7.912   9.587  64.433  1.00  0.00    -0.135 C  
HETATM    5  C   UNL     1     -10.335   7.832  66.845  1.00  0.00    -0.396 A  
HETATM    6  O   UNL     1      -6.911   8.750  64.806  1.00  0.00    -0.072 OA 
HETATM    7  O   UNL     1      -7.709  10.475  63.614  1.00  0.00    -0.092 OA 
HETATM    8  C   UNL     1     -10.511   7.466  68.187  1.00  0.00    -0.241 A  
HETATM    9  C   UNL     1      -9.649   7.953  69.174  1.00  0.00    -0.153 A  
HETATM   10  C   UNL     1      -8.572   8.760  68.778  1.00  0.00    -0.137 A  
HETATM   11  C   UNL     1      -8.414   9.152  67.445  1.00  0.00    -0.115 A  
ENDROOT
BRANCH   9  12
HETATM   12  C   UNL     1      -9.960   7.828  70.650  1.00  0.00    -0.186 C  
BRANCH  12  13
HETATM   13  C   UNL     1     -10.601   9.016  71.364  1.00  0.00    -0.393 C  
HETATM   14  C   UNL     1     -11.525   9.849  70.471  1.00  0.00    -0.391 C  
HETATM   15  C   UNL     1     -12.659  10.303  71.384  1.00  0.00    -0.539 C  
HETATM   16  C   UNL     1     -12.949   9.094  72.260  1.00  0.00    -0.492 C  
HETATM   17  C   UNL     1     -11.572   8.509  72.418  1.00  0.00    -0.354 C  
HETATM   18  O   UNL     1     -11.284   7.684  73.280  1.00  0.00    -0.358 OA 
ENDBRANCH  12  13
ENDBRANCH   9  12
TORSDOF 2
ENDMDL
MODEL      104
REMARK 921   NORMALIZED FREE ENERGY PREDICTED BY IDOCK:   -4.52 KCAL/MOL
REMARK 922        TOTAL FREE ENERGY PREDICTED BY IDOCK:   -5.35 KCAL/MOL
REMARK 923 INTER-LIGAND FREE ENERGY PREDICTED BY IDOCK:   -5.42 KCAL/MOL
REMARK 924 INTRA-LIGAND FREE ENERGY PREDICTED BY IDOCK:    0.07 KCAL/MOL
REMARK 927      BINDING AFFINITY PREDICTED BY RF-SCORE:    0.00 PKD
ROOT
HETATM    1  C   UNL     1     -10.016  14.855  67.953  1.00  0.00    -0.219 C  
HETATM    2  C   UNL     1     -10.927  14.289  66.852  1.00  0.00    -0.304 C  
HETATM    3  C   UNL     1     -10.895  12.763  66.938  1.00  0.00    -0.278 A  
HETATM    4  C   UNL     1     -10.557  14.922  65.510  1.00  0.00    -0.357 C  
HETATM    5  C   UNL     1     -11.773  12.096  67.812  1.00  0.00    -0.390 A  
HETATM    6  O   UNL     1     -10.934  14.213  64.416  1.00  0.00    -0.347 OA 
HETATM    7  O   UNL     1     -10.025  16.018  65.388  1.00  0.00    -0.445 OA 
HETATM    8  C   UNL     1     -11.634  10.725  68.075  1.00  0.00    -0.245 A  
HETATM    9  C   UNL     1     -10.624   9.984  67.454  1.00  0.00    -0.330 A  
HETATM   10  C   UNL     1      -9.803  10.630  66.519  1.00  0.00    -0.250 A  
HETATM   11  C   UNL     1      -9.920  12.003  66.280  1.00  0.00    -0.249 A  
ENDROOT
BRANCH   9  12
HETATM   12  C   UNL     1     -10.249   8.591  67.912  1.00  0.00    -0.273 C  
BRANCH  12  13
HETATM   13  C   UNL     1      -9.845   8.387  69.370  1.00  0.00    -0.185 C  
HETATM   14  C   UNL     1     -10.208   9.563  70.283  1.00  0.00    -0.312 C  
HETATM   15  C   UNL     1     -10.592   8.929  71.616  1.00  0.00    -0.422 C  
HETATM   16  C   UNL     1     -11.383   7.687  71.232  1.00  0.00    -0.286 C  
HETATM   17  C   UNL     1     -10.676   7.266  69.973  1.00  0.00    -0.245 C  
HETATM   18  O   UNL     1     -10.795   6.151  69.474  1.00  0.00    -0.284 OA 
ENDBRANCH  12  13
ENDBRANCH   9  12
TORSDOF 2
ENDMDL
MODEL      105
REMARK 921   NORMALIZED FREE ENERGY PREDICTED BY IDOCK:   -4.48 KCAL/MOL
REMARK 922        TOTAL FREE ENERGY PREDICTED BY IDOCK:   -5.31 KCAL/MOL
REMARK 923 INTER-LIGAND FREE ENERGY PREDICTED BY IDOCK:   -5.07 KCAL/MOL
REMARK 924 INTRA-LIGAND FREE ENERGY PREDICTED BY IDOCK:   -0.24 KCAL/MOL
REMARK 927      BINDING AFFINITY PREDICTED BY RF-SCORE:    0.00 PKD
ROOT
HETATM    1  C   UNL     1     -10.897  12.798  63.801  1.00  0.00    -0.416 C  
HETATM    2  C   UNL     1     -11.011  11.842  64.998  1.00  0.00    -0.357 C  
HETATM    3  C   UNL     1     -10.693  12.626  66.272  1.00  0.00    -0.280 A  
HETATM    4  C   UNL     1     -10.182  10.585  64.726  1.00  0.00    -0.303 C  
HETATM    5  C   UNL     1     -11.717  13.339  66.924  1.00  0.00    -0.437 A  
HETATM    6  O   UNL     1      -9.816   9.887  65.831  1.00  0.00    -0.237 OA 
HETATM    7  O   UNL     1      -9.911  10.167  63.608  1.00  0.00    -0.232 OA 
HETATM    8  C   UNL     1     -11.428  14.234  67.964  1.00  0.00    -0.342 A  
HETATM    9  C   UNL     1     -10.111  14.422  68.392  1.00  0.00    -0.244 A  
HETATM   10  C   UNL     1      -9.101  13.649  67.800  1.00  0.00    -0.199 A  
HETATM   11  C   UNL     1      -9.383  12.781  66.741  1.00  0.00    -0.241 A  
ENDROOT
BRANCH   9  12
HETATM   12  C   UNL     1      -9.713  15.569  69.297  1.00  0.00    -0.272 C  
BRANCH  12  13
HETATM   13  C   UNL     1      -8.853  16.690  68.718  1.00  0.00    -0.264 C  
HETATM   14  C   UNL     1      -7.430  16.253  68.354  1.00  0.00    -0.163 C  
HETATM   15  C   UNL     1      -7.078  17.046  67.100  1.00  0.00    -0.210 C  
HETATM   16  C   UNL     1      -8.357  17.046  66.278  1.00  0.00    -0.308 C  
HETATM   17  C   UNL     1      -9.401  17.099  67.361  1.00  0.00    -0.234 C  
HETATM   18  O   UNL     1     -10.572  17.402  67.153  1.00  0.00    -0.331 OA 
ENDBRANCH  12  13
ENDBRANCH   9  12
TORSDOF 2
ENDMDL
MODEL      106
REMARK 921   NORMALIZED FREE ENERGY PREDICTED BY IDOCK:   -4.41 KCAL/MOL
REMARK 922        TOTAL FREE ENERGY PREDICTED BY IDOCK:   -5.23 KCAL/MOL
REMARK 923 INTER-LIGAND FREE ENERGY PREDICTED BY IDOCK:   -4.86 KCAL/MOL
REMARK 924 INTRA-LIGAND FREE ENERGY PREDICTED BY IDOCK:   -0.37 KCAL/MOL
REMARK 927      BINDING AFFINITY PREDICTED BY RF-SCORE:    0.00 PKD
ROOT
HETATM    1  C   UNL     1     -10.586  16.567  65.508  1.00  0.00    -0.310 C  
HETATM    2  C   UNL     1      -9.891  16.303  66.852  1.00  0.00    -0.253 C  
HETATM    3  C   UNL     1     -10.155  14.851  67.254  1.00  0.00    -0.235 A  
HETATM    4  C   UNL     1     -10.292  17.388  67.854  1.00  0.00    -0.369 C  
HETATM    5  C   UNL     1      -9.308  13.833  66.777  1.00  0.00    -0.276 A  
HETATM    6  O   UNL     1     -10.143  17.050  69.160  1.00  0.00    -0.283 OA 
HETATM    7  O   UNL     1     -10.654  18.516  67.540  1.00  0.00    -0.409 OA 
HETATM    8  C   UNL     1      -9.634  12.480  66.946  1.00  0.00    -0.229 A  
HETATM    9  C   UNL     1     -10.805  12.112  67.615  1.00  0.00    -0.272 A  
HETATM   10  C   UNL     1     -11.605  13.124  68.164  1.00  0.00    -0.375 A  
HETATM   11  C   UNL     1     -11.298  14.475  67.968  1.00  0.00    -0.326 A  
ENDROOT
BRANCH   9  12
HETATM   12  C   UNL     1     -11.346  10.699  67.575  1.00  0.00    -0.241 C  
BRANCH  12  13
HETATM   13  C   UNL     1     -10.562   9.597  68.284  1.00  0.00    -0.268 C  
HETATM   14  C   UNL     1      -9.153   9.381  67.722  1.00  0.00    -0.134 C  
HETATM   15  C   UNL     1      -8.291   9.032  68.931  1.00  0.00    -0.125 C  
HETATM   16  C   UNL     1      -8.791   9.953  70.033  1.00  0.00    -0.194 C  
HETATM   17  C   UNL     1     -10.258  10.029  69.709  1.00  0.00    -0.250 C  
HETATM   18  O   UNL     1     -11.103  10.436  70.501  1.00  0.00    -0.311 OA 
ENDBRANCH  12  13
ENDBRANCH   9  12
TORSDOF 2
ENDMDL
MODEL      107
REMARK 921   NORMALIZED FREE ENERGY PREDICTED BY IDOCK:   -4.40 KCAL/MOL
REMARK 922        TOTAL FREE ENERGY PREDICTED BY IDOCK:   -5.23 KCAL/MOL
REMARK 923 INTER-LIGAND FREE ENERGY PREDICTED BY IDOCK:   -4.88 KCAL/MOL
REMARK 924 INTRA-LIGAND FREE ENERGY PREDICTED BY IDOCK:   -0.34 KCAL/MOL
REMARK 927      BINDING AFFINITY PREDICTED BY RF-SCORE:    0.00 PKD
ROOT
HETATM    1  C   UNL     1      -5.400  14.121  72.318  1.00  0.00    -0.223 C  
HETATM    2  C   UNL     1      -5.195  13.900  70.811  1.00  0.00    -0.126 C  
HETATM    3  C   UNL     1      -5.856  15.057  70.061  1.00  0.00    -0.135 A  
HETATM    4  C   UNL     1      -5.639  12.484  70.440  1.00  0.00    -0.161 C  
HETATM    5  C   UNL     1      -5.134  16.246  69.842  1.00  0.00    -0.131 A  
HETATM    6  O   UNL     1      -5.949  12.302  69.132  1.00  0.00    -0.069 OA 
HETATM    7  O   UNL     1      -5.656  11.540  71.221  1.00  0.00    -0.359 OA 
HETATM    8  C   UNL     1      -5.765  17.397  69.349  1.00  0.00    -0.210 A  
HETATM    9  C   UNL     1      -7.130  17.382  69.045  1.00  0.00    -0.233 A  
HETATM   10  C   UNL     1      -7.829  16.175  69.184  1.00  0.00    -0.232 A  
HETATM   11  C   UNL     1      -7.209  15.035  69.705  1.00  0.00    -0.192 A  
ENDROOT
BRANCH   9  12
HETATM   12  C   UNL     1      -7.913  18.652  68.791  1.00  0.00    -0.317 C  
BRANCH  12  13
HETATM   13  C   UNL     1      -9.259  18.548  68.078  1.00  0.00    -0.315 C  
HETATM   14  C   UNL     1     -10.217  19.702  68.393  1.00  0.00    -0.553 C  
HETATM   15  C   UNL     1     -10.973  19.958  67.093  1.00  0.00    -0.249 C  
HETATM   16  C   UNL     1      -9.921  19.808  66.005  1.00  0.00    -0.541 C  
HETATM   17  C   UNL     1      -9.055  18.722  66.582  1.00  0.00    -0.322 C  
HETATM   18  O   UNL     1      -8.246  18.081  65.918  1.00  0.00    -0.517 OA 
ENDBRANCH  12  13
ENDBRANCH   9  12
TORSDOF 2
ENDMDL
MODEL      108
REMARK 921   NORMALIZED FREE ENERGY PREDICTED BY IDOCK:   -4.36 KCAL/MOL
REMARK 922        TOTAL FREE ENERGY PREDICTED BY IDOCK:   -5.18 KCAL/MOL
REMARK 923 INTER-LIGAND FREE ENERGY PREDICTED BY IDOCK:   -4.83 KCAL/MOL
REMARK 924 INTRA-LIGAND FREE ENERGY PREDICTED BY IDOCK:   -0.35 KCAL/MOL
REMARK 927      BINDING AFFINITY PREDICTED BY RF-SCORE:    0.00 PKD
ROOT
HETATM    1  C   UNL     1      -9.142  10.130  69.771  1.00  0.00    -0.166 C  
HETATM    2  C   UNL     1      -9.316   9.873  68.266  1.00  0.00    -0.136 C  
HETATM    3  C   UNL     1      -9.792  11.169  67.608  1.00  0.00    -0.191 A  
HETATM    4  C   UNL     1     -10.178   8.627  68.059  1.00  0.00    -0.210 C  
HETATM    5  C   UNL     1      -8.847  12.126  67.193  1.00  0.00    -0.191 A  
HETATM    6  O   UNL     1     -10.786   8.542  66.849  1.00  0.00    -0.265 OA 
HETATM    7  O   UNL     1     -10.279   7.716  68.872  1.00  0.00    -0.199 OA 
HETATM    8  C   UNL     1      -9.244  13.407  66.782  1.00  0.00    -0.242 A  
HETATM    9  C   UNL     1     -10.598  13.755  66.758  1.00  0.00    -0.273 A  
HETATM   10  C   UNL     1     -11.544  12.774  67.090  1.00  0.00    -0.426 A  
HETATM   11  C   UNL     1     -11.148  11.507  67.531  1.00  0.00    -0.329 A  
ENDROOT
BRANCH   9  12
HETATM   12  C   UNL     1     -11.060  15.188  66.604  1.00  0.00    -0.308 C  
BRANCH  12  13
HETATM   13  C   UNL     1     -10.058  16.309  66.870  1.00  0.00    -0.278 C  
HETATM   14  C   UNL     1      -9.913  17.298  65.709  1.00  0.00    -0.105 C  
HETATM   15  C   UNL     1      -9.693  18.656  66.367  1.00  0.00    -0.363 C  
HETATM   16  C   UNL     1     -10.635  18.657  67.561  1.00  0.00    -0.472 C  
HETATM   17  C   UNL     1     -10.588  17.211  67.973  1.00  0.00    -0.374 C  
HETATM   18  O   UNL     1     -10.976  16.809  69.066  1.00  0.00    -0.304 OA 
ENDBRANCH  12  13
ENDBRANCH   9  12
TORSDOF 2
ENDMDL
MODEL      109
REMARK 921   NORMALIZED FREE ENERGY PREDICTED BY IDOCK:   -4.36 KCAL/MOL
REMARK 922        TOTAL FREE ENERGY PREDICTED BY IDOCK:   -5.17 KCAL/MOL
REMARK 923 INTER-LIGAND FREE ENERGY PREDICTED BY IDOCK:   -4.80 KCAL/MOL
REMARK 924 INTRA-LIGAND FREE ENERGY PREDICTED BY IDOCK:   -0.37 KCAL/MOL
REMARK 927      BINDING AFFINITY PREDICTED BY RF-SCORE:    0.00 PKD
ROOT
HETATM    1  C   UNL     1      -8.179   8.686  64.547  1.00  0.00    -0.166 C  
HETATM    2  C   UNL     1      -8.464  10.191  64.658  1.00  0.00    -0.178 C  
HETATM    3  C   UNL     1      -9.041  10.471  66.047  1.00  0.00    -0.191 A  
HETATM    4  C   UNL     1      -9.293  10.642  63.454  1.00  0.00    -0.297 C  
HETATM    5  C   UNL     1      -8.169  10.699  67.129  1.00  0.00    -0.121 A  
HETATM    6  O   UNL     1      -9.993  11.791  63.635  1.00  0.00    -0.333 OA 
HETATM    7  O   UNL     1      -9.294  10.078  62.367  1.00  0.00    -0.287 OA 
HETATM    8  C   UNL     1      -8.647  10.749  68.446  1.00  0.00    -0.141 A  
HETATM    9  C   UNL     1     -10.010  10.592  68.712  1.00  0.00    -0.201 A  
HETATM   10  C   UNL     1     -10.888  10.450  67.628  1.00  0.00    -0.361 A  
HETATM   11  C   UNL     1     -10.411  10.368  66.316  1.00  0.00    -0.270 A  
ENDROOT
BRANCH   9  12
HETATM   12  C   UNL     1     -10.537  10.351  70.111  1.00  0.00    -0.245 C  
BRANCH  12  13
HETATM   13  C   UNL     1     -11.770   9.468  70.283  1.00  0.00    -0.168 C  
HETATM   14  C   UNL     1     -11.445   8.016  70.648  1.00  0.00    -0.237 C  
HETATM   15  C   UNL     1     -12.558   7.585  71.597  1.00  0.00    -0.376 C  
HETATM   16  C   UNL     1     -12.799   8.801  72.479  1.00  0.00    -0.380 C  
HETATM   17  C   UNL     1     -12.550   9.922  71.507  1.00  0.00    -0.416 C  
HETATM   18  O   UNL     1     -12.906  11.079  71.707  1.00  0.00    -0.430 OA 
ENDBRANCH  12  13
ENDBRANCH   9  12
TORSDOF 2
ENDMDL
MODEL      110
REMARK 921   NORMALIZED FREE ENERGY PREDICTED BY IDOCK:   -4.33 KCAL/MOL
REMARK 922        TOTAL FREE ENERGY PREDICTED BY IDOCK:   -5.15 KCAL/MOL
REMARK 923 INTER-LIGAND FREE ENERGY PREDICTED BY IDOCK:   -4.95 KCAL/MOL
REMARK 924 INTRA-LIGAND FREE ENERGY PREDICTED BY IDOCK:   -0.20 KCAL/MOL
REMARK 927      BINDING AFFINITY PREDICTED BY RF-SCORE:    0.00 PKD
ROOT
HETATM    1  C   UNL     1     -10.736   5.722  70.362  1.00  0.00    -0.372 C  
HETATM    2  C   UNL     1      -9.492   6.040  69.519  1.00  0.00    -0.161 C  
HETATM    3  C   UNL     1      -9.748   7.339  68.753  1.00  0.00    -0.151 A  
HETATM    4  C   UNL     1      -9.107   4.809  68.696  1.00  0.00    -0.113 C  
HETATM    5  C   UNL     1      -9.473   8.575  69.369  1.00  0.00    -0.161 A  
HETATM    6  O   UNL     1      -8.350   5.063  67.599  1.00  0.00    -0.105 OA 
HETATM    7  O   UNL     1      -9.380   3.657  69.010  1.00  0.00    -0.148 OA 
HETATM    8  C   UNL     1      -9.887   9.782  68.789  1.00  0.00    -0.176 A  
HETATM    9  C   UNL     1     -10.569   9.784  67.568  1.00  0.00    -0.335 A  
HETATM   10  C   UNL     1     -10.768   8.560  66.914  1.00  0.00    -0.156 A  
HETATM   11  C   UNL     1     -10.385   7.353  67.507  1.00  0.00    -0.320 A  
ENDROOT
BRANCH   9  12
HETATM   12  C   UNL     1     -11.284  11.013  67.046  1.00  0.00    -0.255 C  
BRANCH  12  13
HETATM   13  C   UNL     1     -10.603  11.847  65.964  1.00  0.00    -0.304 C  
HETATM   14  C   UNL     1     -10.017  11.015  64.818  1.00  0.00    -0.350 C  
HETATM   15  C   UNL     1     -10.226  11.858  63.565  1.00  0.00    -0.485 C  
HETATM   16  C   UNL     1     -11.607  12.469  63.744  1.00  0.00    -0.552 C  
HETATM   17  C   UNL     1     -11.646  12.677  65.233  1.00  0.00    -0.351 C  
HETATM   18  O   UNL     1     -12.459  13.407  65.791  1.00  0.00    -0.451 OA 
ENDBRANCH  12  13
ENDBRANCH   9  12
TORSDOF 2
ENDMDL
MODEL      111
REMARK 921   NORMALIZED FREE ENERGY PREDICTED BY IDOCK:   -4.32 KCAL/MOL
REMARK 922        TOTAL FREE ENERGY PREDICTED BY IDOCK:   -5.13 KCAL/MOL
REMARK 923 INTER-LIGAND FREE ENERGY PREDICTED BY IDOCK:   -5.24 KCAL/MOL
REMARK 924 INTRA-LIGAND FREE ENERGY PREDICTED BY IDOCK:    0.11 KCAL/MOL
REMARK 927      BINDING AFFINITY PREDICTED BY RF-SCORE:    0.00 PKD
ROOT
HETATM    1  C   UNL     1      -9.560   8.260  72.616  1.00  0.00    -0.352 C  
HETATM    2  C   UNL     1     -10.021   7.658  71.280  1.00  0.00    -0.195 C  
HETATM    3  C   UNL     1     -10.291   8.804  70.303  1.00  0.00    -0.227 A  
HETATM    4  C   UNL     1     -11.162   6.672  71.532  1.00  0.00    -0.270 C  
HETATM    5  C   UNL     1      -9.233   9.332  69.540  1.00  0.00    -0.168 A  
HETATM    6  O   UNL     1     -11.956   6.423  70.460  1.00  0.00    -0.341 OA 
HETATM    7  O   UNL     1     -11.337   6.075  72.588  1.00  0.00    -0.276 OA 
HETATM    8  C   UNL     1      -9.392  10.510  68.796  1.00  0.00    -0.181 A  
HETATM    9  C   UNL     1     -10.620  11.178  68.782  1.00  0.00    -0.233 A  
HETATM   10  C   UNL     1     -11.697  10.606  69.474  1.00  0.00    -0.356 A  
HETATM   11  C   UNL     1     -11.532   9.450  70.242  1.00  0.00    -0.223 A  
ENDROOT
BRANCH   9  12
HETATM   12  C   UNL     1     -10.766  12.585  68.242  1.00  0.00    -0.246 C  
BRANCH  12  13
HETATM   13  C   UNL     1     -11.886  13.464  68.793  1.00  0.00    -0.386 C  
HETATM   14  C   UNL     1     -12.019  13.414  70.318  1.00  0.00    -0.378 C  
HETATM   15  C   UNL     1     -12.420  14.826  70.730  1.00  0.00    -0.402 C  
HETATM   16  C   UNL     1     -11.591  15.734  69.834  1.00  0.00    -0.355 C  
HETATM   17  C   UNL     1     -11.540  14.926  68.565  1.00  0.00    -0.323 C  
HETATM   18  O   UNL     1     -11.215  15.397  67.480  1.00  0.00    -0.327 OA 
ENDBRANCH  12  13
ENDBRANCH   9  12
TORSDOF 2
ENDMDL
MODEL      112
REMARK 921   NORMALIZED FREE ENERGY PREDICTED BY IDOCK:   -4.31 KCAL/MOL
REMARK 922        TOTAL FREE ENERGY PREDICTED BY IDOCK:   -5.12 KCAL/MOL
REMARK 923 INTER-LIGAND FREE ENERGY PREDICTED BY IDOCK:   -4.76 KCAL/MOL
REMARK 924 INTRA-LIGAND FREE ENERGY PREDICTED BY IDOCK:   -0.36 KCAL/MOL
REMARK 927      BINDING AFFINITY PREDICTED BY RF-SCORE:    0.00 PKD
ROOT
HETATM    1  C   UNL     1      -8.591   9.257  64.658  1.00  0.00    -0.209 C  
HETATM    2  C   UNL     1      -8.963  10.712  64.983  1.00  0.00    -0.218 C  
HETATM    3  C   UNL     1      -9.434  10.775  66.436  1.00  0.00    -0.200 A  
HETATM    4  C   UNL     1      -9.921  11.242  63.915  1.00  0.00    -0.321 C  
HETATM    5  C   UNL     1      -8.489  10.935  67.468  1.00  0.00    -0.123 A  
HETATM    6  O   UNL     1     -10.677  12.303  64.295  1.00  0.00    -0.301 OA 
HETATM    7  O   UNL     1      -9.979  10.816  62.768  1.00  0.00    -0.274 OA 
HETATM    8  C   UNL     1      -8.853  10.787  68.814  1.00  0.00    -0.163 A  
HETATM    9  C   UNL     1     -10.175  10.496  69.163  1.00  0.00    -0.241 A  
HETATM   10  C   UNL     1     -11.132  10.421  68.141  1.00  0.00    -0.344 A  
HETATM   11  C   UNL     1     -10.766  10.536  66.796  1.00  0.00    -0.252 A  
ENDROOT
BRANCH   9  12
HETATM   12  C   UNL     1     -10.560  10.047  70.556  1.00  0.00    -0.313 C  
BRANCH  12  13
HETATM   13  C   UNL     1     -10.257   8.608  70.968  1.00  0.00    -0.278 C  
HETATM   14  C   UNL     1      -9.099   8.482  71.964  1.00  0.00    -0.317 C  
HETATM   15  C   UNL     1      -9.489   7.330  72.884  1.00  0.00    -0.200 C  
HETATM   16  C   UNL     1     -10.981   7.515  73.113  1.00  0.00    -0.420 C  
HETATM   17  C   UNL     1     -11.418   8.058  71.780  1.00  0.00    -0.277 C  
HETATM   18  O   UNL     1     -12.589   8.088  71.415  1.00  0.00    -0.312 OA 
ENDBRANCH  12  13
ENDBRANCH   9  12
TORSDOF 2
ENDMDL
MODEL      113
REMARK 921   NORMALIZED FREE ENERGY PREDICTED BY IDOCK:   -4.30 KCAL/MOL
REMARK 922        TOTAL FREE ENERGY PREDICTED BY IDOCK:   -5.11 KCAL/MOL
REMARK 923 INTER-LIGAND FREE ENERGY PREDICTED BY IDOCK:   -4.59 KCAL/MOL
REMARK 924 INTRA-LIGAND FREE ENERGY PREDICTED BY IDOCK:   -0.52 KCAL/MOL
REMARK 927      BINDING AFFINITY PREDICTED BY RF-SCORE:    0.00 PKD
ROOT
HETATM    1  C   UNL     1      -9.240  16.124  66.704  1.00  0.00    -0.273 C  
HETATM    2  C   UNL     1      -9.521  15.759  68.170  1.00  0.00    -0.199 C  
HETATM    3  C   UNL     1      -9.913  14.282  68.231  1.00  0.00    -0.239 A  
HETATM    4  C   UNL     1     -10.504  16.768  68.766  1.00  0.00    -0.338 C  
HETATM    5  C   UNL     1      -8.910  13.299  68.326  1.00  0.00    -0.168 A  
HETATM    6  O   UNL     1     -11.185  16.333  69.856  1.00  0.00    -0.340 OA 
HETATM    7  O   UNL     1     -10.642  17.916  68.363  1.00  0.00    -0.349 OA 
HETATM    8  C   UNL     1      -9.211  11.938  68.173  1.00  0.00    -0.187 A  
HETATM    9  C   UNL     1     -10.526  11.525  67.942  1.00  0.00    -0.211 A  
HETATM   10  C   UNL     1     -11.538  12.497  67.932  1.00  0.00    -0.403 A  
HETATM   11  C   UNL     1     -11.235  13.857  68.052  1.00  0.00    -0.295 A  
ENDROOT
BRANCH   9  12
HETATM   12  C   UNL     1     -10.863  10.121  67.488  1.00  0.00    -0.349 C  
BRANCH  12  13
HETATM   13  C   UNL     1     -10.403   9.672  66.103  1.00  0.00    -0.202 C  
HETATM   14  C   UNL     1     -10.205  10.826  65.114  1.00  0.00    -0.365 C  
HETATM   15  C   UNL     1      -9.011  10.416  64.258  1.00  0.00    -0.249 C  
HETATM   16  C   UNL     1      -8.044   9.770  65.239  1.00  0.00    -0.126 C  
HETATM   17  C   UNL     1      -8.996   9.105  66.195  1.00  0.00    -0.173 C  
HETATM   18  O   UNL     1      -8.656   8.231  66.986  1.00  0.00    -0.120 OA 
ENDBRANCH  12  13
ENDBRANCH   9  12
TORSDOF 2
ENDMDL
MODEL      114
REMARK 921   NORMALIZED FREE ENERGY PREDICTED BY IDOCK:   -4.29 KCAL/MOL
REMARK 922        TOTAL FREE ENERGY PREDICTED BY IDOCK:   -5.10 KCAL/MOL
REMARK 923 INTER-LIGAND FREE ENERGY PREDICTED BY IDOCK:   -5.17 KCAL/MOL
REMARK 924 INTRA-LIGAND FREE ENERGY PREDICTED BY IDOCK:    0.07 KCAL/MOL
REMARK 927      BINDING AFFINITY PREDICTED BY RF-SCORE:    0.00 PKD
ROOT
HETATM    1  C   UNL     1      -8.484   7.144  71.835  1.00  0.00    -0.112 C  
HETATM    2  C   UNL     1      -9.903   6.716  71.433  1.00  0.00    -0.191 C  
HETATM    3  C   UNL     1     -10.668   7.957  70.969  1.00  0.00    -0.239 A  
HETATM    4  C   UNL     1     -10.526   5.893  72.562  1.00  0.00    -0.204 C  
HETATM    5  C   UNL     1     -10.566   8.377  69.630  1.00  0.00    -0.219 A  
HETATM    6  O   UNL     1     -11.882   5.843  72.558  1.00  0.00    -0.295 OA 
HETATM    7  O   UNL     1      -9.882   5.253  73.385  1.00  0.00    -0.154 OA 
HETATM    8  C   UNL     1     -11.076   9.617  69.218  1.00  0.00    -0.149 A  
HETATM    9  C   UNL     1     -11.717  10.458  70.131  1.00  0.00    -0.394 A  
HETATM   10  C   UNL     1     -11.893  10.003  71.446  1.00  0.00    -0.447 A  
HETATM   11  C   UNL     1     -11.357   8.782  71.867  1.00  0.00    -0.431 A  
ENDROOT
BRANCH   9  12
HETATM   12  C   UNL     1     -12.024  11.906  69.816  1.00  0.00    -0.377 C  
BRANCH  12  13
HETATM   13  C   UNL     1     -11.075  12.669  68.894  1.00  0.00    -0.307 C  
HETATM   14  C   UNL     1     -11.048  12.136  67.457  1.00  0.00    -0.328 C  
HETATM   15  C   UNL     1     -10.872  13.370  66.578  1.00  0.00    -0.286 C  
HETATM   16  C   UNL     1     -11.748  14.429  67.229  1.00  0.00    -0.429 C  
HETATM   17  C   UNL     1     -11.597  14.081  68.685  1.00  0.00    -0.325 C  
HETATM   18  O   UNL     1     -11.902  14.844  69.596  1.00  0.00    -0.285 OA 
ENDBRANCH  12  13
ENDBRANCH   9  12
TORSDOF 2
ENDMDL
MODEL      115
REMARK 921   NORMALIZED FREE ENERGY PREDICTED BY IDOCK:   -4.29 KCAL/MOL
REMARK 922        TOTAL FREE ENERGY PREDICTED BY IDOCK:   -5.10 KCAL/MOL
REMARK 923 INTER-LIGAND FREE ENERGY PREDICTED BY IDOCK:   -5.09 KCAL/MOL
REMARK 924 INTRA-LIGAND FREE ENERGY PREDICTED BY IDOCK:   -0.01 KCAL/MOL
REMARK 927      BINDING AFFINITY PREDICTED BY RF-SCORE:    0.00 PKD
ROOT
HETATM    1  C   UNL     1      -7.944   9.168  70.403  1.00  0.00    -0.155 C  
HETATM    2  C   UNL     1      -9.259   8.722  69.745  1.00  0.00    -0.155 C  
HETATM    3  C   UNL     1      -9.783   9.875  68.887  1.00  0.00    -0.176 A  
HETATM    4  C   UNL     1     -10.199   8.164  70.814  1.00  0.00    -0.194 C  
HETATM    5  C   UNL     1      -9.330  10.017  67.561  1.00  0.00    -0.162 A  
HETATM    6  O   UNL     1     -11.515   8.164  70.480  1.00  0.00    -0.259 OA 
HETATM    7  O   UNL     1      -9.826   7.676  71.873  1.00  0.00    -0.161 OA 
HETATM    8  C   UNL     1      -9.620  11.168  66.815  1.00  0.00    -0.215 A  
HETATM    9  C   UNL     1     -10.386  12.198  67.371  1.00  0.00    -0.220 A  
HETATM   10  C   UNL     1     -10.908  12.019  68.660  1.00  0.00    -0.273 A  
HETATM   11  C   UNL     1     -10.593  10.886  69.417  1.00  0.00    -0.233 A  
ENDROOT
BRANCH   9  12
HETATM   12  C   UNL     1     -10.485  13.565  66.729  1.00  0.00    -0.273 C  
BRANCH  12  13
HETATM   13  C   UNL     1     -10.919  13.656  65.268  1.00  0.00    -0.314 C  
HETATM   14  C   UNL     1     -10.309  12.571  64.373  1.00  0.00    -0.378 C  
HETATM   15  C   UNL     1     -11.398  12.228  63.363  1.00  0.00    -0.508 C  
HETATM   16  C   UNL     1     -12.685  12.239  64.173  1.00  0.00    -0.431 C  
HETATM   17  C   UNL     1     -12.402  13.340  65.160  1.00  0.00    -0.466 C  
HETATM   18  O   UNL     1     -13.274  13.887  65.827  1.00  0.00    -0.521 OA 
ENDBRANCH  12  13
ENDBRANCH   9  12
TORSDOF 2
ENDMDL
MODEL      116
REMARK 921   NORMALIZED FREE ENERGY PREDICTED BY IDOCK:   -4.26 KCAL/MOL
REMARK 922        TOTAL FREE ENERGY PREDICTED BY IDOCK:   -5.07 KCAL/MOL
REMARK 923 INTER-LIGAND FREE ENERGY PREDICTED BY IDOCK:   -4.57 KCAL/MOL
REMARK 924 INTRA-LIGAND FREE ENERGY PREDICTED BY IDOCK:   -0.49 KCAL/MOL
REMARK 927      BINDING AFFINITY PREDICTED BY RF-SCORE:    0.00 PKD
ROOT
HETATM    1  C   UNL     1     -11.176  10.405  69.879  1.00  0.00    -0.371 C  
HETATM    2  C   UNL     1     -11.292   9.685  71.231  1.00  0.00    -0.458 C  
HETATM    3  C   UNL     1     -10.939   8.212  71.024  1.00  0.00    -0.273 A  
HETATM    4  C   UNL     1     -12.653   9.996  71.858  1.00  0.00    -0.362 C  
HETATM    5  C   UNL     1      -9.593   7.804  71.082  1.00  0.00    -0.174 A  
HETATM    6  O   UNL     1     -13.077   9.101  72.785  1.00  0.00    -0.370 OA 
HETATM    7  O   UNL     1     -13.307  11.004  71.620  1.00  0.00    -0.363 OA 
HETATM    8  C   UNL     1      -9.209   6.513  70.692  1.00  0.00    -0.163 A  
HETATM    9  C   UNL     1     -10.164   5.592  70.253  1.00  0.00    -0.326 A  
HETATM   10  C   UNL     1     -11.514   5.970  70.276  1.00  0.00    -0.245 A  
HETATM   11  C   UNL     1     -11.896   7.267  70.634  1.00  0.00    -0.290 A  
ENDROOT
BRANCH   9  12
HETATM   12  C   UNL     1      -9.782   4.303  69.557  1.00  0.00    -0.272 C  
BRANCH  12  13
HETATM   13  C   UNL     1      -9.527   4.335  68.052  1.00  0.00    -0.212 C  
HETATM   14  C   UNL     1     -10.326   5.413  67.312  1.00  0.00    -0.273 C  
HETATM   15  C   UNL     1      -9.400   5.907  66.206  1.00  0.00    -0.168 C  
HETATM   16  C   UNL     1      -8.026   5.959  66.854  1.00  0.00    -0.102 C  
HETATM   17  C   UNL     1      -8.098   4.783  67.790  1.00  0.00    -0.093 C  
HETATM   18  O   UNL     1      -7.110   4.274  68.310  1.00  0.00    -0.057 OA 
ENDBRANCH  12  13
ENDBRANCH   9  12
TORSDOF 2
ENDMDL
MODEL      117
REMARK 921   NORMALIZED FREE ENERGY PREDICTED BY IDOCK:   -4.25 KCAL/MOL
REMARK 922        TOTAL FREE ENERGY PREDICTED BY IDOCK:   -5.05 KCAL/MOL
REMARK 923 INTER-LIGAND FREE ENERGY PREDICTED BY IDOCK:   -4.73 KCAL/MOL
REMARK 924 INTRA-LIGAND FREE ENERGY PREDICTED BY IDOCK:   -0.32 KCAL/MOL
REMARK 927      BINDING AFFINITY PREDICTED BY RF-SCORE:    0.00 PKD
ROOT
HETATM    1  C   UNL     1      -9.175  18.489  68.490  1.00  0.00    -0.360 C  
HETATM    2  C   UNL     1     -10.273  17.917  67.581  1.00  0.00    -0.369 C  
HETATM    3  C   UNL     1     -10.162  16.392  67.594  1.00  0.00    -0.272 A  
HETATM    4  C   UNL     1     -10.217  18.610  66.218  1.00  0.00    -0.427 C  
HETATM    5  C   UNL     1     -10.811  15.656  68.604  1.00  0.00    -0.273 A  
HETATM    6  O   UNL     1     -10.787  17.920  65.197  1.00  0.00    -0.672 OA 
HETATM    7  O   UNL     1      -9.766  19.734  66.034  1.00  0.00    -0.400 OA 
HETATM    8  C   UNL     1     -10.565  14.286  68.774  1.00  0.00    -0.255 A  
HETATM    9  C   UNL     1      -9.679  13.615  67.927  1.00  0.00    -0.234 A  
HETATM   10  C   UNL     1      -9.098  14.329  66.869  1.00  0.00    -0.268 A  
HETATM   11  C   UNL     1      -9.317  15.701  66.717  1.00  0.00    -0.268 A  
ENDROOT
BRANCH   9  12
HETATM   12  C   UNL     1      -9.161  12.227  68.239  1.00  0.00    -0.189 C  
BRANCH  12  13
HETATM   13  C   UNL     1      -9.998  11.322  69.141  1.00  0.00    -0.058 C  
HETATM   14  C   UNL     1     -11.224  10.720  68.446  1.00  0.00    -0.345 C  
HETATM   15  C   UNL     1     -11.368   9.321  69.035  1.00  0.00     0.246 C  
HETATM   16  C   UNL     1      -9.941   8.808  69.153  1.00  0.00    -0.193 C  
HETATM   17  C   UNL     1      -9.201  10.075  69.486  1.00  0.00    -0.221 C  
HETATM   18  O   UNL     1      -8.064  10.089  69.947  1.00  0.00    -0.171 OA 
ENDBRANCH  12  13
ENDBRANCH   9  12
TORSDOF 2
ENDMDL
MODEL      118
REMARK 921   NORMALIZED FREE ENERGY PREDICTED BY IDOCK:   -4.22 KCAL/MOL
REMARK 922        TOTAL FREE ENERGY PREDICTED BY IDOCK:   -5.02 KCAL/MOL
REMARK 923 INTER-LIGAND FREE ENERGY PREDICTED BY IDOCK:   -4.63 KCAL/MOL
REMARK 924 INTRA-LIGAND FREE ENERGY PREDICTED BY IDOCK:   -0.39 KCAL/MOL
REMARK 927      BINDING AFFINITY PREDICTED BY RF-SCORE:    0.00 PKD
ROOT
HETATM    1  C   UNL     1     -11.418  13.567  66.887  1.00  0.00    -0.374 C  
HETATM    2  C   UNL     1     -10.446  12.999  67.931  1.00  0.00    -0.234 C  
HETATM    3  C   UNL     1      -9.328  14.019  68.154  1.00  0.00    -0.201 A  
HETATM    4  C   UNL     1     -10.029  11.585  67.524  1.00  0.00    -0.190 C  
HETATM    5  C   UNL     1      -9.508  15.055  69.090  1.00  0.00    -0.195 A  
HETATM    6  O   UNL     1      -8.865  11.148  68.067  1.00  0.00    -0.132 OA 
HETATM    7  O   UNL     1     -10.705  10.843  66.820  1.00  0.00    -0.258 OA 
HETATM    8  C   UNL     1      -8.603  16.124  69.171  1.00  0.00    -0.235 A  
HETATM    9  C   UNL     1      -7.486  16.172  68.332  1.00  0.00    -0.153 A  
HETATM   10  C   UNL     1      -7.262  15.098  67.459  1.00  0.00    -0.227 A  
HETATM   11  C   UNL     1      -8.180  14.048  67.354  1.00  0.00    -0.203 A  
ENDROOT
BRANCH   9  12
HETATM   12  C   UNL     1      -6.648  17.423  68.177  1.00  0.00    -0.166 C  
BRANCH  12  13
HETATM   13  C   UNL     1      -7.353  18.737  67.850  1.00  0.00    -0.259 C  
HETATM   14  C   UNL     1      -6.659  19.973  68.431  1.00  0.00    -0.331 C  
HETATM   15  C   UNL     1      -6.854  21.068  67.388  1.00  0.00    -0.434 C  
HETATM   16  C   UNL     1      -6.670  20.360  66.054  1.00  0.00    -0.278 C  
HETATM   17  C   UNL     1      -7.255  19.007  66.357  1.00  0.00    -0.236 C  
HETATM   18  O   UNL     1      -7.575  18.201  65.489  1.00  0.00    -0.527 OA 
ENDBRANCH  12  13
ENDBRANCH   9  12
TORSDOF 2
ENDMDL
MODEL      119
REMARK 921   NORMALIZED FREE ENERGY PREDICTED BY IDOCK:   -4.18 KCAL/MOL
REMARK 922        TOTAL FREE ENERGY PREDICTED BY IDOCK:   -4.98 KCAL/MOL
REMARK 923 INTER-LIGAND FREE ENERGY PREDICTED BY IDOCK:   -4.59 KCAL/MOL
REMARK 924 INTRA-LIGAND FREE ENERGY PREDICTED BY IDOCK:   -0.39 KCAL/MOL
REMARK 927      BINDING AFFINITY PREDICTED BY RF-SCORE:    0.00 PKD
ROOT
HETATM    1  C   UNL     1      -7.515  16.198  66.870  1.00  0.00    -0.266 C  
HETATM    2  C   UNL     1      -9.009  16.553  66.886  1.00  0.00    -0.242 C  
HETATM    3  C   UNL     1      -9.809  15.286  66.580  1.00  0.00    -0.283 A  
HETATM    4  C   UNL     1      -9.253  17.767  65.987  1.00  0.00    -0.018 C  
HETATM    5  C   UNL     1     -10.150  14.409  67.627  1.00  0.00    -0.222 A  
HETATM    6  O   UNL     1     -10.528  17.908  65.543  1.00  0.00    -0.650 OA 
HETATM    7  O   UNL     1      -8.405  18.611  65.724  1.00  0.00    -0.462 OA 
HETATM    8  C   UNL     1     -10.694  13.144  67.364  1.00  0.00    -0.262 A  
HETATM    9  C   UNL     1     -10.928  12.732  66.049  1.00  0.00    -0.306 A  
HETATM   10  C   UNL     1     -10.666  13.637  65.011  1.00  0.00    -0.374 A  
HETATM   11  C   UNL     1     -10.094  14.887  65.268  1.00  0.00    -0.380 A  
ENDROOT
BRANCH   9  12
HETATM   12  C   UNL     1     -11.235  11.292  65.698  1.00  0.00    -0.074 C  
BRANCH  12  13
HETATM   13  C   UNL     1     -10.071  10.321  65.513  1.00  0.00    -0.351 C  
HETATM   14  C   UNL     1      -8.970  10.846  64.585  1.00  0.00    -0.147 C  
HETATM   15  C   UNL     1      -7.666  10.322  65.177  1.00  0.00    -0.136 C  
HETATM   16  C   UNL     1      -7.848  10.460  66.681  1.00  0.00    -0.120 C  
HETATM   17  C   UNL     1      -9.319  10.177  66.826  1.00  0.00    -0.160 C  
HETATM   18  O   UNL     1      -9.850   9.901  67.897  1.00  0.00    -0.139 OA 
ENDBRANCH  12  13
ENDBRANCH   9  12
TORSDOF 2
ENDMDL
MODEL      120
REMARK 921   NORMALIZED FREE ENERGY PREDICTED BY IDOCK:   -4.17 KCAL/MOL
REMARK 922        TOTAL FREE ENERGY PREDICTED BY IDOCK:   -4.97 KCAL/MOL
REMARK 923 INTER-LIGAND FREE ENERGY PREDICTED BY IDOCK:   -4.52 KCAL/MOL
REMARK 924 INTRA-LIGAND FREE ENERGY PREDICTED BY IDOCK:   -0.45 KCAL/MOL
REMARK 927      BINDING AFFINITY PREDICTED BY RF-SCORE:    0.00 PKD
ROOT
HETATM    1  C   UNL     1      -6.441  14.062  70.645  1.00  0.00     0.078 C  
HETATM    2  C   UNL     1      -6.289  13.129  69.434  1.00  0.00    -0.111 C  
HETATM    3  C   UNL     1      -7.435  13.412  68.461  1.00  0.00    -0.118 A  
HETATM    4  C   UNL     1      -6.125  11.688  69.919  1.00  0.00    -0.147 C  
HETATM    5  C   UNL     1      -7.302  14.440  67.509  1.00  0.00    -0.208 A  
HETATM    6  O   UNL     1      -6.437  10.734  69.006  1.00  0.00    -0.048 OA 
HETATM    7  O   UNL     1      -5.678  11.377  71.016  1.00  0.00    -0.329 OA 
HETATM    8  C   UNL     1      -8.398  14.868  66.745  1.00  0.00    -0.158 A  
HETATM    9  C   UNL     1      -9.649  14.265  66.902  1.00  0.00    -0.268 A  
HETATM   10  C   UNL     1      -9.762  13.185  67.790  1.00  0.00    -0.218 A  
HETATM   11  C   UNL     1      -8.678  12.778  68.575  1.00  0.00    -0.045 A  
ENDROOT
BRANCH   9  12
HETATM   12  C   UNL     1     -10.913  14.868  66.327  1.00  0.00    -0.338 C  
BRANCH  12  13
HETATM   13  C   UNL     1     -11.333  14.469  64.914  1.00  0.00    -0.394 C  
HETATM   14  C   UNL     1     -10.396  13.452  64.254  1.00  0.00    -0.249 C  
HETATM   15  C   UNL     1     -11.305  12.555  63.420  1.00  0.00    -0.489 C  
HETATM   16  C   UNL     1     -12.538  12.353  64.286  1.00  0.00    -0.494 C  
HETATM   17  C   UNL     1     -12.635  13.688  64.975  1.00  0.00    -0.390 C  
HETATM   18  O   UNL     1     -13.645  14.075  65.554  1.00  0.00    -0.596 OA 
ENDBRANCH  12  13
ENDBRANCH   9  12
TORSDOF 2
ENDMDL
MODEL      121
REMARK 921   NORMALIZED FREE ENERGY PREDICTED BY IDOCK:   -4.17 KCAL/MOL
REMARK 922        TOTAL FREE ENERGY PREDICTED BY IDOCK:   -4.97 KCAL/MOL
REMARK 923 INTER-LIGAND FREE ENERGY PREDICTED BY IDOCK:   -4.58 KCAL/MOL
REMARK 924 INTRA-LIGAND FREE ENERGY PREDICTED BY IDOCK:   -0.39 KCAL/MOL
REMARK 927      BINDING AFFINITY PREDICTED BY RF-SCORE:    0.00 PKD
ROOT
HETATM    1  C   UNL     1      -7.012   6.020  66.960  1.00  0.00    -0.068 C  
HETATM    2  C   UNL     1      -8.296   5.919  66.123  1.00  0.00    -0.124 C  
HETATM    3  C   UNL     1      -8.816   7.334  65.866  1.00  0.00    -0.136 A  
HETATM    4  C   UNL     1      -9.258   4.931  66.783  1.00  0.00    -0.122 C  
HETATM    5  C   UNL     1      -8.325   8.068  64.769  1.00  0.00    -0.086 A  
HETATM    6  O   UNL     1     -10.563   5.079  66.438  1.00  0.00    -0.300 OA 
HETATM    7  O   UNL     1      -8.909   4.014  67.517  1.00  0.00    -0.105 OA 
HETATM    8  C   UNL     1      -8.615   9.432  64.621  1.00  0.00    -0.209 A  
HETATM    9  C   UNL     1      -9.418  10.091  65.556  1.00  0.00    -0.296 A  
HETATM   10  C   UNL     1      -9.976   9.341  66.602  1.00  0.00    -0.333 A  
HETATM   11  C   UNL     1      -9.663   7.989  66.769  1.00  0.00    -0.305 A  
ENDROOT
BRANCH   9  12
HETATM   12  C   UNL     1      -9.525  11.600  65.606  1.00  0.00    -0.228 C  
BRANCH  12  13
HETATM   13  C   UNL     1     -10.282  12.315  64.490  1.00  0.00    -0.322 C  
HETATM   14  C   UNL     1     -11.429  11.491  63.894  1.00  0.00    -0.358 C  
HETATM   15  C   UNL     1     -12.519  12.505  63.566  1.00  0.00    -0.561 C  
HETATM   16  C   UNL     1     -12.498  13.479  64.734  1.00  0.00    -0.402 C  
HETATM   17  C   UNL     1     -11.031  13.505  65.067  1.00  0.00    -0.335 C  
HETATM   18  O   UNL     1     -10.513  14.373  65.763  1.00  0.00    -0.291 OA 
ENDBRANCH  12  13
ENDBRANCH   9  12
TORSDOF 2
ENDMDL
MODEL      122
REMARK 921   NORMALIZED FREE ENERGY PREDICTED BY IDOCK:   -4.15 KCAL/MOL
REMARK 922        TOTAL FREE ENERGY PREDICTED BY IDOCK:   -4.95 KCAL/MOL
REMARK 923 INTER-LIGAND FREE ENERGY PREDICTED BY IDOCK:   -4.59 KCAL/MOL
REMARK 924 INTRA-LIGAND FREE ENERGY PREDICTED BY IDOCK:   -0.35 KCAL/MOL
REMARK 927      BINDING AFFINITY PREDICTED BY RF-SCORE:    0.00 PKD
ROOT
HETATM    1  C   UNL     1      -9.565  13.264  66.832  1.00  0.00    -0.249 C  
HETATM    2  C   UNL     1     -10.798  12.551  66.255  1.00  0.00    -0.299 C  
HETATM    3  C   UNL     1     -10.738  11.079  66.664  1.00  0.00    -0.305 A  
HETATM    4  C   UNL     1     -10.909  12.856  64.760  1.00  0.00    -0.327 C  
HETATM    5  C   UNL     1     -11.264  10.680  67.907  1.00  0.00    -0.376 A  
HETATM    6  O   UNL     1     -11.638  11.964  64.043  1.00  0.00    -0.378 OA 
HETATM    7  O   UNL     1     -10.451  13.859  64.225  1.00  0.00    -0.313 OA 
HETATM    8  C   UNL     1     -11.043   9.390  68.409  1.00  0.00     0.019 A  
HETATM    9  C   UNL     1     -10.307   8.459  67.669  1.00  0.00    -0.317 A  
HETATM   10  C   UNL     1      -9.855   8.829  66.394  1.00  0.00    -0.352 A  
HETATM   11  C   UNL     1     -10.047  10.125  65.907  1.00  0.00    -0.325 A  
ENDROOT
BRANCH   9  12
HETATM   12  C   UNL     1      -9.797   7.169  68.276  1.00  0.00    -0.159 C  
BRANCH  12  13
HETATM   13  C   UNL     1     -10.148   6.858  69.729  1.00  0.00    -0.196 C  
HETATM   14  C   UNL     1     -10.777   5.475  69.931  1.00  0.00    -0.358 C  
HETATM   15  C   UNL     1     -10.246   4.988  71.275  1.00  0.00    -0.273 C  
HETATM   16  C   UNL     1      -8.791   5.430  71.291  1.00  0.00    -0.140 C  
HETATM   17  C   UNL     1      -8.871   6.733  70.542  1.00  0.00    -0.151 C  
HETATM   18  O   UNL     1      -7.980   7.577  70.561  1.00  0.00    -0.095 OA 
ENDBRANCH  12  13
ENDBRANCH   9  12
TORSDOF 2
ENDMDL
MODEL      123
REMARK 921   NORMALIZED FREE ENERGY PREDICTED BY IDOCK:   -4.15 KCAL/MOL
REMARK 922        TOTAL FREE ENERGY PREDICTED BY IDOCK:   -4.94 KCAL/MOL
REMARK 923 INTER-LIGAND FREE ENERGY PREDICTED BY IDOCK:   -5.11 KCAL/MOL
REMARK 924 INTRA-LIGAND FREE ENERGY PREDICTED BY IDOCK:    0.18 KCAL/MOL
REMARK 927      BINDING AFFINITY PREDICTED BY RF-SCORE:    0.00 PKD
ROOT
HETATM    1  C   UNL     1     -10.417  14.036  64.638  1.00  0.00    -0.398 C  
HETATM    2  C   UNL     1     -11.554  13.041  64.914  1.00  0.00    -0.362 C  
HETATM    3  C   UNL     1     -10.940  11.738  65.429  1.00  0.00    -0.352 A  
HETATM    4  C   UNL     1     -12.458  12.948  63.683  1.00  0.00    -0.348 C  
HETATM    5  C   UNL     1     -10.668  11.593  66.802  1.00  0.00    -0.299 A  
HETATM    6  O   UNL     1     -13.200  11.815  63.598  1.00  0.00    -0.573 OA 
HETATM    7  O   UNL     1     -12.586  13.839  62.853  1.00  0.00    -0.611 OA 
HETATM    8  C   UNL     1      -9.919  10.509  67.283  1.00  0.00    -0.224 A  
HETATM    9  C   UNL     1      -9.439   9.534  66.403  1.00  0.00    -0.251 A  
HETATM   10  C   UNL     1      -9.781   9.634  65.047  1.00  0.00    -0.234 A  
HETATM   11  C   UNL     1     -10.501  10.731  64.561  1.00  0.00    -0.351 A  
ENDROOT
BRANCH   9  12
HETATM   12  C   UNL     1      -8.398   8.517  66.817  1.00  0.00    -0.109 C  
BRANCH  12  13
HETATM   13  C   UNL     1      -8.686   7.037  66.573  1.00  0.00    -0.138 C  
HETATM   14  C   UNL     1      -7.742   6.091  67.322  1.00  0.00    -0.097 C  
HETATM   15  C   UNL     1      -8.606   4.898  67.717  1.00  0.00    -0.103 C  
HETATM   16  C   UNL     1      -9.934   5.510  68.132  1.00  0.00    -0.197 C  
HETATM   17  C   UNL     1     -10.029   6.675  67.185  1.00  0.00    -0.160 C  
HETATM   18  O   UNL     1     -11.072   7.285  66.969  1.00  0.00    -0.308 OA 
ENDBRANCH  12  13
ENDBRANCH   9  12
TORSDOF 2
ENDMDL
MODEL      124
REMARK 921   NORMALIZED FREE ENERGY PREDICTED BY IDOCK:   -4.13 KCAL/MOL
REMARK 922        TOTAL FREE ENERGY PREDICTED BY IDOCK:   -4.92 KCAL/MOL
REMARK 923 INTER-LIGAND FREE ENERGY PREDICTED BY IDOCK:   -4.56 KCAL/MOL
REMARK 924 INTRA-LIGAND FREE ENERGY PREDICTED BY IDOCK:   -0.36 KCAL/MOL
REMARK 927      BINDING AFFINITY PREDICTED BY RF-SCORE:    0.00 PKD
ROOT
HETATM    1  C   UNL     1      -8.356   8.256  66.054  1.00  0.00    -0.130 C  
HETATM    2  C   UNL     1      -9.574   7.974  66.946  1.00  0.00    -0.265 C  
HETATM    3  C   UNL     1     -10.051   9.298  67.544  1.00  0.00    -0.273 A  
HETATM    4  C   UNL     1      -9.239   6.847  67.924  1.00  0.00    -0.124 C  
HETATM    5  C   UNL     1     -10.946  10.107  66.818  1.00  0.00    -0.049 A  
HETATM    6  O   UNL     1     -10.011   6.802  69.039  1.00  0.00    -0.150 OA 
HETATM    7  O   UNL     1      -8.392   5.985  67.719  1.00  0.00    -0.112 OA 
HETATM    8  C   UNL     1     -11.241  11.414  67.231  1.00  0.00    -0.370 A  
HETATM    9  C   UNL     1     -10.662  11.938  68.391  1.00  0.00    -0.248 A  
HETATM   10  C   UNL     1      -9.838  11.103  69.160  1.00  0.00    -0.074 A  
HETATM   11  C   UNL     1      -9.517   9.811  68.732  1.00  0.00    -0.154 A  
ENDROOT
BRANCH   9  12
HETATM   12  C   UNL     1     -10.715  13.414  68.723  1.00  0.00    -0.257 C  
BRANCH  12  13
HETATM   13  C   UNL     1     -11.966  13.964  69.404  1.00  0.00    -0.402 C  
HETATM   14  C   UNL     1     -12.351  13.217  70.686  1.00  0.00    -0.416 C  
HETATM   15  C   UNL     1     -12.904  14.288  71.620  1.00  0.00    -0.424 C  
HETATM   16  C   UNL     1     -11.995  15.488  71.404  1.00  0.00    -0.455 C  
HETATM   17  C   UNL     1     -11.679  15.358  69.939  1.00  0.00    -0.336 C  
HETATM   18  O   UNL     1     -11.206  16.269  69.268  1.00  0.00    -0.322 OA 
ENDBRANCH  12  13
ENDBRANCH   9  12
TORSDOF 2
ENDMDL
MODEL      125
REMARK 921   NORMALIZED FREE ENERGY PREDICTED BY IDOCK:   -4.10 KCAL/MOL
REMARK 922        TOTAL FREE ENERGY PREDICTED BY IDOCK:   -4.89 KCAL/MOL
REMARK 923 INTER-LIGAND FREE ENERGY PREDICTED BY IDOCK:   -4.55 KCAL/MOL
REMARK 924 INTRA-LIGAND FREE ENERGY PREDICTED BY IDOCK:   -0.34 KCAL/MOL
REMARK 927      BINDING AFFINITY PREDICTED BY RF-SCORE:    0.00 PKD
ROOT
HETATM    1  C   UNL     1      -9.382  15.313  66.769  1.00  0.00    -0.265 C  
HETATM    2  C   UNL     1      -9.924  14.680  68.059  1.00  0.00    -0.220 C  
HETATM    3  C   UNL     1     -10.073  13.175  67.832  1.00  0.00    -0.232 A  
HETATM    4  C   UNL     1     -11.168  15.443  68.517  1.00  0.00    -0.318 C  
HETATM    5  C   UNL     1      -8.970  12.326  68.045  1.00  0.00    -0.190 A  
HETATM    6  O   UNL     1     -11.998  14.752  69.340  1.00  0.00    -0.299 OA 
HETATM    7  O   UNL     1     -11.398  16.615  68.244  1.00  0.00    -0.309 OA 
HETATM    8  C   UNL     1      -9.002  10.982  67.650  1.00  0.00    -0.142 A  
HETATM    9  C   UNL     1     -10.145  10.447  67.049  1.00  0.00    -0.264 A  
HETATM   10  C   UNL     1     -11.273  11.269  66.913  1.00  0.00    -0.300 A  
HETATM   11  C   UNL     1     -11.232  12.619  67.278  1.00  0.00    -0.346 A  
ENDROOT
BRANCH   9  12
HETATM   12  C   UNL     1     -10.135   9.104  66.350  1.00  0.00    -0.345 C  
BRANCH  12  13
HETATM   13  C   UNL     1      -9.986   7.842  67.196  1.00  0.00    -0.298 C  
HETATM   14  C   UNL     1     -11.090   6.806  66.961  1.00  0.00    -0.369 C  
HETATM   15  C   UNL     1     -10.399   5.453  67.087  1.00  0.00    -0.288 C  
HETATM   16  C   UNL     1      -9.056   5.646  66.402  1.00  0.00    -0.150 C  
HETATM   17  C   UNL     1      -8.751   7.077  66.751  1.00  0.00    -0.123 C  
HETATM   18  O   UNL     1      -7.633   7.573  66.646  1.00  0.00    -0.093 OA 
ENDBRANCH  12  13
ENDBRANCH   9  12
TORSDOF 2
ENDMDL
MODEL      126
REMARK 921   NORMALIZED FREE ENERGY PREDICTED BY IDOCK:   -4.10 KCAL/MOL
REMARK 922        TOTAL FREE ENERGY PREDICTED BY IDOCK:   -4.89 KCAL/MOL
REMARK 923 INTER-LIGAND FREE ENERGY PREDICTED BY IDOCK:   -4.52 KCAL/MOL
REMARK 924 INTRA-LIGAND FREE ENERGY PREDICTED BY IDOCK:   -0.36 KCAL/MOL
REMARK 927      BINDING AFFINITY PREDICTED BY RF-SCORE:    0.00 PKD
ROOT
HETATM    1  C   UNL     1      -9.962  19.002  66.192  1.00  0.00    -0.413 C  
HETATM    2  C   UNL     1      -9.488  18.470  67.553  1.00  0.00    -0.291 C  
HETATM    3  C   UNL     1      -9.651  16.950  67.560  1.00  0.00    -0.245 A  
HETATM    4  C   UNL     1     -10.177  19.252  68.673  1.00  0.00    -0.355 C  
HETATM    5  C   UNL     1      -8.624  16.137  67.043  1.00  0.00    -0.233 A  
HETATM    6  O   UNL     1     -10.222  18.620  69.873  1.00  0.00     0.381 OA 
HETATM    7  O   UNL     1     -10.605  20.394  68.555  1.00  0.00    -0.195 OA 
HETATM    8  C   UNL     1      -8.820  14.764  66.838  1.00  0.00    -0.274 A  
HETATM    9  C   UNL     1     -10.041  14.166  67.163  1.00  0.00    -0.258 A  
HETATM   10  C   UNL     1     -11.034  14.959  67.757  1.00  0.00    -0.294 A  
HETATM   11  C   UNL     1     -10.852  16.334  67.932  1.00  0.00    -0.330 A  
ENDROOT
BRANCH   9  12
HETATM   12  C   UNL     1     -10.403  12.770  66.702  1.00  0.00    -0.252 C  
BRANCH  12  13
HETATM   13  C   UNL     1      -9.551  12.117  65.617  1.00  0.00    -0.177 C  
HETATM   14  C   UNL     1      -9.551  10.585  65.669  1.00  0.00    -0.278 C  
HETATM   15  C   UNL     1      -9.500  10.137  64.212  1.00  0.00    -0.366 C  
HETATM   16  C   UNL     1     -10.417  11.107  63.483  1.00  0.00    -0.422 C  
HETATM   17  C   UNL     1     -10.178  12.375  64.256  1.00  0.00    -0.332 C  
HETATM   18  O   UNL     1     -10.495  13.486  63.843  1.00  0.00    -0.196 OA 
ENDBRANCH  12  13
ENDBRANCH   9  12
TORSDOF 2
ENDMDL
MODEL      127
REMARK 921   NORMALIZED FREE ENERGY PREDICTED BY IDOCK:   -4.09 KCAL/MOL
REMARK 922        TOTAL FREE ENERGY PREDICTED BY IDOCK:   -4.88 KCAL/MOL
REMARK 923 INTER-LIGAND FREE ENERGY PREDICTED BY IDOCK:   -4.35 KCAL/MOL
REMARK 924 INTRA-LIGAND FREE ENERGY PREDICTED BY IDOCK:   -0.53 KCAL/MOL
REMARK 927      BINDING AFFINITY PREDICTED BY RF-SCORE:    0.00 PKD
ROOT
HETATM    1  C   UNL     1      -8.831   4.537  65.185  1.00  0.00    -0.143 C  
HETATM    2  C   UNL     1      -9.742   4.097  66.340  1.00  0.00    -0.223 C  
HETATM    3  C   UNL     1      -9.835   5.246  67.345  1.00  0.00    -0.183 A  
HETATM    4  C   UNL     1      -9.273   2.742  66.871  1.00  0.00    -0.115 C  
HETATM    5  C   UNL     1     -10.795   6.258  67.159  1.00  0.00    -0.460 A  
HETATM    6  O   UNL     1      -9.665   2.452  68.138  1.00  0.00    -0.139 OA 
HETATM    7  O   UNL     1      -8.651   1.920  66.209  1.00  0.00    -0.101 OA 
HETATM    8  C   UNL     1     -10.775   7.429  67.931  1.00  0.00    -0.217 A  
HETATM    9  C   UNL     1      -9.805   7.607  68.921  1.00  0.00    -0.164 A  
HETATM   10  C   UNL     1      -8.901   6.563  69.164  1.00  0.00    -0.128 A  
HETATM   11  C   UNL     1      -8.899   5.409  68.374  1.00  0.00    -0.102 A  
ENDROOT
BRANCH   9  12
HETATM   12  C   UNL     1      -9.559   8.950  69.576  1.00  0.00    -0.171 C  
BRANCH  12  13
HETATM   13  C   UNL     1     -10.261   9.256  70.897  1.00  0.00    -0.371 C  
HETATM   14  C   UNL     1     -11.603   8.535  71.066  1.00  0.00    -0.317 C  
HETATM   15  C   UNL     1     -11.689   8.197  72.550  1.00  0.00    -0.457 C  
HETATM   16  C   UNL     1     -10.278   7.770  72.926  1.00  0.00    -0.377 C  
HETATM   17  C   UNL     1      -9.455   8.671  72.046  1.00  0.00    -0.300 C  
HETATM   18  O   UNL     1      -8.258   8.873  72.220  1.00  0.00    -0.379 OA 
ENDBRANCH  12  13
ENDBRANCH   9  12
TORSDOF 2
ENDMDL
MODEL      128
REMARK 921   NORMALIZED FREE ENERGY PREDICTED BY IDOCK:   -4.06 KCAL/MOL
REMARK 922        TOTAL FREE ENERGY PREDICTED BY IDOCK:   -4.85 KCAL/MOL
REMARK 923 INTER-LIGAND FREE ENERGY PREDICTED BY IDOCK:   -4.66 KCAL/MOL
REMARK 924 INTRA-LIGAND FREE ENERGY PREDICTED BY IDOCK:   -0.18 KCAL/MOL
REMARK 927      BINDING AFFINITY PREDICTED BY RF-SCORE:    0.00 PKD
ROOT
HETATM    1  C   UNL     1      -9.219  18.494  68.534  1.00  0.00    -0.360 C  
HETATM    2  C   UNL     1     -10.326  18.072  67.555  1.00  0.00    -0.394 C  
HETATM    3  C   UNL     1     -10.162  16.581  67.256  1.00  0.00    -0.287 A  
HETATM    4  C   UNL     1     -10.340  19.026  66.360  1.00  0.00    -0.448 C  
HETATM    5  C   UNL     1     -10.750  15.631  68.112  1.00  0.00    -0.287 A  
HETATM    6  O   UNL     1     -10.918  18.534  65.236  1.00  0.00    -0.551 OA 
HETATM    7  O   UNL     1      -9.935  20.182  66.396  1.00  0.00    -0.440 OA 
HETATM    8  C   UNL     1     -10.451  14.266  67.995  1.00  0.00    -0.235 A  
HETATM    9  C   UNL     1      -9.570  13.816  67.007  1.00  0.00    -0.251 A  
HETATM   10  C   UNL     1      -9.050  14.752  66.102  1.00  0.00    -0.161 A  
HETATM   11  C   UNL     1      -9.322  16.117  66.237  1.00  0.00    -0.351 A  
ENDROOT
BRANCH   9  12
HETATM   12  C   UNL     1      -8.994  12.416  67.018  1.00  0.00    -0.209 C  
BRANCH  12  13
HETATM   13  C   UNL     1      -7.511  12.240  67.340  1.00  0.00    -0.160 C  
HETATM   14  C   UNL     1      -6.826  13.524  67.821  1.00  0.00    -0.168 C  
HETATM   15  C   UNL     1      -5.814  13.068  68.866  1.00  0.00    -0.076 C  
HETATM   16  C   UNL     1      -6.533  11.975  69.641  1.00  0.00    -0.088 C  
HETATM   17  C   UNL     1      -7.361  11.341  68.556  1.00  0.00    -0.106 C  
HETATM   18  O   UNL     1      -7.886  10.238  68.667  1.00  0.00    -0.091 OA 
ENDBRANCH  12  13
ENDBRANCH   9  12
TORSDOF 2
ENDMDL
MODEL      129
REMARK 921   NORMALIZED FREE ENERGY PREDICTED BY IDOCK:   -4.06 KCAL/MOL
REMARK 922        TOTAL FREE ENERGY PREDICTED BY IDOCK:   -4.84 KCAL/MOL
REMARK 923 INTER-LIGAND FREE ENERGY PREDICTED BY IDOCK:   -4.48 KCAL/MOL
REMARK 924 INTRA-LIGAND FREE ENERGY PREDICTED BY IDOCK:   -0.36 KCAL/MOL
REMARK 927      BINDING AFFINITY PREDICTED BY RF-SCORE:    0.00 PKD
ROOT
HETATM    1  C   UNL     1      -9.131   8.069  73.591  1.00  0.00    -0.299 C  
HETATM    2  C   UNL     1      -9.466   7.178  72.385  1.00  0.00    -0.166 C  
HETATM    3  C   UNL     1      -9.773   8.081  71.189  1.00  0.00    -0.190 A  
HETATM    4  C   UNL     1     -10.537   6.161  72.785  1.00  0.00    -0.228 C  
HETATM    5  C   UNL     1      -8.719   8.542  70.377  1.00  0.00    -0.153 A  
HETATM    6  O   UNL     1     -11.246   5.636  71.754  1.00  0.00    -0.242 OA 
HETATM    7  O   UNL     1     -10.721   5.769  73.931  1.00  0.00    -0.264 OA 
HETATM    8  C   UNL     1      -8.931   9.532  69.407  1.00  0.00    -0.174 A  
HETATM    9  C   UNL     1     -10.206  10.072  69.212  1.00  0.00    -0.229 A  
HETATM   10  C   UNL     1     -11.271   9.552  69.962  1.00  0.00    -0.243 A  
HETATM   11  C   UNL     1     -11.056   8.588  70.952  1.00  0.00    -0.295 A  
ENDROOT
BRANCH   9  12
HETATM   12  C   UNL     1     -10.434  11.326  68.397  1.00  0.00    -0.219 C  
BRANCH  12  13
HETATM   13  C   UNL     1      -9.836  11.403  66.994  1.00  0.00    -0.214 C  
HETATM   14  C   UNL     1     -10.245  10.241  66.083  1.00  0.00    -0.285 C  
HETATM   15  C   UNL     1     -10.378  10.853  64.692  1.00  0.00    -0.407 C  
HETATM   16  C   UNL     1     -11.032  12.204  64.932  1.00  0.00    -0.355 C  
HETATM   17  C   UNL     1     -10.429  12.592  66.255  1.00  0.00    -0.246 C  
HETATM   18  O   UNL     1     -10.453  13.736  66.698  1.00  0.00    -0.268 OA 
ENDBRANCH  12  13
ENDBRANCH   9  12
TORSDOF 2
ENDMDL
MODEL      130
REMARK 921   NORMALIZED FREE ENERGY PREDICTED BY IDOCK:   -4.06 KCAL/MOL
REMARK 922        TOTAL FREE ENERGY PREDICTED BY IDOCK:   -4.84 KCAL/MOL
REMARK 923 INTER-LIGAND FREE ENERGY PREDICTED BY IDOCK:   -4.46 KCAL/MOL
REMARK 924 INTRA-LIGAND FREE ENERGY PREDICTED BY IDOCK:   -0.38 KCAL/MOL
REMARK 927      BINDING AFFINITY PREDICTED BY RF-SCORE:    0.00 PKD
ROOT
HETATM    1  C   UNL     1      -6.989   5.986  65.641  1.00  0.00    -0.061 C  
HETATM    2  C   UNL     1      -7.308   7.477  65.457  1.00  0.00    -0.071 C  
HETATM    3  C   UNL     1      -8.251   7.910  66.580  1.00  0.00    -0.119 A  
HETATM    4  C   UNL     1      -7.772   7.726  64.021  1.00  0.00    -0.126 C  
HETATM    5  C   UNL     1      -7.719   8.320  67.817  1.00  0.00    -0.103 A  
HETATM    6  O   UNL     1      -8.505   8.853  63.839  1.00  0.00    -0.182 OA 
HETATM    7  O   UNL     1      -7.464   7.023  63.066  1.00  0.00    -0.079 OA 
HETATM    8  C   UNL     1      -8.546   8.521  68.932  1.00  0.00    -0.127 A  
HETATM    9  C   UNL     1      -9.928   8.335  68.831  1.00  0.00    -0.193 A  
HETATM   10  C   UNL     1     -10.467   8.009  67.579  1.00  0.00    -0.331 A  
HETATM   11  C   UNL     1      -9.641   7.777  66.474  1.00  0.00    -0.270 A  
ENDROOT
BRANCH   9  12
HETATM   12  C   UNL     1     -10.821   8.256  70.051  1.00  0.00    -0.232 C  
BRANCH  12  13
HETATM   13  C   UNL     1     -11.048   9.523  70.873  1.00  0.00    -0.406 C  
HETATM   14  C   UNL     1     -11.630  10.688  70.065  1.00  0.00    -0.406 C  
HETATM   15  C   UNL     1     -12.567  11.410  71.027  1.00  0.00    -0.487 C  
HETATM   16  C   UNL     1     -13.254  10.294  71.799  1.00  0.00    -0.534 C  
HETATM   17  C   UNL     1     -12.150   9.276  71.890  1.00  0.00    -0.370 C  
HETATM   18  O   UNL     1     -12.166   8.332  72.673  1.00  0.00    -0.364 OA 
ENDBRANCH  12  13
ENDBRANCH   9  12
TORSDOF 2
ENDMDL
MODEL      131
REMARK 921   NORMALIZED FREE ENERGY PREDICTED BY IDOCK:   -4.05 KCAL/MOL
REMARK 922        TOTAL FREE ENERGY PREDICTED BY IDOCK:   -4.83 KCAL/MOL
REMARK 923 INTER-LIGAND FREE ENERGY PREDICTED BY IDOCK:   -4.38 KCAL/MOL
REMARK 924 INTRA-LIGAND FREE ENERGY PREDICTED BY IDOCK:   -0.45 KCAL/MOL
REMARK 927      BINDING AFFINITY PREDICTED BY RF-SCORE:    0.00 PKD
ROOT
HETATM    1  C   UNL     1      -9.899   9.732  65.367  1.00  0.00    -0.365 C  
HETATM    2  C   UNL     1      -8.876   8.725  65.912  1.00  0.00    -0.222 C  
HETATM    3  C   UNL     1      -9.476   8.051  67.148  1.00  0.00    -0.207 A  
HETATM    4  C   UNL     1      -7.522   9.415  66.082  1.00  0.00    -0.096 C  
HETATM    5  C   UNL     1     -10.298   6.919  66.993  1.00  0.00    -0.348 A  
HETATM    6  O   UNL     1      -6.675   8.816  66.956  1.00  0.00    -0.064 OA 
HETATM    7  O   UNL     1      -7.163  10.396  65.441  1.00  0.00    -0.143 OA 
HETATM    8  C   UNL     1     -11.031   6.402  68.070  1.00  0.00    -0.400 A  
HETATM    9  C   UNL     1     -10.945   6.994  69.334  1.00  0.00    -0.232 A  
HETATM   10  C   UNL     1     -10.062   8.068  69.508  1.00  0.00    -0.196 A  
HETATM   11  C   UNL     1      -9.354   8.605  68.428  1.00  0.00    -0.141 A  
ENDROOT
BRANCH   9  12
HETATM   12  C   UNL     1     -11.919   6.665  70.446  1.00  0.00    -0.342 C  
BRANCH  12  13
HETATM   13  C   UNL     1     -11.367   6.107  71.756  1.00  0.00    -0.346 C  
HETATM   14  C   UNL     1     -10.056   5.332  71.595  1.00  0.00    -0.259 C  
HETATM   15  C   UNL     1      -9.252   5.643  72.853  1.00  0.00    -0.135 C  
HETATM   16  C   UNL     1      -9.508   7.119  73.113  1.00  0.00    -0.204 C  
HETATM   17  C   UNL     1     -10.934   7.255  72.653  1.00  0.00    -0.299 C  
HETATM   18  O   UNL     1     -11.647   8.211  72.941  1.00  0.00    -0.386 OA 
ENDBRANCH  12  13
ENDBRANCH   9  12
TORSDOF 2
ENDMDL
MODEL      132
REMARK 921   NORMALIZED FREE ENERGY PREDICTED BY IDOCK:   -4.05 KCAL/MOL
REMARK 922        TOTAL FREE ENERGY PREDICTED BY IDOCK:   -4.83 KCAL/MOL
REMARK 923 INTER-LIGAND FREE ENERGY PREDICTED BY IDOCK:   -4.40 KCAL/MOL
REMARK 924 INTRA-LIGAND FREE ENERGY PREDICTED BY IDOCK:   -0.43 KCAL/MOL
REMARK 927      BINDING AFFINITY PREDICTED BY RF-SCORE:    0.00 PKD
ROOT
HETATM    1  C   UNL     1      -6.102  14.179  71.303  1.00  0.00    -0.057 C  
HETATM    2  C   UNL     1      -5.710  13.321  70.091  1.00  0.00    -0.137 C  
HETATM    3  C   UNL     1      -6.488  13.822  68.874  1.00  0.00    -0.100 A  
HETATM    4  C   UNL     1      -5.852  11.840  70.450  1.00  0.00    -0.156 C  
HETATM    5  C   UNL     1      -5.973  14.886  68.109  1.00  0.00    -0.145 A  
HETATM    6  O   UNL     1      -5.990  11.002  69.391  1.00  0.00    -0.043 OA 
HETATM    7  O   UNL     1      -5.778  11.396  71.589  1.00  0.00    -0.313 OA 
HETATM    8  C   UNL     1      -6.748  15.510  67.121  1.00  0.00    -0.022 A  
HETATM    9  C   UNL     1      -8.049  15.072  66.860  1.00  0.00    -0.161 A  
HETATM   10  C   UNL     1      -8.531  13.959  67.562  1.00  0.00    -0.200 A  
HETATM   11  C   UNL     1      -7.773  13.356  68.571  1.00  0.00    -0.124 A  
ENDROOT
BRANCH   9  12
HETATM   12  C   UNL     1      -9.018  15.879  66.022  1.00  0.00    -0.337 C  
BRANCH  12  13
HETATM   13  C   UNL     1     -10.100  16.688  66.734  1.00  0.00    -0.293 C  
HETATM   14  C   UNL     1      -9.554  17.664  67.782  1.00  0.00    -0.267 C  
HETATM   15  C   UNL     1     -10.466  18.883  67.704  1.00  0.00    -0.514 C  
HETATM   16  C   UNL     1     -10.731  19.066  66.218  1.00  0.00    -0.406 C  
HETATM   17  C   UNL     1     -10.756  17.638  65.746  1.00  0.00    -0.110 C  
HETATM   18  O   UNL     1     -11.219  17.294  64.663  1.00  0.00    -1.014 OA 
ENDBRANCH  12  13
ENDBRANCH   9  12
TORSDOF 2
ENDMDL
MODEL      133
REMARK 921   NORMALIZED FREE ENERGY PREDICTED BY IDOCK:   -4.05 KCAL/MOL
REMARK 922        TOTAL FREE ENERGY PREDICTED BY IDOCK:   -4.83 KCAL/MOL
REMARK 923 INTER-LIGAND FREE ENERGY PREDICTED BY IDOCK:   -4.47 KCAL/MOL
REMARK 924 INTRA-LIGAND FREE ENERGY PREDICTED BY IDOCK:   -0.36 KCAL/MOL
REMARK 927      BINDING AFFINITY PREDICTED BY RF-SCORE:    0.00 PKD
ROOT
HETATM    1  C   UNL     1     -12.255  12.722  66.935  1.00  0.00    -0.109 C  
HETATM    2  C   UNL     1     -11.397  12.793  65.663  1.00  0.00    -0.354 C  
HETATM    3  C   UNL     1     -10.600  14.098  65.693  1.00  0.00    -0.317 A  
HETATM    4  C   UNL     1     -12.279  12.542  64.439  1.00  0.00    -0.449 C  
HETATM    5  C   UNL     1      -9.362  14.142  66.361  1.00  0.00    -0.254 A  
HETATM    6  O   UNL     1     -11.786  13.015  63.267  1.00  0.00    -0.534 OA 
HETATM    7  O   UNL     1     -13.323  11.901  64.462  1.00  0.00    -0.398 OA 
HETATM    8  C   UNL     1      -8.704  15.359  66.591  1.00  0.00    -0.332 A  
HETATM    9  C   UNL     1      -9.260  16.560  66.141  1.00  0.00    -0.338 A  
HETATM   10  C   UNL     1     -10.450  16.508  65.401  1.00  0.00    -0.291 A  
HETATM   11  C   UNL     1     -11.123  15.299  65.199  1.00  0.00    -0.412 A  
ENDROOT
BRANCH   9  12
HETATM   12  C   UNL     1      -8.750  17.908  66.605  1.00  0.00    -0.280 C  
BRANCH  12  13
HETATM   13  C   UNL     1      -9.749  18.899  67.199  1.00  0.00    -0.345 C  
HETATM   14  C   UNL     1      -9.677  19.010  68.726  1.00  0.00    -0.473 C  
HETATM   15  C   UNL     1      -9.959  20.476  69.033  1.00  0.00     0.216 C  
HETATM   16  C   UNL     1      -9.220  21.242  67.946  1.00  0.00     0.355 C  
HETATM   17  C   UNL     1      -9.375  20.310  66.775  1.00  0.00    -0.358 C  
HETATM   18  O   UNL     1      -9.179  20.650  65.612  1.00  0.00     0.209 OA 
ENDBRANCH  12  13
ENDBRANCH   9  12
TORSDOF 2
ENDMDL
MODEL      134
REMARK 921   NORMALIZED FREE ENERGY PREDICTED BY IDOCK:   -4.03 KCAL/MOL
REMARK 922        TOTAL FREE ENERGY PREDICTED BY IDOCK:   -4.81 KCAL/MOL
REMARK 923 INTER-LIGAND FREE ENERGY PREDICTED BY IDOCK:   -4.60 KCAL/MOL
REMARK 924 INTRA-LIGAND FREE ENERGY PREDICTED BY IDOCK:   -0.21 KCAL/MOL
REMARK 927      BINDING AFFINITY PREDICTED BY RF-SCORE:    0.00 PKD
ROOT
HETATM    1  C   UNL     1      -8.881   9.383  70.425  1.00  0.00    -0.290 C  
HETATM    2  C   UNL     1      -8.079   8.812  69.245  1.00  0.00    -0.110 C  
HETATM    3  C   UNL     1      -8.490   9.561  67.977  1.00  0.00    -0.119 A  
HETATM    4  C   UNL     1      -8.211   7.288  69.230  1.00  0.00    -0.131 C  
HETATM    5  C   UNL     1      -7.851  10.770  67.644  1.00  0.00    -0.109 A  
HETATM    6  O   UNL     1      -7.962   6.700  68.033  1.00  0.00    -0.108 OA 
HETATM    7  O   UNL     1      -8.450   6.607  70.220  1.00  0.00    -0.132 OA 
HETATM    8  C   UNL     1      -8.337  11.588  66.614  1.00  0.00    -0.167 A  
HETATM    9  C   UNL     1      -9.463  11.208  65.879  1.00  0.00    -0.241 A  
HETATM   10  C   UNL     1     -10.049   9.964  66.154  1.00  0.00    -0.315 A  
HETATM   11  C   UNL     1      -9.586   9.162  67.201  1.00  0.00    -0.215 A  
ENDROOT
BRANCH   9  12
HETATM   12  C   UNL     1     -10.193  12.171  64.967  1.00  0.00    -0.312 C  
BRANCH  12  13
HETATM   13  C   UNL     1     -10.981  13.317  65.596  1.00  0.00    -0.292 C  
HETATM   14  C   UNL     1     -10.100  14.408  66.213  1.00  0.00    -0.308 C  
HETATM   15  C   UNL     1     -10.842  15.714  65.952  1.00  0.00    -0.297 C  
HETATM   16  C   UNL     1     -11.396  15.562  64.544  1.00  0.00    -0.322 C  
HETATM   17  C   UNL     1     -11.707  14.091  64.508  1.00  0.00    -0.413 C  
HETATM   18  O   UNL     1     -12.434  13.576  63.664  1.00  0.00    -0.718 OA 
ENDBRANCH  12  13
ENDBRANCH   9  12
TORSDOF 2
ENDMDL
MODEL      135
REMARK 921   NORMALIZED FREE ENERGY PREDICTED BY IDOCK:   -3.99 KCAL/MOL
REMARK 922        TOTAL FREE ENERGY PREDICTED BY IDOCK:   -4.76 KCAL/MOL
REMARK 923 INTER-LIGAND FREE ENERGY PREDICTED BY IDOCK:   -4.35 KCAL/MOL
REMARK 924 INTRA-LIGAND FREE ENERGY PREDICTED BY IDOCK:   -0.41 KCAL/MOL
REMARK 927      BINDING AFFINITY PREDICTED BY RF-SCORE:    0.00 PKD
ROOT
HETATM    1  C   UNL     1      -8.279   8.274  66.521  1.00  0.00    -0.106 C  
HETATM    2  C   UNL     1      -7.882   9.402  65.556  1.00  0.00    -0.103 C  
HETATM    3  C   UNL     1      -8.506  10.705  66.056  1.00  0.00    -0.165 A  
HETATM    4  C   UNL     1      -8.201   8.980  64.121  1.00  0.00    -0.166 C  
HETATM    5  C   UNL     1      -7.827  11.479  67.017  1.00  0.00    -0.161 A  
HETATM    6  O   UNL     1      -8.339  10.001  63.238  1.00  0.00    -0.145 OA 
HETATM    7  O   UNL     1      -8.263   7.817  63.742  1.00  0.00    -0.094 OA 
HETATM    8  C   UNL     1      -8.454  12.561  67.652  1.00  0.00    -0.171 A  
HETATM    9  C   UNL     1      -9.769  12.908  67.327  1.00  0.00    -0.220 A  
HETATM   10  C   UNL     1     -10.415  12.190  66.310  1.00  0.00    -0.270 A  
HETATM   11  C   UNL     1      -9.804  11.092  65.699  1.00  0.00    -0.287 A  
ENDROOT
BRANCH   9  12
HETATM   12  C   UNL     1     -10.582  13.865  68.172  1.00  0.00    -0.258 C  
BRANCH  12  13
HETATM   13  C   UNL     1     -11.874  13.359  68.809  1.00  0.00    -0.386 C  
HETATM   14  C   UNL     1     -11.724  12.013  69.526  1.00  0.00    -0.408 C  
HETATM   15  C   UNL     1     -12.645  12.103  70.738  1.00  0.00    -0.305 C  
HETATM   16  C   UNL     1     -12.468  13.525  71.247  1.00  0.00    -0.388 C  
HETATM   17  C   UNL     1     -12.264  14.274  69.958  1.00  0.00    -0.359 C  
HETATM   18  O   UNL     1     -12.363  15.494  69.865  1.00  0.00    -0.357 OA 
ENDBRANCH  12  13
ENDBRANCH   9  12
TORSDOF 2
ENDMDL
MODEL      136
REMARK 921   NORMALIZED FREE ENERGY PREDICTED BY IDOCK:   -3.98 KCAL/MOL
REMARK 922        TOTAL FREE ENERGY PREDICTED BY IDOCK:   -4.76 KCAL/MOL
REMARK 923 INTER-LIGAND FREE ENERGY PREDICTED BY IDOCK:   -4.29 KCAL/MOL
REMARK 924 INTRA-LIGAND FREE ENERGY PREDICTED BY IDOCK:   -0.47 KCAL/MOL
REMARK 927      BINDING AFFINITY PREDICTED BY RF-SCORE:    0.00 PKD
ROOT
HETATM    1  C   UNL     1     -11.313   4.251  73.205  1.00  0.00    -0.301 C  
HETATM    2  C   UNL     1      -9.946   4.620  72.610  1.00  0.00    -0.213 C  
HETATM    3  C   UNL     1     -10.058   6.004  71.969  1.00  0.00    -0.215 A  
HETATM    4  C   UNL     1      -9.453   3.477  71.721  1.00  0.00    -0.142 C  
HETATM    5  C   UNL     1      -9.868   7.154  72.759  1.00  0.00    -0.212 A  
HETATM    6  O   UNL     1      -8.527   3.828  70.793  1.00  0.00    -0.068 OA 
HETATM    7  O   UNL     1      -9.789   2.306  71.853  1.00  0.00    -0.139 OA 
HETATM    8  C   UNL     1     -10.167   8.431  72.264  1.00  0.00    -0.396 A  
HETATM    9  C   UNL     1     -10.645   8.592  70.960  1.00  0.00    -0.267 A  
HETATM   10  C   UNL     1     -10.754   7.455  70.146  1.00  0.00    -0.254 A  
HETATM   11  C   UNL     1     -10.487   6.178  70.648  1.00  0.00    -0.292 A  
ENDROOT
BRANCH   9  12
HETATM   12  C   UNL     1     -11.249   9.893  70.477  1.00  0.00    -0.399 C  
BRANCH  12  13
HETATM   13  C   UNL     1     -10.408  10.800  69.581  1.00  0.00    -0.142 C  
HETATM   14  C   UNL     1      -8.992  10.273  69.324  1.00  0.00    -0.190 C  
HETATM   15  C   UNL     1      -8.673  10.673  67.888  1.00  0.00    -0.127 C  
HETATM   16  C   UNL     1      -9.972  10.442  67.131  1.00  0.00    -0.239 C  
HETATM   17  C   UNL     1     -10.990  10.805  68.177  1.00  0.00    -0.257 C  
HETATM   18  O   UNL     1     -12.167  11.038  67.920  1.00  0.00    -0.438 OA 
ENDBRANCH  12  13
ENDBRANCH   9  12
TORSDOF 2
ENDMDL
MODEL      137
REMARK 921   NORMALIZED FREE ENERGY PREDICTED BY IDOCK:   -3.98 KCAL/MOL
REMARK 922        TOTAL FREE ENERGY PREDICTED BY IDOCK:   -4.76 KCAL/MOL
REMARK 923 INTER-LIGAND FREE ENERGY PREDICTED BY IDOCK:   -4.37 KCAL/MOL
REMARK 924 INTRA-LIGAND FREE ENERGY PREDICTED BY IDOCK:   -0.39 KCAL/MOL
REMARK 927      BINDING AFFINITY PREDICTED BY RF-SCORE:    0.00 PKD
ROOT
HETATM    1  C   UNL     1      -8.325  16.568  66.699  1.00  0.00    -0.297 C  
HETATM    2  C   UNL     1      -9.277  15.967  67.743  1.00  0.00    -0.201 C  
HETATM    3  C   UNL     1      -9.538  14.506  67.373  1.00  0.00    -0.212 A  
HETATM    4  C   UNL     1     -10.497  16.875  67.903  1.00  0.00    -0.344 C  
HETATM    5  C   UNL     1      -8.649  13.507  67.813  1.00  0.00    -0.183 A  
HETATM    6  O   UNL     1     -11.600  16.274  68.416  1.00  0.00    -0.327 OA 
HETATM    7  O   UNL     1     -10.498  18.077  67.666  1.00  0.00    -0.379 OA 
HETATM    8  C   UNL     1      -8.733  12.195  67.324  1.00  0.00    -0.182 A  
HETATM    9  C   UNL     1      -9.719  11.846  66.398  1.00  0.00    -0.238 A  
HETATM   10  C   UNL     1     -10.657  12.820  66.024  1.00  0.00    -0.289 A  
HETATM   11  C   UNL     1     -10.555  14.136  66.485  1.00  0.00    -0.282 A  
ENDROOT
BRANCH   9  12
HETATM   12  C   UNL     1      -9.678  10.543  65.629  1.00  0.00    -0.289 C  
BRANCH  12  13
HETATM   13  C   UNL     1      -8.576  10.343  64.591  1.00  0.00    -0.192 C  
HETATM   14  C   UNL     1      -7.789   9.040  64.769  1.00  0.00    -0.122 C  
HETATM   15  C   UNL     1      -7.466   8.574  63.353  1.00  0.00    -0.112 C  
HETATM   16  C   UNL     1      -8.728   8.871  62.558  1.00  0.00    -0.162 C  
HETATM   17  C   UNL     1      -9.202  10.135  63.222  1.00  0.00    -0.290 C  
HETATM   18  O   UNL     1     -10.034  10.887  62.723  1.00  0.00    -0.268 OA 
ENDBRANCH  12  13
ENDBRANCH   9  12
TORSDOF 2
ENDMDL
MODEL      138
REMARK 921   NORMALIZED FREE ENERGY PREDICTED BY IDOCK:   -3.98 KCAL/MOL
REMARK 922        TOTAL FREE ENERGY PREDICTED BY IDOCK:   -4.75 KCAL/MOL
REMARK 923 INTER-LIGAND FREE ENERGY PREDICTED BY IDOCK:   -4.48 KCAL/MOL
REMARK 924 INTRA-LIGAND FREE ENERGY PREDICTED BY IDOCK:   -0.28 KCAL/MOL
REMARK 927      BINDING AFFINITY PREDICTED BY RF-SCORE:    0.00 PKD
ROOT
HETATM    1  C   UNL     1      -9.393  13.832  66.914  1.00  0.00    -0.267 C  
HETATM    2  C   UNL     1     -10.672  12.987  66.822  1.00  0.00    -0.273 C  
HETATM    3  C   UNL     1     -10.272  11.535  66.558  1.00  0.00    -0.253 A  
HETATM    4  C   UNL     1     -11.641  13.636  65.832  1.00  0.00    -0.328 C  
HETATM    5  C   UNL     1      -9.960  10.691  67.640  1.00  0.00    -0.197 A  
HETATM    6  O   UNL     1     -12.575  12.801  65.309  1.00  0.00    -0.575 OA 
HETATM    7  O   UNL     1     -11.652  14.830  65.561  1.00  0.00    -0.342 OA 
HETATM    8  C   UNL     1      -9.390   9.426  67.433  1.00  0.00    -0.151 A  
HETATM    9  C   UNL     1      -9.136   8.967  66.137  1.00  0.00    -0.246 A  
HETATM   10  C   UNL     1      -9.525   9.773  65.057  1.00  0.00    -0.337 A  
HETATM   11  C   UNL     1     -10.063  11.047  65.262  1.00  0.00    -0.332 A  
ENDROOT
BRANCH   9  12
HETATM   12  C   UNL     1      -8.271   7.755  65.867  1.00  0.00    -0.128 C  
BRANCH  12  13
HETATM   13  C   UNL     1      -8.696   6.411  66.452  1.00  0.00    -0.140 C  
HETATM   14  C   UNL     1     -10.212   6.254  66.604  1.00  0.00    -0.226 C  
HETATM   15  C   UNL     1     -10.493   4.786  66.303  1.00  0.00    -0.311 C  
HETATM   16  C   UNL     1      -9.572   4.453  65.140  1.00  0.00    -0.183 C  
HETATM   17  C   UNL     1      -8.373   5.303  65.462  1.00  0.00    -0.130 C  
HETATM   18  O   UNL     1      -7.272   5.138  64.947  1.00  0.00    -0.061 OA 
ENDBRANCH  12  13
ENDBRANCH   9  12
TORSDOF 2
ENDMDL
MODEL      139
REMARK 921   NORMALIZED FREE ENERGY PREDICTED BY IDOCK:   -3.96 KCAL/MOL
REMARK 922        TOTAL FREE ENERGY PREDICTED BY IDOCK:   -4.73 KCAL/MOL
REMARK 923 INTER-LIGAND FREE ENERGY PREDICTED BY IDOCK:   -4.39 KCAL/MOL
REMARK 924 INTRA-LIGAND FREE ENERGY PREDICTED BY IDOCK:   -0.34 KCAL/MOL
REMARK 927      BINDING AFFINITY PREDICTED BY RF-SCORE:    0.00 PKD
ROOT
HETATM    1  C   UNL     1      -7.587   5.062  66.213  1.00  0.00    -0.087 C  
HETATM    2  C   UNL     1      -8.962   5.457  65.655  1.00  0.00    -0.160 C  
HETATM    3  C   UNL     1      -9.564   6.526  66.569  1.00  0.00    -0.184 A  
HETATM    4  C   UNL     1      -9.794   4.197  65.412  1.00  0.00    -0.208 C  
HETATM    5  C   UNL     1      -9.246   7.881  66.358  1.00  0.00    -0.241 A  
HETATM    6  O   UNL     1     -11.136   4.392  65.367  1.00  0.00    -0.160 OA 
HETATM    7  O   UNL     1      -9.319   3.089  65.196  1.00  0.00    -0.148 OA 
HETATM    8  C   UNL     1      -9.604   8.863  67.293  1.00  0.00    -0.212 A  
HETATM    9  C   UNL     1     -10.306   8.517  68.451  1.00  0.00    -0.241 A  
HETATM   10  C   UNL     1     -10.696   7.181  68.619  1.00  0.00    -0.198 A  
HETATM   11  C   UNL     1     -10.313   6.195  67.704  1.00  0.00    -0.250 A  
ENDROOT
BRANCH   9  12
HETATM   12  C   UNL     1     -10.462   9.472  69.615  1.00  0.00    -0.239 C  
BRANCH  12  13
HETATM   13  C   UNL     1     -11.842  10.063  69.893  1.00  0.00    -0.141 C  
HETATM   14  C   UNL     1     -12.147  10.248  71.383  1.00  0.00    -0.457 C  
HETATM   15  C   UNL     1     -12.972  11.528  71.465  1.00  0.00    -0.485 C  
HETATM   16  C   UNL     1     -12.320  12.466  70.461  1.00  0.00    -0.346 C  
HETATM   17  C   UNL     1     -11.889  11.498  69.393  1.00  0.00    -0.350 C  
HETATM   18  O   UNL     1     -11.572  11.843  68.259  1.00  0.00    -0.284 OA 
ENDBRANCH  12  13
ENDBRANCH   9  12
TORSDOF 2
ENDMDL
MODEL      140
REMARK 921   NORMALIZED FREE ENERGY PREDICTED BY IDOCK:   -3.95 KCAL/MOL
REMARK 922        TOTAL FREE ENERGY PREDICTED BY IDOCK:   -4.72 KCAL/MOL
REMARK 923 INTER-LIGAND FREE ENERGY PREDICTED BY IDOCK:   -4.70 KCAL/MOL
REMARK 924 INTRA-LIGAND FREE ENERGY PREDICTED BY IDOCK:   -0.02 KCAL/MOL
REMARK 927      BINDING AFFINITY PREDICTED BY RF-SCORE:    0.00 PKD
ROOT
HETATM    1  C   UNL     1      -8.997   9.376  68.290  1.00  0.00    -0.128 C  
HETATM    2  C   UNL     1     -10.505   9.210  68.534  1.00  0.00    -0.238 C  
HETATM    3  C   UNL     1     -11.101  10.589  68.822  1.00  0.00    -0.315 A  
HETATM    4  C   UNL     1     -10.734   8.118  69.580  1.00  0.00    -0.175 C  
HETATM    5  C   UNL     1     -11.507  11.409  67.752  1.00  0.00    -0.353 A  
HETATM    6  O   UNL     1     -11.930   8.175  70.220  1.00  0.00     0.065 OA 
HETATM    7  O   UNL     1      -9.954   7.200  69.800  1.00  0.00    -0.175 OA 
HETATM    8  C   UNL     1     -11.859  12.750  67.959  1.00  0.00    -0.386 A  
HETATM    9  C   UNL     1     -11.832  13.299  69.245  1.00  0.00    -0.383 A  
HETATM   10  C   UNL     1     -11.510  12.459  70.321  1.00  0.00     0.115 A  
HETATM   11  C   UNL     1     -11.128  11.131  70.112  1.00  0.00    -0.105 A  
ENDROOT
BRANCH   9  12
HETATM   12  C   UNL     1     -11.919  14.791  69.487  1.00  0.00    -0.351 C  
BRANCH  12  13
HETATM   13  C   UNL     1     -12.924  15.305  70.515  1.00  0.00    -0.380 C  
HETATM   14  C   UNL     1     -13.703  14.195  71.228  1.00  0.00    -0.278 C  
HETATM   15  C   UNL     1     -13.894  14.696  72.655  1.00  0.00    -0.490 C  
HETATM   16  C   UNL     1     -12.573  15.366  73.004  1.00  0.00    -0.545 C  
HETATM   17  C   UNL     1     -12.179  15.947  71.673  1.00  0.00    -0.479 C  
HETATM   18  O   UNL     1     -11.321  16.815  71.545  1.00  0.00    -0.097 OA 
ENDBRANCH  12  13
ENDBRANCH   9  12
TORSDOF 2
ENDMDL
MODEL      141
REMARK 921   NORMALIZED FREE ENERGY PREDICTED BY IDOCK:   -3.94 KCAL/MOL
REMARK 922        TOTAL FREE ENERGY PREDICTED BY IDOCK:   -4.71 KCAL/MOL
REMARK 923 INTER-LIGAND FREE ENERGY PREDICTED BY IDOCK:   -4.21 KCAL/MOL
REMARK 924 INTRA-LIGAND FREE ENERGY PREDICTED BY IDOCK:   -0.51 KCAL/MOL
REMARK 927      BINDING AFFINITY PREDICTED BY RF-SCORE:    0.00 PKD
ROOT
HETATM    1  C   UNL     1     -11.925  12.579  69.837  1.00  0.00    -0.371 C  
HETATM    2  C   UNL     1     -11.398  12.699  68.399  1.00  0.00    -0.329 C  
HETATM    3  C   UNL     1     -10.584  11.444  68.077  1.00  0.00    -0.224 A  
HETATM    4  C   UNL     1     -10.698  14.048  68.224  1.00  0.00    -0.254 C  
HETATM    5  C   UNL     1     -11.239  10.297  67.592  1.00  0.00    -0.232 A  
HETATM    6  O   UNL     1      -9.810  14.108  67.200  1.00  0.00    -0.243 OA 
HETATM    7  O   UNL     1     -10.947  15.045  68.892  1.00  0.00    -0.232 OA 
HETATM    8  C   UNL     1     -10.568   9.070  67.486  1.00  0.00    -0.306 A  
HETATM    9  C   UNL     1      -9.221   8.965  67.844  1.00  0.00    -0.148 A  
HETATM   10  C   UNL     1      -8.547  10.127  68.247  1.00  0.00    -0.116 A  
HETATM   11  C   UNL     1      -9.222  11.344  68.384  1.00  0.00    -0.183 A  
ENDROOT
BRANCH   9  12
HETATM   12  C   UNL     1      -8.536   7.627  68.024  1.00  0.00    -0.123 C  
BRANCH  12  13
HETATM   13  C   UNL     1      -8.978   6.731  69.178  1.00  0.00    -0.132 C  
HETATM   14  C   UNL     1      -9.338   7.498  70.454  1.00  0.00    -0.161 C  
HETATM   15  C   UNL     1     -10.499   6.724  71.070  1.00  0.00    -0.237 C  
HETATM   16  C   UNL     1     -11.356   6.315  69.882  1.00  0.00    -0.504 C  
HETATM   17  C   UNL     1     -10.306   6.077  68.831  1.00  0.00    -0.218 C  
HETATM   18  O   UNL     1     -10.520   5.459  67.793  1.00  0.00    -0.191 OA 
ENDBRANCH  12  13
ENDBRANCH   9  12
TORSDOF 2
ENDMDL
MODEL      142
REMARK 921   NORMALIZED FREE ENERGY PREDICTED BY IDOCK:   -3.94 KCAL/MOL
REMARK 922        TOTAL FREE ENERGY PREDICTED BY IDOCK:   -4.71 KCAL/MOL
REMARK 923 INTER-LIGAND FREE ENERGY PREDICTED BY IDOCK:   -4.41 KCAL/MOL
REMARK 924 INTRA-LIGAND FREE ENERGY PREDICTED BY IDOCK:   -0.30 KCAL/MOL
REMARK 927      BINDING AFFINITY PREDICTED BY RF-SCORE:    0.00 PKD
ROOT
HETATM    1  C   UNL     1      -8.060   6.710  66.296  1.00  0.00    -0.115 C  
HETATM    2  C   UNL     1      -9.573   6.879  66.504  1.00  0.00    -0.197 C  
HETATM    3  C   UNL     1      -9.849   8.339  66.867  1.00  0.00    -0.316 A  
HETATM    4  C   UNL     1     -10.076   5.811  67.477  1.00  0.00    -0.171 C  
HETATM    5  C   UNL     1     -10.026   9.289  65.843  1.00  0.00    -0.289 A  
HETATM    6  O   UNL     1     -11.245   6.104  68.100  1.00  0.00    -0.314 OA 
HETATM    7  O   UNL     1      -9.531   4.728  67.653  1.00  0.00    -0.132 OA 
HETATM    8  C   UNL     1     -10.070  10.661  66.127  1.00  0.00    -0.306 A  
HETATM    9  C   UNL     1      -9.958  11.116  67.444  1.00  0.00    -0.204 A  
HETATM   10  C   UNL     1      -9.868  10.166  68.472  1.00  0.00    -0.165 A  
HETATM   11  C   UNL     1      -9.791   8.799  68.188  1.00  0.00    -0.194 A  
ENDROOT
BRANCH   9  12
HETATM   12  C   UNL     1      -9.712  12.573  67.776  1.00  0.00    -0.202 C  
BRANCH  12  13
HETATM   13  C   UNL     1     -10.879  13.551  67.674  1.00  0.00    -0.273 C  
HETATM   14  C   UNL     1     -11.487  13.931  69.029  1.00  0.00    -0.341 C  
HETATM   15  C   UNL     1     -11.890  15.395  68.888  1.00  0.00    -0.350 C  
HETATM   16  C   UNL     1     -10.757  16.027  68.095  1.00  0.00    -0.311 C  
HETATM   17  C   UNL     1     -10.372  14.896  67.181  1.00  0.00    -0.260 C  
HETATM   18  O   UNL     1      -9.688  15.047  66.173  1.00  0.00    -0.268 OA 
ENDBRANCH  12  13
ENDBRANCH   9  12
TORSDOF 2
ENDMDL
MODEL      143
REMARK 921   NORMALIZED FREE ENERGY PREDICTED BY IDOCK:   -3.90 KCAL/MOL
REMARK 922        TOTAL FREE ENERGY PREDICTED BY IDOCK:   -4.67 KCAL/MOL
REMARK 923 INTER-LIGAND FREE ENERGY PREDICTED BY IDOCK:   -4.29 KCAL/MOL
REMARK 924 INTRA-LIGAND FREE ENERGY PREDICTED BY IDOCK:   -0.38 KCAL/MOL
REMARK 927      BINDING AFFINITY PREDICTED BY RF-SCORE:    0.00 PKD
ROOT
HETATM    1  C   UNL     1      -7.437   5.978  66.194  1.00  0.00    -0.085 C  
HETATM    2  C   UNL     1      -8.966   6.085  66.093  1.00  0.00    -0.160 C  
HETATM    3  C   UNL     1      -9.506   6.564  67.441  1.00  0.00    -0.135 A  
HETATM    4  C   UNL     1      -9.533   4.777  65.538  1.00  0.00    -0.163 C  
HETATM    5  C   UNL     1      -9.567   7.943  67.716  1.00  0.00    -0.174 A  
HETATM    6  O   UNL     1     -10.841   4.552  65.818  1.00  0.00    -0.247 OA 
HETATM    7  O   UNL     1      -8.905   4.000  64.829  1.00  0.00    -0.121 OA 
HETATM    8  C   UNL     1      -9.855   8.414  69.005  1.00  0.00    -0.184 A  
HETATM    9  C   UNL     1     -10.106   7.516  70.047  1.00  0.00    -0.199 A  
HETATM   10  C   UNL     1     -10.128   6.145  69.755  1.00  0.00    -0.229 A  
HETATM   11  C   UNL     1      -9.811   5.673  68.477  1.00  0.00    -0.185 A  
ENDROOT
BRANCH   9  12
HETATM   12  C   UNL     1     -10.134   7.951  71.497  1.00  0.00    -0.221 C  
BRANCH  12  13
HETATM   13  C   UNL     1     -11.479   8.315  72.123  1.00  0.00    -0.427 C  
HETATM   14  C   UNL     1     -12.251   9.388  71.349  1.00  0.00    -0.438 C  
HETATM   15  C   UNL     1     -13.719   8.998  71.486  1.00  0.00    -0.388 C  
HETATM   16  C   UNL     1     -13.725   7.483  71.357  1.00  0.00    -0.414 C  
HETATM   17  C   UNL     1     -12.422   7.127  72.021  1.00  0.00    -0.242 C  
HETATM   18  O   UNL     1     -12.146   5.993  72.398  1.00  0.00    -0.280 OA 
ENDBRANCH  12  13
ENDBRANCH   9  12
TORSDOF 2
ENDMDL
MODEL      144
REMARK 921   NORMALIZED FREE ENERGY PREDICTED BY IDOCK:   -3.90 KCAL/MOL
REMARK 922        TOTAL FREE ENERGY PREDICTED BY IDOCK:   -4.66 KCAL/MOL
REMARK 923 INTER-LIGAND FREE ENERGY PREDICTED BY IDOCK:   -4.51 KCAL/MOL
REMARK 924 INTRA-LIGAND FREE ENERGY PREDICTED BY IDOCK:   -0.15 KCAL/MOL
REMARK 927      BINDING AFFINITY PREDICTED BY RF-SCORE:    0.00 PKD
ROOT
HETATM    1  C   UNL     1     -11.673   7.631  72.584  1.00  0.00    -0.323 C  
HETATM    2  C   UNL     1     -10.310   7.180  72.038  1.00  0.00    -0.214 C  
HETATM    3  C   UNL     1     -10.079   7.867  70.691  1.00  0.00    -0.197 A  
HETATM    4  C   UNL     1     -10.231   5.652  72.064  1.00  0.00    -0.205 C  
HETATM    5  C   UNL     1      -9.510   9.154  70.655  1.00  0.00    -0.316 A  
HETATM    6  O   UNL     1      -9.322   5.107  71.217  1.00  0.00    -0.142 OA 
HETATM    7  O   UNL     1     -10.871   4.943  72.831  1.00  0.00    -0.218 OA 
HETATM    8  C   UNL     1      -9.476   9.899  69.468  1.00  0.00    -0.239 A  
HETATM    9  C   UNL     1      -9.994   9.368  68.283  1.00  0.00    -0.197 A  
HETATM   10  C   UNL     1     -10.484   8.055  68.300  1.00  0.00    -0.210 A  
HETATM   11  C   UNL     1     -10.548   7.322  69.490  1.00  0.00    -0.244 A  
ENDROOT
BRANCH   9  12
HETATM   12  C   UNL     1     -10.244  10.222  67.058  1.00  0.00    -0.282 C  
BRANCH  12  13
HETATM   13  C   UNL     1     -11.032  11.520  67.223  1.00  0.00    -0.323 C  
HETATM   14  C   UNL     1     -11.683  11.678  68.602  1.00  0.00    -0.386 C  
HETATM   15  C   UNL     1     -11.597  13.168  68.914  1.00  0.00    -0.354 C  
HETATM   16  C   UNL     1     -10.224  13.584  68.410  1.00  0.00    -0.245 C  
HETATM   17  C   UNL     1     -10.074  12.700  67.202  1.00  0.00    -0.223 C  
HETATM   18  O   UNL     1      -9.241  12.895  66.323  1.00  0.00    -0.190 OA 
ENDBRANCH  12  13
ENDBRANCH   9  12
TORSDOF 2
ENDMDL
MODEL      145
REMARK 921   NORMALIZED FREE ENERGY PREDICTED BY IDOCK:   -3.84 KCAL/MOL
REMARK 922        TOTAL FREE ENERGY PREDICTED BY IDOCK:   -4.60 KCAL/MOL
REMARK 923 INTER-LIGAND FREE ENERGY PREDICTED BY IDOCK:   -4.19 KCAL/MOL
REMARK 924 INTRA-LIGAND FREE ENERGY PREDICTED BY IDOCK:   -0.41 KCAL/MOL
REMARK 927      BINDING AFFINITY PREDICTED BY RF-SCORE:    0.00 PKD
ROOT
HETATM    1  C   UNL     1     -10.710   6.061  70.312  1.00  0.00    -0.367 C  
HETATM    2  C   UNL     1      -9.458   6.876  69.955  1.00  0.00    -0.158 C  
HETATM    3  C   UNL     1      -9.907   8.207  69.350  1.00  0.00    -0.182 A  
HETATM    4  C   UNL     1      -8.509   6.014  69.121  1.00  0.00    -0.114 C  
HETATM    5  C   UNL     1     -10.202   9.293  70.196  1.00  0.00    -0.251 A  
HETATM    6  O   UNL     1      -7.618   6.704  68.366  1.00  0.00    -0.099 OA 
HETATM    7  O   UNL     1      -8.476   4.790  69.160  1.00  0.00    -0.080 OA 
HETATM    8  C   UNL     1     -10.813  10.453  69.701  1.00  0.00    -0.320 A  
HETATM    9  C   UNL     1     -11.127  10.565  68.343  1.00  0.00    -0.335 A  
HETATM   10  C   UNL     1     -10.756   9.518  67.486  1.00  0.00    -0.311 A  
HETATM   11  C   UNL     1     -10.176   8.347  67.983  1.00  0.00    -0.263 A  
ENDROOT
BRANCH   9  12
HETATM   12  C   UNL     1     -12.034  11.654  67.811  1.00  0.00    -0.119 C  
BRANCH  12  13
HETATM   13  C   UNL     1     -11.423  13.013  67.479  1.00  0.00    -0.375 C  
HETATM   14  C   UNL     1     -10.695  13.669  68.657  1.00  0.00    -0.272 C  
HETATM   15  C   UNL     1      -9.505  14.393  68.037  1.00  0.00    -0.209 C  
HETATM   16  C   UNL     1      -9.001  13.445  66.960  1.00  0.00    -0.228 C  
HETATM   17  C   UNL     1     -10.289  12.830  66.485  1.00  0.00    -0.251 C  
HETATM   18  O   UNL     1     -10.392  12.214  65.428  1.00  0.00    -0.253 OA 
ENDBRANCH  12  13
ENDBRANCH   9  12
TORSDOF 2
ENDMDL
MODEL      146
REMARK 921   NORMALIZED FREE ENERGY PREDICTED BY IDOCK:   -3.83 KCAL/MOL
REMARK 922        TOTAL FREE ENERGY PREDICTED BY IDOCK:   -4.59 KCAL/MOL
REMARK 923 INTER-LIGAND FREE ENERGY PREDICTED BY IDOCK:   -4.13 KCAL/MOL
REMARK 924 INTRA-LIGAND FREE ENERGY PREDICTED BY IDOCK:   -0.46 KCAL/MOL
REMARK 927      BINDING AFFINITY PREDICTED BY RF-SCORE:    0.00 PKD
ROOT
HETATM    1  C   UNL     1      -9.956   4.448  65.055  1.00  0.00    -0.165 C  
HETATM    2  C   UNL     1     -10.028   4.582  66.584  1.00  0.00    -0.253 C  
HETATM    3  C   UNL     1      -9.787   6.047  66.950  1.00  0.00    -0.190 A  
HETATM    4  C   UNL     1      -9.112   3.541  67.230  1.00  0.00    -0.170 C  
HETATM    5  C   UNL     1     -10.868   6.949  66.961  1.00  0.00    -0.436 A  
HETATM    6  O   UNL     1      -8.721   3.826  68.498  1.00  0.00    -0.091 OA 
HETATM    7  O   UNL     1      -8.793   2.482  66.703  1.00  0.00    -0.119 OA 
HETATM    8  C   UNL     1     -10.659   8.330  67.083  1.00  0.00    -0.340 A  
HETATM    9  C   UNL     1      -9.366   8.842  67.219  1.00  0.00    -0.181 A  
HETATM   10  C   UNL     1      -8.296   7.938  67.294  1.00  0.00    -0.122 A  
HETATM   11  C   UNL     1      -8.499   6.563  67.139  1.00  0.00    -0.112 A  
ENDROOT
BRANCH   9  12
HETATM   12  C   UNL     1      -9.062  10.317  67.066  1.00  0.00    -0.154 C  
BRANCH  12  13
HETATM   13  C   UNL     1      -8.951  10.896  65.657  1.00  0.00    -0.209 C  
HETATM   14  C   UNL     1      -8.995   9.839  64.548  1.00  0.00    -0.278 C  
HETATM   15  C   UNL     1      -9.750  10.499  63.399  1.00  0.00    -0.368 C  
HETATM   16  C   UNL     1     -10.868  11.278  64.075  1.00  0.00    -0.414 C  
HETATM   17  C   UNL     1     -10.194  11.714  65.347  1.00  0.00    -0.263 C  
HETATM   18  O   UNL     1     -10.630  12.606  66.069  1.00  0.00    -0.263 OA 
ENDBRANCH  12  13
ENDBRANCH   9  12
TORSDOF 2
ENDMDL
MODEL      147
REMARK 921   NORMALIZED FREE ENERGY PREDICTED BY IDOCK:   -3.82 KCAL/MOL
REMARK 922        TOTAL FREE ENERGY PREDICTED BY IDOCK:   -4.58 KCAL/MOL
REMARK 923 INTER-LIGAND FREE ENERGY PREDICTED BY IDOCK:   -4.24 KCAL/MOL
REMARK 924 INTRA-LIGAND FREE ENERGY PREDICTED BY IDOCK:   -0.34 KCAL/MOL
REMARK 927      BINDING AFFINITY PREDICTED BY RF-SCORE:    0.00 PKD
ROOT
HETATM    1  C   UNL     1      -8.066   5.551  63.859  1.00  0.00    -0.122 C  
HETATM    2  C   UNL     1      -7.342   6.390  64.923  1.00  0.00    -0.079 C  
HETATM    3  C   UNL     1      -8.041   7.747  65.023  1.00  0.00    -0.139 A  
HETATM    4  C   UNL     1      -5.841   6.399  64.630  1.00  0.00    -0.023 C  
HETATM    5  C   UNL     1      -9.157   7.894  65.869  1.00  0.00    -0.139 A  
HETATM    6  O   UNL     1      -5.153   7.432  65.178  1.00  0.00    -0.027 OA 
HETATM    7  O   UNL     1      -5.254   5.518  64.013  1.00  0.00    -0.009 OA 
HETATM    8  C   UNL     1      -9.949   9.050  65.831  1.00  0.00    -0.169 A  
HETATM    9  C   UNL     1      -9.632  10.097  64.961  1.00  0.00    -0.362 A  
HETATM   10  C   UNL     1      -8.473   9.987  64.180  1.00  0.00    -0.179 A  
HETATM   11  C   UNL     1      -7.700   8.821  64.193  1.00  0.00    -0.130 A  
ENDROOT
BRANCH   9  12
HETATM   12  C   UNL     1     -10.598  11.227  64.673  1.00  0.00    -0.392 C  
BRANCH  12  13
HETATM   13  C   UNL     1     -10.471  12.518  65.478  1.00  0.00    -0.305 C  
HETATM   14  C   UNL     1     -10.476  13.786  64.618  1.00  0.00    -0.433 C  
HETATM   15  C   UNL     1     -11.220  14.827  65.447  1.00  0.00    -0.347 C  
HETATM   16  C   UNL     1     -12.364  14.056  66.088  1.00  0.00    -0.491 C  
HETATM   17  C   UNL     1     -11.722  12.715  66.318  1.00  0.00    -0.402 C  
HETATM   18  O   UNL     1     -12.187  11.866  67.072  1.00  0.00    -0.492 OA 
ENDBRANCH  12  13
ENDBRANCH   9  12
TORSDOF 2
ENDMDL
MODEL      148
REMARK 921   NORMALIZED FREE ENERGY PREDICTED BY IDOCK:   -3.79 KCAL/MOL
REMARK 922        TOTAL FREE ENERGY PREDICTED BY IDOCK:   -4.55 KCAL/MOL
REMARK 923 INTER-LIGAND FREE ENERGY PREDICTED BY IDOCK:   -4.21 KCAL/MOL
REMARK 924 INTRA-LIGAND FREE ENERGY PREDICTED BY IDOCK:   -0.34 KCAL/MOL
REMARK 927      BINDING AFFINITY PREDICTED BY RF-SCORE:    0.00 PKD
ROOT
HETATM    1  C   UNL     1     -10.138  11.111  63.733  1.00  0.00    -0.416 C  
HETATM    2  C   UNL     1      -9.536  11.852  64.936  1.00  0.00    -0.002 C  
HETATM    3  C   UNL     1      -9.492  10.887  66.122  1.00  0.00    -0.230 A  
HETATM    4  C   UNL     1     -10.273  13.177  65.140  1.00  0.00    -0.284 C  
HETATM    5  C   UNL     1      -8.390  10.026  66.279  1.00  0.00    -0.127 A  
HETATM    6  O   UNL     1     -10.177  13.703  66.387  1.00  0.00    -0.279 OA 
HETATM    7  O   UNL     1     -10.855  13.785  64.250  1.00  0.00    -0.368 OA 
HETATM    8  C   UNL     1      -8.407   8.990  67.223  1.00  0.00    -0.111 A  
HETATM    9  C   UNL     1      -9.521   8.801  68.047  1.00  0.00    -0.158 A  
HETATM   10  C   UNL     1     -10.583   9.711  67.950  1.00  0.00    -0.308 A  
HETATM   11  C   UNL     1     -10.581  10.725  66.987  1.00  0.00    -0.312 A  
ENDROOT
BRANCH   9  12
HETATM   12  C   UNL     1      -9.712   7.544  68.869  1.00  0.00    -0.151 C  
BRANCH  12  13
HETATM   13  C   UNL     1     -10.523   7.633  70.160  1.00  0.00    -0.227 C  
HETATM   14  C   UNL     1     -11.194   6.316  70.561  1.00  0.00    -0.420 C  
HETATM   15  C   UNL     1     -11.136   6.287  72.084  1.00  0.00    -0.312 C  
HETATM   16  C   UNL     1      -9.763   6.846  72.424  1.00  0.00    -0.168 C  
HETATM   17  C   UNL     1      -9.584   7.866  71.332  1.00  0.00    -0.153 C  
HETATM   18  O   UNL     1      -8.742   8.757  71.375  1.00  0.00    -0.185 OA 
ENDBRANCH  12  13
ENDBRANCH   9  12
TORSDOF 2
ENDMDL
MODEL      149
REMARK 921   NORMALIZED FREE ENERGY PREDICTED BY IDOCK:   -3.79 KCAL/MOL
REMARK 922        TOTAL FREE ENERGY PREDICTED BY IDOCK:   -4.54 KCAL/MOL
REMARK 923 INTER-LIGAND FREE ENERGY PREDICTED BY IDOCK:   -4.12 KCAL/MOL
REMARK 924 INTRA-LIGAND FREE ENERGY PREDICTED BY IDOCK:   -0.42 KCAL/MOL
REMARK 927      BINDING AFFINITY PREDICTED BY RF-SCORE:    0.00 PKD
ROOT
HETATM    1  C   UNL     1      -7.926   4.205  65.796  1.00  0.00    -0.094 C  
HETATM    2  C   UNL     1      -7.701   5.694  66.100  1.00  0.00    -0.095 C  
HETATM    3  C   UNL     1      -8.643   6.101  67.235  1.00  0.00    -0.103 A  
HETATM    4  C   UNL     1      -7.785   6.497  64.801  1.00  0.00    -0.106 C  
HETATM    5  C   UNL     1      -8.244   5.912  68.572  1.00  0.00    -0.109 A  
HETATM    6  O   UNL     1      -8.065   7.816  64.957  1.00  0.00    -0.131 OA 
HETATM    7  O   UNL     1      -7.552   6.037  63.690  1.00  0.00    -0.067 OA 
HETATM    8  C   UNL     1      -9.151   6.074  69.629  1.00  0.00    -0.139 A  
HETATM    9  C   UNL     1     -10.474   6.447  69.376  1.00  0.00    -0.277 A  
HETATM   10  C   UNL     1     -10.849   6.717  68.052  1.00  0.00    -0.306 A  
HETATM   11  C   UNL     1      -9.955   6.526  66.994  1.00  0.00    -0.216 A  
ENDROOT
BRANCH   9  12
HETATM   12  C   UNL     1     -11.554   6.355  70.434  1.00  0.00    -0.440 C  
BRANCH  12  13
HETATM   13  C   UNL     1     -11.726   7.522  71.403  1.00  0.00    -0.310 C  
HETATM   14  C   UNL     1     -10.999   8.799  70.969  1.00  0.00    -0.328 C  
HETATM   15  C   UNL     1     -11.906   9.943  71.409  1.00  0.00    -0.476 C  
HETATM   16  C   UNL     1     -13.313   9.450  71.109  1.00  0.00    -0.279 C  
HETATM   17  C   UNL     1     -13.175   7.979  71.393  1.00  0.00    -0.227 C  
HETATM   18  O   UNL     1     -14.135   7.232  71.557  1.00  0.00    -0.419 OA 
ENDBRANCH  12  13
ENDBRANCH   9  12
TORSDOF 2
ENDMDL
MODEL      150
REMARK 921   NORMALIZED FREE ENERGY PREDICTED BY IDOCK:   -3.79 KCAL/MOL
REMARK 922        TOTAL FREE ENERGY PREDICTED BY IDOCK:   -4.54 KCAL/MOL
REMARK 923 INTER-LIGAND FREE ENERGY PREDICTED BY IDOCK:   -4.20 KCAL/MOL
REMARK 924 INTRA-LIGAND FREE ENERGY PREDICTED BY IDOCK:   -0.34 KCAL/MOL
REMARK 927      BINDING AFFINITY PREDICTED BY RF-SCORE:    0.00 PKD
ROOT
HETATM    1  C   UNL     1      -7.309   6.440  72.929  1.00  0.00    -0.094 C  
HETATM    2  C   UNL     1      -7.425   7.916  73.339  1.00  0.00    -0.175 C  
HETATM    3  C   UNL     1      -7.967   8.706  72.147  1.00  0.00    -0.098 A  
HETATM    4  C   UNL     1      -6.098   8.382  73.941  1.00  0.00    -0.119 C  
HETATM    5  C   UNL     1      -9.358   8.798  71.948  1.00  0.00    -0.343 A  
HETATM    6  O   UNL     1      -5.896   9.724  73.919  1.00  0.00    -0.320 OA 
HETATM    7  O   UNL     1      -5.285   7.639  74.477  1.00  0.00    -0.064 OA 
HETATM    8  C   UNL     1      -9.887   9.329  70.763  1.00  0.00    -0.350 A  
HETATM    9  C   UNL     1      -9.039   9.798  69.756  1.00  0.00    -0.246 A  
HETATM   10  C   UNL     1      -7.656   9.784  69.990  1.00  0.00    -0.169 A  
HETATM   11  C   UNL     1      -7.125   9.226  71.157  1.00  0.00    -0.058 A  
ENDROOT
BRANCH   9  12
HETATM   12  C   UNL     1      -9.537  10.108  68.361  1.00  0.00    -0.150 C  
BRANCH  12  13
HETATM   13  C   UNL     1      -9.913  11.549  68.023  1.00  0.00    -0.197 C  
HETATM   14  C   UNL     1      -9.298  12.058  66.715  1.00  0.00    -0.206 C  
HETATM   15  C   UNL     1     -10.357  12.971  66.106  1.00  0.00    -0.285 C  
HETATM   16  C   UNL     1     -11.673  12.258  66.374  1.00  0.00    -0.431 C  
HETATM   17  C   UNL     1     -11.398  11.626  67.712  1.00  0.00    -0.288 C  
HETATM   18  O   UNL     1     -12.280  11.187  68.444  1.00  0.00    -0.610 OA 
ENDBRANCH  12  13
ENDBRANCH   9  12
TORSDOF 2
ENDMDL
MODEL      151
REMARK 921   NORMALIZED FREE ENERGY PREDICTED BY IDOCK:   -3.77 KCAL/MOL
REMARK 922        TOTAL FREE ENERGY PREDICTED BY IDOCK:   -4.52 KCAL/MOL
REMARK 923 INTER-LIGAND FREE ENERGY PREDICTED BY IDOCK:   -4.10 KCAL/MOL
REMARK 924 INTRA-LIGAND FREE ENERGY PREDICTED BY IDOCK:   -0.42 KCAL/MOL
REMARK 927      BINDING AFFINITY PREDICTED BY RF-SCORE:    0.00 PKD
ROOT
HETATM    1  C   UNL     1     -10.429  11.641  64.582  1.00  0.00    -0.354 C  
HETATM    2  C   UNL     1     -10.375  12.246  65.993  1.00  0.00    -0.273 C  
HETATM    3  C   UNL     1     -10.106  11.118  66.991  1.00  0.00    -0.235 A  
HETATM    4  C   UNL     1     -11.621  13.103  66.228  1.00  0.00    -0.356 C  
HETATM    5  C   UNL     1      -8.780  10.729  67.259  1.00  0.00    -0.130 A  
HETATM    6  O   UNL     1     -11.938  13.313  67.530  1.00  0.00    -0.356 OA 
HETATM    7  O   UNL     1     -12.267  13.637  65.335  1.00  0.00    -0.390 OA 
HETATM    8  C   UNL     1      -8.500   9.571  67.999  1.00  0.00    -0.119 A  
HETATM    9  C   UNL     1      -9.539   8.785  68.505  1.00  0.00    -0.158 A  
HETATM   10  C   UNL     1     -10.858   9.218  68.310  1.00  0.00    -0.132 A  
HETATM   11  C   UNL     1     -11.140  10.355  67.545  1.00  0.00    -0.336 A  
ENDROOT
BRANCH   9  12
HETATM   12  C   UNL     1      -9.304   7.393  69.052  1.00  0.00    -0.145 C  
BRANCH  12  13
HETATM   13  C   UNL     1     -10.015   6.218  68.385  1.00  0.00    -0.156 C  
HETATM   14  C   UNL     1      -9.434   5.838  67.018  1.00  0.00    -0.131 C  
HETATM   15  C   UNL     1      -9.551   4.320  66.944  1.00  0.00    -0.225 C  
HETATM   16  C   UNL     1      -9.195   3.841  68.343  1.00  0.00    -0.213 C  
HETATM   17  C   UNL     1      -9.761   4.951  69.186  1.00  0.00    -0.182 C  
HETATM   18  O   UNL     1      -9.955   4.849  70.393  1.00  0.00    -0.210 OA 
ENDBRANCH  12  13
ENDBRANCH   9  12
TORSDOF 2
ENDMDL
MODEL      152
REMARK 921   NORMALIZED FREE ENERGY PREDICTED BY IDOCK:   -3.74 KCAL/MOL
REMARK 922        TOTAL FREE ENERGY PREDICTED BY IDOCK:   -4.49 KCAL/MOL
REMARK 923 INTER-LIGAND FREE ENERGY PREDICTED BY IDOCK:   -4.68 KCAL/MOL
REMARK 924 INTRA-LIGAND FREE ENERGY PREDICTED BY IDOCK:    0.19 KCAL/MOL
REMARK 927      BINDING AFFINITY PREDICTED BY RF-SCORE:    0.00 PKD
ROOT
HETATM    1  C   UNL     1      -8.058   7.480  65.458  1.00  0.00    -0.131 C  
HETATM    2  C   UNL     1      -8.593   7.734  66.875  1.00  0.00    -0.130 C  
HETATM    3  C   UNL     1      -8.967   9.213  66.990  1.00  0.00    -0.139 A  
HETATM    4  C   UNL     1      -7.601   7.182  67.900  1.00  0.00    -0.111 C  
HETATM    5  C   UNL     1     -10.244   9.641  66.583  1.00  0.00    -0.302 A  
HETATM    6  O   UNL     1      -7.697   7.721  69.142  1.00  0.00    -0.097 OA 
HETATM    7  O   UNL     1      -6.814   6.271  67.676  1.00  0.00    -0.064 OA 
HETATM    8  C   UNL     1     -10.551  11.005  66.475  1.00  0.00    -0.310 A  
HETATM    9  C   UNL     1      -9.594  11.974  66.791  1.00  0.00    -0.215 A  
HETATM   10  C   UNL     1      -8.350  11.547  67.278  1.00  0.00    -0.154 A  
HETATM   11  C   UNL     1      -8.031  10.188  67.355  1.00  0.00    -0.110 A  
ENDROOT
BRANCH   9  12
HETATM   12  C   UNL     1      -9.769  13.432  66.422  1.00  0.00    -0.282 C  
BRANCH  12  13
HETATM   13  C   UNL     1     -10.590  13.776  65.181  1.00  0.00    -0.385 C  
HETATM   14  C   UNL     1     -10.373  12.814  64.009  1.00  0.00    -0.392 C  
HETATM   15  C   UNL     1     -11.733  12.697  63.331  1.00  0.00    -0.571 C  
HETATM   16  C   UNL     1     -12.729  12.654  64.481  1.00  0.00    -0.439 C  
HETATM   17  C   UNL     1     -12.066  13.567  65.477  1.00  0.00    -0.419 C  
HETATM   18  O   UNL     1     -12.652  14.051  66.440  1.00  0.00    -0.428 OA 
ENDBRANCH  12  13
ENDBRANCH   9  12
TORSDOF 2
ENDMDL
MODEL      153
REMARK 921   NORMALIZED FREE ENERGY PREDICTED BY IDOCK:   -3.74 KCAL/MOL
REMARK 922        TOTAL FREE ENERGY PREDICTED BY IDOCK:   -4.48 KCAL/MOL
REMARK 923 INTER-LIGAND FREE ENERGY PREDICTED BY IDOCK:   -4.08 KCAL/MOL
REMARK 924 INTRA-LIGAND FREE ENERGY PREDICTED BY IDOCK:   -0.40 KCAL/MOL
REMARK 927      BINDING AFFINITY PREDICTED BY RF-SCORE:    0.00 PKD
ROOT
HETATM    1  C   UNL     1      -9.686  18.208  66.980  1.00  0.00    -0.307 C  
HETATM    2  C   UNL     1      -8.640  17.255  66.382  1.00  0.00    -0.294 C  
HETATM    3  C   UNL     1      -9.001  15.826  66.789  1.00  0.00    -0.289 A  
HETATM    4  C   UNL     1      -7.237  17.749  66.739  1.00  0.00    -0.207 C  
HETATM    5  C   UNL     1      -9.913  15.089  66.009  1.00  0.00    -0.334 A  
HETATM    6  O   UNL     1      -6.264  16.806  66.687  1.00  0.00    -0.224 OA 
HETATM    7  O   UNL     1      -6.960  18.917  66.986  1.00  0.00    -0.201 OA 
HETATM    8  C   UNL     1     -10.429  13.865  66.459  1.00  0.00    -0.282 A  
HETATM    9  C   UNL     1     -10.030  13.338  67.691  1.00  0.00    -0.229 A  
HETATM   10  C   UNL     1      -9.058  14.030  68.428  1.00  0.00    -0.191 A  
HETATM   11  C   UNL     1      -8.567  15.266  67.997  1.00  0.00    -0.152 A  
ENDROOT
BRANCH   9  12
HETATM   12  C   UNL     1     -10.758  12.185  68.348  1.00  0.00    -0.252 C  
BRANCH  12  13
HETATM   13  C   UNL     1     -11.139  12.310  69.822  1.00  0.00     0.078 C  
HETATM   14  C   UNL     1     -12.141  13.432  70.109  1.00  0.00    -0.415 C  
HETATM   15  C   UNL     1     -13.031  12.896  71.226  1.00  0.00    -0.317 C  
HETATM   16  C   UNL     1     -13.251  11.435  70.868  1.00  0.00     0.134 C  
HETATM   17  C   UNL     1     -11.928  11.082  70.246  1.00  0.00    -0.365 C  
HETATM   18  O   UNL     1     -11.554   9.927  70.068  1.00  0.00    -0.238 OA 
ENDBRANCH  12  13
ENDBRANCH   9  12
TORSDOF 2
ENDMDL
MODEL      154
REMARK 921   NORMALIZED FREE ENERGY PREDICTED BY IDOCK:   -3.71 KCAL/MOL
REMARK 922        TOTAL FREE ENERGY PREDICTED BY IDOCK:   -4.45 KCAL/MOL
REMARK 923 INTER-LIGAND FREE ENERGY PREDICTED BY IDOCK:   -4.06 KCAL/MOL
REMARK 924 INTRA-LIGAND FREE ENERGY PREDICTED BY IDOCK:   -0.39 KCAL/MOL
REMARK 927      BINDING AFFINITY PREDICTED BY RF-SCORE:    0.00 PKD
ROOT
HETATM    1  C   UNL     1     -10.198  13.937  66.058  1.00  0.00    -0.317 C  
HETATM    2  C   UNL     1      -9.771  14.094  67.525  1.00  0.00    -0.234 C  
HETATM    3  C   UNL     1      -9.499  12.702  68.099  1.00  0.00    -0.218 A  
HETATM    4  C   UNL     1     -10.789  14.966  68.261  1.00  0.00    -0.257 C  
HETATM    5  C   UNL     1      -8.228  12.119  67.937  1.00  0.00    -0.155 A  
HETATM    6  O   UNL     1     -10.807  14.817  69.610  1.00  0.00    -0.254 OA 
HETATM    7  O   UNL     1     -11.502  15.801  67.718  1.00  0.00    -0.290 OA 
HETATM    8  C   UNL     1      -8.001  10.774  68.259  1.00  0.00    -0.118 A  
HETATM    9  C   UNL     1      -9.036   9.983  68.769  1.00  0.00    -0.145 A  
HETATM   10  C   UNL     1     -10.279  10.586  69.009  1.00  0.00    -0.233 A  
HETATM   11  C   UNL     1     -10.516  11.919  68.658  1.00  0.00    -0.231 A  
ENDROOT
BRANCH   9  12
HETATM   12  C   UNL     1      -8.929   8.476  68.859  1.00  0.00    -0.146 C  
BRANCH  12  13
HETATM   13  C   UNL     1     -10.169   7.637  68.557  1.00  0.00    -0.220 C  
HETATM   14  C   UNL     1     -10.423   7.425  67.061  1.00  0.00    -0.404 C  
HETATM   15  C   UNL     1     -10.987   6.013  66.949  1.00  0.00    -0.350 C  
HETATM   16  C   UNL     1     -10.176   5.199  67.945  1.00  0.00    -0.180 C  
HETATM   17  C   UNL     1      -9.944   6.212  69.033  1.00  0.00    -0.153 C  
HETATM   18  O   UNL     1      -9.575   5.913  70.165  1.00  0.00    -0.156 OA 
ENDBRANCH  12  13
ENDBRANCH   9  12
TORSDOF 2
ENDMDL
MODEL      155
REMARK 921   NORMALIZED FREE ENERGY PREDICTED BY IDOCK:   -3.70 KCAL/MOL
REMARK 922        TOTAL FREE ENERGY PREDICTED BY IDOCK:   -4.44 KCAL/MOL
REMARK 923 INTER-LIGAND FREE ENERGY PREDICTED BY IDOCK:   -4.01 KCAL/MOL
REMARK 924 INTRA-LIGAND FREE ENERGY PREDICTED BY IDOCK:   -0.43 KCAL/MOL
REMARK 927      BINDING AFFINITY PREDICTED BY RF-SCORE:    0.00 PKD
ROOT
HETATM    1  C   UNL     1     -11.122  10.531  69.813  1.00  0.00    -0.354 C  
HETATM    2  C   UNL     1     -11.214   9.910  71.215  1.00  0.00    -0.356 C  
HETATM    3  C   UNL     1     -10.684   8.477  71.144  1.00  0.00    -0.290 A  
HETATM    4  C   UNL     1     -12.628  10.105  71.766  1.00  0.00    -0.403 C  
HETATM    5  C   UNL     1      -9.304   8.238  71.282  1.00  0.00    -0.218 A  
HETATM    6  O   UNL     1     -12.987   9.242  72.750  1.00  0.00    -0.308 OA 
HETATM    7  O   UNL     1     -13.383  11.007  71.423  1.00  0.00    -0.279 OA 
HETATM    8  C   UNL     1      -8.756   6.975  71.015  1.00  0.00    -0.139 A  
HETATM    9  C   UNL     1      -9.579   5.916  70.621  1.00  0.00    -0.208 A  
HETATM   10  C   UNL     1     -10.963   6.132  70.566  1.00  0.00    -0.384 A  
HETATM   11  C   UNL     1     -11.507   7.398  70.800  1.00  0.00    -0.313 A  
ENDROOT
BRANCH   9  12
HETATM   12  C   UNL     1      -9.019   4.631  70.048  1.00  0.00    -0.140 C  
BRANCH  12  13
HETATM   13  C   UNL     1      -8.747   3.467  70.998  1.00  0.00    -0.123 C  
HETATM   14  C   UNL     1      -9.287   3.686  72.416  1.00  0.00    -0.170 C  
HETATM   15  C   UNL     1      -9.752   2.310  72.882  1.00  0.00    -0.160 C  
HETATM   16  C   UNL     1     -10.404   1.693  71.655  1.00  0.00    -0.002 C  
HETATM   17  C   UNL     1      -9.546   2.253  70.553  1.00  0.00    -0.059 C  
HETATM   18  O   UNL     1      -9.530   1.797  69.414  1.00  0.00    -0.111 OA 
ENDBRANCH  12  13
ENDBRANCH   9  12
TORSDOF 2
ENDMDL
MODEL      156
REMARK 921   NORMALIZED FREE ENERGY PREDICTED BY IDOCK:   -3.67 KCAL/MOL
REMARK 922        TOTAL FREE ENERGY PREDICTED BY IDOCK:   -4.40 KCAL/MOL
REMARK 923 INTER-LIGAND FREE ENERGY PREDICTED BY IDOCK:   -4.06 KCAL/MOL
REMARK 924 INTRA-LIGAND FREE ENERGY PREDICTED BY IDOCK:   -0.35 KCAL/MOL
REMARK 927      BINDING AFFINITY PREDICTED BY RF-SCORE:    0.00 PKD
ROOT
HETATM    1  C   UNL     1      -9.185   5.008  64.783  1.00  0.00    -0.004 C  
HETATM    2  C   UNL     1      -8.839   5.336  66.243  1.00  0.00    -0.130 C  
HETATM    3  C   UNL     1      -9.021   6.840  66.455  1.00  0.00    -0.162 A  
HETATM    4  C   UNL     1      -7.472   4.743  66.588  1.00  0.00    -0.086 C  
HETATM    5  C   UNL     1     -10.291   7.347  66.789  1.00  0.00    -0.321 A  
HETATM    6  O   UNL     1      -6.844   5.319  67.644  1.00  0.00    -0.057 OA 
HETATM    7  O   UNL     1      -6.979   3.773  66.025  1.00  0.00    -0.059 OA 
HETATM    8  C   UNL     1     -10.546   8.726  66.785  1.00  0.00    -0.220 A  
HETATM    9  C   UNL     1      -9.531   9.632  66.466  1.00  0.00    -0.233 A  
HETATM   10  C   UNL     1      -8.245   9.132  66.216  1.00  0.00    -0.111 A  
HETATM   11  C   UNL     1      -7.997   7.756  66.188  1.00  0.00    -0.105 A  
ENDROOT
BRANCH   9  12
HETATM   12  C   UNL     1      -9.816  11.089  66.167  1.00  0.00    -0.268 C  
BRANCH  12  13
HETATM   13  C   UNL     1     -11.155  11.454  65.531  1.00  0.00    -0.203 C  
HETATM   14  C   UNL     1     -11.952  12.496  66.323  1.00  0.00    -0.410 C  
HETATM   15  C   UNL     1     -12.651  13.348  65.270  1.00  0.00    -0.518 C  
HETATM   16  C   UNL     1     -11.616  13.516  64.168  1.00  0.00    -0.415 C  
HETATM   17  C   UNL     1     -10.911  12.188  64.223  1.00  0.00    -0.341 C  
HETATM   18  O   UNL     1     -10.188  11.772  63.323  1.00  0.00    -0.412 OA 
ENDBRANCH  12  13
ENDBRANCH   9  12
TORSDOF 2
ENDMDL
MODEL      157
REMARK 921   NORMALIZED FREE ENERGY PREDICTED BY IDOCK:   -3.66 KCAL/MOL
REMARK 922        TOTAL FREE ENERGY PREDICTED BY IDOCK:   -4.40 KCAL/MOL
REMARK 923 INTER-LIGAND FREE ENERGY PREDICTED BY IDOCK:   -4.06 KCAL/MOL
REMARK 924 INTRA-LIGAND FREE ENERGY PREDICTED BY IDOCK:   -0.33 KCAL/MOL
REMARK 927      BINDING AFFINITY PREDICTED BY RF-SCORE:    0.00 PKD
ROOT
HETATM    1  C   UNL     1      -9.730   9.624  68.696  1.00  0.00    -0.162 C  
HETATM    2  C   UNL     1     -10.370  10.081  70.016  1.00  0.00    -0.323 C  
HETATM    3  C   UNL     1     -10.410   8.886  70.970  1.00  0.00    -0.321 A  
HETATM    4  C   UNL     1     -11.695  10.785  69.722  1.00  0.00    -0.324 C  
HETATM    5  C   UNL     1      -9.291   8.600  71.774  1.00  0.00    -0.343 A  
HETATM    6  O   UNL     1     -12.567  10.828  70.761  1.00  0.00    -0.336 OA 
HETATM    7  O   UNL     1     -11.959  11.346  68.665  1.00  0.00    -0.452 OA 
HETATM    8  C   UNL     1      -9.207   7.404  72.501  1.00  0.00    -0.179 A  
HETATM    9  C   UNL     1     -10.249   6.473  72.456  1.00  0.00    -0.202 A  
HETATM   10  C   UNL     1     -11.400   6.796  71.723  1.00  0.00    -0.307 A  
HETATM   11  C   UNL     1     -11.472   7.974  70.972  1.00  0.00    -0.300 A  
ENDROOT
BRANCH   9  12
HETATM   12  C   UNL     1     -10.091   5.061  72.978  1.00  0.00    -0.202 C  
BRANCH  12  13
HETATM   13  C   UNL     1      -9.748   3.951  71.986  1.00  0.00    -0.232 C  
HETATM   14  C   UNL     1     -10.215   4.235  70.555  1.00  0.00     0.009 C  
HETATM   15  C   UNL     1      -9.134   3.643  69.658  1.00  0.00    -0.197 C  
HETATM   16  C   UNL     1      -7.828   3.980  70.362  1.00  0.00    -0.051 C  
HETATM   17  C   UNL     1      -8.240   3.882  71.806  1.00  0.00    -0.082 C  
HETATM   18  O   UNL     1      -7.439   3.797  72.731  1.00  0.00    -0.060 OA 
ENDBRANCH  12  13
ENDBRANCH   9  12
TORSDOF 2
ENDMDL
MODEL      158
REMARK 921   NORMALIZED FREE ENERGY PREDICTED BY IDOCK:   -3.66 KCAL/MOL
REMARK 922        TOTAL FREE ENERGY PREDICTED BY IDOCK:   -4.39 KCAL/MOL
REMARK 923 INTER-LIGAND FREE ENERGY PREDICTED BY IDOCK:   -3.90 KCAL/MOL
REMARK 924 INTRA-LIGAND FREE ENERGY PREDICTED BY IDOCK:   -0.49 KCAL/MOL
REMARK 927      BINDING AFFINITY PREDICTED BY RF-SCORE:    0.00 PKD
ROOT
HETATM    1  C   UNL     1     -10.363  10.739  64.757  1.00  0.00    -0.380 C  
HETATM    2  C   UNL     1     -10.026  10.708  66.256  1.00  0.00    -0.274 C  
HETATM    3  C   UNL     1      -9.559   9.296  66.615  1.00  0.00    -0.263 A  
HETATM    4  C   UNL     1     -11.200  11.278  67.053  1.00  0.00    -0.255 C  
HETATM    5  C   UNL     1      -8.205   8.948  66.447  1.00  0.00    -0.115 A  
HETATM    6  O   UNL     1     -11.249  10.902  68.356  1.00  0.00    -0.241 OA 
HETATM    7  O   UNL     1     -12.015  12.076  66.605  1.00  0.00    -0.614 OA 
HETATM    8  C   UNL     1      -7.779   7.617  66.562  1.00  0.00    -0.097 A  
HETATM    9  C   UNL     1      -8.694   6.605  66.867  1.00  0.00    -0.116 A  
HETATM   10  C   UNL     1     -10.026   6.963  67.118  1.00  0.00    -0.239 A  
HETATM   11  C   UNL     1     -10.459   8.285  66.972  1.00  0.00    -0.384 A  
ENDROOT
BRANCH   9  12
HETATM   12  C   UNL     1      -8.351   5.137  66.721  1.00  0.00    -0.107 C  
BRANCH  12  13
HETATM   13  C   UNL     1      -7.933   4.359  67.966  1.00  0.00    -0.080 C  
HETATM   14  C   UNL     1      -7.797   5.226  69.222  1.00  0.00    -0.088 C  
HETATM   15  C   UNL     1      -8.274   4.344  70.370  1.00  0.00    -0.074 C  
HETATM   16  C   UNL     1      -9.471   3.597  69.803  1.00  0.00    -0.254 C  
HETATM   17  C   UNL     1      -9.051   3.412  68.371  1.00  0.00    -0.153 C  
HETATM   18  O   UNL     1      -9.586   2.612  67.609  1.00  0.00    -0.162 OA 
ENDBRANCH  12  13
ENDBRANCH   9  12
TORSDOF 2
ENDMDL
MODEL      159
REMARK 921   NORMALIZED FREE ENERGY PREDICTED BY IDOCK:   -3.64 KCAL/MOL
REMARK 922        TOTAL FREE ENERGY PREDICTED BY IDOCK:   -4.38 KCAL/MOL
REMARK 923 INTER-LIGAND FREE ENERGY PREDICTED BY IDOCK:   -4.00 KCAL/MOL
REMARK 924 INTRA-LIGAND FREE ENERGY PREDICTED BY IDOCK:   -0.38 KCAL/MOL
REMARK 927      BINDING AFFINITY PREDICTED BY RF-SCORE:    0.00 PKD
ROOT
HETATM    1  C   UNL     1     -11.550   9.330  71.690  1.00  0.00    -0.463 C  
HETATM    2  C   UNL     1     -10.686   8.305  70.940  1.00  0.00    -0.250 C  
HETATM    3  C   UNL     1      -9.816   9.056  69.931  1.00  0.00    -0.194 A  
HETATM    4  C   UNL     1     -11.579   7.188  70.397  1.00  0.00    -0.258 C  
HETATM    5  C   UNL     1      -8.579   9.589  70.340  1.00  0.00    -0.246 A  
HETATM    6  O   UNL     1     -11.057   6.487  69.359  1.00  0.00    -0.300 OA 
HETATM    7  O   UNL     1     -12.658   6.870  70.883  1.00  0.00    -0.357 OA 
HETATM    8  C   UNL     1      -7.854  10.457  69.511  1.00  0.00    -0.161 A  
HETATM    9  C   UNL     1      -8.339  10.798  68.245  1.00  0.00    -0.125 A  
HETATM   10  C   UNL     1      -9.529  10.201  67.804  1.00  0.00    -0.160 A  
HETATM   11  C   UNL     1     -10.269   9.360  68.641  1.00  0.00    -0.222 A  
ENDROOT
BRANCH   9  12
HETATM   12  C   UNL     1      -7.755  11.938  67.438  1.00  0.00    -0.158 C  
BRANCH  12  13
HETATM   13  C   UNL     1      -7.453  13.255  68.148  1.00  0.00    -0.128 C  
HETATM   14  C   UNL     1      -6.120  13.889  67.737  1.00  0.00    -0.139 C  
HETATM   15  C   UNL     1      -6.372  15.393  67.754  1.00  0.00    -0.182 C  
HETATM   16  C   UNL     1      -7.769  15.551  67.174  1.00  0.00    -0.257 C  
HETATM   17  C   UNL     1      -8.446  14.313  67.696  1.00  0.00    -0.180 C  
HETATM   18  O   UNL     1      -9.664  14.167  67.712  1.00  0.00    -0.215 OA 
ENDBRANCH  12  13
ENDBRANCH   9  12
TORSDOF 2
ENDMDL
MODEL      160
REMARK 921   NORMALIZED FREE ENERGY PREDICTED BY IDOCK:   -3.62 KCAL/MOL
REMARK 922        TOTAL FREE ENERGY PREDICTED BY IDOCK:   -4.35 KCAL/MOL
REMARK 923 INTER-LIGAND FREE ENERGY PREDICTED BY IDOCK:   -3.96 KCAL/MOL
REMARK 924 INTRA-LIGAND FREE ENERGY PREDICTED BY IDOCK:   -0.39 KCAL/MOL
REMARK 927      BINDING AFFINITY PREDICTED BY RF-SCORE:    0.00 PKD
ROOT
HETATM    1  C   UNL     1      -7.702   6.318  65.773  1.00  0.00    -0.091 C  
HETATM    2  C   UNL     1      -7.482   7.539  64.868  1.00  0.00    -0.089 C  
HETATM    3  C   UNL     1      -8.041   8.772  65.579  1.00  0.00    -0.115 A  
HETATM    4  C   UNL     1      -8.018   7.238  63.467  1.00  0.00    -0.066 C  
HETATM    5  C   UNL     1      -7.232   9.478  66.489  1.00  0.00    -0.089 A  
HETATM    6  O   UNL     1      -8.312   8.329  62.716  1.00  0.00    -0.176 OA 
HETATM    7  O   UNL     1      -8.119   6.111  62.996  1.00  0.00    -0.112 OA 
HETATM    8  C   UNL     1      -7.768  10.478  67.313  1.00  0.00    -0.106 A  
HETATM    9  C   UNL     1      -9.123  10.811  67.232  1.00  0.00    -0.151 A  
HETATM   10  C   UNL     1      -9.911  10.168  66.266  1.00  0.00    -0.288 A  
HETATM   11  C   UNL     1      -9.386   9.148  65.467  1.00  0.00    -0.287 A  
ENDROOT
BRANCH   9  12
HETATM   12  C   UNL     1      -9.808  11.663  68.279  1.00  0.00    -0.199 C  
BRANCH  12  13
HETATM   13  C   UNL     1     -11.161  11.206  68.820  1.00  0.00    -0.314 C  
HETATM   14  C   UNL     1     -11.059  10.258  70.020  1.00  0.00    -0.373 C  
HETATM   15  C   UNL     1     -12.241  10.619  70.914  1.00  0.00    -0.497 C  
HETATM   16  C   UNL     1     -12.317  12.136  70.850  1.00  0.00    -0.370 C  
HETATM   17  C   UNL     1     -11.889  12.393  69.431  1.00  0.00    -0.304 C  
HETATM   18  O   UNL     1     -12.075  13.459  68.853  1.00  0.00    -0.331 OA 
ENDBRANCH  12  13
ENDBRANCH   9  12
TORSDOF 2
ENDMDL
MODEL      161
REMARK 921   NORMALIZED FREE ENERGY PREDICTED BY IDOCK:   -3.53 KCAL/MOL
REMARK 922        TOTAL FREE ENERGY PREDICTED BY IDOCK:   -4.25 KCAL/MOL
REMARK 923 INTER-LIGAND FREE ENERGY PREDICTED BY IDOCK:   -4.04 KCAL/MOL
REMARK 924 INTRA-LIGAND FREE ENERGY PREDICTED BY IDOCK:   -0.21 KCAL/MOL
REMARK 927      BINDING AFFINITY PREDICTED BY RF-SCORE:    0.00 PKD
ROOT
HETATM    1  C   UNL     1     -11.163  15.860  70.444  1.00  0.00    -0.392 C  
HETATM    2  C   UNL     1     -10.383  15.025  69.417  1.00  0.00    -0.241 C  
HETATM    3  C   UNL     1      -9.333  15.925  68.763  1.00  0.00    -0.220 A  
HETATM    4  C   UNL     1     -11.367  14.312  68.488  1.00  0.00    -0.282 C  
HETATM    5  C   UNL     1      -8.076  16.086  69.377  1.00  0.00    -0.139 A  
HETATM    6  O   UNL     1     -10.855  13.930  67.290  1.00  0.00    -0.281 OA 
HETATM    7  O   UNL     1     -12.518  14.024  68.793  1.00  0.00    -0.173 OA 
HETATM    8  C   UNL     1      -7.169  17.056  68.928  1.00  0.00    -0.239 A  
HETATM    9  C   UNL     1      -7.489  17.876  67.842  1.00  0.00    -0.216 A  
HETATM   10  C   UNL     1      -8.705  17.658  67.178  1.00  0.00    -0.252 A  
HETATM   11  C   UNL     1      -9.624  16.713  67.644  1.00  0.00    -0.239 A  
ENDROOT
BRANCH   9  12
HETATM   12  C   UNL     1      -6.686  19.114  67.502  1.00  0.00    -0.214 C  
BRANCH  12  13
HETATM   13  C   UNL     1      -6.917  19.784  66.150  1.00  0.00    -0.263 C  
HETATM   14  C   UNL     1      -6.335  21.198  66.053  1.00  0.00    -0.227 C  
HETATM   15  C   UNL     1      -5.843  21.329  64.616  1.00  0.00    -0.160 C  
HETATM   16  C   UNL     1      -5.224  19.976  64.301  1.00  0.00    -0.207 C  
HETATM   17  C   UNL     1      -6.122  19.054  65.080  1.00  0.00    -0.279 C  
HETATM   18  O   UNL     1      -6.169  17.842  64.893  1.00  0.00    -0.016 OA 
ENDBRANCH  12  13
ENDBRANCH   9  12
TORSDOF 2
ENDMDL
MODEL      162
REMARK 921   NORMALIZED FREE ENERGY PREDICTED BY IDOCK:   -3.52 KCAL/MOL
REMARK 922        TOTAL FREE ENERGY PREDICTED BY IDOCK:   -4.23 KCAL/MOL
REMARK 923 INTER-LIGAND FREE ENERGY PREDICTED BY IDOCK:   -3.95 KCAL/MOL
REMARK 924 INTRA-LIGAND FREE ENERGY PREDICTED BY IDOCK:   -0.28 KCAL/MOL
REMARK 927      BINDING AFFINITY PREDICTED BY RF-SCORE:    0.00 PKD
ROOT
HETATM    1  C   UNL     1      -7.996   8.659  66.279  1.00  0.00    -0.102 C  
HETATM    2  C   UNL     1      -7.629   9.935  65.507  1.00  0.00    -0.125 C  
HETATM    3  C   UNL     1      -8.565  11.057  65.958  1.00  0.00    -0.173 A  
HETATM    4  C   UNL     1      -7.579   9.627  64.009  1.00  0.00    -0.128 C  
HETATM    5  C   UNL     1      -8.239  11.820  67.096  1.00  0.00    -0.169 A  
HETATM    6  O   UNL     1      -7.725  10.703  63.195  1.00  0.00    -0.091 OA 
HETATM    7  O   UNL     1      -7.353   8.518  63.541  1.00  0.00    -0.099 OA 
HETATM    8  C   UNL     1      -9.163  12.710  67.662  1.00  0.00    -0.191 A  
HETATM    9  C   UNL     1     -10.430  12.872  67.092  1.00  0.00    -0.241 A  
HETATM   10  C   UNL     1     -10.724  12.176  65.911  1.00  0.00    -0.302 A  
HETATM   11  C   UNL     1      -9.815  11.265  65.364  1.00  0.00    -0.281 A  
ENDROOT
BRANCH   9  12
HETATM   12  C   UNL     1     -11.552  13.587  67.814  1.00  0.00    -0.374 C  
BRANCH  12  13
HETATM   13  C   UNL     1     -11.418  15.087  68.067  1.00  0.00    -0.357 C  
HETATM   14  C   UNL     1     -10.437  15.439  69.191  1.00  0.00    -0.239 C  
HETATM   15  C   UNL     1      -9.766  16.733  68.743  1.00  0.00    -0.261 C  
HETATM   16  C   UNL     1      -9.542  16.549  67.250  1.00  0.00    -0.242 C  
HETATM   17  C   UNL     1     -10.756  15.745  66.868  1.00  0.00    -0.299 C  
HETATM   18  O   UNL     1     -11.137  15.610  65.709  1.00  0.00    -0.280 OA 
ENDBRANCH  12  13
ENDBRANCH   9  12
TORSDOF 2
ENDMDL
MODEL      163
REMARK 921   NORMALIZED FREE ENERGY PREDICTED BY IDOCK:   -3.50 KCAL/MOL
REMARK 922        TOTAL FREE ENERGY PREDICTED BY IDOCK:   -4.22 KCAL/MOL
REMARK 923 INTER-LIGAND FREE ENERGY PREDICTED BY IDOCK:   -3.77 KCAL/MOL
REMARK 924 INTRA-LIGAND FREE ENERGY PREDICTED BY IDOCK:   -0.45 KCAL/MOL
REMARK 927      BINDING AFFINITY PREDICTED BY RF-SCORE:    0.00 PKD
ROOT
HETATM    1  C   UNL     1     -10.294  11.155  68.780  1.00  0.00    -0.222 C  
HETATM    2  C   UNL     1      -9.232  11.764  67.852  1.00  0.00    -0.181 C  
HETATM    3  C   UNL     1      -9.325  13.288  67.948  1.00  0.00    -0.214 A  
HETATM    4  C   UNL     1      -9.357  11.143  66.460  1.00  0.00    -0.180 C  
HETATM    5  C   UNL     1      -8.624  13.965  68.963  1.00  0.00     0.215 A  
HETATM    6  O   UNL     1      -8.826  11.879  65.451  1.00  0.00     0.119 OA 
HETATM    7  O   UNL     1      -9.828  10.034  66.239  1.00  0.00    -0.208 OA 
HETATM    8  C   UNL     1      -8.847  15.326  69.214  1.00  0.00    -0.242 A  
HETATM    9  C   UNL     1      -9.763  16.048  68.444  1.00  0.00    -0.213 A  
HETATM   10  C   UNL     1     -10.398  15.394  67.378  1.00  0.00    -0.262 A  
HETATM   11  C   UNL     1     -10.201  14.029  67.146  1.00  0.00    -0.258 A  
ENDROOT
BRANCH   9  12
HETATM   12  C   UNL     1     -10.251  17.423  68.848  1.00  0.00    -0.352 C  
BRANCH  12  13
HETATM   13  C   UNL     1      -9.452  18.643  68.395  1.00  0.00    -0.377 C  
HETATM   14  C   UNL     1      -8.132  18.294  67.700  1.00  0.00    -0.249 C  
HETATM   15  C   UNL     1      -7.962  19.351  66.614  1.00  0.00    -0.300 C  
HETATM   16  C   UNL     1      -9.361  19.545  66.049  1.00  0.00    -0.280 C  
HETATM   17  C   UNL     1     -10.203  19.354  67.281  1.00  0.00    -0.415 C  
HETATM   18  O   UNL     1     -11.378  19.700  67.354  1.00  0.00    -0.154 OA 
ENDBRANCH  12  13
ENDBRANCH   9  12
TORSDOF 2
ENDMDL
MODEL      164
REMARK 921   NORMALIZED FREE ENERGY PREDICTED BY IDOCK:   -3.46 KCAL/MOL
REMARK 922        TOTAL FREE ENERGY PREDICTED BY IDOCK:   -4.17 KCAL/MOL
REMARK 923 INTER-LIGAND FREE ENERGY PREDICTED BY IDOCK:   -3.81 KCAL/MOL
REMARK 924 INTRA-LIGAND FREE ENERGY PREDICTED BY IDOCK:   -0.36 KCAL/MOL
REMARK 927      BINDING AFFINITY PREDICTED BY RF-SCORE:    0.00 PKD
ROOT
HETATM    1  C   UNL     1      -9.246  15.482  67.058  1.00  0.00    -0.242 C  
HETATM    2  C   UNL     1      -9.922  14.723  68.210  1.00  0.00    -0.222 C  
HETATM    3  C   UNL     1      -9.979  13.240  67.842  1.00  0.00    -0.233 A  
HETATM    4  C   UNL     1     -11.244  15.406  68.563  1.00  0.00    -0.318 C  
HETATM    5  C   UNL     1      -8.879  12.409  68.127  1.00  0.00    -0.191 A  
HETATM    6  O   UNL     1     -12.143  14.622  69.211  1.00  0.00    -0.310 OA 
HETATM    7  O   UNL     1     -11.484  16.590  68.360  1.00  0.00    -0.301 OA 
HETATM    8  C   UNL     1      -8.806  11.103  67.621  1.00  0.00    -0.136 A  
HETATM    9  C   UNL     1      -9.841  10.590  66.834  1.00  0.00    -0.235 A  
HETATM   10  C   UNL     1     -10.974  11.387  66.621  1.00  0.00    -0.341 A  
HETATM   11  C   UNL     1     -11.035  12.701  67.097  1.00  0.00    -0.296 A  
ENDROOT
BRANCH   9  12
HETATM   12  C   UNL     1      -9.688   9.314  66.033  1.00  0.00    -0.359 C  
BRANCH  12  13
HETATM   13  C   UNL     1      -8.436   8.466  66.245  1.00  0.00    -0.132 C  
HETATM   14  C   UNL     1      -8.674   6.961  66.082  1.00  0.00    -0.153 C  
HETATM   15  C   UNL     1      -7.398   6.423  65.443  1.00  0.00    -0.076 C  
HETATM   16  C   UNL     1      -7.005   7.483  64.426  1.00  0.00    -0.056 C  
HETATM   17  C   UNL     1      -7.443   8.740  65.128  1.00  0.00    -0.090 C  
HETATM   18  O   UNL     1      -7.066   9.861  64.801  1.00  0.00    -0.121 OA 
ENDBRANCH  12  13
ENDBRANCH   9  12
TORSDOF 2
ENDMDL
MODEL      165
REMARK 921   NORMALIZED FREE ENERGY PREDICTED BY IDOCK:   -3.45 KCAL/MOL
REMARK 922        TOTAL FREE ENERGY PREDICTED BY IDOCK:   -4.16 KCAL/MOL
REMARK 923 INTER-LIGAND FREE ENERGY PREDICTED BY IDOCK:   -4.58 KCAL/MOL
REMARK 924 INTRA-LIGAND FREE ENERGY PREDICTED BY IDOCK:    0.42 KCAL/MOL
REMARK 927      BINDING AFFINITY PREDICTED BY RF-SCORE:    0.00 PKD
ROOT
HETATM    1  C   UNL     1      -8.612  10.425  63.670  1.00  0.00    -0.186 C  
HETATM    2  C   UNL     1      -7.937   9.656  64.816  1.00  0.00    -0.129 C  
HETATM    3  C   UNL     1      -8.777   9.842  66.081  1.00  0.00    -0.150 A  
HETATM    4  C   UNL     1      -6.461  10.050  64.894  1.00  0.00    -0.125 C  
HETATM    5  C   UNL     1      -9.862   8.980  66.328  1.00  0.00    -0.361 A  
HETATM    6  O   UNL     1      -5.868   9.824  66.093  1.00  0.00    -0.058 OA 
HETATM    7  O   UNL     1      -5.809  10.472  63.947  1.00  0.00    -0.138 OA 
HETATM    8  C   UNL     1     -10.778   9.243  67.356  1.00  0.00    -0.263 A  
HETATM    9  C   UNL     1     -10.620  10.365  68.175  1.00  0.00    -0.246 A  
HETATM   10  C   UNL     1      -9.493  11.176  67.983  1.00  0.00    -0.174 A  
HETATM   11  C   UNL     1      -8.596  10.933  66.938  1.00  0.00    -0.136 A  
ENDROOT
BRANCH   9  12
HETATM   12  C   UNL     1     -11.718  10.851  69.098  1.00  0.00    -0.397 C  
BRANCH  12  13
HETATM   13  C   UNL     1     -11.615  10.528  70.587  1.00  0.00    -0.445 C  
HETATM   14  C   UNL     1     -12.884  10.858  71.380  1.00  0.00    -0.554 C  
HETATM   15  C   UNL     1     -12.988   9.765  72.438  1.00  0.00    -0.312 C  
HETATM   16  C   UNL     1     -12.571   8.494  71.714  1.00  0.00    -0.387 C  
HETATM   17  C   UNL     1     -11.523   9.023  70.773  1.00  0.00    -0.282 C  
HETATM   18  O   UNL     1     -10.715   8.305  70.193  1.00  0.00    -0.234 OA 
ENDBRANCH  12  13
ENDBRANCH   9  12
TORSDOF 2
ENDMDL
MODEL      166
REMARK 921   NORMALIZED FREE ENERGY PREDICTED BY IDOCK:   -3.43 KCAL/MOL
REMARK 922        TOTAL FREE ENERGY PREDICTED BY IDOCK:   -4.14 KCAL/MOL
REMARK 923 INTER-LIGAND FREE ENERGY PREDICTED BY IDOCK:   -3.71 KCAL/MOL
REMARK 924 INTRA-LIGAND FREE ENERGY PREDICTED BY IDOCK:   -0.43 KCAL/MOL
REMARK 927      BINDING AFFINITY PREDICTED BY RF-SCORE:    0.00 PKD
ROOT
HETATM    1  C   UNL     1      -9.068   9.510  65.586  1.00  0.00    -0.250 C  
HETATM    2  C   UNL     1      -9.095   9.405  67.118  1.00  0.00    -0.148 C  
HETATM    3  C   UNL     1      -9.443  10.780  67.689  1.00  0.00    -0.166 A  
HETATM    4  C   UNL     1      -7.801   8.753  67.607  1.00  0.00    -0.102 C  
HETATM    5  C   UNL     1     -10.793  11.154  67.831  1.00  0.00    -0.285 A  
HETATM    6  O   UNL     1      -7.481   9.006  68.902  1.00  0.00    -0.073 OA 
HETATM    7  O   UNL     1      -7.114   7.994  66.934  1.00  0.00    -0.078 OA 
HETATM    8  C   UNL     1     -11.151  12.472  68.149  1.00  0.00    -0.282 A  
HETATM    9  C   UNL     1     -10.168  13.444  68.352  1.00  0.00    -0.251 A  
HETATM   10  C   UNL     1      -8.822  13.053  68.295  1.00  0.00    -0.172 A  
HETATM   11  C   UNL     1      -8.463  11.747  67.946  1.00  0.00    -0.154 A  
ENDROOT
BRANCH   9  12
HETATM   12  C   UNL     1     -10.494  14.921  68.410  1.00  0.00    -0.243 C  
BRANCH  12  13
HETATM   13  C   UNL     1      -9.737  15.872  67.486  1.00  0.00    -0.223 C  
HETATM   14  C   UNL     1     -10.140  15.753  66.012  1.00  0.00    -0.359 C  
HETATM   15  C   UNL     1     -10.062  17.173  65.462  1.00  0.00     0.010 C  
HETATM   16  C   UNL     1     -10.619  18.044  66.577  1.00  0.00    -0.263 C  
HETATM   17  C   UNL     1     -10.137  17.305  67.796  1.00  0.00    -0.311 C  
HETATM   18  O   UNL     1     -10.112  17.800  68.918  1.00  0.00    -0.360 OA 
ENDBRANCH  12  13
ENDBRANCH   9  12
TORSDOF 2
ENDMDL
MODEL      167
REMARK 921   NORMALIZED FREE ENERGY PREDICTED BY IDOCK:   -3.40 KCAL/MOL
REMARK 922        TOTAL FREE ENERGY PREDICTED BY IDOCK:   -4.11 KCAL/MOL
REMARK 923 INTER-LIGAND FREE ENERGY PREDICTED BY IDOCK:   -3.79 KCAL/MOL
REMARK 924 INTRA-LIGAND FREE ENERGY PREDICTED BY IDOCK:   -0.31 KCAL/MOL
REMARK 927      BINDING AFFINITY PREDICTED BY RF-SCORE:    0.00 PKD
ROOT
HETATM    1  C   UNL     1      -8.567  14.196  66.999  1.00  0.00    -0.204 C  
HETATM    2  C   UNL     1      -9.737  13.530  67.740  1.00  0.00    -0.226 C  
HETATM    3  C   UNL     1      -9.714  12.033  67.428  1.00  0.00    -0.185 A  
HETATM    4  C   UNL     1     -11.030  14.287  67.434  1.00  0.00    -0.295 C  
HETATM    5  C   UNL     1      -8.915  11.173  68.205  1.00  0.00    -0.166 A  
HETATM    6  O   UNL     1     -12.172  13.578  67.624  1.00  0.00    -0.312 OA 
HETATM    7  O   UNL     1     -11.078  15.468  67.110  1.00  0.00    -0.317 OA 
HETATM    8  C   UNL     1      -8.703   9.840  67.826  1.00  0.00    -0.129 A  
HETATM    9  C   UNL     1      -9.300   9.329  66.669  1.00  0.00    -0.219 A  
HETATM   10  C   UNL     1     -10.162  10.161  65.942  1.00  0.00    -0.281 A  
HETATM   11  C   UNL     1     -10.350  11.500  66.301  1.00  0.00    -0.280 A  
ENDROOT
BRANCH   9  12
HETATM   12  C   UNL     1      -8.881   8.007  66.063  1.00  0.00    -0.196 C  
BRANCH  12  13
HETATM   13  C   UNL     1      -9.062   6.736  66.889  1.00  0.00    -0.148 C  
HETATM   14  C   UNL     1      -8.231   6.711  68.176  1.00  0.00    -0.114 C  
HETATM   15  C   UNL     1      -9.103   5.992  69.200  1.00  0.00    -0.124 C  
HETATM   16  C   UNL     1     -10.508   6.511  68.934  1.00  0.00    -0.249 C  
HETATM   17  C   UNL     1     -10.478   6.688  67.440  1.00  0.00    -0.260 C  
HETATM   18  O   UNL     1     -11.489   6.819  66.756  1.00  0.00    -0.089 OA 
ENDBRANCH  12  13
ENDBRANCH   9  12
TORSDOF 2
ENDMDL
MODEL      168
REMARK 921   NORMALIZED FREE ENERGY PREDICTED BY IDOCK:   -3.37 KCAL/MOL
REMARK 922        TOTAL FREE ENERGY PREDICTED BY IDOCK:   -4.07 KCAL/MOL
REMARK 923 INTER-LIGAND FREE ENERGY PREDICTED BY IDOCK:   -3.76 KCAL/MOL
REMARK 924 INTRA-LIGAND FREE ENERGY PREDICTED BY IDOCK:   -0.31 KCAL/MOL
REMARK 927      BINDING AFFINITY PREDICTED BY RF-SCORE:    0.00 PKD
ROOT
HETATM    1  C   UNL     1     -10.182  11.011  63.828  1.00  0.00    -0.425 C  
HETATM    2  C   UNL     1      -9.216   9.848  64.101  1.00  0.00    -0.312 C  
HETATM    3  C   UNL     1      -9.264   9.525  65.595  1.00  0.00    -0.281 A  
HETATM    4  C   UNL     1      -7.847  10.172  63.500  1.00  0.00    -0.158 C  
HETATM    5  C   UNL     1     -10.244   8.641  66.085  1.00  0.00     0.028 A  
HETATM    6  O   UNL     1      -6.806   9.488  64.038  1.00  0.00    -0.097 OA 
HETATM    7  O   UNL     1      -7.672  10.930  62.554  1.00  0.00    -0.124 OA 
HETATM    8  C   UNL     1     -10.454   8.482  67.462  1.00  0.00    -0.328 A  
HETATM    9  C   UNL     1      -9.677   9.189  68.384  1.00  0.00    -0.166 A  
HETATM   10  C   UNL     1      -8.644  10.004  67.898  1.00  0.00    -0.121 A  
HETATM   11  C   UNL     1      -8.454  10.189  66.525  1.00  0.00    -0.128 A  
ENDROOT
BRANCH   9  12
HETATM   12  C   UNL     1     -10.045   9.277  69.849  1.00  0.00    -0.230 C  
BRANCH  12  13
HETATM   13  C   UNL     1     -10.050   7.995  70.679  1.00  0.00    -0.203 C  
HETATM   14  C   UNL     1      -8.748   7.752  71.450  1.00  0.00    -0.142 C  
HETATM   15  C   UNL     1      -9.178   7.108  72.764  1.00  0.00    -0.166 C  
HETATM   16  C   UNL     1     -10.442   7.856  73.159  1.00  0.00    -0.348 C  
HETATM   17  C   UNL     1     -11.054   8.129  71.812  1.00  0.00    -0.270 C  
HETATM   18  O   UNL     1     -12.225   8.463  71.659  1.00  0.00    -0.289 OA 
ENDBRANCH  12  13
ENDBRANCH   9  12
TORSDOF 2
ENDMDL
MODEL      169
REMARK 921   NORMALIZED FREE ENERGY PREDICTED BY IDOCK:   -3.34 KCAL/MOL
REMARK 922        TOTAL FREE ENERGY PREDICTED BY IDOCK:   -4.04 KCAL/MOL
REMARK 923 INTER-LIGAND FREE ENERGY PREDICTED BY IDOCK:   -4.09 KCAL/MOL
REMARK 924 INTRA-LIGAND FREE ENERGY PREDICTED BY IDOCK:    0.05 KCAL/MOL
REMARK 927      BINDING AFFINITY PREDICTED BY RF-SCORE:    0.00 PKD
ROOT
HETATM    1  C   UNL     1      -8.037   6.503  72.966  1.00  0.00    -0.107 C  
HETATM    2  C   UNL     1      -8.304   5.983  71.545  1.00  0.00    -0.127 C  
HETATM    3  C   UNL     1      -8.900   7.123  70.719  1.00  0.00    -0.148 A  
HETATM    4  C   UNL     1      -9.105   4.682  71.621  1.00  0.00    -0.135 C  
HETATM    5  C   UNL     1      -8.044   8.036  70.073  1.00  0.00    -0.116 A  
HETATM    6  O   UNL     1      -9.793   4.363  70.495  1.00  0.00    -0.202 OA 
HETATM    7  O   UNL     1      -9.095   3.921  72.581  1.00  0.00    -0.106 OA 
HETATM    8  C   UNL     1      -8.544   9.207  69.486  1.00  0.00    -0.138 A  
HETATM    9  C   UNL     1      -9.914   9.484  69.513  1.00  0.00    -0.205 A  
HETATM   10  C   UNL     1     -10.775   8.535  70.081  1.00  0.00    -0.240 A  
HETATM   11  C   UNL     1     -10.276   7.382  70.695  1.00  0.00    -0.202 A  
ENDROOT
BRANCH   9  12
HETATM   12  C   UNL     1     -10.467  10.848  69.158  1.00  0.00    -0.248 C  
BRANCH  12  13
HETATM   13  C   UNL     1     -11.871  11.212  69.637  1.00  0.00    -0.419 C  
HETATM   14  C   UNL     1     -12.073  11.042  71.146  1.00  0.00    -0.349 C  
HETATM   15  C   UNL     1     -13.005  12.177  71.554  1.00  0.00    -0.398 C  
HETATM   16  C   UNL     1     -12.526  13.372  70.744  1.00  0.00    -0.418 C  
HETATM   17  C   UNL     1     -12.091  12.706  69.467  1.00  0.00    -0.192 C  
HETATM   18  O   UNL     1     -11.900  13.317  68.420  1.00  0.00    -0.336 OA 
ENDBRANCH  12  13
ENDBRANCH   9  12
TORSDOF 2
ENDMDL
MODEL      170
REMARK 921   NORMALIZED FREE ENERGY PREDICTED BY IDOCK:   -3.31 KCAL/MOL
REMARK 922        TOTAL FREE ENERGY PREDICTED BY IDOCK:   -4.01 KCAL/MOL
REMARK 923 INTER-LIGAND FREE ENERGY PREDICTED BY IDOCK:   -3.63 KCAL/MOL
REMARK 924 INTRA-LIGAND FREE ENERGY PREDICTED BY IDOCK:   -0.37 KCAL/MOL
REMARK 927      BINDING AFFINITY PREDICTED BY RF-SCORE:    0.00 PKD
ROOT
HETATM    1  C   UNL     1     -10.915  10.247  70.017  1.00  0.00    -0.371 C  
HETATM    2  C   UNL     1     -10.979   8.996  70.906  1.00  0.00    -0.332 C  
HETATM    3  C   UNL     1     -10.408   7.816  70.118  1.00  0.00    -0.218 A  
HETATM    4  C   UNL     1     -12.394   8.842  71.468  1.00  0.00    -0.328 C  
HETATM    5  C   UNL     1      -9.020   7.580  70.127  1.00  0.00    -0.147 A  
HETATM    6  O   UNL     1     -12.720   7.587  71.871  1.00  0.00    -0.316 OA 
HETATM    7  O   UNL     1     -13.177   9.770  71.626  1.00  0.00    -0.371 OA 
HETATM    8  C   UNL     1      -8.438   6.646  69.258  1.00  0.00    -0.124 A  
HETATM    9  C   UNL     1      -9.232   5.911  68.372  1.00  0.00    -0.118 A  
HETATM   10  C   UNL     1     -10.623   6.085  68.423  1.00  0.00    -0.322 A  
HETATM   11  C   UNL     1     -11.202   7.039  69.266  1.00  0.00    -0.114 A  
ENDROOT
BRANCH   9  12
HETATM   12  C   UNL     1      -8.640   5.115  67.229  1.00  0.00    -0.104 C  
BRANCH  12  13
HETATM   13  C   UNL     1      -9.589   4.415  66.260  1.00  0.00    -0.201 C  
HETATM   14  C   UNL     1      -9.290   4.703  64.784  1.00  0.00    -0.109 C  
HETATM   15  C   UNL     1      -9.604   3.403  64.053  1.00  0.00    -0.143 C  
HETATM   16  C   UNL     1      -9.085   2.312  64.977  1.00  0.00    -0.125 C  
HETATM   17  C   UNL     1      -9.365   2.913  66.327  1.00  0.00    -0.039 C  
HETATM   18  O   UNL     1      -9.369   2.262  67.367  1.00  0.00    -0.151 OA 
ENDBRANCH  12  13
ENDBRANCH   9  12
TORSDOF 2
ENDMDL
MODEL      171
REMARK 921   NORMALIZED FREE ENERGY PREDICTED BY IDOCK:   -3.29 KCAL/MOL
REMARK 922        TOTAL FREE ENERGY PREDICTED BY IDOCK:   -3.99 KCAL/MOL
REMARK 923 INTER-LIGAND FREE ENERGY PREDICTED BY IDOCK:   -3.52 KCAL/MOL
REMARK 924 INTRA-LIGAND FREE ENERGY PREDICTED BY IDOCK:   -0.46 KCAL/MOL
REMARK 927      BINDING AFFINITY PREDICTED BY RF-SCORE:    0.00 PKD
ROOT
HETATM    1  C   UNL     1     -11.944   6.836  70.848  1.00  0.00    -0.437 C  
HETATM    2  C   UNL     1     -10.998   8.044  70.777  1.00  0.00    -0.259 C  
HETATM    3  C   UNL     1     -10.081   7.867  69.565  1.00  0.00    -0.195 A  
HETATM    4  C   UNL     1     -10.326   8.246  72.136  1.00  0.00    -0.300 C  
HETATM    5  C   UNL     1     -10.511   8.305  68.298  1.00  0.00    -0.211 A  
HETATM    6  O   UNL     1      -9.165   8.947  72.106  1.00  0.00    -0.364 OA 
HETATM    7  O   UNL     1     -10.805   7.881  73.203  1.00  0.00    -0.375 OA 
HETATM    8  C   UNL     1      -9.799   7.975  67.136  1.00  0.00    -0.274 A  
HETATM    9  C   UNL     1      -8.629   7.214  67.215  1.00  0.00    -0.121 A  
HETATM   10  C   UNL     1      -8.155   6.849  68.483  1.00  0.00    -0.120 A  
HETATM   11  C   UNL     1      -8.881   7.150  69.640  1.00  0.00    -0.141 A  
ENDROOT
BRANCH   9  12
HETATM   12  C   UNL     1      -7.988   6.592  65.993  1.00  0.00    -0.112 C  
BRANCH  12  13
HETATM   13  C   UNL     1      -7.977   5.070  65.870  1.00  0.00    -0.107 C  
HETATM   14  C   UNL     1      -9.372   4.436  65.922  1.00  0.00    -0.161 C  
HETATM   15  C   UNL     1      -9.308   3.254  64.960  1.00  0.00    -0.150 C  
HETATM   16  C   UNL     1      -8.492   3.765  63.783  1.00  0.00    -0.092 C  
HETATM   17  C   UNL     1      -7.517   4.678  64.475  1.00  0.00    -0.072 C  
HETATM   18  O   UNL     1      -6.487   5.088  63.949  1.00  0.00    -0.031 OA 
ENDBRANCH  12  13
ENDBRANCH   9  12
TORSDOF 2
ENDMDL
MODEL      172
REMARK 921   NORMALIZED FREE ENERGY PREDICTED BY IDOCK:   -3.29 KCAL/MOL
REMARK 922        TOTAL FREE ENERGY PREDICTED BY IDOCK:   -3.98 KCAL/MOL
REMARK 923 INTER-LIGAND FREE ENERGY PREDICTED BY IDOCK:   -3.44 KCAL/MOL
REMARK 924 INTRA-LIGAND FREE ENERGY PREDICTED BY IDOCK:   -0.54 KCAL/MOL
REMARK 927      BINDING AFFINITY PREDICTED BY RF-SCORE:    0.00 PKD
ROOT
HETATM    1  C   UNL     1     -10.218   9.869  67.698  1.00  0.00    -0.255 C  
HETATM    2  C   UNL     1     -10.150  10.047  69.223  1.00  0.00    -0.226 C  
HETATM    3  C   UNL     1      -9.748   8.710  69.847  1.00  0.00    -0.175 A  
HETATM    4  C   UNL     1     -11.447  10.687  69.719  1.00  0.00    -0.302 C  
HETATM    5  C   UNL     1      -8.385   8.379  69.965  1.00  0.00    -0.123 A  
HETATM    6  O   UNL     1     -11.723  10.488  71.033  1.00  0.00    -0.338 OA 
HETATM    7  O   UNL     1     -12.173  11.396  69.031  1.00  0.00    -0.405 OA 
HETATM    8  C   UNL     1      -7.982   7.088  70.334  1.00  0.00    -0.113 A  
HETATM    9  C   UNL     1      -8.932   6.101  70.611  1.00  0.00    -0.148 A  
HETATM   10  C   UNL     1     -10.289   6.453  70.575  1.00  0.00    -0.247 A  
HETATM   11  C   UNL     1     -10.693   7.731  70.177  1.00  0.00    -0.242 A  
ENDROOT
BRANCH   9  12
HETATM   12  C   UNL     1      -8.564   4.637  70.728  1.00  0.00    -0.117 C  
BRANCH  12  13
HETATM   13  C   UNL     1      -8.340   4.051  72.120  1.00  0.00    -0.101 C  
HETATM   14  C   UNL     1      -8.049   5.103  73.195  1.00  0.00    -0.105 C  
HETATM   15  C   UNL     1      -8.720   4.578  74.460  1.00  0.00    -0.108 C  
HETATM   16  C   UNL     1     -10.036   3.990  73.975  1.00  0.00    -0.200 C  
HETATM   17  C   UNL     1      -9.638   3.446  72.630  1.00  0.00    -0.127 C  
HETATM   18  O   UNL     1     -10.314   2.636  72.004  1.00  0.00    -0.109 OA 
ENDBRANCH  12  13
ENDBRANCH   9  12
TORSDOF 2
ENDMDL
MODEL      173
REMARK 921   NORMALIZED FREE ENERGY PREDICTED BY IDOCK:   -3.29 KCAL/MOL
REMARK 922        TOTAL FREE ENERGY PREDICTED BY IDOCK:   -3.98 KCAL/MOL
REMARK 923 INTER-LIGAND FREE ENERGY PREDICTED BY IDOCK:   -3.82 KCAL/MOL
REMARK 924 INTRA-LIGAND FREE ENERGY PREDICTED BY IDOCK:   -0.17 KCAL/MOL
REMARK 927      BINDING AFFINITY PREDICTED BY RF-SCORE:    0.00 PKD
ROOT
HETATM    1  C   UNL     1     -10.394   4.199  64.955  1.00  0.00    -0.209 C  
HETATM    2  C   UNL     1     -10.232   4.392  66.471  1.00  0.00    -0.155 C  
HETATM    3  C   UNL     1      -9.913   5.864  66.737  1.00  0.00    -0.212 A  
HETATM    4  C   UNL     1      -9.249   3.355  67.015  1.00  0.00    -0.184 C  
HETATM    5  C   UNL     1     -10.964   6.791  66.872  1.00  0.00    -0.370 A  
HETATM    6  O   UNL     1      -8.666   3.678  68.197  1.00  0.00    -0.093 OA 
HETATM    7  O   UNL     1      -9.031   2.270  66.490  1.00  0.00    -0.131 OA 
HETATM    8  C   UNL     1     -10.714   8.171  66.906  1.00  0.00    -0.186 A  
HETATM    9  C   UNL     1      -9.406   8.656  66.824  1.00  0.00    -0.229 A  
HETATM   10  C   UNL     1      -8.354   7.730  66.775  1.00  0.00    -0.125 A  
HETATM   11  C   UNL     1      -8.602   6.356  66.709  1.00  0.00    -0.113 A  
ENDROOT
BRANCH   9  12
HETATM   12  C   UNL     1      -9.102  10.117  66.568  1.00  0.00    -0.166 C  
BRANCH  12  13
HETATM   13  C   UNL     1      -9.690  11.161  67.514  1.00  0.00    -0.193 C  
HETATM   14  C   UNL     1     -11.195  11.382  67.334  1.00  0.00    -0.370 C  
HETATM   15  C   UNL     1     -11.730  11.645  68.737  1.00  0.00    -0.392 C  
HETATM   16  C   UNL     1     -10.968  10.672  69.624  1.00  0.00    -0.331 C  
HETATM   17  C   UNL     1      -9.627  10.642  68.941  1.00  0.00    -0.196 C  
HETATM   18  O   UNL     1      -8.610  10.208  69.473  1.00  0.00    -0.161 OA 
ENDBRANCH  12  13
ENDBRANCH   9  12
TORSDOF 2
ENDMDL
MODEL      174
REMARK 921   NORMALIZED FREE ENERGY PREDICTED BY IDOCK:   -3.29 KCAL/MOL
REMARK 922        TOTAL FREE ENERGY PREDICTED BY IDOCK:   -3.98 KCAL/MOL
REMARK 923 INTER-LIGAND FREE ENERGY PREDICTED BY IDOCK:   -3.58 KCAL/MOL
REMARK 924 INTRA-LIGAND FREE ENERGY PREDICTED BY IDOCK:   -0.40 KCAL/MOL
REMARK 927      BINDING AFFINITY PREDICTED BY RF-SCORE:    0.00 PKD
ROOT
HETATM    1  C   UNL     1      -9.369   5.056  65.555  1.00  0.00    -0.149 C  
HETATM    2  C   UNL     1      -8.291   5.192  66.640  1.00  0.00    -0.108 C  
HETATM    3  C   UNL     1      -8.965   5.655  67.933  1.00  0.00    -0.108 A  
HETATM    4  C   UNL     1      -7.138   6.045  66.109  1.00  0.00    -0.067 C  
HETATM    5  C   UNL     1      -9.525   4.703  68.806  1.00  0.00    -0.214 A  
HETATM    6  O   UNL     1      -6.363   6.623  67.061  1.00  0.00    -0.038 OA 
HETATM    7  O   UNL     1      -6.858   6.163  64.922  1.00  0.00    -0.045 OA 
HETATM    8  C   UNL     1     -10.330   5.095  69.886  1.00  0.00    -0.347 A  
HETATM    9  C   UNL     1     -10.578   6.448  70.130  1.00  0.00    -0.294 A  
HETATM   10  C   UNL     1      -9.951   7.399  69.312  1.00  0.00    -0.173 A  
HETATM   11  C   UNL     1      -9.175   7.010  68.215  1.00  0.00    -0.128 A  
ENDROOT
BRANCH   9  12
HETATM   12  C   UNL     1     -11.655   6.910  71.089  1.00  0.00    -0.363 C  
BRANCH  12  13
HETATM   13  C   UNL     1     -11.412   6.755  72.588  1.00  0.00    -0.218 C  
HETATM   14  C   UNL     1     -11.157   5.309  73.027  1.00  0.00    -0.377 C  
HETATM   15  C   UNL     1     -10.130   5.409  74.150  1.00  0.00    -0.254 C  
HETATM   16  C   UNL     1      -9.166   6.492  73.689  1.00  0.00    -0.150 C  
HETATM   17  C   UNL     1     -10.097   7.422  72.960  1.00  0.00    -0.273 C  
HETATM   18  O   UNL     1      -9.803   8.576  72.666  1.00  0.00    -0.281 OA 
ENDBRANCH  12  13
ENDBRANCH   9  12
TORSDOF 2
ENDMDL
MODEL      175
REMARK 921   NORMALIZED FREE ENERGY PREDICTED BY IDOCK:   -3.28 KCAL/MOL
REMARK 922        TOTAL FREE ENERGY PREDICTED BY IDOCK:   -3.97 KCAL/MOL
REMARK 923 INTER-LIGAND FREE ENERGY PREDICTED BY IDOCK:   -3.60 KCAL/MOL
REMARK 924 INTRA-LIGAND FREE ENERGY PREDICTED BY IDOCK:   -0.37 KCAL/MOL
REMARK 927      BINDING AFFINITY PREDICTED BY RF-SCORE:    0.00 PKD
ROOT
HETATM    1  C   UNL     1      -9.308   9.569  64.415  1.00  0.00    -0.120 C  
HETATM    2  C   UNL     1      -9.528  10.417  65.677  1.00  0.00    -0.262 C  
HETATM    3  C   UNL     1      -9.483   9.490  66.893  1.00  0.00    -0.204 A  
HETATM    4  C   UNL     1     -10.780  11.277  65.501  1.00  0.00    -0.220 C  
HETATM    5  C   UNL     1      -8.245   9.181  67.487  1.00  0.00    -0.108 A  
HETATM    6  O   UNL     1     -11.349  11.710  66.655  1.00  0.00    -0.324 OA 
HETATM    7  O   UNL     1     -11.226  11.632  64.416  1.00  0.00    -0.326 OA 
HETATM    8  C   UNL     1      -8.138   8.179  68.462  1.00  0.00    -0.124 A  
HETATM    9  C   UNL     1      -9.271   7.476  68.882  1.00  0.00    -0.142 A  
HETATM   10  C   UNL     1     -10.516   7.842  68.352  1.00  0.00    -0.207 A  
HETATM   11  C   UNL     1     -10.620   8.818  67.356  1.00  0.00    -0.304 A  
ENDROOT
BRANCH   9  12
HETATM   12  C   UNL     1      -9.174   6.208  69.704  1.00  0.00    -0.148 C  
BRANCH  12  13
HETATM   13  C   UNL     1      -8.916   6.330  71.204  1.00  0.00    -0.146 C  
HETATM   14  C   UNL     1      -7.558   6.950  71.550  1.00  0.00    -0.087 C  
HETATM   15  C   UNL     1      -7.807   7.781  72.803  1.00  0.00    -0.143 C  
HETATM   16  C   UNL     1      -9.163   8.428  72.567  1.00  0.00    -0.338 C  
HETATM   17  C   UNL     1      -9.875   7.347  71.801  1.00  0.00    -0.167 C  
HETATM   18  O   UNL     1     -11.092   7.320  71.647  1.00  0.00    -0.230 OA 
ENDBRANCH  12  13
ENDBRANCH   9  12
TORSDOF 2
ENDMDL
MODEL      176
REMARK 921   NORMALIZED FREE ENERGY PREDICTED BY IDOCK:   -3.27 KCAL/MOL
REMARK 922        TOTAL FREE ENERGY PREDICTED BY IDOCK:   -3.96 KCAL/MOL
REMARK 923 INTER-LIGAND FREE ENERGY PREDICTED BY IDOCK:   -3.39 KCAL/MOL
REMARK 924 INTRA-LIGAND FREE ENERGY PREDICTED BY IDOCK:   -0.57 KCAL/MOL
REMARK 927      BINDING AFFINITY PREDICTED BY RF-SCORE:    0.00 PKD
ROOT
HETATM    1  C   UNL     1      -8.096  16.359  67.126  1.00  0.00    -0.212 C  
HETATM    2  C   UNL     1      -9.205  15.614  67.885  1.00  0.00    -0.190 C  
HETATM    3  C   UNL     1      -8.937  14.112  67.775  1.00  0.00    -0.187 A  
HETATM    4  C   UNL     1     -10.570  16.116  67.413  1.00  0.00    -0.311 C  
HETATM    5  C   UNL     1      -8.079  13.489  68.700  1.00  0.00    -0.055 A  
HETATM    6  O   UNL     1     -11.605  15.266  67.634  1.00  0.00    -0.326 OA 
HETATM    7  O   UNL     1     -10.769  17.226  66.934  1.00  0.00    -0.253 OA 
HETATM    8  C   UNL     1      -7.644  12.169  68.511  1.00  0.00    -0.124 A  
HETATM    9  C   UNL     1      -8.072  11.434  67.402  1.00  0.00    -0.142 A  
HETATM   10  C   UNL     1      -8.994  12.026  66.526  1.00  0.00    -0.193 A  
HETATM   11  C   UNL     1      -9.403  13.352  66.695  1.00  0.00    -0.248 A  
ENDROOT
BRANCH   9  12
HETATM   12  C   UNL     1      -7.419  10.129  66.998  1.00  0.00    -0.092 C  
BRANCH  12  13
HETATM   13  C   UNL     1      -8.146   8.823  67.311  1.00  0.00    -0.101 C  
HETATM   14  C   UNL     1      -9.036   8.893  68.556  1.00  0.00    -0.137 C  
HETATM   15  C   UNL     1     -10.243   8.018  68.233  1.00  0.00    -0.243 C  
HETATM   16  C   UNL     1     -10.550   8.318  66.774  1.00  0.00    -0.226 C  
HETATM   17  C   UNL     1      -9.167   8.538  66.222  1.00  0.00    -0.207 C  
HETATM   18  O   UNL     1      -8.911   8.528  65.022  1.00  0.00    -0.144 OA 
ENDBRANCH  12  13
ENDBRANCH   9  12
TORSDOF 2
ENDMDL
MODEL      177
REMARK 921   NORMALIZED FREE ENERGY PREDICTED BY IDOCK:   -3.26 KCAL/MOL
REMARK 922        TOTAL FREE ENERGY PREDICTED BY IDOCK:   -3.95 KCAL/MOL
REMARK 923 INTER-LIGAND FREE ENERGY PREDICTED BY IDOCK:   -3.79 KCAL/MOL
REMARK 924 INTRA-LIGAND FREE ENERGY PREDICTED BY IDOCK:   -0.16 KCAL/MOL
REMARK 927      BINDING AFFINITY PREDICTED BY RF-SCORE:    0.00 PKD
ROOT
HETATM    1  C   UNL     1      -8.682  13.254  68.160  1.00  0.00    -0.179 C  
HETATM    2  C   UNL     1     -10.092  13.271  67.550  1.00  0.00    -0.223 C  
HETATM    3  C   UNL     1     -10.338  14.653  66.943  1.00  0.00    -0.264 A  
HETATM    4  C   UNL     1     -11.101  12.772  68.585  1.00  0.00    -0.266 C  
HETATM    5  C   UNL     1      -9.917  14.921  65.627  1.00  0.00    -0.389 A  
HETATM    6  O   UNL     1     -12.385  13.155  68.369  1.00  0.00    -0.122 OA 
HETATM    7  O   UNL     1     -10.823  12.023  69.514  1.00  0.00    -0.078 OA 
HETATM    8  C   UNL     1      -9.933  16.224  65.112  1.00  0.00     0.253 A  
HETATM    9  C   UNL     1     -10.389  17.290  65.893  1.00  0.00    -0.287 A  
HETATM   10  C   UNL     1     -10.887  17.011  67.174  1.00  0.00    -0.082 A  
HETATM   11  C   UNL     1     -10.842  15.717  67.702  1.00  0.00    -0.307 A  
ENDROOT
BRANCH   9  12
HETATM   12  C   UNL     1     -10.161  18.734  65.500  1.00  0.00     0.386 C  
BRANCH  12  13
HETATM   13  C   UNL     1      -9.062  19.519  66.213  1.00  0.00    -0.403 C  
HETATM   14  C   UNL     1      -9.400  19.879  67.663  1.00  0.00    -0.464 C  
HETATM   15  C   UNL     1      -8.077  19.786  68.415  1.00  0.00    -0.305 C  
HETATM   16  C   UNL     1      -7.390  18.562  67.829  1.00  0.00    -0.238 C  
HETATM   17  C   UNL     1      -7.843  18.630  66.396  1.00  0.00    -0.283 C  
HETATM   18  O   UNL     1      -7.305  18.002  65.489  1.00  0.00    -0.539 OA 
ENDBRANCH  12  13
ENDBRANCH   9  12
TORSDOF 2
ENDMDL
MODEL      178
REMARK 921   NORMALIZED FREE ENERGY PREDICTED BY IDOCK:   -3.25 KCAL/MOL
REMARK 922        TOTAL FREE ENERGY PREDICTED BY IDOCK:   -3.94 KCAL/MOL
REMARK 923 INTER-LIGAND FREE ENERGY PREDICTED BY IDOCK:   -3.48 KCAL/MOL
REMARK 924 INTRA-LIGAND FREE ENERGY PREDICTED BY IDOCK:   -0.45 KCAL/MOL
REMARK 927      BINDING AFFINITY PREDICTED BY RF-SCORE:    0.00 PKD
ROOT
HETATM    1  C   UNL     1     -11.683  12.830  69.198  1.00  0.00    -0.375 C  
HETATM    2  C   UNL     1     -11.599  13.185  67.706  1.00  0.00    -0.379 C  
HETATM    3  C   UNL     1     -10.600  12.237  67.041  1.00  0.00    -0.248 A  
HETATM    4  C   UNL     1     -11.347  14.685  67.553  1.00  0.00    -0.348 C  
HETATM    5  C   UNL     1     -11.035  10.982  66.574  1.00  0.00    -0.228 A  
HETATM    6  O   UNL     1     -10.805  15.060  66.367  1.00  0.00    -0.316 OA 
HETATM    7  O   UNL     1     -11.665  15.526  68.386  1.00  0.00    -0.365 OA 
HETATM    8  C   UNL     1     -10.119  10.008  66.154  1.00  0.00    -0.317 A  
HETATM    9  C   UNL     1      -8.746  10.271  66.171  1.00  0.00    -0.163 A  
HETATM   10  C   UNL     1      -8.318  11.550  66.555  1.00  0.00    -0.147 A  
HETATM   11  C   UNL     1      -9.227  12.512  67.006  1.00  0.00    -0.214 A  
ENDROOT
BRANCH   9  12
HETATM   12  C   UNL     1      -7.712   9.177  66.007  1.00  0.00    -0.095 C  
BRANCH  12  13
HETATM   13  C   UNL     1      -6.735   8.920  67.152  1.00  0.00    -0.066 C  
HETATM   14  C   UNL     1      -7.413   8.514  68.464  1.00  0.00    -0.094 C  
HETATM   15  C   UNL     1      -6.468   7.504  69.105  1.00  0.00    -0.040 C  
HETATM   16  C   UNL     1      -5.967   6.660  67.943  1.00  0.00    -0.024 C  
HETATM   17  C   UNL     1      -5.907   7.684  66.842  1.00  0.00    -0.039 C  
HETATM   18  O   UNL     1      -5.288   7.513  65.796  1.00  0.00    -0.027 OA 
ENDBRANCH  12  13
ENDBRANCH   9  12
TORSDOF 2
ENDMDL
MODEL      179
REMARK 921   NORMALIZED FREE ENERGY PREDICTED BY IDOCK:   -3.24 KCAL/MOL
REMARK 922        TOTAL FREE ENERGY PREDICTED BY IDOCK:   -3.93 KCAL/MOL
REMARK 923 INTER-LIGAND FREE ENERGY PREDICTED BY IDOCK:   -3.79 KCAL/MOL
REMARK 924 INTRA-LIGAND FREE ENERGY PREDICTED BY IDOCK:   -0.14 KCAL/MOL
REMARK 927      BINDING AFFINITY PREDICTED BY RF-SCORE:    0.00 PKD
ROOT
HETATM    1  C   UNL     1      -6.208  14.235  70.933  1.00  0.00    -0.080 C  
HETATM    2  C   UNL     1      -5.704  13.635  69.611  1.00  0.00    -0.102 C  
HETATM    3  C   UNL     1      -6.028  14.616  68.483  1.00  0.00    -0.093 A  
HETATM    4  C   UNL     1      -6.231  12.207  69.466  1.00  0.00    -0.124 C  
HETATM    5  C   UNL     1      -5.130  15.660  68.189  1.00  0.00    -0.118 A  
HETATM    6  O   UNL     1      -6.264  11.730  68.196  1.00  0.00    -0.049 OA 
HETATM    7  O   UNL     1      -6.541  11.488  70.408  1.00  0.00    -0.185 OA 
HETATM    8  C   UNL     1      -5.484  16.696  67.314  1.00  0.00    -0.178 A  
HETATM    9  C   UNL     1      -6.738  16.704  66.695  1.00  0.00    -0.192 A  
HETATM   10  C   UNL     1      -7.599  15.621  66.922  1.00  0.00    -0.201 A  
HETATM   11  C   UNL     1      -7.261  14.603  67.819  1.00  0.00    -0.191 A  
ENDROOT
BRANCH   9  12
HETATM   12  C   UNL     1      -7.276  17.924  65.980  1.00  0.00    -0.325 C  
BRANCH  12  13
HETATM   13  C   UNL     1      -8.516  18.613  66.546  1.00  0.00    -0.302 C  
HETATM   14  C   UNL     1      -9.812  17.821  66.342  1.00  0.00    -0.328 C  
HETATM   15  C   UNL     1     -10.641  18.083  67.594  1.00  0.00    -0.413 C  
HETATM   16  C   UNL     1      -9.631  18.060  68.731  1.00  0.00    -0.309 C  
HETATM   17  C   UNL     1      -8.422  18.657  68.062  1.00  0.00    -0.291 C  
HETATM   18  O   UNL     1      -7.456  19.092  68.681  1.00  0.00    -0.307 OA 
ENDBRANCH  12  13
ENDBRANCH   9  12
TORSDOF 2
ENDMDL
MODEL      180
REMARK 921   NORMALIZED FREE ENERGY PREDICTED BY IDOCK:   -3.19 KCAL/MOL
REMARK 922        TOTAL FREE ENERGY PREDICTED BY IDOCK:   -3.87 KCAL/MOL
REMARK 923 INTER-LIGAND FREE ENERGY PREDICTED BY IDOCK:   -3.73 KCAL/MOL
REMARK 924 INTRA-LIGAND FREE ENERGY PREDICTED BY IDOCK:   -0.15 KCAL/MOL
REMARK 927      BINDING AFFINITY PREDICTED BY RF-SCORE:    0.00 PKD
ROOT
HETATM    1  C   UNL     1      -9.117   5.923  70.006  1.00  0.00    -0.154 C  
HETATM    2  C   UNL     1      -8.270   7.051  70.613  1.00  0.00    -0.119 C  
HETATM    3  C   UNL     1      -8.430   8.297  69.741  1.00  0.00    -0.128 A  
HETATM    4  C   UNL     1      -6.847   6.545  70.854  1.00  0.00    -0.063 C  
HETATM    5  C   UNL     1      -9.508   9.173  69.971  1.00  0.00    -0.218 A  
HETATM    6  O   UNL     1      -5.899   7.513  70.943  1.00  0.00    -0.034 OA 
HETATM    7  O   UNL     1      -6.554   5.369  71.031  1.00  0.00    -0.040 OA 
HETATM    8  C   UNL     1      -9.810  10.204  69.069  1.00  0.00    -0.211 A  
HETATM    9  C   UNL     1      -9.029  10.395  67.925  1.00  0.00    -0.128 A  
HETATM   10  C   UNL     1      -7.906   9.576  67.741  1.00  0.00    -0.095 A  
HETATM   11  C   UNL     1      -7.622   8.528  68.622  1.00  0.00    -0.098 A  
ENDROOT
BRANCH   9  12
HETATM   12  C   UNL     1      -9.473  11.290  66.788  1.00  0.00    -0.196 C  
BRANCH  12  13
HETATM   13  C   UNL     1     -10.091  12.645  67.124  1.00  0.00    -0.224 C  
HETATM   14  C   UNL     1      -9.816  13.728  66.076  1.00  0.00    -0.298 C  
HETATM   15  C   UNL     1     -11.083  14.575  66.035  1.00  0.00    -0.329 C  
HETATM   16  C   UNL     1     -12.217  13.568  66.149  1.00  0.00    -0.484 C  
HETATM   17  C   UNL     1     -11.606  12.539  67.061  1.00  0.00    -0.368 C  
HETATM   18  O   UNL     1     -12.263  11.688  67.653  1.00  0.00    -0.544 OA 
ENDBRANCH  12  13
ENDBRANCH   9  12
TORSDOF 2
ENDMDL
MODEL      181
REMARK 921   NORMALIZED FREE ENERGY PREDICTED BY IDOCK:   -3.16 KCAL/MOL
REMARK 922        TOTAL FREE ENERGY PREDICTED BY IDOCK:   -3.84 KCAL/MOL
REMARK 923 INTER-LIGAND FREE ENERGY PREDICTED BY IDOCK:   -3.46 KCAL/MOL
REMARK 924 INTRA-LIGAND FREE ENERGY PREDICTED BY IDOCK:   -0.38 KCAL/MOL
REMARK 927      BINDING AFFINITY PREDICTED BY RF-SCORE:    0.00 PKD
ROOT
HETATM    1  C   UNL     1     -11.486   8.856  71.015  1.00  0.00    -0.351 C  
HETATM    2  C   UNL     1     -10.552   7.805  70.397  1.00  0.00    -0.227 C  
HETATM    3  C   UNL     1      -9.749   8.473  69.279  1.00  0.00    -0.173 A  
HETATM    4  C   UNL     1     -11.360   6.560  70.028  1.00  0.00    -0.410 C  
HETATM    5  C   UNL     1      -8.553   9.148  69.589  1.00  0.00    -0.143 A  
HETATM    6  O   UNL     1     -10.794   5.764  69.086  1.00  0.00    -0.304 OA 
HETATM    7  O   UNL     1     -12.408   6.233  70.571  1.00  0.00     0.012 OA 
HETATM    8  C   UNL     1      -7.902   9.945  68.637  1.00  0.00    -0.086 A  
HETATM    9  C   UNL     1      -8.421  10.071  67.345  1.00  0.00    -0.121 A  
HETATM   10  C   UNL     1      -9.565   9.332  67.011  1.00  0.00    -0.223 A  
HETATM   11  C   UNL     1     -10.233   8.562  67.969  1.00  0.00    -0.264 A  
ENDROOT
BRANCH   9  12
HETATM   12  C   UNL     1      -7.932  11.129  66.379  1.00  0.00    -0.147 C  
BRANCH  12  13
HETATM   13  C   UNL     1      -8.730  12.425  66.251  1.00  0.00     0.099 C  
HETATM   14  C   UNL     1     -10.231  12.207  66.035  1.00  0.00    -0.265 C  
HETATM   15  C   UNL     1     -10.911  13.344  66.791  1.00  0.00    -0.298 C  
HETATM   16  C   UNL     1     -10.102  13.487  68.071  1.00  0.00    -0.244 C  
HETATM   17  C   UNL     1      -8.718  13.161  67.581  1.00  0.00    -0.192 C  
HETATM   18  O   UNL     1      -7.699  13.427  68.211  1.00  0.00    -0.123 OA 
ENDBRANCH  12  13
ENDBRANCH   9  12
TORSDOF 2
ENDMDL
MODEL      182
REMARK 921   NORMALIZED FREE ENERGY PREDICTED BY IDOCK:   -3.14 KCAL/MOL
REMARK 922        TOTAL FREE ENERGY PREDICTED BY IDOCK:   -3.82 KCAL/MOL
REMARK 923 INTER-LIGAND FREE ENERGY PREDICTED BY IDOCK:   -3.67 KCAL/MOL
REMARK 924 INTRA-LIGAND FREE ENERGY PREDICTED BY IDOCK:   -0.15 KCAL/MOL
REMARK 927      BINDING AFFINITY PREDICTED BY RF-SCORE:    0.00 PKD
ROOT
HETATM    1  C   UNL     1     -12.339  11.964  70.716  1.00  0.00    -0.416 C  
HETATM    2  C   UNL     1     -12.005  11.131  69.470  1.00  0.00    -0.425 C  
HETATM    3  C   UNL     1     -11.064   9.999  69.885  1.00  0.00    -0.336 A  
HETATM    4  C   UNL     1     -11.531  12.058  68.350  1.00  0.00    -0.301 C  
HETATM    5  C   UNL     1     -11.599   8.793  70.375  1.00  0.00    -0.105 A  
HETATM    6  O   UNL     1     -10.785  11.462  67.385  1.00  0.00    -0.207 OA 
HETATM    7  O   UNL     1     -11.840  13.240  68.256  1.00  0.00    -0.333 OA 
HETATM    8  C   UNL     1     -10.777   7.819  70.959  1.00  0.00    -0.241 A  
HETATM    9  C   UNL     1      -9.396   8.019  71.049  1.00  0.00    -0.170 A  
HETATM   10  C   UNL     1      -8.853   9.182  70.485  1.00  0.00    -0.263 A  
HETATM   11  C   UNL     1      -9.675  10.169  69.931  1.00  0.00    -0.195 A  
ENDROOT
BRANCH   9  12
HETATM   12  C   UNL     1      -8.510   7.148  71.914  1.00  0.00    -0.112 C  
BRANCH  12  13
HETATM   13  C   UNL     1      -7.856   5.920  71.285  1.00  0.00    -0.112 C  
HETATM   14  C   UNL     1      -6.605   5.437  72.027  1.00  0.00    -0.056 C  
HETATM   15  C   UNL     1      -6.637   3.917  71.912  1.00  0.00    -0.015 C  
HETATM   16  C   UNL     1      -8.103   3.552  72.092  1.00  0.00    -0.071 C  
HETATM   17  C   UNL     1      -8.779   4.722  71.432  1.00  0.00    -0.127 C  
HETATM   18  O   UNL     1      -9.958   4.715  71.092  1.00  0.00    -0.186 OA 
ENDBRANCH  12  13
ENDBRANCH   9  12
TORSDOF 2
ENDMDL
MODEL      183
REMARK 921   NORMALIZED FREE ENERGY PREDICTED BY IDOCK:   -3.14 KCAL/MOL
REMARK 922        TOTAL FREE ENERGY PREDICTED BY IDOCK:   -3.82 KCAL/MOL
REMARK 923 INTER-LIGAND FREE ENERGY PREDICTED BY IDOCK:   -3.52 KCAL/MOL
REMARK 924 INTRA-LIGAND FREE ENERGY PREDICTED BY IDOCK:   -0.30 KCAL/MOL
REMARK 927      BINDING AFFINITY PREDICTED BY RF-SCORE:    0.00 PKD
ROOT
HETATM    1  C   UNL     1      -5.685   5.082  68.128  1.00  0.00    -0.017 C  
HETATM    2  C   UNL     1      -6.355   5.850  66.979  1.00  0.00    -0.038 C  
HETATM    3  C   UNL     1      -7.642   6.483  67.510  1.00  0.00    -0.105 A  
HETATM    4  C   UNL     1      -6.477   4.937  65.759  1.00  0.00    -0.040 C  
HETATM    5  C   UNL     1      -7.592   7.742  68.136  1.00  0.00    -0.116 A  
HETATM    6  O   UNL     1      -7.426   5.300  64.860  1.00  0.00    -0.066 OA 
HETATM    7  O   UNL     1      -5.742   3.982  65.536  1.00  0.00    -0.020 OA 
HETATM    8  C   UNL     1      -8.704   8.258  68.818  1.00  0.00    -0.137 A  
HETATM    9  C   UNL     1      -9.899   7.535  68.873  1.00  0.00    -0.159 A  
HETATM   10  C   UNL     1      -9.975   6.320  68.177  1.00  0.00    -0.149 A  
HETATM   11  C   UNL     1      -8.858   5.789  67.524  1.00  0.00    -0.106 A  
ENDROOT
BRANCH   9  12
HETATM   12  C   UNL     1     -11.020   7.901  69.822  1.00  0.00    -0.148 C  
BRANCH  12  13
HETATM   13  C   UNL     1     -10.994   9.276  70.486  1.00  0.00    -0.318 C  
HETATM   14  C   UNL     1     -11.465  10.413  69.573  1.00  0.00    -0.311 C  
HETATM   15  C   UNL     1     -12.206  11.379  70.490  1.00  0.00    -0.478 C  
HETATM   16  C   UNL     1     -12.983  10.481  71.441  1.00  0.00    -0.542 C  
HETATM   17  C   UNL     1     -12.034   9.324  71.593  1.00  0.00    -0.378 C  
HETATM   18  O   UNL     1     -12.122   8.493  72.491  1.00  0.00    -0.389 OA 
ENDBRANCH  12  13
ENDBRANCH   9  12
TORSDOF 2
ENDMDL
MODEL      184
REMARK 921   NORMALIZED FREE ENERGY PREDICTED BY IDOCK:   -3.05 KCAL/MOL
REMARK 922        TOTAL FREE ENERGY PREDICTED BY IDOCK:   -3.71 KCAL/MOL
REMARK 923 INTER-LIGAND FREE ENERGY PREDICTED BY IDOCK:   -3.45 KCAL/MOL
REMARK 924 INTRA-LIGAND FREE ENERGY PREDICTED BY IDOCK:   -0.27 KCAL/MOL
REMARK 927      BINDING AFFINITY PREDICTED BY RF-SCORE:    0.00 PKD
ROOT
HETATM    1  C   UNL     1     -11.357   5.968  70.803  1.00  0.00    -0.295 C  
HETATM    2  C   UNL     1     -11.278   7.117  71.821  1.00  0.00    -0.278 C  
HETATM    3  C   UNL     1     -10.472   8.257  71.198  1.00  0.00    -0.254 A  
HETATM    4  C   UNL     1     -10.794   6.572  73.166  1.00  0.00    -0.257 C  
HETATM    5  C   UNL     1     -11.122   9.207  70.387  1.00  0.00    -0.293 A  
HETATM    6  O   UNL     1     -10.247   7.495  73.997  1.00  0.00    -0.184 OA 
HETATM    7  O   UNL     1     -10.937   5.412  73.532  1.00  0.00    -0.285 OA 
HETATM    8  C   UNL     1     -10.393  10.138  69.633  1.00  0.00    -0.278 A  
HETATM    9  C   UNL     1      -8.997  10.154  69.686  1.00  0.00    -0.190 A  
HETATM   10  C   UNL     1      -8.353   9.264  70.558  1.00  0.00    -0.237 A  
HETATM   11  C   UNL     1      -9.076   8.314  71.286  1.00  0.00    -0.202 A  
ENDROOT
BRANCH   9  12
HETATM   12  C   UNL     1      -8.161  10.929  68.690  1.00  0.00    -0.143 C  
BRANCH  12  13
HETATM   13  C   UNL     1      -7.313  10.150  67.687  1.00  0.00    -0.089 C  
HETATM   14  C   UNL     1      -6.199   9.319  68.333  1.00  0.00    -0.053 C  
HETATM   15  C   UNL     1      -6.102   8.056  67.484  1.00  0.00    -0.051 C  
HETATM   16  C   UNL     1      -7.545   7.702  67.161  1.00  0.00    -0.104 C  
HETATM   17  C   UNL     1      -8.162   9.069  67.038  1.00  0.00    -0.109 C  
HETATM   18  O   UNL     1      -9.249   9.273  66.508  1.00  0.00    -0.145 OA 
ENDBRANCH  12  13
ENDBRANCH   9  12
TORSDOF 2
ENDMDL
MODEL      185
REMARK 921   NORMALIZED FREE ENERGY PREDICTED BY IDOCK:   -3.05 KCAL/MOL
REMARK 922        TOTAL FREE ENERGY PREDICTED BY IDOCK:   -3.71 KCAL/MOL
REMARK 923 INTER-LIGAND FREE ENERGY PREDICTED BY IDOCK:   -3.57 KCAL/MOL
REMARK 924 INTRA-LIGAND FREE ENERGY PREDICTED BY IDOCK:   -0.14 KCAL/MOL
REMARK 927      BINDING AFFINITY PREDICTED BY RF-SCORE:    0.00 PKD
ROOT
HETATM    1  C   UNL     1      -9.178   9.652  70.203  1.00  0.00    -0.287 C  
HETATM    2  C   UNL     1     -10.545   9.558  69.509  1.00  0.00    -0.238 C  
HETATM    3  C   UNL     1     -10.609   8.233  68.748  1.00  0.00    -0.152 A  
HETATM    4  C   UNL     1     -10.798  10.836  68.707  1.00  0.00    -0.221 C  
HETATM    5  C   UNL     1     -11.026   7.066  69.417  1.00  0.00    -0.232 A  
HETATM    6  O   UNL     1     -11.707  10.718  67.706  1.00  0.00    -0.547 OA 
HETATM    7  O   UNL     1     -10.293  11.923  68.965  1.00  0.00    -0.150 OA 
HETATM    8  C   UNL     1     -10.898   5.804  68.820  1.00  0.00    -0.285 A  
HETATM    9  C   UNL     1     -10.369   5.679  67.532  1.00  0.00    -0.277 A  
HETATM   10  C   UNL     1     -10.033   6.848  66.834  1.00  0.00    -0.264 A  
HETATM   11  C   UNL     1     -10.129   8.105  67.439  1.00  0.00    -0.298 A  
ENDROOT
BRANCH   9  12
HETATM   12  C   UNL     1      -9.945   4.343  66.961  1.00  0.00    -0.197 C  
BRANCH  12  13
HETATM   13  C   UNL     1      -8.510   3.874  67.190  1.00  0.00    -0.100 C  
HETATM   14  C   UNL     1      -7.456   4.750  66.505  1.00  0.00    -0.086 C  
HETATM   15  C   UNL     1      -6.268   4.765  67.460  1.00  0.00    -0.039 C  
HETATM   16  C   UNL     1      -6.893   4.861  68.843  1.00  0.00    -0.051 C  
HETATM   17  C   UNL     1      -8.147   4.053  68.655  1.00  0.00    -0.075 C  
HETATM   18  O   UNL     1      -8.819   3.624  69.589  1.00  0.00    -0.074 OA 
ENDBRANCH  12  13
ENDBRANCH   9  12
TORSDOF 2
ENDMDL
MODEL      186
REMARK 921   NORMALIZED FREE ENERGY PREDICTED BY IDOCK:   -3.02 KCAL/MOL
REMARK 922        TOTAL FREE ENERGY PREDICTED BY IDOCK:   -3.68 KCAL/MOL
REMARK 923 INTER-LIGAND FREE ENERGY PREDICTED BY IDOCK:   -3.35 KCAL/MOL
REMARK 924 INTRA-LIGAND FREE ENERGY PREDICTED BY IDOCK:   -0.33 KCAL/MOL
REMARK 927      BINDING AFFINITY PREDICTED BY RF-SCORE:    0.00 PKD
ROOT
HETATM    1  C   UNL     1      -8.596   8.790  62.541  1.00  0.00    -0.171 C  
HETATM    2  C   UNL     1      -7.461   8.521  63.540  1.00  0.00    -0.112 C  
HETATM    3  C   UNL     1      -8.069   7.923  64.810  1.00  0.00    -0.141 A  
HETATM    4  C   UNL     1      -6.613   9.784  63.699  1.00  0.00    -0.119 C  
HETATM    5  C   UNL     1      -8.282   6.534  64.892  1.00  0.00    -0.097 A  
HETATM    6  O   UNL     1      -5.890   9.851  64.846  1.00  0.00    -0.078 OA 
HETATM    7  O   UNL     1      -6.510  10.657  62.847  1.00  0.00    -0.114 OA 
HETATM    8  C   UNL     1      -9.024   5.975  65.943  1.00  0.00    -0.144 A  
HETATM    9  C   UNL     1      -9.554   6.790  66.947  1.00  0.00    -0.200 A  
HETATM   10  C   UNL     1      -9.270   8.163  66.911  1.00  0.00    -0.198 A  
HETATM   11  C   UNL     1      -8.558   8.726  65.847  1.00  0.00    -0.174 A  
ENDROOT
BRANCH   9  12
HETATM   12  C   UNL     1     -10.590   6.287  67.931  1.00  0.00    -0.327 C  
BRANCH  12  13
HETATM   13  C   UNL     1     -10.443   6.668  69.402  1.00  0.00    -0.254 C  
HETATM   14  C   UNL     1     -11.771   6.711  70.165  1.00  0.00    -0.412 C  
HETATM   15  C   UNL     1     -11.442   6.206  71.566  1.00  0.00    -0.325 C  
HETATM   16  C   UNL     1     -10.463   5.064  71.339  1.00  0.00    -0.213 C  
HETATM   17  C   UNL     1      -9.704   5.562  70.139  1.00  0.00    -0.182 C  
HETATM   18  O   UNL     1      -8.628   5.094  69.781  1.00  0.00    -0.094 OA 
ENDBRANCH  12  13
ENDBRANCH   9  12
TORSDOF 2
ENDMDL
MODEL      187
REMARK 921   NORMALIZED FREE ENERGY PREDICTED BY IDOCK:   -3.01 KCAL/MOL
REMARK 922        TOTAL FREE ENERGY PREDICTED BY IDOCK:   -3.67 KCAL/MOL
REMARK 923 INTER-LIGAND FREE ENERGY PREDICTED BY IDOCK:   -3.28 KCAL/MOL
REMARK 924 INTRA-LIGAND FREE ENERGY PREDICTED BY IDOCK:   -0.39 KCAL/MOL
REMARK 927      BINDING AFFINITY PREDICTED BY RF-SCORE:    0.00 PKD
ROOT
HETATM    1  C   UNL     1     -12.351  11.959  70.674  1.00  0.00    -0.405 C  
HETATM    2  C   UNL     1     -12.054  11.304  69.316  1.00  0.00    -0.372 C  
HETATM    3  C   UNL     1     -11.118  10.116  69.548  1.00  0.00    -0.295 A  
HETATM    4  C   UNL     1     -11.592  12.374  68.325  1.00  0.00    -0.333 C  
HETATM    5  C   UNL     1     -11.659   8.859  69.878  1.00  0.00     0.204 A  
HETATM    6  O   UNL     1     -10.875  11.910  67.270  1.00  0.00    -0.226 OA 
HETATM    7  O   UNL     1     -11.888  13.560  68.403  1.00  0.00    -0.341 OA 
HETATM    8  C   UNL     1     -10.837   7.805  70.302  1.00  0.00    -0.252 A  
HETATM    9  C   UNL     1      -9.452   7.977  70.388  1.00  0.00    -0.166 A  
HETATM   10  C   UNL     1      -8.906   9.202  69.978  1.00  0.00    -0.193 A  
HETATM   11  C   UNL     1      -9.727  10.265  69.586  1.00  0.00    -0.216 A  
ENDROOT
BRANCH   9  12
HETATM   12  C   UNL     1      -8.559   6.986  71.104  1.00  0.00    -0.133 C  
BRANCH  12  13
HETATM   13  C   UNL     1      -8.489   7.037  72.628  1.00  0.00    -0.124 C  
HETATM   14  C   UNL     1      -8.796   5.698  73.306  1.00  0.00    -0.121 C  
HETATM   15  C   UNL     1      -7.879   5.647  74.523  1.00  0.00    -0.097 C  
HETATM   16  C   UNL     1      -6.564   6.234  74.033  1.00  0.00    -0.071 C  
HETATM   17  C   UNL     1      -7.051   7.273  73.060  1.00  0.00    -0.072 C  
HETATM   18  O   UNL     1      -6.345   8.184  72.638  1.00  0.00    -0.067 OA 
ENDBRANCH  12  13
ENDBRANCH   9  12
TORSDOF 2
ENDMDL
MODEL      188
REMARK 921   NORMALIZED FREE ENERGY PREDICTED BY IDOCK:   -2.99 KCAL/MOL
REMARK 922        TOTAL FREE ENERGY PREDICTED BY IDOCK:   -3.65 KCAL/MOL
REMARK 923 INTER-LIGAND FREE ENERGY PREDICTED BY IDOCK:   -3.39 KCAL/MOL
REMARK 924 INTRA-LIGAND FREE ENERGY PREDICTED BY IDOCK:   -0.25 KCAL/MOL
REMARK 927      BINDING AFFINITY PREDICTED BY RF-SCORE:    0.00 PKD
ROOT
HETATM    1  C   UNL     1     -11.945   6.834  70.837  1.00  0.00    -0.437 C  
HETATM    2  C   UNL     1     -11.020   8.061  70.842  1.00  0.00    -0.260 C  
HETATM    3  C   UNL     1     -10.085   7.963  69.636  1.00  0.00    -0.197 A  
HETATM    4  C   UNL     1     -10.371   8.204  72.219  1.00  0.00    -0.292 C  
HETATM    5  C   UNL     1     -10.505   8.460  68.387  1.00  0.00    -0.208 A  
HETATM    6  O   UNL     1      -9.222   8.926  72.243  1.00  0.00    -0.376 OA 
HETATM    7  O   UNL     1     -10.858   7.776  73.259  1.00  0.00    -0.383 OA 
HETATM    8  C   UNL     1      -9.771   8.203  67.221  1.00  0.00    -0.233 A  
HETATM    9  C   UNL     1      -8.589   7.460  67.277  1.00  0.00    -0.118 A  
HETATM   10  C   UNL     1      -8.126   7.038  68.531  1.00  0.00    -0.124 A  
HETATM   11  C   UNL     1      -8.873   7.265  69.692  1.00  0.00    -0.141 A  
ENDROOT
BRANCH   9  12
HETATM   12  C   UNL     1      -7.920   6.914  66.033  1.00  0.00    -0.109 C  
BRANCH  12  13
HETATM   13  C   UNL     1      -8.042   7.705  64.733  1.00  0.00    -0.121 C  
HETATM   14  C   UNL     1      -7.500   9.135  64.825  1.00  0.00    -0.106 C  
HETATM   15  C   UNL     1      -6.876   9.414  63.462  1.00  0.00    -0.098 C  
HETATM   16  C   UNL     1      -6.186   8.112  63.086  1.00  0.00    -0.077 C  
HETATM   17  C   UNL     1      -7.123   7.099  63.684  1.00  0.00    -0.069 C  
HETATM   18  O   UNL     1      -7.112   5.910  63.381  1.00  0.00    -0.043 OA 
ENDBRANCH  12  13
ENDBRANCH   9  12
TORSDOF 2
ENDMDL
MODEL      189
REMARK 921   NORMALIZED FREE ENERGY PREDICTED BY IDOCK:   -2.98 KCAL/MOL
REMARK 922        TOTAL FREE ENERGY PREDICTED BY IDOCK:   -3.64 KCAL/MOL
REMARK 923 INTER-LIGAND FREE ENERGY PREDICTED BY IDOCK:   -3.30 KCAL/MOL
REMARK 924 INTRA-LIGAND FREE ENERGY PREDICTED BY IDOCK:   -0.34 KCAL/MOL
REMARK 927      BINDING AFFINITY PREDICTED BY RF-SCORE:    0.00 PKD
ROOT
HETATM    1  C   UNL     1      -9.658   9.995  64.889  1.00  0.00    -0.375 C  
HETATM    2  C   UNL     1      -9.706  10.557  66.318  1.00  0.00    -0.254 C  
HETATM    3  C   UNL     1      -9.623   9.386  67.299  1.00  0.00    -0.194 A  
HETATM    4  C   UNL     1     -10.904  11.498  66.455  1.00  0.00    -0.285 C  
HETATM    5  C   UNL     1      -8.363   8.891  67.686  1.00  0.00    -0.110 A  
HETATM    6  O   UNL     1     -11.338  11.697  67.725  1.00  0.00    -0.248 OA 
HETATM    7  O   UNL     1     -11.416  12.103  65.520  1.00  0.00    -0.340 OA 
HETATM    8  C   UNL     1      -8.245   7.697  68.410  1.00  0.00    -0.125 A  
HETATM    9  C   UNL     1      -9.384   6.977  68.782  1.00  0.00    -0.134 A  
HETATM   10  C   UNL     1     -10.642   7.514  68.469  1.00  0.00    -0.172 A  
HETATM   11  C   UNL     1     -10.761   8.688  67.720  1.00  0.00    -0.178 A  
ENDROOT
BRANCH   9  12
HETATM   12  C   UNL     1      -9.308   5.558  69.302  1.00  0.00    -0.153 C  
BRANCH  12  13
HETATM   13  C   UNL     1      -9.171   5.339  70.807  1.00  0.00    -0.191 C  
HETATM   14  C   UNL     1     -10.104   4.258  71.363  1.00  0.00    -0.187 C  
HETATM   15  C   UNL     1      -9.306   3.570  72.464  1.00  0.00    -0.167 C  
HETATM   16  C   UNL     1      -7.894   3.472  71.906  1.00  0.00    -0.062 C  
HETATM   17  C   UNL     1      -7.805   4.746  71.110  1.00  0.00    -0.083 C  
HETATM   18  O   UNL     1      -6.744   5.223  70.718  1.00  0.00    -0.040 OA 
ENDBRANCH  12  13
ENDBRANCH   9  12
TORSDOF 2
ENDMDL
MODEL      190
REMARK 921   NORMALIZED FREE ENERGY PREDICTED BY IDOCK:   -2.98 KCAL/MOL
REMARK 922        TOTAL FREE ENERGY PREDICTED BY IDOCK:   -3.63 KCAL/MOL
REMARK 923 INTER-LIGAND FREE ENERGY PREDICTED BY IDOCK:   -3.19 KCAL/MOL
REMARK 924 INTRA-LIGAND FREE ENERGY PREDICTED BY IDOCK:   -0.44 KCAL/MOL
REMARK 927      BINDING AFFINITY PREDICTED BY RF-SCORE:    0.00 PKD
ROOT
HETATM    1  C   UNL     1      -8.661   4.023  62.525  1.00  0.00    -0.092 C  
HETATM    2  C   UNL     1      -8.145   3.526  63.883  1.00  0.00    -0.089 C  
HETATM    3  C   UNL     1      -8.647   4.481  64.968  1.00  0.00    -0.133 A  
HETATM    4  C   UNL     1      -6.635   3.295  63.801  1.00  0.00    -0.031 C  
HETATM    5  C   UNL     1      -9.919   4.281  65.536  1.00  0.00    -0.233 A  
HETATM    6  O   UNL     1      -5.985   3.306  64.992  1.00  0.00    -0.021 OA 
HETATM    7  O   UNL     1      -6.032   3.042  62.765  1.00  0.00    -0.012 OA 
HETATM    8  C   UNL     1     -10.499   5.245  66.373  1.00  0.00    -0.347 A  
HETATM    9  C   UNL     1      -9.813   6.424  66.678  1.00  0.00    -0.203 A  
HETATM   10  C   UNL     1      -8.512   6.584  66.180  1.00  0.00    -0.137 A  
HETATM   11  C   UNL     1      -7.944   5.639  65.320  1.00  0.00    -0.114 A  
ENDROOT
BRANCH   9  12
HETATM   12  C   UNL     1     -10.495   7.608  67.328  1.00  0.00    -0.396 C  
BRANCH  12  13
HETATM   13  C   UNL     1     -10.657   7.614  68.846  1.00  0.00    -0.176 C  
HETATM   14  C   UNL     1     -11.277   6.329  69.407  1.00  0.00    -0.489 C  
HETATM   15  C   UNL     1     -10.581   6.102  70.744  1.00  0.00    -0.299 C  
HETATM   16  C   UNL     1      -9.129   6.474  70.487  1.00  0.00    -0.152 C  
HETATM   17  C   UNL     1      -9.285   7.600  69.502  1.00  0.00    -0.150 C  
HETATM   18  O   UNL     1      -8.386   8.391  69.234  1.00  0.00    -0.118 OA 
ENDBRANCH  12  13
ENDBRANCH   9  12
TORSDOF 2
ENDMDL
MODEL      191
REMARK 921   NORMALIZED FREE ENERGY PREDICTED BY IDOCK:   -2.95 KCAL/MOL
REMARK 922        TOTAL FREE ENERGY PREDICTED BY IDOCK:   -3.60 KCAL/MOL
REMARK 923 INTER-LIGAND FREE ENERGY PREDICTED BY IDOCK:   -3.07 KCAL/MOL
REMARK 924 INTRA-LIGAND FREE ENERGY PREDICTED BY IDOCK:   -0.52 KCAL/MOL
REMARK 927      BINDING AFFINITY PREDICTED BY RF-SCORE:    0.00 PKD
ROOT
HETATM    1  C   UNL     1      -8.869   9.376  70.749  1.00  0.00    -0.233 C  
HETATM    2  C   UNL     1     -10.159   9.158  69.944  1.00  0.00    -0.219 C  
HETATM    3  C   UNL     1     -10.202   7.699  69.488  1.00  0.00    -0.209 A  
HETATM    4  C   UNL     1     -10.271  10.232  68.860  1.00  0.00    -0.205 C  
HETATM    5  C   UNL     1     -10.737   6.718  70.344  1.00  0.00    -0.281 A  
HETATM    6  O   UNL     1     -11.074   9.914  67.814  1.00  0.00    -0.269 OA 
HETATM    7  O   UNL     1      -9.748  11.338  68.929  1.00  0.00    -0.196 OA 
HETATM    8  C   UNL     1     -10.605   5.353  70.054  1.00  0.00    -0.354 A  
HETATM    9  C   UNL     1      -9.950   4.935  68.892  1.00  0.00    -0.220 A  
HETATM   10  C   UNL     1      -9.492   5.913  67.998  1.00  0.00    -0.111 A  
HETATM   11  C   UNL     1      -9.595   7.275  68.300  1.00  0.00    -0.150 A  
ENDROOT
BRANCH   9  12
HETATM   12  C   UNL     1      -9.528   3.497  68.676  1.00  0.00    -0.209 C  
BRANCH  12  13
HETATM   13  C   UNL     1      -8.435   2.916  69.569  1.00  0.00    -0.101 C  
HETATM   14  C   UNL     1      -7.375   3.938  69.994  1.00  0.00    -0.042 C  
HETATM   15  C   UNL     1      -6.992   3.547  71.417  1.00  0.00    -0.032 C  
HETATM   16  C   UNL     1      -8.308   3.150  72.070  1.00  0.00    -0.068 C  
HETATM   17  C   UNL     1      -9.033   2.523  70.910  1.00  0.00    -0.092 C  
HETATM   18  O   UNL     1     -10.021   1.808  71.041  1.00  0.00    -0.085 OA 
ENDBRANCH  12  13
ENDBRANCH   9  12
TORSDOF 2
ENDMDL
MODEL      192
REMARK 921   NORMALIZED FREE ENERGY PREDICTED BY IDOCK:   -2.94 KCAL/MOL
REMARK 922        TOTAL FREE ENERGY PREDICTED BY IDOCK:   -3.60 KCAL/MOL
REMARK 923 INTER-LIGAND FREE ENERGY PREDICTED BY IDOCK:   -3.34 KCAL/MOL
REMARK 924 INTRA-LIGAND FREE ENERGY PREDICTED BY IDOCK:   -0.26 KCAL/MOL
REMARK 927      BINDING AFFINITY PREDICTED BY RF-SCORE:    0.00 PKD
ROOT
HETATM    1  C   UNL     1      -8.689   5.723  64.690  1.00  0.00     0.063 C  
HETATM    2  C   UNL     1      -7.437   6.561  64.387  1.00  0.00    -0.091 C  
HETATM    3  C   UNL     1      -7.727   8.013  64.767  1.00  0.00    -0.120 A  
HETATM    4  C   UNL     1      -6.980   6.292  62.952  1.00  0.00    -0.042 C  
HETATM    5  C   UNL     1      -7.520   8.440  66.092  1.00  0.00    -0.088 A  
HETATM    6  O   UNL     1      -6.205   7.262  62.404  1.00  0.00    -0.052 OA 
HETATM    7  O   UNL     1      -7.212   5.259  62.336  1.00  0.00    -0.042 OA 
HETATM    8  C   UNL     1      -7.969   9.695  66.528  1.00  0.00    -0.112 A  
HETATM    9  C   UNL     1      -8.618  10.562  65.644  1.00  0.00    -0.182 A  
HETATM   10  C   UNL     1      -8.748  10.171  64.303  1.00  0.00    -0.218 A  
HETATM   11  C   UNL     1      -8.330   8.908  63.875  1.00  0.00    -0.162 A  
ENDROOT
BRANCH   9  12
HETATM   12  C   UNL     1      -9.369  11.787  66.121  1.00  0.00    -0.236 C  
BRANCH  12  13
HETATM   13  C   UNL     1     -10.201  12.572  65.109  1.00  0.00    -0.299 C  
HETATM   14  C   UNL     1     -11.600  11.991  64.876  1.00  0.00    -0.332 C  
HETATM   15  C   UNL     1     -12.503  13.201  64.661  1.00  0.00    -0.433 C  
HETATM   16  C   UNL     1     -12.009  14.227  65.669  1.00  0.00    -0.390 C  
HETATM   17  C   UNL     1     -10.532  13.941  65.680  1.00  0.00    -0.312 C  
HETATM   18  O   UNL     1      -9.698  14.717  66.138  1.00  0.00    -0.290 OA 
ENDBRANCH  12  13
ENDBRANCH   9  12
TORSDOF 2
ENDMDL
MODEL      193
REMARK 921   NORMALIZED FREE ENERGY PREDICTED BY IDOCK:   -2.88 KCAL/MOL
REMARK 922        TOTAL FREE ENERGY PREDICTED BY IDOCK:   -3.53 KCAL/MOL
REMARK 923 INTER-LIGAND FREE ENERGY PREDICTED BY IDOCK:   -2.99 KCAL/MOL
REMARK 924 INTRA-LIGAND FREE ENERGY PREDICTED BY IDOCK:   -0.53 KCAL/MOL
REMARK 927      BINDING AFFINITY PREDICTED BY RF-SCORE:    0.00 PKD
ROOT
HETATM    1  C   UNL     1     -10.196   4.244  65.157  1.00  0.00    -0.228 C  
HETATM    2  C   UNL     1     -10.046   4.492  66.665  1.00  0.00    -0.238 C  
HETATM    3  C   UNL     1      -9.754   5.978  66.882  1.00  0.00    -0.173 A  
HETATM    4  C   UNL     1      -9.047   3.492  67.249  1.00  0.00    -0.170 C  
HETATM    5  C   UNL     1     -10.822   6.889  66.981  1.00  0.00    -0.436 A  
HETATM    6  O   UNL     1      -8.477   3.865  68.422  1.00  0.00    -0.089 OA 
HETATM    7  O   UNL     1      -8.807   2.393  66.762  1.00  0.00    -0.119 OA 
HETATM    8  C   UNL     1     -10.598   8.273  66.968  1.00  0.00    -0.328 A  
HETATM    9  C   UNL     1      -9.298   8.779  66.877  1.00  0.00    -0.213 A  
HETATM   10  C   UNL     1      -8.229   7.872  66.864  1.00  0.00    -0.116 A  
HETATM   11  C   UNL     1      -8.453   6.492  66.844  1.00  0.00    -0.114 A  
ENDROOT
BRANCH   9  12
HETATM   12  C   UNL     1      -9.019  10.236  66.571  1.00  0.00    -0.161 C  
BRANCH  12  13
HETATM   13  C   UNL     1      -8.394  11.103  67.662  1.00  0.00    -0.122 C  
HETATM   14  C   UNL     1      -8.559  10.533  69.075  1.00  0.00    -0.160 C  
HETATM   15  C   UNL     1      -7.270  10.899  69.804  1.00  0.00    -0.061 C  
HETATM   16  C   UNL     1      -6.175  10.691  68.770  1.00  0.00    -0.043 C  
HETATM   17  C   UNL     1      -6.883  11.100  67.507  1.00  0.00    -0.086 C  
HETATM   18  O   UNL     1      -6.297  11.361  66.461  1.00  0.00    -0.138 OA 
ENDBRANCH  12  13
ENDBRANCH   9  12
TORSDOF 2
ENDMDL
MODEL      194
REMARK 921   NORMALIZED FREE ENERGY PREDICTED BY IDOCK:   -2.75 KCAL/MOL
REMARK 922        TOTAL FREE ENERGY PREDICTED BY IDOCK:   -3.38 KCAL/MOL
REMARK 923 INTER-LIGAND FREE ENERGY PREDICTED BY IDOCK:   -2.86 KCAL/MOL
REMARK 924 INTRA-LIGAND FREE ENERGY PREDICTED BY IDOCK:   -0.52 KCAL/MOL
REMARK 927      BINDING AFFINITY PREDICTED BY RF-SCORE:    0.00 PKD
ROOT
HETATM    1  C   UNL     1     -12.145  12.449  68.515  1.00  0.00    -0.126 C  
HETATM    2  C   UNL     1     -11.210  12.174  67.327  1.00  0.00    -0.366 C  
HETATM    3  C   UNL     1     -10.354  10.951  67.661  1.00  0.00    -0.232 A  
HETATM    4  C   UNL     1     -10.473  13.460  66.951  1.00  0.00    -0.273 C  
HETATM    5  C   UNL     1     -10.848   9.661  67.390  1.00  0.00    -0.242 A  
HETATM    6  O   UNL     1      -9.318  13.282  66.261  1.00  0.00    -0.220 OA 
HETATM    7  O   UNL     1     -10.897  14.588  67.174  1.00  0.00    -0.285 OA 
HETATM    8  C   UNL     1     -10.192   8.518  67.869  1.00  0.00    -0.273 A  
HETATM    9  C   UNL     1      -9.016   8.636  68.615  1.00  0.00    -0.142 A  
HETATM   10  C   UNL     1      -8.478   9.916  68.813  1.00  0.00    -0.122 A  
HETATM   11  C   UNL     1      -9.147  11.059  68.363  1.00  0.00    -0.161 A  
ENDROOT
BRANCH   9  12
HETATM   12  C   UNL     1      -8.433   7.475  69.391  1.00  0.00    -0.133 C  
BRANCH  12  13
HETATM   13  C   UNL     1      -7.364   6.614  68.722  1.00  0.00    -0.090 C  
HETATM   14  C   UNL     1      -7.527   6.494  67.203  1.00  0.00    -0.088 C  
HETATM   15  C   UNL     1      -6.106   6.461  66.651  1.00  0.00    -0.032 C  
HETATM   16  C   UNL     1      -5.347   7.475  67.492  1.00  0.00    -0.026 C  
HETATM   17  C   UNL     1      -6.015   7.307  68.829  1.00  0.00    -0.026 C  
HETATM   18  O   UNL     1      -5.536   7.723  69.879  1.00  0.00    -0.023 OA 
ENDBRANCH  12  13
ENDBRANCH   9  12
TORSDOF 2
ENDMDL
MODEL      195
REMARK 921   NORMALIZED FREE ENERGY PREDICTED BY IDOCK:   -2.58 KCAL/MOL
REMARK 922        TOTAL FREE ENERGY PREDICTED BY IDOCK:   -3.19 KCAL/MOL
REMARK 923 INTER-LIGAND FREE ENERGY PREDICTED BY IDOCK:   -2.73 KCAL/MOL
REMARK 924 INTRA-LIGAND FREE ENERGY PREDICTED BY IDOCK:   -0.46 KCAL/MOL
REMARK 927      BINDING AFFINITY PREDICTED BY RF-SCORE:    0.00 PKD
ROOT
HETATM    1  C   UNL     1      -8.992   6.695  72.052  1.00  0.00    -0.139 C  
HETATM    2  C   UNL     1      -8.815   5.232  71.617  1.00  0.00    -0.144 C  
HETATM    3  C   UNL     1      -8.871   5.174  70.090  1.00  0.00    -0.139 A  
HETATM    4  C   UNL     1      -9.800   4.350  72.386  1.00  0.00    -0.167 C  
HETATM    5  C   UNL     1      -7.699   5.391  69.342  1.00  0.00    -0.085 A  
HETATM    6  O   UNL     1     -10.082   3.157  71.803  1.00  0.00    -0.151 OA 
HETATM    7  O   UNL     1     -10.265   4.631  73.484  1.00  0.00    -0.153 OA 
HETATM    8  C   UNL     1      -7.746   5.554  67.950  1.00  0.00    -0.092 A  
HETATM    9  C   UNL     1      -8.965   5.484  67.270  1.00  0.00    -0.111 A  
HETATM   10  C   UNL     1     -10.122   5.183  68.004  1.00  0.00    -0.189 A  
HETATM   11  C   UNL     1     -10.081   5.053  69.396  1.00  0.00    -0.288 A  
ENDROOT
BRANCH   9  12
HETATM   12  C   UNL     1      -9.113   5.933  65.831  1.00  0.00    -0.135 C  
BRANCH  12  13
HETATM   13  C   UNL     1      -8.808   4.931  64.720  1.00  0.00    -0.147 C  
HETATM   14  C   UNL     1      -7.587   4.049  65.001  1.00  0.00    -0.077 C  
HETATM   15  C   UNL     1      -7.934   2.688  64.407  1.00  0.00    -0.078 C  
HETATM   16  C   UNL     1      -9.404   2.488  64.745  1.00  0.00    -0.127 C  
HETATM   17  C   UNL     1      -9.921   3.898  64.651  1.00  0.00    -0.204 C  
HETATM   18  O   UNL     1     -11.114   4.174  64.568  1.00  0.00    -0.301 OA 
ENDBRANCH  12  13
ENDBRANCH   9  12
TORSDOF 2
ENDMDL
MODEL      196
REMARK 921   NORMALIZED FREE ENERGY PREDICTED BY IDOCK:   -2.49 KCAL/MOL
REMARK 922        TOTAL FREE ENERGY PREDICTED BY IDOCK:   -3.09 KCAL/MOL
REMARK 923 INTER-LIGAND FREE ENERGY PREDICTED BY IDOCK:   -3.51 KCAL/MOL
REMARK 924 INTRA-LIGAND FREE ENERGY PREDICTED BY IDOCK:    0.41 KCAL/MOL
REMARK 927      BINDING AFFINITY PREDICTED BY RF-SCORE:    0.00 PKD
ROOT
HETATM    1  C   UNL     1      -8.240  19.167  66.559  1.00  0.00    -0.315 C  
HETATM    2  C   UNL     1      -7.218  18.334  67.346  1.00  0.00    -0.208 C  
HETATM    3  C   UNL     1      -7.838  16.969  67.647  1.00  0.00    -0.183 A  
HETATM    4  C   UNL     1      -6.707  19.147  68.536  1.00  0.00    -0.268 C  
HETATM    5  C   UNL     1      -7.740  15.935  66.696  1.00  0.00    -0.199 A  
HETATM    6  O   UNL     1      -6.178  18.414  69.549  1.00  0.00    -0.257 OA 
HETATM    7  O   UNL     1      -6.692  20.371  68.580  1.00  0.00    -0.291 OA 
HETATM    8  C   UNL     1      -8.469  14.746  66.840  1.00  0.00    -0.230 A  
HETATM    9  C   UNL     1      -9.300  14.554  67.948  1.00  0.00    -0.201 A  
HETATM   10  C   UNL     1      -9.332  15.548  68.936  1.00  0.00    -0.222 A  
HETATM   11  C   UNL     1      -8.631  16.748  68.779  1.00  0.00    -0.255 A  
ENDROOT
BRANCH   9  12
HETATM   12  C   UNL     1     -10.316  13.434  68.009  1.00  0.00    -0.242 C  
BRANCH  12  13
HETATM   13  C   UNL     1     -10.031  12.148  67.236  1.00  0.00    -0.211 C  
HETATM   14  C   UNL     1     -10.081  12.317  65.714  1.00  0.00    -0.274 C  
HETATM   15  C   UNL     1      -8.997  11.390  65.175  1.00  0.00     0.025 C  
HETATM   16  C   UNL     1      -7.844  11.543  66.154  1.00  0.00     0.125 C  
HETATM   17  C   UNL     1      -8.583  11.740  67.450  1.00  0.00    -0.160 C  
HETATM   18  O   UNL     1      -8.055  11.621  68.551  1.00  0.00    -0.143 OA 
ENDBRANCH  12  13
ENDBRANCH   9  12
TORSDOF 2
ENDMDL
MODEL      197
REMARK 921   NORMALIZED FREE ENERGY PREDICTED BY IDOCK:   -2.46 KCAL/MOL
REMARK 922        TOTAL FREE ENERGY PREDICTED BY IDOCK:   -3.06 KCAL/MOL
REMARK 923 INTER-LIGAND FREE ENERGY PREDICTED BY IDOCK:   -2.84 KCAL/MOL
REMARK 924 INTRA-LIGAND FREE ENERGY PREDICTED BY IDOCK:   -0.22 KCAL/MOL
REMARK 927      BINDING AFFINITY PREDICTED BY RF-SCORE:    0.00 PKD
ROOT
HETATM    1  C   UNL     1      -8.407  19.748  69.194  1.00  0.00     0.001 C  
HETATM    2  C   UNL     1      -8.177  19.265  67.754  1.00  0.00    -0.322 C  
HETATM    3  C   UNL     1      -8.248  17.738  67.741  1.00  0.00    -0.227 A  
HETATM    4  C   UNL     1      -6.907  19.910  67.198  1.00  0.00    -0.212 C  
HETATM    5  C   UNL     1      -9.496  17.100  67.606  1.00  0.00    -0.241 A  
HETATM    6  O   UNL     1      -6.336  19.254  66.156  1.00  0.00    -0.176 OA 
HETATM    7  O   UNL     1      -6.448  20.977  67.588  1.00  0.00    -0.313 OA 
HETATM    8  C   UNL     1      -9.629  15.718  67.799  1.00  0.00    -0.214 A  
HETATM    9  C   UNL     1      -8.513  14.936  68.113  1.00  0.00    -0.146 A  
HETATM   10  C   UNL     1      -7.257  15.557  68.163  1.00  0.00    -0.123 A  
HETATM   11  C   UNL     1      -7.128  16.940  68.003  1.00  0.00    -0.163 A  
ENDROOT
BRANCH   9  12
HETATM   12  C   UNL     1      -8.641  13.511  68.609  1.00  0.00    -0.009 C  
BRANCH  12  13
HETATM   13  C   UNL     1      -8.379  12.371  67.628  1.00  0.00    -0.169 C  
HETATM   14  C   UNL     1      -6.961  12.368  67.048  1.00  0.00    -0.006 C  
HETATM   15  C   UNL     1      -6.592  10.896  66.904  1.00  0.00    -0.101 C  
HETATM   16  C   UNL     1      -7.155  10.238  68.154  1.00  0.00    -0.082 C  
HETATM   17  C   UNL     1      -8.405  11.046  68.373  1.00  0.00    -0.139 C  
HETATM   18  O   UNL     1      -9.321  10.686  69.107  1.00  0.00    -0.196 OA 
ENDBRANCH  12  13
ENDBRANCH   9  12
TORSDOF 2
ENDMDL
MODEL      198
REMARK 921   NORMALIZED FREE ENERGY PREDICTED BY IDOCK:   -2.44 KCAL/MOL
REMARK 922        TOTAL FREE ENERGY PREDICTED BY IDOCK:   -3.03 KCAL/MOL
REMARK 923 INTER-LIGAND FREE ENERGY PREDICTED BY IDOCK:   -2.70 KCAL/MOL
REMARK 924 INTRA-LIGAND FREE ENERGY PREDICTED BY IDOCK:   -0.33 KCAL/MOL
REMARK 927      BINDING AFFINITY PREDICTED BY RF-SCORE:    0.00 PKD
ROOT
HETATM    1  C   UNL     1      -8.591   8.095  68.276  1.00  0.00    -0.130 C  
HETATM    2  C   UNL     1      -9.401   6.980  68.956  1.00  0.00    -0.136 C  
HETATM    3  C   UNL     1      -9.521   5.808  67.980  1.00  0.00    -0.116 A  
HETATM    4  C   UNL     1     -10.702   7.562  69.512  1.00  0.00    -0.217 C  
HETATM    5  C   UNL     1      -8.500   4.841  67.925  1.00  0.00    -0.103 A  
HETATM    6  O   UNL     1     -11.695   6.660  69.717  1.00  0.00    -0.332 OA 
HETATM    7  O   UNL     1     -10.851   8.735  69.831  1.00  0.00    -0.229 OA 
HETATM    8  C   UNL     1      -8.468   3.876  66.908  1.00  0.00    -0.104 A  
HETATM    9  C   UNL     1      -9.468   3.844  65.932  1.00  0.00    -0.182 A  
HETATM   10  C   UNL     1     -10.530   4.754  66.035  1.00  0.00    -0.332 A  
HETATM   11  C   UNL     1     -10.547   5.736  67.030  1.00  0.00    -0.373 A  
ENDROOT
BRANCH   9  12
HETATM   12  C   UNL     1      -9.333   3.025  64.666  1.00  0.00    -0.147 C  
BRANCH  12  13
HETATM   13  C   UNL     1      -8.202   3.363  63.696  1.00  0.00    -0.089 C  
HETATM   14  C   UNL     1      -8.061   4.862  63.410  1.00  0.00    -0.100 C  
HETATM   15  C   UNL     1      -6.562   5.100  63.262  1.00  0.00    -0.026 C  
HETATM   16  C   UNL     1      -5.931   4.230  64.339  1.00  0.00    -0.014 C  
HETATM   17  C   UNL     1      -6.866   3.051  64.349  1.00  0.00    -0.040 C  
HETATM   18  O   UNL     1      -6.586   1.973  64.865  1.00  0.00    -0.026 OA 
ENDBRANCH  12  13
ENDBRANCH   9  12
TORSDOF 2
ENDMDL
MODEL      199
REMARK 921   NORMALIZED FREE ENERGY PREDICTED BY IDOCK:   -2.30 KCAL/MOL
REMARK 922        TOTAL FREE ENERGY PREDICTED BY IDOCK:   -2.87 KCAL/MOL
REMARK 923 INTER-LIGAND FREE ENERGY PREDICTED BY IDOCK:   -2.35 KCAL/MOL
REMARK 924 INTRA-LIGAND FREE ENERGY PREDICTED BY IDOCK:   -0.52 KCAL/MOL
REMARK 927      BINDING AFFINITY PREDICTED BY RF-SCORE:    0.00 PKD
ROOT
HETATM    1  C   UNL     1      -7.379   6.518  64.921  1.00  0.00    -0.076 C  
HETATM    2  C   UNL     1      -7.136   8.012  64.656  1.00  0.00    -0.076 C  
HETATM    3  C   UNL     1      -7.638   8.803  65.864  1.00  0.00    -0.090 A  
HETATM    4  C   UNL     1      -7.711   8.386  63.289  1.00  0.00    -0.140 C  
HETATM    5  C   UNL     1      -6.785   9.004  66.967  1.00  0.00    -0.069 A  
HETATM    6  O   UNL     1      -7.983   9.705  63.119  1.00  0.00    -0.127 OA 
HETATM    7  O   UNL     1      -7.861   7.596  62.364  1.00  0.00    -0.115 OA 
HETATM    8  C   UNL     1      -7.269   9.537  68.170  1.00  0.00    -0.080 A  
HETATM    9  C   UNL     1      -8.614   9.900  68.294  1.00  0.00    -0.115 A  
HETATM   10  C   UNL     1      -9.443   9.779  67.170  1.00  0.00    -0.189 A  
HETATM   11  C   UNL     1      -8.970   9.218  65.979  1.00  0.00    -0.215 A  
ENDROOT
BRANCH   9  12
HETATM   12  C   UNL     1      -9.247  10.203  69.635  1.00  0.00    -0.206 C  
BRANCH  12  13
HETATM   13  C   UNL     1      -9.709   9.035  70.504  1.00  0.00    -0.262 C  
HETATM   14  C   UNL     1      -9.993   7.752  69.715  1.00  0.00    -0.189 C  
HETATM   15  C   UNL     1      -9.551   6.615  70.630  1.00  0.00    -0.177 C  
HETATM   16  C   UNL     1      -8.270   7.122  71.275  1.00  0.00    -0.108 C  
HETATM   17  C   UNL     1      -8.568   8.591  71.405  1.00  0.00    -0.175 C  
HETATM   18  O   UNL     1      -7.929   9.347  72.130  1.00  0.00     0.055 OA 
ENDBRANCH  12  13
ENDBRANCH   9  12
TORSDOF 2
ENDMDL
MODEL      200
REMARK 921   NORMALIZED FREE ENERGY PREDICTED BY IDOCK:   -1.97 KCAL/MOL
REMARK 922        TOTAL FREE ENERGY PREDICTED BY IDOCK:   -2.51 KCAL/MOL
REMARK 923 INTER-LIGAND FREE ENERGY PREDICTED BY IDOCK:   -2.26 KCAL/MOL
REMARK 924 INTRA-LIGAND FREE ENERGY PREDICTED BY IDOCK:   -0.25 KCAL/MOL
REMARK 927      BINDING AFFINITY PREDICTED BY RF-SCORE:    0.00 PKD
ROOT
HETATM    1  C   UNL     1      -9.840   7.846  72.383  1.00  0.00    -0.287 C  
HETATM    2  C   UNL     1      -9.318   6.427  72.113  1.00  0.00    -0.149 C  
HETATM    3  C   UNL     1      -8.823   6.363  70.668  1.00  0.00    -0.144 A  
HETATM    4  C   UNL     1     -10.377   5.407  72.535  1.00  0.00    -0.206 C  
HETATM    5  C   UNL     1      -7.504   6.753  70.366  1.00  0.00    -0.087 A  
HETATM    6  O   UNL     1     -10.265   4.186  71.952  1.00  0.00    -0.175 OA 
HETATM    7  O   UNL     1     -11.234   5.614  73.385  1.00  0.00    -0.247 OA 
HETATM    8  C   UNL     1      -7.080   6.909  69.039  1.00  0.00    -0.088 A  
HETATM    9  C   UNL     1      -7.958   6.660  67.980  1.00  0.00    -0.110 A  
HETATM   10  C   UNL     1      -9.245   6.189  68.279  1.00  0.00    -0.114 A  
HETATM   11  C   UNL     1      -9.680   6.064  69.602  1.00  0.00    -0.188 A  
ENDROOT
BRANCH   9  12
HETATM   12  C   UNL     1      -7.650   7.084  66.560  1.00  0.00    -0.089 C  
BRANCH  12  13
HETATM   13  C   UNL     1      -7.896   6.085  65.432  1.00  0.00    -0.104 C  
HETATM   14  C   UNL     1      -7.833   6.705  64.032  1.00  0.00    -0.112 C  
HETATM   15  C   UNL     1      -7.208   5.631  63.148  1.00  0.00    -0.051 C  
HETATM   16  C   UNL     1      -6.119   5.013  64.011  1.00  0.00    -0.022 C  
HETATM   17  C   UNL     1      -6.746   5.092  65.376  1.00  0.00    -0.052 C  
HETATM   18  O   UNL     1      -6.342   4.451  66.341  1.00  0.00    -0.034 OA 
ENDBRANCH  12  13
ENDBRANCH   9  12
TORSDOF 2
ENDMDL
MODEL      201
REMARK 921   NORMALIZED FREE ENERGY PREDICTED BY IDOCK:   -1.52 KCAL/MOL
REMARK 922        TOTAL FREE ENERGY PREDICTED BY IDOCK:   -2.01 KCAL/MOL
REMARK 923 INTER-LIGAND FREE ENERGY PREDICTED BY IDOCK:   -1.74 KCAL/MOL
REMARK 924 INTRA-LIGAND FREE ENERGY PREDICTED BY IDOCK:   -0.26 KCAL/MOL
REMARK 927      BINDING AFFINITY PREDICTED BY RF-SCORE:    0.00 PKD
ROOT
HETATM    1  C   UNL     1      -7.092   7.452  71.750  1.00  0.00    -0.063 C  
HETATM    2  C   UNL     1      -6.812   5.965  71.486  1.00  0.00    -0.067 C  
HETATM    3  C   UNL     1      -7.136   5.666  70.022  1.00  0.00    -0.067 A  
HETATM    4  C   UNL     1      -7.520   5.118  72.545  1.00  0.00    -0.095 C  
HETATM    5  C   UNL     1      -6.157   5.882  69.034  1.00  0.00    -0.031 A  
HETATM    6  O   UNL     1      -7.748   3.828  72.192  1.00  0.00    -0.060 OA 
HETATM    7  O   UNL     1      -7.809   5.517  73.666  1.00  0.00    -0.104 OA 
HETATM    8  C   UNL     1      -6.477   5.822  67.670  1.00  0.00    -0.047 A  
HETATM    9  C   UNL     1      -7.780   5.527  67.260  1.00  0.00    -0.100 A  
HETATM   10  C   UNL     1      -8.736   5.229  68.243  1.00  0.00    -0.101 A  
HETATM   11  C   UNL     1      -8.427   5.319  69.603  1.00  0.00    -0.098 A  
ENDROOT
BRANCH   9  12
HETATM   12  C   UNL     1      -8.243   5.732  65.834  1.00  0.00    -0.121 C  
BRANCH  12  13
HETATM   13  C   UNL     1      -8.669   4.510  65.023  1.00  0.00    -0.138 C  
HETATM   14  C   UNL     1     -10.148   4.144  65.186  1.00  0.00    -0.219 C  
HETATM   15  C   UNL     1     -10.586   3.636  63.816  1.00  0.00    -0.284 C  
HETATM   16  C   UNL     1      -9.894   4.562  62.828  1.00  0.00     0.043 C  
HETATM   17  C   UNL     1      -8.598   4.836  63.540  1.00  0.00    -0.132 C  
HETATM   18  O   UNL     1      -7.611   5.309  62.985  1.00  0.00    -0.058 OA 
ENDBRANCH  12  13
ENDBRANCH   9  12
TORSDOF 2
ENDMDL
MODEL      202
REMARK 921   NORMALIZED FREE ENERGY PREDICTED BY IDOCK:   -1.06 KCAL/MOL
REMARK 922        TOTAL FREE ENERGY PREDICTED BY IDOCK:   -1.49 KCAL/MOL
REMARK 923 INTER-LIGAND FREE ENERGY PREDICTED BY IDOCK:   -1.65 KCAL/MOL
REMARK 924 INTRA-LIGAND FREE ENERGY PREDICTED BY IDOCK:    0.16 KCAL/MOL
REMARK 927      BINDING AFFINITY PREDICTED BY RF-SCORE:    0.00 PKD
ROOT
HETATM    1  C   UNL     1      -7.153  15.754  68.202  1.00  0.00    -0.123 C  
HETATM    2  C   UNL     1      -8.245  14.787  68.686  1.00  0.00    -0.159 C  
HETATM    3  C   UNL     1      -7.721  13.357  68.539  1.00  0.00    -0.124 A  
HETATM    4  C   UNL     1      -9.566  15.121  67.992  1.00  0.00    -0.204 C  
HETATM    5  C   UNL     1      -6.954  12.788  69.573  1.00  0.00     0.187 A  
HETATM    6  O   UNL     1     -10.471  14.110  67.959  1.00  0.00    -0.233 OA 
HETATM    7  O   UNL     1      -9.853  16.228  67.552  1.00  0.00    -0.233 OA 
HETATM    8  C   UNL     1      -6.283  11.569  69.392  1.00  0.00    -0.094 A  
HETATM    9  C   UNL     1      -6.380  10.882  68.179  1.00  0.00    -0.057 A  
HETATM   10  C   UNL     1      -7.212  11.407  67.179  1.00  0.00    -0.134 A  
HETATM   11  C   UNL     1      -7.855  12.637  67.346  1.00  0.00    -0.175 A  
ENDROOT
BRANCH   9  12
HETATM   12  C   UNL     1      -5.461   9.730  67.830  1.00  0.00    -0.039 C  
BRANCH  12  13
HETATM   13  C   UNL     1      -5.362   8.556  68.802  1.00  0.00    -0.036 C  
HETATM   14  C   UNL     1      -5.992   8.832  70.171  1.00  0.00    -0.030 C  
HETATM   15  C   UNL     1      -6.604   7.504  70.603  1.00  0.00    -0.043 C  
HETATM   16  C   UNL     1      -7.205   6.929  69.329  1.00  0.00    -0.090 C  
HETATM   17  C   UNL     1      -6.219   7.407  68.298  1.00  0.00    -0.036 C  
HETATM   18  O   UNL     1      -6.150   6.941  67.165  1.00  0.00    -0.027 OA 
ENDBRANCH  12  13
ENDBRANCH   9  12
TORSDOF 2
ENDMDL
MODEL      203
REMARK 921   NORMALIZED FREE ENERGY PREDICTED BY IDOCK:    4.64 KCAL/MOL
REMARK 922        TOTAL FREE ENERGY PREDICTED BY IDOCK:    4.87 KCAL/MOL
REMARK 923 INTER-LIGAND FREE ENERGY PREDICTED BY IDOCK:    5.18 KCAL/MOL
REMARK 924 INTRA-LIGAND FREE ENERGY PREDICTED BY IDOCK:   -0.31 KCAL/MOL
REMARK 927      BINDING AFFINITY PREDICTED BY RF-SCORE:    0.00 PKD
ROOT
HETATM    1  C   UNL     1      -9.760  13.333  63.651  1.00  0.00     2.013 C  
HETATM    2  C   UNL     1     -11.120  12.618  63.633  1.00  0.00    -0.496 C  
HETATM    3  C   UNL     1     -11.771  12.785  65.007  1.00  0.00    -0.391 A  
HETATM    4  C   UNL     1     -10.938  11.191  63.115  1.00  0.00     0.180 C  
HETATM    5  C   UNL     1     -12.536  13.935  65.279  1.00  0.00    -0.508 A  
HETATM    6  O   UNL     1     -11.918  10.321  63.467  1.00  0.00     3.510 OA 
HETATM    7  O   UNL     1     -10.028  10.836  62.376  1.00  0.00    -0.062 OA 
HETATM    8  C   UNL     1     -12.970  14.226  66.580  1.00  0.00     0.869 A  
HETATM    9  C   UNL     1     -12.666  13.364  67.638  1.00  0.00     0.943 A  
HETATM   10  C   UNL     1     -11.976  12.177  67.352  1.00  0.00    -0.168 A  
HETATM   11  C   UNL     1     -11.515  11.901  66.061  1.00  0.00    -0.344 A  
ENDROOT
BRANCH   9  12
HETATM   12  C   UNL     1     -12.854  13.765  69.085  1.00  0.00     0.939 C  
BRANCH  12  13
HETATM   13  C   UNL     1     -12.338  15.130  69.536  1.00  0.00    -0.206 C  
HETATM   14  C   UNL     1     -12.860  15.565  70.910  1.00  0.00    -0.535 C  
HETATM   15  C   UNL     1     -11.702  16.319  71.555  1.00  0.00    -0.467 C  
HETATM   16  C   UNL     1     -10.466  15.522  71.169  1.00  0.00     0.393 C  
HETATM   17  C   UNL     1     -10.842  15.046  69.792  1.00  0.00    -0.261 C  
HETATM   18  O   UNL     1     -10.029  14.603  68.987  1.00  0.00    -0.226 OA 
ENDBRANCH  12  13
ENDBRANCH   9  12
TORSDOF 2
ENDMDL
MODEL      204
REMARK 921   NORMALIZED FREE ENERGY PREDICTED BY IDOCK:    7.20 KCAL/MOL
REMARK 922        TOTAL FREE ENERGY PREDICTED BY IDOCK:    7.74 KCAL/MOL
REMARK 923 INTER-LIGAND FREE ENERGY PREDICTED BY IDOCK:    6.62 KCAL/MOL
REMARK 924 INTRA-LIGAND FREE ENERGY PREDICTED BY IDOCK:    1.12 KCAL/MOL
REMARK 927      BINDING AFFINITY PREDICTED BY RF-SCORE:    0.00 PKD
ROOT
HETATM    1  C   UNL     1      -7.833  18.356  71.640  1.00  0.00     8.240 C  
HETATM    2  C   UNL     1      -7.323  18.731  70.240  1.00  0.00     1.249 C  
HETATM    3  C   UNL     1      -7.818  17.677  69.249  1.00  0.00     0.133 A  
HETATM    4  C   UNL     1      -5.815  18.982  70.298  1.00  0.00    -0.208 C  
HETATM    5  C   UNL     1      -9.093  17.812  68.668  1.00  0.00    -0.262 A  
HETATM    6  O   UNL     1      -5.166  18.867  69.111  1.00  0.00    -0.191 OA 
HETATM    7  O   UNL     1      -5.213  19.334  71.305  1.00  0.00    -0.251 OA 
HETATM    8  C   UNL     1      -9.666  16.771  67.924  1.00  0.00    -0.245 A  
HETATM    9  C   UNL     1      -8.969  15.575  67.727  1.00  0.00    -0.173 A  
HETATM   10  C   UNL     1      -7.666  15.472  68.234  1.00  0.00    -0.115 A  
HETATM   11  C   UNL     1      -7.106  16.497  69.003  1.00  0.00    -0.213 A  
ENDROOT
BRANCH   9  12
HETATM   12  C   UNL     1      -9.641  14.329  67.190  1.00  0.00    -0.245 C  
BRANCH  12  13
HETATM   13  C   UNL     1      -9.828  13.139  68.128  1.00  0.00    -0.228 C  
HETATM   14  C   UNL     1     -10.690  12.017  67.540  1.00  0.00    -0.262 C  
HETATM   15  C   UNL     1     -10.076  10.725  68.067  1.00  0.00    -0.198 C  
HETATM   16  C   UNL     1      -8.575  10.963  68.003  1.00  0.00    -0.131 C  
HETATM   17  C   UNL     1      -8.497  12.432  68.320  1.00  0.00    -0.170 C  
HETATM   18  O   UNL     1      -7.459  12.994  68.656  1.00  0.00    -0.115 OA 
ENDBRANCH  12  13
ENDBRANCH   9  12
TORSDOF 2
ENDMDL
MODEL      205
REMARK 921   NORMALIZED FREE ENERGY PREDICTED BY IDOCK:   25.24 KCAL/MOL
REMARK 922        TOTAL FREE ENERGY PREDICTED BY IDOCK:   27.89 KCAL/MOL
REMARK 923 INTER-LIGAND FREE ENERGY PREDICTED BY IDOCK:   28.23 KCAL/MOL
REMARK 924 INTRA-LIGAND FREE ENERGY PREDICTED BY IDOCK:   -0.35 KCAL/MOL
REMARK 927      BINDING AFFINITY PREDICTED BY RF-SCORE:    0.00 PKD
ROOT
HETATM    1  C   UNL     1      -9.040  14.495  64.255  1.00  0.00     5.286 C  
HETATM    2  C   UNL     1     -10.533  14.190  64.455  1.00  0.00    -0.034 C  
HETATM    3  C   UNL     1     -10.957  14.733  65.820  1.00  0.00    -0.334 A  
HETATM    4  C   UNL     1     -10.790  12.707  64.182  1.00  0.00    -0.396 C  
HETATM    5  C   UNL     1     -11.360  16.076  65.940  1.00  0.00     0.260 A  
HETATM    6  O   UNL     1     -11.917  12.205  64.746  1.00  0.00    -0.360 OA 
HETATM    7  O   UNL     1     -10.094  12.009  63.455  1.00  0.00    -0.428 OA 
HETATM    8  C   UNL     1     -11.553  16.666  67.197  1.00  0.00     0.766 A  
HETATM    9  C   UNL     1     -11.366  15.921  68.365  1.00  0.00    -0.361 A  
HETATM   10  C   UNL     1     -11.048  14.561  68.244  1.00  0.00    -0.275 A  
HETATM   11  C   UNL     1     -10.824  13.979  66.992  1.00  0.00    -0.291 A  
ENDROOT
BRANCH   9  12
HETATM   12  C   UNL     1     -11.278  16.570  69.730  1.00  0.00    -0.166 C  
BRANCH  12  13
HETATM   13  C   UNL     1     -10.268  17.696  69.938  1.00  0.00     0.573 C  
HETATM   14  C   UNL     1     -10.591  18.603  71.130  1.00  0.00     2.814 C  
HETATM   15  C   UNL     1      -9.236  18.983  71.720  1.00  0.00     6.195 C  
HETATM   16  C   UNL     1      -8.414  17.706  71.636  1.00  0.00    11.655 C  
HETATM   17  C   UNL     1      -8.932  17.106  70.358  1.00  0.00     3.248 C  
HETATM   18  O   UNL     1      -8.352  16.212  69.749  1.00  0.00     0.080 OA 
ENDBRANCH  12  13
ENDBRANCH   9  12
TORSDOF 2
ENDMDL
