MODEL        1
REMARK 921   NORMALIZED FREE ENERGY PREDICTED BY IDOCK:   -6.65 KCAL/MOL
REMARK 922        TOTAL FREE ENERGY PREDICTED BY IDOCK:  -12.31 KCAL/MOL
REMARK 923 INTER-LIGAND FREE ENERGY PREDICTED BY IDOCK:  -10.53 KCAL/MOL
REMARK 924 INTRA-LIGAND FREE ENERGY PREDICTED BY IDOCK:   -1.77 KCAL/MOL
REMARK 927      BINDING AFFINITY PREDICTED BY RF-SCORE:    0.00 PKD
ROOT
HETATM    1  C   UNL     1     -10.473  15.163  65.517  1.00  0.00    -0.379 C  
HETATM    2  C   UNL     1      -9.186  15.922  65.780  1.00  0.00    -0.241 C  
HETATM    3  C   UNL     1      -9.464  16.482  67.151  1.00  0.00    -0.239 C  
HETATM    4  O   UNL     1      -8.837  17.425  67.615  1.00  0.00    -0.222 OA 
HETATM    5  C   UNL     1     -10.613  15.768  67.862  1.00  0.00    -0.282 C  
HETATM    6  C   UNL     1     -11.468  13.260  64.456  1.00  0.00    -0.365 C  
HETATM    7  C   UNL     1     -10.865  14.626  66.882  1.00  0.00    -0.305 C  
HETATM    8  C   UNL     1     -12.277  14.083  66.777  1.00  0.00    -0.439 C  
HETATM    9  O   UNL     1     -10.284  14.056  64.657  1.00  0.00    -0.420 OA 
HETATM   10  C   UNL     1     -12.245  12.934  65.767  1.00  0.00    -0.498 C  
HETATM   11  O   UNL     1     -12.321  13.978  63.555  1.00  0.00    -1.032 OA 
HETATM   12  H   UNL     1     -11.848  14.176  62.756  1.00  0.00     0.000 HD 
ENDROOT
BRANCH   5  13
HETATM   13  C   UNL     1     -10.250  15.187  69.229  1.00  0.00    -0.251 C  
BRANCH  13  14
HETATM   14  C   UNL     1     -11.195  15.598  70.349  1.00  0.00    -0.374 C  
BRANCH  14  15
HETATM   15  C   UNL     1     -12.504  14.815  70.268  1.00  0.00    -0.393 C  
BRANCH  15  16
HETATM   16  C   UNL     1     -12.342  13.452  70.935  1.00  0.00    -0.436 C  
BRANCH  16  17
HETATM   17  C   UNL     1     -13.129  13.377  72.238  1.00  0.00    -0.484 C  
BRANCH  17  18
HETATM   18  C   UNL     1     -13.761  14.726  72.568  1.00  0.00    -0.572 C  
HETATM   19  O   UNL     1     -13.522  16.676  73.907  1.00  0.00    -0.414 OA 
HETATM   20  C   UNL     1     -12.969  15.477  73.610  1.00  0.00    -0.507 C  
HETATM   21  O   UNL     1     -11.947  15.079  74.147  1.00  0.00    -0.511 OA 
ENDBRANCH  17  18
ENDBRANCH  16  17
ENDBRANCH  15  16
ENDBRANCH  14  15
ENDBRANCH  13  14
ENDBRANCH   5  13
BRANCH   6  22
HETATM   22  C   UNL     1     -11.022  11.906  63.814  1.00  0.00    -0.425 C  
HETATM   23  F   UNL     1     -12.080  11.364  63.137  1.00  0.00    -0.468 F  
HETATM   24  F   UNL     1     -10.062  12.139  62.875  1.00  0.00    -0.382 F  
BRANCH  22  25
HETATM   25  C   UNL     1     -10.512  10.878  64.817  1.00  0.00    -0.373 C  
BRANCH  25  26
HETATM   26  C   UNL     1      -9.064  11.169  65.216  1.00  0.00    -0.183 C  
BRANCH  26  27
HETATM   27  C   UNL     1      -8.915  11.239  66.734  1.00  0.00    -0.173 C  
HETATM   28  C   UNL     1      -8.067  12.428  67.150  1.00  0.00    -0.167 C  
ENDBRANCH  26  27
ENDBRANCH  25  26
ENDBRANCH  22  25
ENDBRANCH   6  22
TORSDOF 10
ENDMDL
MODEL        2
REMARK 921   NORMALIZED FREE ENERGY PREDICTED BY IDOCK:   -6.53 KCAL/MOL
REMARK 922        TOTAL FREE ENERGY PREDICTED BY IDOCK:  -12.12 KCAL/MOL
REMARK 923 INTER-LIGAND FREE ENERGY PREDICTED BY IDOCK:  -10.15 KCAL/MOL
REMARK 924 INTRA-LIGAND FREE ENERGY PREDICTED BY IDOCK:   -1.97 KCAL/MOL
REMARK 927      BINDING AFFINITY PREDICTED BY RF-SCORE:    0.00 PKD
ROOT
HETATM    1  C   UNL     1     -10.676  15.338  65.530  1.00  0.00    -0.371 C  
HETATM    2  C   UNL     1      -9.435  16.140  65.873  1.00  0.00    -0.337 C  
HETATM    3  C   UNL     1      -9.811  16.673  67.232  1.00  0.00    -0.255 C  
HETATM    4  O   UNL     1      -9.247  17.633  67.740  1.00  0.00    -0.246 OA 
HETATM    5  C   UNL     1     -10.972  15.911  67.869  1.00  0.00    -0.327 C  
HETATM    6  C   UNL     1     -11.539  13.413  64.395  1.00  0.00    -0.384 C  
HETATM    7  C   UNL     1     -11.126  14.771  66.865  1.00  0.00    -0.339 C  
HETATM    8  C   UNL     1     -12.509  14.180  66.674  1.00  0.00    -0.255 C  
HETATM    9  O   UNL     1     -10.397  14.248  64.672  1.00  0.00    -0.417 OA 
HETATM   10  C   UNL     1     -12.377  13.044  65.656  1.00  0.00    -0.504 C  
HETATM   11  O   UNL     1     -12.364  14.110  63.454  1.00  0.00    -1.109 OA 
HETATM   12  H   UNL     1     -11.853  14.334  62.685  1.00  0.00     0.000 HD 
ENDROOT
BRANCH   5  13
HETATM   13  C   UNL     1     -10.667  15.327  69.249  1.00  0.00    -0.252 C  
BRANCH  13  14
HETATM   14  C   UNL     1     -11.870  15.278  70.181  1.00  0.00    -0.356 C  
BRANCH  14  15
HETATM   15  C   UNL     1     -12.357  13.842  70.362  1.00  0.00    -0.433 C  
BRANCH  15  16
HETATM   16  C   UNL     1     -13.191  13.728  71.634  1.00  0.00    -0.450 C  
BRANCH  16  17
HETATM   17  C   UNL     1     -13.376  12.272  72.045  1.00  0.00    -0.491 C  
BRANCH  17  18
HETATM   18  C   UNL     1     -12.526  11.351  71.175  1.00  0.00    -0.465 C  
HETATM   19  O   UNL     1     -12.023   9.072  70.723  1.00  0.00    -0.264 OA 
HETATM   20  C   UNL     1     -12.772   9.896  71.492  1.00  0.00    -0.415 C  
HETATM   21  O   UNL     1     -13.545   9.475  72.338  1.00  0.00    -0.452 OA 
ENDBRANCH  17  18
ENDBRANCH  16  17
ENDBRANCH  15  16
ENDBRANCH  14  15
ENDBRANCH  13  14
ENDBRANCH   5  13
BRANCH   6  22
HETATM   22  C   UNL     1     -11.007  12.083  63.768  1.00  0.00    -0.426 C  
HETATM   23  F   UNL     1     -11.939  11.601  62.890  1.00  0.00    -0.356 F  
HETATM   24  F   UNL     1      -9.895  12.341  63.023  1.00  0.00    -0.358 F  
BRANCH  22  25
HETATM   25  C   UNL     1     -10.695  10.993  64.786  1.00  0.00    -0.304 C  
BRANCH  25  26
HETATM   26  C   UNL     1      -9.273  11.142  65.333  1.00  0.00    -0.225 C  
BRANCH  26  27
HETATM   27  C   UNL     1      -9.288  11.478  66.821  1.00  0.00    -0.191 C  
HETATM   28  C   UNL     1      -8.337  12.620  67.138  1.00  0.00    -0.172 C  
ENDBRANCH  26  27
ENDBRANCH  25  26
ENDBRANCH  22  25
ENDBRANCH   6  22
TORSDOF 10
ENDMDL
MODEL        3
REMARK 921   NORMALIZED FREE ENERGY PREDICTED BY IDOCK:   -6.52 KCAL/MOL
REMARK 922        TOTAL FREE ENERGY PREDICTED BY IDOCK:  -12.11 KCAL/MOL
REMARK 923 INTER-LIGAND FREE ENERGY PREDICTED BY IDOCK:  -10.25 KCAL/MOL
REMARK 924 INTRA-LIGAND FREE ENERGY PREDICTED BY IDOCK:   -1.85 KCAL/MOL
REMARK 927      BINDING AFFINITY PREDICTED BY RF-SCORE:    0.00 PKD
ROOT
HETATM    1  C   UNL     1     -10.607  15.936  65.349  1.00  0.00    -0.419 C  
HETATM    2  C   UNL     1     -11.749  15.455  64.474  1.00  0.00    -0.277 C  
HETATM    3  C   UNL     1     -11.977  14.077  65.040  1.00  0.00    -0.401 C  
HETATM    4  O   UNL     1     -12.580  13.206  64.426  1.00  0.00    -0.606 OA 
HETATM    5  C   UNL     1     -11.353  13.892  66.422  1.00  0.00    -0.335 C  
HETATM    6  C   UNL     1      -9.579  17.826  66.403  1.00  0.00    -0.283 C  
HETATM    7  C   UNL     1     -10.904  15.323  66.706  1.00  0.00    -0.312 C  
HETATM    8  C   UNL     1      -9.680  15.519  67.581  1.00  0.00    -0.212 C  
HETATM    9  O   UNL     1     -10.598  17.342  65.505  1.00  0.00    -0.580 OA 
HETATM   10  C   UNL     1      -9.476  17.028  67.736  1.00  0.00    -0.245 C  
HETATM   11  O   UNL     1      -8.328  17.766  65.706  1.00  0.00    -0.529 OA 
HETATM   12  H   UNL     1      -8.392  18.253  64.892  1.00  0.00     0.000 HD 
ENDROOT
BRANCH   5  13
HETATM   13  C   UNL     1     -12.335  13.448  67.507  1.00  0.00    -0.069 C  
BRANCH  13  14
HETATM   14  C   UNL     1     -11.737  12.496  68.534  1.00  0.00    -0.369 C  
BRANCH  14  15
HETATM   15  C   UNL     1     -11.481  13.216  69.856  1.00  0.00    -0.159 C  
BRANCH  15  16
HETATM   16  C   UNL     1     -12.616  14.192  70.150  1.00  0.00    -0.325 C  
BRANCH  16  17
HETATM   17  C   UNL     1     -12.080  15.529  70.650  1.00  0.00    -0.430 C  
BRANCH  17  18
HETATM   18  C   UNL     1     -11.627  15.422  72.103  1.00  0.00    -0.554 C  
HETATM   19  O   UNL     1     -12.393  15.452  74.353  1.00  0.00    -0.641 OA 
HETATM   20  C   UNL     1     -12.785  15.548  73.062  1.00  0.00    -0.454 C  
HETATM   21  O   UNL     1     -13.952  15.719  72.746  1.00  0.00    -0.590 OA 
ENDBRANCH  17  18
ENDBRANCH  16  17
ENDBRANCH  15  16
ENDBRANCH  14  15
ENDBRANCH  13  14
ENDBRANCH   5  13
BRANCH   6  22
HETATM   22  C   UNL     1      -9.930  19.308  66.757  1.00  0.00    -0.361 C  
HETATM   23  F   UNL     1      -9.512  20.120  65.739  1.00  0.00    -0.434 F  
HETATM   24  F   UNL     1     -11.284  19.455  66.816  1.00  0.00    -0.476 F  
BRANCH  22  25
HETATM   25  C   UNL     1      -9.309  19.803  68.057  1.00  0.00    -0.444 C  
BRANCH  25  26
HETATM   26  C   UNL     1      -8.071  20.660  67.784  1.00  0.00    -0.116 C  
BRANCH  26  27
HETATM   27  C   UNL     1      -6.791  19.840  67.927  1.00  0.00    -0.284 C  
HETATM   28  C   UNL     1      -6.654  19.272  69.329  1.00  0.00    -0.348 C  
ENDBRANCH  26  27
ENDBRANCH  25  26
ENDBRANCH  22  25
ENDBRANCH   6  22
TORSDOF 10
ENDMDL
MODEL        4
REMARK 921   NORMALIZED FREE ENERGY PREDICTED BY IDOCK:   -6.31 KCAL/MOL
REMARK 922        TOTAL FREE ENERGY PREDICTED BY IDOCK:  -11.77 KCAL/MOL
REMARK 923 INTER-LIGAND FREE ENERGY PREDICTED BY IDOCK:   -9.88 KCAL/MOL
REMARK 924 INTRA-LIGAND FREE ENERGY PREDICTED BY IDOCK:   -1.89 KCAL/MOL
REMARK 927      BINDING AFFINITY PREDICTED BY RF-SCORE:    0.00 PKD
ROOT
HETATM    1  C   UNL     1     -11.720  14.564  66.257  1.00  0.00    -0.358 C  
HETATM    2  C   UNL     1     -12.841  13.721  65.678  1.00  0.00    -0.456 C  
HETATM    3  C   UNL     1     -12.094  12.944  64.624  1.00  0.00    -0.418 C  
HETATM    4  O   UNL     1     -12.661  12.385  63.695  1.00  0.00    -0.710 OA 
HETATM    5  C   UNL     1     -10.581  12.963  64.833  1.00  0.00    -0.342 C  
HETATM    6  C   UNL     1     -10.850  15.623  68.221  1.00  0.00    -0.298 C  
HETATM    7  C   UNL     1     -10.508  13.652  66.194  1.00  0.00    -0.297 C  
HETATM    8  C   UNL     1      -9.281  14.491  66.496  1.00  0.00    -0.282 C  
HETATM    9  O   UNL     1     -11.937  14.897  67.614  1.00  0.00    -0.317 OA 
HETATM   10  C   UNL     1      -9.442  15.028  67.920  1.00  0.00    -0.195 C  
HETATM   11  O   UNL     1     -10.916  16.973  67.746  1.00  0.00    -0.316 OA 
HETATM   12  H   UNL     1     -11.774  17.336  67.929  1.00  0.00     0.000 HD 
ENDROOT
BRANCH   5  13
HETATM   13  C   UNL     1      -9.936  11.580  64.935  1.00  0.00    -0.303 C  
BRANCH  13  14
HETATM   14  C   UNL     1      -9.473  11.213  66.338  1.00  0.00    -0.216 C  
BRANCH  14  15
HETATM   15  C   UNL     1     -10.394  10.165  66.956  1.00  0.00    -0.303 C  
BRANCH  15  16
HETATM   16  C   UNL     1     -11.521  10.846  67.727  1.00  0.00    -0.323 C  
BRANCH  16  17
HETATM   17  C   UNL     1     -11.067  11.255  69.123  1.00  0.00    -0.312 C  
BRANCH  17  18
HETATM   18  C   UNL     1     -12.244  11.264  70.094  1.00  0.00    -0.410 C  
HETATM   19  O   UNL     1     -13.122  10.230  72.047  1.00  0.00    -0.447 OA 
HETATM   20  C   UNL     1     -12.083  10.228  71.180  1.00  0.00    -0.395 C  
HETATM   21  O   UNL     1     -11.141   9.459  71.292  1.00  0.00    -0.319 OA 
ENDBRANCH  17  18
ENDBRANCH  16  17
ENDBRANCH  15  16
ENDBRANCH  14  15
ENDBRANCH  13  14
ENDBRANCH   5  13
BRANCH   6  22
HETATM   22  C   UNL     1     -11.065  15.584  69.770  1.00  0.00    -0.296 C  
HETATM   23  F   UNL     1      -9.990  14.971  70.353  1.00  0.00    -0.128 F  
HETATM   24  F   UNL     1     -11.078  16.856  70.262  1.00  0.00    -0.322 F  
BRANCH  22  25
HETATM   25  C   UNL     1     -12.331  14.858  70.206  1.00  0.00    -0.393 C  
BRANCH  25  26
HETATM   26  C   UNL     1     -12.944  15.515  71.445  1.00  0.00    -0.553 C  
BRANCH  26  27
HETATM   27  C   UNL     1     -12.238  15.056  72.717  1.00  0.00    -0.445 C  
HETATM   28  C   UNL     1     -12.433  16.053  73.846  1.00  0.00    -0.726 C  
ENDBRANCH  26  27
ENDBRANCH  25  26
ENDBRANCH  22  25
ENDBRANCH   6  22
TORSDOF 10
ENDMDL
MODEL        5
REMARK 921   NORMALIZED FREE ENERGY PREDICTED BY IDOCK:   -6.30 KCAL/MOL
REMARK 922        TOTAL FREE ENERGY PREDICTED BY IDOCK:  -11.76 KCAL/MOL
REMARK 923 INTER-LIGAND FREE ENERGY PREDICTED BY IDOCK:  -10.17 KCAL/MOL
REMARK 924 INTRA-LIGAND FREE ENERGY PREDICTED BY IDOCK:   -1.59 KCAL/MOL
REMARK 927      BINDING AFFINITY PREDICTED BY RF-SCORE:    0.00 PKD
ROOT
HETATM    1  C   UNL     1     -10.957  14.744  65.629  1.00  0.00    -0.344 C  
HETATM    2  C   UNL     1     -12.374  14.387  65.221  1.00  0.00    -0.372 C  
HETATM    3  C   UNL     1     -12.255  12.892  65.070  1.00  0.00    -0.464 C  
HETATM    4  O   UNL     1     -13.066  12.229  64.437  1.00  0.00    -0.780 OA 
HETATM    5  C   UNL     1     -11.015  12.322  65.757  1.00  0.00    -0.338 C  
HETATM    6  C   UNL     1      -9.580  16.224  66.913  1.00  0.00    -0.232 C  
HETATM    7  C   UNL     1     -10.516  13.569  66.483  1.00  0.00    -0.284 C  
HETATM    8  C   UNL     1      -9.022  13.700  66.715  1.00  0.00    -0.196 C  
HETATM    9  O   UNL     1     -10.901  15.905  66.434  1.00  0.00    -0.288 OA 
HETATM   10  C   UNL     1      -8.800  15.003  67.486  1.00  0.00    -0.193 C  
HETATM   11  O   UNL     1      -8.850  16.792  65.818  1.00  0.00    -0.505 OA 
HETATM   12  H   UNL     1      -9.326  17.537  65.469  1.00  0.00     0.000 HD 
ENDROOT
BRANCH   5  13
HETATM   13  C   UNL     1     -11.306  11.226  66.783  1.00  0.00    -0.187 C  
BRANCH  13  14
HETATM   14  C   UNL     1     -11.846  11.745  68.109  1.00  0.00    -0.324 C  
BRANCH  14  15
HETATM   15  C   UNL     1     -11.573  10.748  69.233  1.00  0.00    -0.376 C  
BRANCH  15  16
HETATM   16  C   UNL     1     -12.119  11.283  70.553  1.00  0.00    -0.481 C  
BRANCH  16  17
HETATM   17  C   UNL     1     -12.177  12.807  70.550  1.00  0.00    -0.389 C  
BRANCH  17  18
HETATM   18  C   UNL     1     -13.156  13.313  71.604  1.00  0.00    -0.453 C  
HETATM   19  O   UNL     1     -14.255  15.258  72.418  1.00  0.00    -0.523 OA 
HETATM   20  C   UNL     1     -13.386  14.800  71.487  1.00  0.00    -0.374 C  
HETATM   21  O   UNL     1     -12.865  15.536  70.664  1.00  0.00    -0.458 OA 
ENDBRANCH  17  18
ENDBRANCH  16  17
ENDBRANCH  15  16
ENDBRANCH  14  15
ENDBRANCH  13  14
ENDBRANCH   5  13
BRANCH   6  22
HETATM   22  C   UNL     1      -9.736  17.274  68.061  1.00  0.00    -0.277 C  
HETATM   23  F   UNL     1     -10.119  16.629  69.205  1.00  0.00    -0.245 F  
HETATM   24  F   UNL     1      -8.523  17.832  68.340  1.00  0.00    -0.258 F  
BRANCH  22  25
HETATM   25  C   UNL     1     -10.746  18.376  67.767  1.00  0.00    -0.371 C  
BRANCH  25  26
HETATM   26  C   UNL     1     -10.223  19.739  68.226  1.00  0.00    -0.569 C  
BRANCH  26  27
HETATM   27  C   UNL     1      -9.831  20.608  67.034  1.00  0.00    -0.449 C  
HETATM   28  C   UNL     1     -10.139  19.913  65.720  1.00  0.00    -0.442 C  
ENDBRANCH  26  27
ENDBRANCH  25  26
ENDBRANCH  22  25
ENDBRANCH   6  22
TORSDOF 10
ENDMDL
MODEL        6
REMARK 921   NORMALIZED FREE ENERGY PREDICTED BY IDOCK:   -6.30 KCAL/MOL
REMARK 922        TOTAL FREE ENERGY PREDICTED BY IDOCK:  -11.76 KCAL/MOL
REMARK 923 INTER-LIGAND FREE ENERGY PREDICTED BY IDOCK:   -9.40 KCAL/MOL
REMARK 924 INTRA-LIGAND FREE ENERGY PREDICTED BY IDOCK:   -2.36 KCAL/MOL
REMARK 927      BINDING AFFINITY PREDICTED BY RF-SCORE:    0.00 PKD
ROOT
HETATM    1  C   UNL     1     -11.580  14.233  66.255  1.00  0.00    -0.372 C  
HETATM    2  C   UNL     1     -12.783  13.853  65.412  1.00  0.00    -0.525 C  
HETATM    3  C   UNL     1     -12.179  12.800  64.519  1.00  0.00    -0.433 C  
HETATM    4  O   UNL     1     -12.700  12.455  63.466  1.00  0.00    -0.727 OA 
HETATM    5  C   UNL     1     -10.858  12.253  65.055  1.00  0.00    -0.337 C  
HETATM    6  C   UNL     1     -10.822  14.976  68.403  1.00  0.00    -0.256 C  
HETATM    7  C   UNL     1     -10.825  12.927  66.424  1.00  0.00    -0.293 C  
HETATM    8  C   UNL     1      -9.468  13.250  67.020  1.00  0.00    -0.243 C  
HETATM    9  O   UNL     1     -11.943  14.689  67.544  1.00  0.00    -0.375 OA 
HETATM   10  C   UNL     1      -9.718  13.876  68.394  1.00  0.00    -0.226 C  
HETATM   11  O   UNL     1     -10.262  16.225  67.977  1.00  0.00    -0.243 OA 
HETATM   12  H   UNL     1     -10.935  16.896  67.983  1.00  0.00     0.000 HD 
ENDROOT
BRANCH   5  13
HETATM   13  C   UNL     1     -10.828  10.735  65.241  1.00  0.00    -0.064 C  
BRANCH  13  14
HETATM   14  C   UNL     1      -9.426  10.145  65.308  1.00  0.00    -0.306 C  
BRANCH  14  15
HETATM   15  C   UNL     1      -9.318   9.133  66.446  1.00  0.00    -0.261 C  
BRANCH  15  16
HETATM   16  C   UNL     1     -10.544   9.226  67.348  1.00  0.00    -0.324 C  
BRANCH  16  17
HETATM   17  C   UNL     1     -10.163   9.677  68.754  1.00  0.00    -0.213 C  
BRANCH  17  18
HETATM   18  C   UNL     1     -11.275  10.519  69.372  1.00  0.00    -0.327 C  
HETATM   19  O   UNL     1     -12.849  10.601  71.152  1.00  0.00    -0.364 OA 
HETATM   20  C   UNL     1     -11.862   9.860  70.596  1.00  0.00    -0.303 C  
HETATM   21  O   UNL     1     -11.516   8.784  71.057  1.00  0.00    -0.269 OA 
ENDBRANCH  17  18
ENDBRANCH  16  17
ENDBRANCH  15  16
ENDBRANCH  14  15
ENDBRANCH  13  14
ENDBRANCH   5  13
BRANCH   6  22
HETATM   22  C   UNL     1     -11.366  15.097  69.863  1.00  0.00    -0.284 C  
HETATM   23  F   UNL     1     -10.310  15.233  70.722  1.00  0.00    -0.284 F  
HETATM   24  F   UNL     1     -12.094  16.243  69.987  1.00  0.00    -0.265 F  
BRANCH  22  25
HETATM   25  C   UNL     1     -12.208  13.910  70.316  1.00  0.00    -0.428 C  
BRANCH  25  26
HETATM   26  C   UNL     1     -13.426  14.373  71.117  1.00  0.00    -0.368 C  
BRANCH  26  27
HETATM   27  C   UNL     1     -13.325  13.936  72.576  1.00  0.00    -0.656 C  
HETATM   28  C   UNL     1     -12.673  15.009  73.429  1.00  0.00    -0.654 C  
ENDBRANCH  26  27
ENDBRANCH  25  26
ENDBRANCH  22  25
ENDBRANCH   6  22
TORSDOF 10
ENDMDL
MODEL        7
REMARK 921   NORMALIZED FREE ENERGY PREDICTED BY IDOCK:   -6.25 KCAL/MOL
REMARK 922        TOTAL FREE ENERGY PREDICTED BY IDOCK:  -11.68 KCAL/MOL
REMARK 923 INTER-LIGAND FREE ENERGY PREDICTED BY IDOCK:   -9.93 KCAL/MOL
REMARK 924 INTRA-LIGAND FREE ENERGY PREDICTED BY IDOCK:   -1.75 KCAL/MOL
REMARK 927      BINDING AFFINITY PREDICTED BY RF-SCORE:    0.00 PKD
ROOT
HETATM    1  C   UNL     1     -10.785  15.156  65.721  1.00  0.00    -0.351 C  
HETATM    2  C   UNL     1      -9.691  16.064  66.249  1.00  0.00    -0.332 C  
HETATM    3  C   UNL     1     -10.299  16.507  67.555  1.00  0.00    -0.294 C  
HETATM    4  O   UNL     1      -9.910  17.499  68.157  1.00  0.00    -0.279 OA 
HETATM    5  C   UNL     1     -11.449  15.610  68.009  1.00  0.00    -0.294 C  
HETATM    6  C   UNL     1     -11.284  13.197  64.435  1.00  0.00    -0.371 C  
HETATM    7  C   UNL     1     -11.348  14.498  66.968  1.00  0.00    -0.359 C  
HETATM    8  C   UNL     1     -12.625  13.779  66.576  1.00  0.00    -0.242 C  
HETATM    9  O   UNL     1     -10.283  14.132  64.884  1.00  0.00    -0.412 OA 
HETATM   10  C   UNL     1     -12.240  12.701  65.560  1.00  0.00    -0.501 C  
HETATM   11  O   UNL     1     -12.044  13.843  63.406  1.00  0.00    -0.894 OA 
HETATM   12  H   UNL     1     -11.461  14.145  62.719  1.00  0.00     0.000 HD 
ENDROOT
BRANCH   5  13
HETATM   13  C   UNL     1     -11.272  15.009  69.405  1.00  0.00    -0.299 C  
BRANCH  13  14
HETATM   14  C   UNL     1     -12.581  14.680  70.109  1.00  0.00    -0.333 C  
BRANCH  14  15
HETATM   15  C   UNL     1     -12.467  13.367  70.880  1.00  0.00    -0.439 C  
BRANCH  15  16
HETATM   16  C   UNL     1     -11.922  12.271  69.970  1.00  0.00    -0.379 C  
BRANCH  16  17
HETATM   17  C   UNL     1     -11.870  10.928  70.692  1.00  0.00    -0.453 C  
BRANCH  17  18
HETATM   18  C   UNL     1     -13.229  10.584  71.295  1.00  0.00    -0.399 C  
HETATM   19  O   UNL     1     -14.395   8.963  72.584  1.00  0.00    -0.613 OA 
HETATM   20  C   UNL     1     -13.194   9.275  72.044  1.00  0.00    -0.447 C  
HETATM   21  O   UNL     1     -12.216   8.554  72.168  1.00  0.00    -0.336 OA 
ENDBRANCH  17  18
ENDBRANCH  16  17
ENDBRANCH  15  16
ENDBRANCH  14  15
ENDBRANCH  13  14
ENDBRANCH   5  13
BRANCH   6  22
HETATM   22  C   UNL     1     -10.539  11.951  63.855  1.00  0.00    -0.394 C  
HETATM   23  F   UNL     1     -11.456  10.980  63.563  1.00  0.00    -0.327 F  
HETATM   24  F   UNL     1      -9.955  12.278  62.668  1.00  0.00    -0.076 F  
BRANCH  22  25
HETATM   25  C   UNL     1      -9.491  11.360  64.790  1.00  0.00    -0.176 C  
BRANCH  25  26
HETATM   26  C   UNL     1      -9.904   9.968  65.272  1.00  0.00    -0.388 C  
BRANCH  26  27
HETATM   27  C   UNL     1      -9.451   9.726  66.709  1.00  0.00    -0.209 C  
HETATM   28  C   UNL     1     -10.621   9.343  67.599  1.00  0.00    -0.333 C  
ENDBRANCH  26  27
ENDBRANCH  25  26
ENDBRANCH  22  25
ENDBRANCH   6  22
TORSDOF 10
ENDMDL
MODEL        8
REMARK 921   NORMALIZED FREE ENERGY PREDICTED BY IDOCK:   -6.18 KCAL/MOL
REMARK 922        TOTAL FREE ENERGY PREDICTED BY IDOCK:  -11.56 KCAL/MOL
REMARK 923 INTER-LIGAND FREE ENERGY PREDICTED BY IDOCK:   -9.76 KCAL/MOL
REMARK 924 INTRA-LIGAND FREE ENERGY PREDICTED BY IDOCK:   -1.80 KCAL/MOL
REMARK 927      BINDING AFFINITY PREDICTED BY RF-SCORE:    0.00 PKD
ROOT
HETATM    1  C   UNL     1     -12.000  12.344  66.223  1.00  0.00    -0.298 C  
HETATM    2  C   UNL     1     -12.343  12.678  64.784  1.00  0.00    -0.556 C  
HETATM    3  C   UNL     1     -12.133  14.171  64.784  1.00  0.00    -0.441 C  
HETATM    4  O   UNL     1     -12.608  14.901  63.925  1.00  0.00    -0.831 OA 
HETATM    5  C   UNL     1     -11.303  14.654  65.972  1.00  0.00    -0.344 C  
HETATM    6  C   UNL     1     -11.074  10.709  67.709  1.00  0.00    -0.321 C  
HETATM    7  C   UNL     1     -10.883  13.312  66.567  1.00  0.00    -0.288 C  
HETATM    8  C   UNL     1     -10.656  13.243  68.065  1.00  0.00    -0.249 C  
HETATM    9  O   UNL     1     -11.492  11.031  66.368  1.00  0.00    -0.183 OA 
HETATM   10  C   UNL     1     -10.211  11.815  68.388  1.00  0.00    -0.208 C  
HETATM   11  O   UNL     1     -12.256  10.476  68.485  1.00  0.00    -0.806 OA 
HETATM   12  H   UNL     1     -12.782   9.802  68.071  1.00  0.00     0.000 HD 
ENDROOT
BRANCH   5  13
HETATM   13  C   UNL     1     -10.053  15.448  65.592  1.00  0.00    -0.406 C  
BRANCH  13  14
HETATM   14  C   UNL     1      -9.977  16.828  66.231  1.00  0.00    -0.336 C  
BRANCH  14  15
HETATM   15  C   UNL     1      -9.543  16.726  67.692  1.00  0.00    -0.244 C  
BRANCH  15  16
HETATM   16  C   UNL     1     -10.709  17.071  68.611  1.00  0.00    -0.333 C  
BRANCH  16  17
HETATM   17  C   UNL     1     -10.702  16.203  69.865  1.00  0.00    -0.328 C  
BRANCH  17  18
HETATM   18  C   UNL     1     -12.094  15.647  70.147  1.00  0.00    -0.400 C  
HETATM   19  O   UNL     1     -13.730  15.357  71.847  1.00  0.00    -0.431 OA 
HETATM   20  C   UNL     1     -12.495  15.846  71.588  1.00  0.00    -0.446 C  
HETATM   21  O   UNL     1     -11.811  16.378  72.448  1.00  0.00    -0.533 OA 
ENDBRANCH  17  18
ENDBRANCH  16  17
ENDBRANCH  15  16
ENDBRANCH  14  15
ENDBRANCH  13  14
ENDBRANCH   5  13
BRANCH   6  22
HETATM   22  C   UNL     1     -10.211   9.408  67.633  1.00  0.00    -0.227 C  
HETATM   23  F   UNL     1     -10.990   8.385  67.165  1.00  0.00    -0.343 F  
HETATM   24  F   UNL     1      -9.219   9.569  66.712  1.00  0.00    -0.150 F  
BRANCH  22  25
HETATM   25  C   UNL     1      -9.603   8.982  68.964  1.00  0.00    -0.160 C  
BRANCH  25  26
HETATM   26  C   UNL     1     -10.248   7.694  69.478  1.00  0.00    -0.209 C  
BRANCH  26  27
HETATM   27  C   UNL     1     -11.124   7.965  70.698  1.00  0.00    -0.263 C  
HETATM   28  C   UNL     1     -10.741   9.271  71.372  1.00  0.00    -0.432 C  
ENDBRANCH  26  27
ENDBRANCH  25  26
ENDBRANCH  22  25
ENDBRANCH   6  22
TORSDOF 10
ENDMDL
MODEL        9
REMARK 921   NORMALIZED FREE ENERGY PREDICTED BY IDOCK:   -6.13 KCAL/MOL
REMARK 922        TOTAL FREE ENERGY PREDICTED BY IDOCK:  -11.48 KCAL/MOL
REMARK 923 INTER-LIGAND FREE ENERGY PREDICTED BY IDOCK:   -9.08 KCAL/MOL
REMARK 924 INTRA-LIGAND FREE ENERGY PREDICTED BY IDOCK:   -2.40 KCAL/MOL
REMARK 927      BINDING AFFINITY PREDICTED BY RF-SCORE:    0.00 PKD
ROOT
HETATM    1  C   UNL     1     -11.744  13.574  66.734  1.00  0.00    -0.391 C  
HETATM    2  C   UNL     1     -12.845  13.725  65.701  1.00  0.00    -0.456 C  
HETATM    3  C   UNL     1     -12.032  13.832  64.437  1.00  0.00    -0.445 C  
HETATM    4  O   UNL     1     -12.490  14.293  63.399  1.00  0.00    -0.761 OA 
HETATM    5  C   UNL     1     -10.597  13.338  64.609  1.00  0.00    -0.421 C  
HETATM    6  C   UNL     1     -11.115  12.600  68.830  1.00  0.00    -0.259 C  
HETATM    7  C   UNL     1     -10.682  12.758  66.019  1.00  0.00    -0.295 C  
HETATM    8  C   UNL     1      -9.427  12.783  66.870  1.00  0.00    -0.235 C  
HETATM    9  O   UNL     1     -12.161  12.838  67.868  1.00  0.00    -0.313 OA 
HETATM   10  C   UNL     1      -9.774  12.115  68.203  1.00  0.00    -0.208 C  
HETATM   11  O   UNL     1     -10.899  13.824  69.543  1.00  0.00    -0.431 OA 
HETATM   12  H   UNL     1     -11.717  14.120  69.926  1.00  0.00     0.000 HD 
ENDROOT
BRANCH   5  13
HETATM   13  C   UNL     1     -10.185  12.233  63.635  1.00  0.00    -0.430 C  
BRANCH  13  14
HETATM   14  C   UNL     1     -10.473  10.824  64.137  1.00  0.00    -0.309 C  
BRANCH  14  15
HETATM   15  C   UNL     1      -9.240   9.936  63.996  1.00  0.00    -0.302 C  
BRANCH  15  16
HETATM   16  C   UNL     1      -8.720   9.539  65.374  1.00  0.00    -0.190 C  
BRANCH  16  17
HETATM   17  C   UNL     1      -9.826   8.928  66.227  1.00  0.00    -0.355 C  
BRANCH  17  18
HETATM   18  C   UNL     1      -9.239   8.020  67.305  1.00  0.00    -0.164 C  
HETATM   19  O   UNL     1      -9.663   6.079  68.610  1.00  0.00    -0.122 OA 
HETATM   20  C   UNL     1     -10.176   6.890  67.656  1.00  0.00    -0.185 C  
HETATM   21  O   UNL     1     -11.276   6.701  67.162  1.00  0.00    -0.392 OA 
ENDBRANCH  17  18
ENDBRANCH  16  17
ENDBRANCH  15  16
ENDBRANCH  14  15
ENDBRANCH  13  14
ENDBRANCH   5  13
BRANCH   6  22
HETATM   22  C   UNL     1     -11.617  11.486  69.806  1.00  0.00    -0.326 C  
HETATM   23  F   UNL     1     -12.076  12.074  70.953  1.00  0.00    -0.439 F  
HETATM   24  F   UNL     1     -12.693  10.851  69.260  1.00  0.00    -0.311 F  
BRANCH  22  25
HETATM   25  C   UNL     1     -10.557  10.458  70.179  1.00  0.00    -0.245 C  
BRANCH  25  26
HETATM   26  C   UNL     1     -11.167   9.061  70.311  1.00  0.00    -0.232 C  
BRANCH  26  27
HETATM   27  C   UNL     1     -11.270   8.641  71.775  1.00  0.00    -0.396 C  
HETATM   28  C   UNL     1     -12.684   8.816  72.301  1.00  0.00    -0.466 C  
ENDBRANCH  26  27
ENDBRANCH  25  26
ENDBRANCH  22  25
ENDBRANCH   6  22
TORSDOF 10
ENDMDL
MODEL       10
REMARK 921   NORMALIZED FREE ENERGY PREDICTED BY IDOCK:   -6.10 KCAL/MOL
REMARK 922        TOTAL FREE ENERGY PREDICTED BY IDOCK:  -11.44 KCAL/MOL
REMARK 923 INTER-LIGAND FREE ENERGY PREDICTED BY IDOCK:  -10.12 KCAL/MOL
REMARK 924 INTRA-LIGAND FREE ENERGY PREDICTED BY IDOCK:   -1.32 KCAL/MOL
REMARK 927      BINDING AFFINITY PREDICTED BY RF-SCORE:    0.00 PKD
ROOT
HETATM    1  C   UNL     1     -10.818  14.718  65.899  1.00  0.00    -0.330 C  
HETATM    2  C   UNL     1     -12.258  14.455  65.500  1.00  0.00    -0.352 C  
HETATM    3  C   UNL     1     -12.238  12.955  65.348  1.00  0.00    -0.478 C  
HETATM    4  O   UNL     1     -13.095  12.347  64.720  1.00  0.00    -0.806 OA 
HETATM    5  C   UNL     1     -11.034  12.305  66.028  1.00  0.00    -0.327 C  
HETATM    6  C   UNL     1      -9.339  16.105  67.175  1.00  0.00    -0.215 C  
HETATM    7  C   UNL     1     -10.449  13.516  66.751  1.00  0.00    -0.273 C  
HETATM    8  C   UNL     1      -8.949  13.550  66.974  1.00  0.00    -0.237 C  
HETATM    9  O   UNL     1     -10.682  15.873  66.704  1.00  0.00    -0.316 OA 
HETATM   10  C   UNL     1      -8.637  14.836  67.743  1.00  0.00    -0.169 C  
HETATM   11  O   UNL     1      -8.581  16.625  66.076  1.00  0.00    -0.429 OA 
HETATM   12  H   UNL     1      -9.009  17.399  65.729  1.00  0.00     0.000 HD 
ENDROOT
BRANCH   5  13
HETATM   13  C   UNL     1     -11.389  11.230  67.056  1.00  0.00    -0.262 C  
BRANCH  13  14
HETATM   14  C   UNL     1     -11.866  11.783  68.392  1.00  0.00    -0.347 C  
BRANCH  14  15
HETATM   15  C   UNL     1     -11.695  10.745  69.499  1.00  0.00    -0.384 C  
BRANCH  15  16
HETATM   16  C   UNL     1     -12.317  11.255  70.795  1.00  0.00    -0.495 C  
BRANCH  16  17
HETATM   17  C   UNL     1     -13.011  10.130  71.556  1.00  0.00    -0.547 C  
BRANCH  17  18
HETATM   18  C   UNL     1     -12.161   8.863  71.541  1.00  0.00    -0.388 C  
HETATM   19  O   UNL     1     -12.259   6.491  71.685  1.00  0.00    -0.343 OA 
HETATM   20  C   UNL     1     -13.005   7.621  71.698  1.00  0.00    -0.350 C  
HETATM   21  O   UNL     1     -14.219   7.599  71.828  1.00  0.00    -0.401 OA 
ENDBRANCH  17  18
ENDBRANCH  16  17
ENDBRANCH  15  16
ENDBRANCH  14  15
ENDBRANCH  13  14
ENDBRANCH   5  13
BRANCH   6  22
HETATM   22  C   UNL     1      -9.420  17.163  68.324  1.00  0.00    -0.276 C  
HETATM   23  F   UNL     1      -9.674  16.519  69.504  1.00  0.00    -0.240 F  
HETATM   24  F   UNL     1      -8.204  17.759  68.483  1.00  0.00    -0.263 F  
BRANCH  22  25
HETATM   25  C   UNL     1     -10.486  18.231  68.116  1.00  0.00    -0.359 C  
BRANCH  25  26
HETATM   26  C   UNL     1      -9.864  19.628  68.072  1.00  0.00    -0.524 C  
BRANCH  26  27
HETATM   27  C   UNL     1      -9.918  20.210  66.662  1.00  0.00    -0.595 C  
HETATM   28  C   UNL     1     -10.707  19.312  65.724  1.00  0.00    -0.417 C  
ENDBRANCH  26  27
ENDBRANCH  25  26
ENDBRANCH  22  25
ENDBRANCH   6  22
TORSDOF 10
ENDMDL
MODEL       11
REMARK 921   NORMALIZED FREE ENERGY PREDICTED BY IDOCK:   -6.08 KCAL/MOL
REMARK 922        TOTAL FREE ENERGY PREDICTED BY IDOCK:  -11.41 KCAL/MOL
REMARK 923 INTER-LIGAND FREE ENERGY PREDICTED BY IDOCK:   -9.82 KCAL/MOL
REMARK 924 INTRA-LIGAND FREE ENERGY PREDICTED BY IDOCK:   -1.60 KCAL/MOL
REMARK 927      BINDING AFFINITY PREDICTED BY RF-SCORE:    0.00 PKD
ROOT
HETATM    1  C   UNL     1     -10.941  16.084  67.457  1.00  0.00    -0.261 C  
HETATM    2  C   UNL     1     -11.758  15.387  68.528  1.00  0.00    -0.355 C  
HETATM    3  C   UNL     1     -11.435  13.944  68.233  1.00  0.00    -0.311 C  
HETATM    4  O   UNL     1     -12.128  13.021  68.638  1.00  0.00    -0.295 OA 
HETATM    5  C   UNL     1     -10.190  13.780  67.364  1.00  0.00    -0.252 C  
HETATM    6  C   UNL     1      -9.677  18.039  66.888  1.00  0.00    -0.314 C  
HETATM    7  C   UNL     1      -9.697  15.224  67.327  1.00  0.00    -0.212 C  
HETATM    8  C   UNL     1      -8.943  15.682  66.093  1.00  0.00    -0.362 C  
HETATM    9  O   UNL     1     -10.529  17.380  67.846  1.00  0.00    -0.353 OA 
HETATM   10  C   UNL     1      -8.534  17.138  66.330  1.00  0.00    -0.307 C  
HETATM   11  O   UNL     1     -10.508  18.487  65.810  1.00  0.00    -0.598 OA 
HETATM   12  H   UNL     1     -11.205  19.036  66.150  1.00  0.00     0.000 HD 
ENDROOT
BRANCH   5  13
HETATM   13  C   UNL     1      -9.103  12.893  67.974  1.00  0.00    -0.211 C  
BRANCH  13  14
HETATM   14  C   UNL     1      -9.104  11.463  67.453  1.00  0.00    -0.160 C  
BRANCH  14  15
HETATM   15  C   UNL     1      -8.997  11.441  65.930  1.00  0.00    -0.184 C  
BRANCH  15  16
HETATM   16  C   UNL     1     -10.139  10.622  65.336  1.00  0.00    -0.356 C  
BRANCH  16  17
HETATM   17  C   UNL     1     -10.408  11.018  63.888  1.00  0.00    -0.436 C  
BRANCH  17  18
HETATM   18  C   UNL     1     -10.753  12.501  63.787  1.00  0.00    -0.483 C  
HETATM   19  O   UNL     1     -12.542  14.031  63.457  1.00  0.00    -0.842 OA 
HETATM   20  C   UNL     1     -12.227  12.718  63.547  1.00  0.00    -0.525 C  
HETATM   21  O   UNL     1     -13.065  11.838  63.437  1.00  0.00    -0.622 OA 
ENDBRANCH  17  18
ENDBRANCH  16  17
ENDBRANCH  15  16
ENDBRANCH  14  15
ENDBRANCH  13  14
ENDBRANCH   5  13
BRANCH   6  22
HETATM   22  C   UNL     1      -9.016  19.260  67.606  1.00  0.00    -0.298 C  
HETATM   23  F   UNL     1      -9.652  20.406  67.210  1.00  0.00    -0.479 F  
HETATM   24  F   UNL     1      -9.224  19.168  68.950  1.00  0.00    -0.376 F  
BRANCH  22  25
HETATM   25  C   UNL     1      -7.526  19.415  67.332  1.00  0.00    -0.259 C  
BRANCH  25  26
HETATM   26  C   UNL     1      -7.136  20.890  67.219  1.00  0.00    -0.430 C  
BRANCH  26  27
HETATM   27  C   UNL     1      -6.040  21.092  66.176  1.00  0.00    -0.310 C  
HETATM   28  C   UNL     1      -5.909  19.879  65.272  1.00  0.00    -0.225 C  
ENDBRANCH  26  27
ENDBRANCH  25  26
ENDBRANCH  22  25
ENDBRANCH   6  22
TORSDOF 10
ENDMDL
MODEL       12
REMARK 921   NORMALIZED FREE ENERGY PREDICTED BY IDOCK:   -6.00 KCAL/MOL
REMARK 922        TOTAL FREE ENERGY PREDICTED BY IDOCK:  -11.28 KCAL/MOL
REMARK 923 INTER-LIGAND FREE ENERGY PREDICTED BY IDOCK:   -9.40 KCAL/MOL
REMARK 924 INTRA-LIGAND FREE ENERGY PREDICTED BY IDOCK:   -1.88 KCAL/MOL
REMARK 927      BINDING AFFINITY PREDICTED BY RF-SCORE:    0.00 PKD
ROOT
HETATM    1  C   UNL     1     -10.754  15.797  67.430  1.00  0.00    -0.317 C  
HETATM    2  C   UNL     1     -11.007  16.832  66.350  1.00  0.00     0.150 C  
HETATM    3  C   UNL     1     -11.117  15.948  65.134  1.00  0.00    -0.311 C  
HETATM    4  O   UNL     1     -10.993  16.380  63.995  1.00  0.00    -0.592 OA 
HETATM    5  C   UNL     1     -11.365  14.482  65.485  1.00  0.00    -0.335 C  
HETATM    6  C   UNL     1     -11.085  15.212  69.729  1.00  0.00    -0.278 C  
HETATM    7  C   UNL     1     -11.580  14.601  66.991  1.00  0.00    -0.385 C  
HETATM    8  C   UNL     1     -11.182  13.421  67.857  1.00  0.00    -0.303 C  
HETATM    9  O   UNL     1     -11.230  16.208  68.697  1.00  0.00    -0.336 OA 
HETATM   10  C   UNL     1     -11.536  13.784  69.302  1.00  0.00    -0.344 C  
HETATM   11  O   UNL     1      -9.704  15.189  70.113  1.00  0.00    -0.476 OA 
HETATM   12  H   UNL     1      -9.429  16.060  70.373  1.00  0.00     0.000 HD 
ENDROOT
BRANCH   5  13
HETATM   13  C   UNL     1     -12.616  13.879  64.844  1.00  0.00    -0.380 C  
BRANCH  13  14
HETATM   14  C   UNL     1     -12.349  12.622  64.027  1.00  0.00    -0.528 C  
BRANCH  14  15
HETATM   15  C   UNL     1     -10.886  12.556  63.596  1.00  0.00    -0.486 C  
BRANCH  15  16
HETATM   16  C   UNL     1     -10.302  11.187  63.930  1.00  0.00    -0.441 C  
BRANCH  16  17
HETATM   17  C   UNL     1      -9.672  11.178  65.318  1.00  0.00    -0.285 C  
BRANCH  17  18
HETATM   18  C   UNL     1     -10.182   9.996  66.137  1.00  0.00    -0.283 C  
HETATM   19  O   UNL     1      -9.500   8.033  67.293  1.00  0.00    -0.144 OA 
HETATM   20  C   UNL     1      -9.057   9.084  66.564  1.00  0.00    -0.163 C  
HETATM   21  O   UNL     1      -7.876   9.243  66.300  1.00  0.00    -0.102 OA 
ENDBRANCH  17  18
ENDBRANCH  16  17
ENDBRANCH  15  16
ENDBRANCH  14  15
ENDBRANCH  13  14
ENDBRANCH   5  13
BRANCH   6  22
HETATM   22  C   UNL     1     -11.974  15.654  70.937  1.00  0.00    -0.397 C  
HETATM   23  F   UNL     1     -11.482  16.824  71.448  1.00  0.00    -0.393 F  
HETATM   24  F   UNL     1     -13.232  15.942  70.498  1.00  0.00    -0.446 F  
BRANCH  22  25
HETATM   25  C   UNL     1     -12.052  14.630  72.062  1.00  0.00    -0.346 C  
BRANCH  25  26
HETATM   26  C   UNL     1     -13.444  14.614  72.697  1.00  0.00    -0.580 C  
BRANCH  26  27
HETATM   27  C   UNL     1     -14.214  13.356  72.304  1.00  0.00    -0.403 C  
HETATM   28  C   UNL     1     -13.277  12.183  72.079  1.00  0.00    -0.496 C  
ENDBRANCH  26  27
ENDBRANCH  25  26
ENDBRANCH  22  25
ENDBRANCH   6  22
TORSDOF 10
ENDMDL
MODEL       13
REMARK 921   NORMALIZED FREE ENERGY PREDICTED BY IDOCK:   -5.91 KCAL/MOL
REMARK 922        TOTAL FREE ENERGY PREDICTED BY IDOCK:  -11.13 KCAL/MOL
REMARK 923 INTER-LIGAND FREE ENERGY PREDICTED BY IDOCK:   -9.07 KCAL/MOL
REMARK 924 INTRA-LIGAND FREE ENERGY PREDICTED BY IDOCK:   -2.06 KCAL/MOL
REMARK 927      BINDING AFFINITY PREDICTED BY RF-SCORE:    0.00 PKD
ROOT
HETATM    1  C   UNL     1     -12.030  12.379  66.281  1.00  0.00    -0.298 C  
HETATM    2  C   UNL     1     -12.455  12.655  64.851  1.00  0.00    -0.564 C  
HETATM    3  C   UNL     1     -12.164  14.131  64.751  1.00  0.00    -0.440 C  
HETATM    4  O   UNL     1     -12.659  14.840  63.885  1.00  0.00    -0.834 OA 
HETATM    5  C   UNL     1     -11.228  14.627  65.851  1.00  0.00    -0.336 C  
HETATM    6  C   UNL     1     -11.090  10.775  67.793  1.00  0.00    -0.318 C  
HETATM    7  C   UNL     1     -10.840  13.297  66.492  1.00  0.00    -0.288 C  
HETATM    8  C   UNL     1     -10.511  13.296  67.973  1.00  0.00    -0.248 C  
HETATM    9  O   UNL     1     -11.585  11.049  66.467  1.00  0.00    -0.205 OA 
HETATM   10  C   UNL     1     -10.123  11.864  68.347  1.00  0.00    -0.206 C  
HETATM   11  O   UNL     1     -12.226  10.653  68.659  1.00  0.00    -0.814 OA 
HETATM   12  H   UNL     1     -12.816   9.989  68.321  1.00  0.00     0.000 HD 
ENDROOT
BRANCH   5  13
HETATM   13  C   UNL     1      -9.966  15.327  65.342  1.00  0.00    -0.364 C  
BRANCH  13  14
HETATM   14  C   UNL     1      -9.349  16.296  66.340  1.00  0.00    -0.322 C  
BRANCH  14  15
HETATM   15  C   UNL     1     -10.390  17.295  66.840  1.00  0.00    -0.310 C  
BRANCH  15  16
HETATM   16  C   UNL     1     -10.326  17.403  68.360  1.00  0.00    -0.379 C  
BRANCH  16  17
HETATM   17  C   UNL     1     -11.394  16.539  69.021  1.00  0.00    -0.181 C  
BRANCH  17  18
HETATM   18  C   UNL     1     -10.970  16.139  70.431  1.00  0.00    -0.320 C  
HETATM   19  O   UNL     1     -11.628  14.890  72.345  1.00  0.00    -0.315 OA 
HETATM   20  C   UNL     1     -11.996  15.251  71.094  1.00  0.00    -0.345 C  
HETATM   21  O   UNL     1     -13.047  14.885  70.592  1.00  0.00    -0.364 OA 
ENDBRANCH  17  18
ENDBRANCH  16  17
ENDBRANCH  15  16
ENDBRANCH  14  15
ENDBRANCH  13  14
ENDBRANCH   5  13
BRANCH   6  22
HETATM   22  C   UNL     1     -10.307   9.423  67.734  1.00  0.00    -0.238 C  
HETATM   23  F   UNL     1     -10.147   8.946  69.005  1.00  0.00    -0.175 F  
HETATM   24  F   UNL     1     -11.055   8.490  67.080  1.00  0.00    -0.263 F  
BRANCH  22  25
HETATM   25  C   UNL     1      -8.935   9.525  67.078  1.00  0.00    -0.150 C  
BRANCH  25  26
HETATM   26  C   UNL     1      -8.935   8.869  65.696  1.00  0.00    -0.249 C  
BRANCH  26  27
HETATM   27  C   UNL     1      -8.461   9.845  64.623  1.00  0.00    -0.178 C  
HETATM   28  C   UNL     1      -9.633  10.434  63.858  1.00  0.00    -0.370 C  
ENDBRANCH  26  27
ENDBRANCH  25  26
ENDBRANCH  22  25
ENDBRANCH   6  22
TORSDOF 10
ENDMDL
MODEL       14
REMARK 921   NORMALIZED FREE ENERGY PREDICTED BY IDOCK:   -5.87 KCAL/MOL
REMARK 922        TOTAL FREE ENERGY PREDICTED BY IDOCK:  -11.08 KCAL/MOL
REMARK 923 INTER-LIGAND FREE ENERGY PREDICTED BY IDOCK:  -10.09 KCAL/MOL
REMARK 924 INTRA-LIGAND FREE ENERGY PREDICTED BY IDOCK:   -0.99 KCAL/MOL
REMARK 927      BINDING AFFINITY PREDICTED BY RF-SCORE:    0.00 PKD
ROOT
HETATM    1  C   UNL     1     -10.574  15.803  65.187  1.00  0.00    -0.411 C  
HETATM    2  C   UNL     1     -11.855  15.510  64.430  1.00  0.00    -0.222 C  
HETATM    3  C   UNL     1     -11.987  14.027  64.665  1.00  0.00    -0.430 C  
HETATM    4  O   UNL     1     -12.695  13.312  63.967  1.00  0.00    -0.659 OA 
HETATM    5  C   UNL     1     -11.130  13.530  65.827  1.00  0.00    -0.295 C  
HETATM    6  C   UNL     1      -9.364  17.413  66.485  1.00  0.00    -0.270 C  
HETATM    7  C   UNL     1     -10.629  14.863  66.378  1.00  0.00    -0.307 C  
HETATM    8  C   UNL     1      -9.268  14.885  67.048  1.00  0.00    -0.249 C  
HETATM    9  O   UNL     1     -10.529  17.126  65.685  1.00  0.00    -0.541 OA 
HETATM   10  C   UNL     1      -9.030  16.315  67.538  1.00  0.00    -0.193 C  
HETATM   11  O   UNL     1      -8.257  17.576  65.589  1.00  0.00    -0.505 OA 
HETATM   12  H   UNL     1      -8.460  18.246  64.947  1.00  0.00     0.000 HD 
ENDROOT
BRANCH   5  13
HETATM   13  C   UNL     1     -11.907  12.795  66.920  1.00  0.00    -0.440 C  
BRANCH  13  14
HETATM   14  C   UNL     1     -11.264  11.489  67.367  1.00  0.00    -0.367 C  
BRANCH  14  15
HETATM   15  C   UNL     1     -11.448  11.280  68.868  1.00  0.00    -0.363 C  
BRANCH  15  16
HETATM   16  C   UNL     1     -10.247  10.539  69.446  1.00  0.00    -0.245 C  
BRANCH  16  17
HETATM   17  C   UNL     1     -10.664   9.608  70.579  1.00  0.00    -0.374 C  
BRANCH  17  18
HETATM   18  C   UNL     1     -11.983  10.063  71.196  1.00  0.00    -0.484 C  
HETATM   19  O   UNL     1     -13.867   9.324  72.444  1.00  0.00    -0.470 OA 
HETATM   20  C   UNL     1     -12.696   8.929  71.893  1.00  0.00    -0.376 C  
HETATM   21  O   UNL     1     -12.294   7.779  71.968  1.00  0.00    -0.297 OA 
ENDBRANCH  17  18
ENDBRANCH  16  17
ENDBRANCH  15  16
ENDBRANCH  14  15
ENDBRANCH  13  14
ENDBRANCH   5  13
BRANCH   6  22
HETATM   22  C   UNL     1      -9.638  18.747  67.254  1.00  0.00    -0.303 C  
HETATM   23  F   UNL     1      -9.279  19.801  66.459  1.00  0.00    -0.341 F  
HETATM   24  F   UNL     1     -10.977  18.884  67.468  1.00  0.00    -0.484 F  
BRANCH  22  25
HETATM   25  C   UNL     1      -8.897  18.867  68.579  1.00  0.00    -0.387 C  
BRANCH  25  26
HETATM   26  C   UNL     1      -7.612  19.682  68.420  1.00  0.00    -0.362 C  
BRANCH  26  27
HETATM   27  C   UNL     1      -6.702  19.519  69.635  1.00  0.00    -0.314 C  
HETATM   28  C   UNL     1      -5.639  20.602  69.677  1.00  0.00    -0.400 C  
ENDBRANCH  26  27
ENDBRANCH  25  26
ENDBRANCH  22  25
ENDBRANCH   6  22
TORSDOF 10
ENDMDL
MODEL       15
REMARK 921   NORMALIZED FREE ENERGY PREDICTED BY IDOCK:   -5.87 KCAL/MOL
REMARK 922        TOTAL FREE ENERGY PREDICTED BY IDOCK:  -11.07 KCAL/MOL
REMARK 923 INTER-LIGAND FREE ENERGY PREDICTED BY IDOCK:   -9.44 KCAL/MOL
REMARK 924 INTRA-LIGAND FREE ENERGY PREDICTED BY IDOCK:   -1.63 KCAL/MOL
REMARK 927      BINDING AFFINITY PREDICTED BY RF-SCORE:    0.00 PKD
ROOT
HETATM    1  C   UNL     1     -12.122  12.551  66.333  1.00  0.00    -0.207 C  
HETATM    2  C   UNL     1     -12.478  12.744  64.871  1.00  0.00    -0.563 C  
HETATM    3  C   UNL     1     -12.193  14.214  64.704  1.00  0.00    -0.445 C  
HETATM    4  O   UNL     1     -12.649  14.870  63.776  1.00  0.00    -0.791 OA 
HETATM    5  C   UNL     1     -11.315  14.780  65.818  1.00  0.00    -0.336 C  
HETATM    6  C   UNL     1     -11.247  11.043  67.976  1.00  0.00    -0.309 C  
HETATM    7  C   UNL     1     -10.950  13.491  66.551  1.00  0.00    -0.295 C  
HETATM    8  C   UNL     1     -10.695  13.575  68.044  1.00  0.00    -0.263 C  
HETATM    9  O   UNL     1     -11.677  11.238  66.614  1.00  0.00    -0.368 OA 
HETATM   10  C   UNL     1     -10.316  12.169  68.515  1.00  0.00    -0.233 C  
HETATM   11  O   UNL     1     -12.423  10.958  68.791  1.00  0.00    -0.767 OA 
HETATM   12  H   UNL     1     -12.991  10.271  68.462  1.00  0.00     0.000 HD 
ENDROOT
BRANCH   5  13
HETATM   13  C   UNL     1     -10.035  15.462  65.333  1.00  0.00    -0.356 C  
BRANCH  13  14
HETATM   14  C   UNL     1      -9.438  16.444  66.333  1.00  0.00    -0.320 C  
BRANCH  14  15
HETATM   15  C   UNL     1     -10.176  17.780  66.286  1.00  0.00    -0.364 C  
BRANCH  15  16
HETATM   16  C   UNL     1     -10.621  18.183  67.689  1.00  0.00    -0.424 C  
BRANCH  16  17
HETATM   17  C   UNL     1     -10.051  19.541  68.081  1.00  0.00    -0.537 C  
BRANCH  17  18
HETATM   18  C   UNL     1      -9.226  20.132  66.941  1.00  0.00    -0.499 C  
HETATM   19  O   UNL     1      -7.005  20.558  66.208  1.00  0.00    -0.257 OA 
HETATM   20  C   UNL     1      -7.744  20.038  67.215  1.00  0.00    -0.294 C  
HETATM   21  O   UNL     1      -7.237  19.560  68.217  1.00  0.00    -0.281 OA 
ENDBRANCH  17  18
ENDBRANCH  16  17
ENDBRANCH  15  16
ENDBRANCH  14  15
ENDBRANCH  13  14
ENDBRANCH   5  13
BRANCH   6  22
HETATM   22  C   UNL     1     -10.453   9.697  68.030  1.00  0.00    -0.229 C  
HETATM   23  F   UNL     1      -9.249   9.916  68.643  1.00  0.00    -0.129 F  
HETATM   24  F   UNL     1     -11.115   8.807  68.823  1.00  0.00    -0.125 F  
BRANCH  22  25
HETATM   25  C   UNL     1     -10.194   9.069  66.667  1.00  0.00    -0.333 C  
BRANCH  25  26
HETATM   26  C   UNL     1      -8.745   9.285  66.227  1.00  0.00    -0.160 C  
BRANCH  26  27
HETATM   27  C   UNL     1      -8.629  10.472  65.274  1.00  0.00    -0.185 C  
HETATM   28  C   UNL     1      -9.568  10.321  64.090  1.00  0.00    -0.376 C  
ENDBRANCH  26  27
ENDBRANCH  25  26
ENDBRANCH  22  25
ENDBRANCH   6  22
TORSDOF 10
ENDMDL
MODEL       16
REMARK 921   NORMALIZED FREE ENERGY PREDICTED BY IDOCK:   -5.86 KCAL/MOL
REMARK 922        TOTAL FREE ENERGY PREDICTED BY IDOCK:  -11.06 KCAL/MOL
REMARK 923 INTER-LIGAND FREE ENERGY PREDICTED BY IDOCK:   -9.10 KCAL/MOL
REMARK 924 INTRA-LIGAND FREE ENERGY PREDICTED BY IDOCK:   -1.96 KCAL/MOL
REMARK 927      BINDING AFFINITY PREDICTED BY RF-SCORE:    0.00 PKD
ROOT
HETATM    1  C   UNL     1      -9.701   9.232  66.721  1.00  0.00    -0.200 C  
HETATM    2  C   UNL     1     -10.473   8.018  67.200  1.00  0.00    -0.408 C  
HETATM    3  C   UNL     1     -10.389   8.203  68.694  1.00  0.00    -0.200 C  
HETATM    4  O   UNL     1     -10.590   7.287  69.481  1.00  0.00    -0.225 OA 
HETATM    5  C   UNL     1     -10.002   9.625  69.095  1.00  0.00    -0.189 C  
HETATM    6  C   UNL     1      -9.479  10.886  65.001  1.00  0.00    -0.233 C  
HETATM    7  C   UNL     1     -10.050  10.310  67.732  1.00  0.00    -0.213 C  
HETATM    8  C   UNL     1      -9.117  11.483  67.498  1.00  0.00    -0.166 C  
HETATM    9  O   UNL     1     -10.130   9.681  65.450  1.00  0.00    -0.272 OA 
HETATM   10  C   UNL     1      -9.393  12.002  66.085  1.00  0.00    -0.217 C  
HETATM   11  O   UNL     1      -8.159  10.527  64.572  1.00  0.00    -0.273 OA 
HETATM   12  H   UNL     1      -8.212   9.846  63.911  1.00  0.00     0.000 HD 
ENDROOT
BRANCH   5  13
HETATM   13  C   UNL     1     -10.994  10.310  70.037  1.00  0.00    -0.371 C  
BRANCH  13  14
HETATM   14  C   UNL     1     -12.004  11.204  69.330  1.00  0.00    -0.421 C  
BRANCH  14  15
HETATM   15  C   UNL     1     -12.152  12.537  70.059  1.00  0.00    -0.337 C  
BRANCH  15  16
HETATM   16  C   UNL     1     -11.829  13.690  69.114  1.00  0.00    -0.394 C  
BRANCH  16  17
HETATM   17  C   UNL     1     -11.956  15.036  69.821  1.00  0.00    -0.366 C  
BRANCH  17  18
HETATM   18  C   UNL     1     -13.166  15.049  70.749  1.00  0.00    -0.397 C  
HETATM   19  O   UNL     1     -13.965  15.847  72.841  1.00  0.00    -0.592 OA 
HETATM   20  C   UNL     1     -12.895  15.829  72.012  1.00  0.00    -0.442 C  
HETATM   21  O   UNL     1     -11.846  16.388  72.289  1.00  0.00    -0.534 OA 
ENDBRANCH  17  18
ENDBRANCH  16  17
ENDBRANCH  15  16
ENDBRANCH  14  15
ENDBRANCH  13  14
ENDBRANCH   5  13
BRANCH   6  22
HETATM   22  C   UNL     1     -10.305  11.448  63.799  1.00  0.00    -0.393 C  
HETATM   23  F   UNL     1      -9.791  12.663  63.436  1.00  0.00    -0.308 F  
HETATM   24  F   UNL     1     -10.142  10.639  62.714  1.00  0.00    -0.332 F  
BRANCH  22  25
HETATM   25  C   UNL     1     -11.791  11.618  64.087  1.00  0.00    -0.264 C  
BRANCH  25  26
HETATM   26  C   UNL     1     -12.225  13.074  63.905  1.00  0.00    -0.511 C  
BRANCH  26  27
HETATM   27  C   UNL     1     -12.552  13.723  65.247  1.00  0.00    -0.510 C  
HETATM   28  C   UNL     1     -11.530  14.787  65.608  1.00  0.00    -0.327 C  
ENDBRANCH  26  27
ENDBRANCH  25  26
ENDBRANCH  22  25
ENDBRANCH   6  22
TORSDOF 10
ENDMDL
MODEL       17
REMARK 921   NORMALIZED FREE ENERGY PREDICTED BY IDOCK:   -5.85 KCAL/MOL
REMARK 922        TOTAL FREE ENERGY PREDICTED BY IDOCK:  -11.05 KCAL/MOL
REMARK 923 INTER-LIGAND FREE ENERGY PREDICTED BY IDOCK:   -8.94 KCAL/MOL
REMARK 924 INTRA-LIGAND FREE ENERGY PREDICTED BY IDOCK:   -2.11 KCAL/MOL
REMARK 927      BINDING AFFINITY PREDICTED BY RF-SCORE:    0.00 PKD
ROOT
HETATM    1  C   UNL     1     -10.705  11.287  64.767  1.00  0.00    -0.285 C  
HETATM    2  C   UNL     1     -10.730  12.278  63.619  1.00  0.00    -0.513 C  
HETATM    3  C   UNL     1     -11.908  13.133  64.011  1.00  0.00    -0.453 C  
HETATM    4  O   UNL     1     -12.493  13.851  63.211  1.00  0.00    -0.817 OA 
HETATM    5  C   UNL     1     -12.292  12.976  65.481  1.00  0.00    -0.527 C  
HETATM    6  C   UNL     1      -9.330   9.913  66.168  1.00  0.00    -0.181 C  
HETATM    7  C   UNL     1     -11.135  12.108  65.969  1.00  0.00    -0.354 C  
HETATM    8  C   UNL     1     -11.405  11.149  67.113  1.00  0.00    -0.257 C  
HETATM    9  O   UNL     1      -9.406  10.791  65.027  1.00  0.00    -0.200 OA 
HETATM   10  C   UNL     1     -10.085  10.439  67.425  1.00  0.00    -0.237 C  
HETATM   11  O   UNL     1      -9.874   8.647  65.774  1.00  0.00    -0.466 OA 
HETATM   12  H   UNL     1      -9.413   8.326  65.007  1.00  0.00     0.000 HD 
ENDROOT
BRANCH   5  13
HETATM   13  C   UNL     1     -12.310  14.283  66.275  1.00  0.00    -0.399 C  
BRANCH  13  14
HETATM   14  C   UNL     1     -10.929  14.783  66.677  1.00  0.00    -0.326 C  
BRANCH  14  15
HETATM   15  C   UNL     1     -11.028  15.778  67.831  1.00  0.00    -0.324 C  
BRANCH  15  16
HETATM   16  C   UNL     1     -10.999  15.038  69.165  1.00  0.00    -0.265 C  
BRANCH  16  17
HETATM   17  C   UNL     1     -12.229  15.363  70.005  1.00  0.00    -0.392 C  
BRANCH  17  18
HETATM   18  C   UNL     1     -12.694  14.136  70.783  1.00  0.00    -0.414 C  
HETATM   19  O   UNL     1     -14.151  13.406  72.513  1.00  0.00    -0.726 OA 
HETATM   20  C   UNL     1     -13.732  14.489  71.819  1.00  0.00    -0.418 C  
HETATM   21  O   UNL     1     -14.165  15.610  72.036  1.00  0.00    -0.491 OA 
ENDBRANCH  17  18
ENDBRANCH  16  17
ENDBRANCH  15  16
ENDBRANCH  14  15
ENDBRANCH  13  14
ENDBRANCH   5  13
BRANCH   6  22
HETATM   22  C   UNL     1      -7.821   9.760  66.545  1.00  0.00    -0.109 C  
HETATM   23  F   UNL     1      -7.561   8.444  66.815  1.00  0.00    -0.085 F  
HETATM   24  F   UNL     1      -7.046  10.077  65.469  1.00  0.00    -0.104 F  
BRANCH  22  25
HETATM   25  C   UNL     1      -7.389  10.594  67.744  1.00  0.00    -0.089 C  
BRANCH  25  26
HETATM   26  C   UNL     1      -6.786  11.928  67.299  1.00  0.00    -0.142 C  
BRANCH  26  27
HETATM   27  C   UNL     1      -7.771  13.075  67.509  1.00  0.00    -0.168 C  
HETATM   28  C   UNL     1      -7.057  14.414  67.556  1.00  0.00    -0.197 C  
ENDBRANCH  26  27
ENDBRANCH  25  26
ENDBRANCH  22  25
ENDBRANCH   6  22
TORSDOF 10
ENDMDL
MODEL       18
REMARK 921   NORMALIZED FREE ENERGY PREDICTED BY IDOCK:   -5.82 KCAL/MOL
REMARK 922        TOTAL FREE ENERGY PREDICTED BY IDOCK:  -10.99 KCAL/MOL
REMARK 923 INTER-LIGAND FREE ENERGY PREDICTED BY IDOCK:   -9.39 KCAL/MOL
REMARK 924 INTRA-LIGAND FREE ENERGY PREDICTED BY IDOCK:   -1.60 KCAL/MOL
REMARK 927      BINDING AFFINITY PREDICTED BY RF-SCORE:    0.00 PKD
ROOT
HETATM    1  C   UNL     1      -9.180   8.920  69.016  1.00  0.00    -0.140 C  
HETATM    2  C   UNL     1      -8.712  10.360  69.109  1.00  0.00    -0.173 C  
HETATM    3  C   UNL     1      -8.665  10.736  67.650  1.00  0.00    -0.126 C  
HETATM    4  O   UNL     1      -8.029  11.697  67.241  1.00  0.00    -0.141 OA 
HETATM    5  C   UNL     1      -9.460   9.778  66.765  1.00  0.00    -0.209 C  
HETATM    6  C   UNL     1     -10.447   7.177  70.064  1.00  0.00    -0.221 C  
HETATM    7  C   UNL     1     -10.133   8.921  67.834  1.00  0.00    -0.255 C  
HETATM    8  C   UNL     1     -10.444   7.477  67.489  1.00  0.00    -0.341 C  
HETATM    9  O   UNL     1      -9.911   8.512  70.157  1.00  0.00    -0.177 OA 
HETATM   10  C   UNL     1     -11.142   6.864  68.706  1.00  0.00    -0.163 C  
HETATM   11  O   UNL     1      -9.363   6.264  70.273  1.00  0.00    -0.159 OA 
HETATM   12  H   UNL     1      -8.938   6.454  71.102  1.00  0.00     0.000 HD 
ENDROOT
BRANCH   5  13
HETATM   13  C   UNL     1     -10.535  10.450  65.909  1.00  0.00    -0.196 C  
BRANCH  13  14
HETATM   14  C   UNL     1     -10.127  10.670  64.459  1.00  0.00    -0.421 C  
BRANCH  14  15
HETATM   15  C   UNL     1     -10.306  12.134  64.062  1.00  0.00    -0.412 C  
BRANCH  15  16
HETATM   16  C   UNL     1     -11.736  12.377  63.589  1.00  0.00    -0.596 C  
BRANCH  16  17
HETATM   17  C   UNL     1     -12.254  13.728  64.070  1.00  0.00    -0.429 C  
BRANCH  17  18
HETATM   18  C   UNL     1     -11.219  14.424  64.948  1.00  0.00    -0.392 C  
HETATM   19  O   UNL     1     -10.179  16.516  65.387  1.00  0.00    -0.566 OA 
HETATM   20  C   UNL     1     -11.094  15.890  64.611  1.00  0.00    -0.354 C  
HETATM   21  O   UNL     1     -11.725  16.475  63.745  1.00  0.00    -1.086 OA 
ENDBRANCH  17  18
ENDBRANCH  16  17
ENDBRANCH  15  16
ENDBRANCH  14  15
ENDBRANCH  13  14
ENDBRANCH   5  13
BRANCH   6  22
HETATM   22  C   UNL     1     -11.514   7.019  71.196  1.00  0.00    -0.294 C  
HETATM   23  F   UNL     1     -12.725   6.734  70.629  1.00  0.00    -0.408 F  
HETATM   24  F   UNL     1     -11.204   5.939  71.968  1.00  0.00    -0.284 F  
BRANCH  22  25
HETATM   25  C   UNL     1     -11.671   8.248  72.082  1.00  0.00    -0.429 C  
BRANCH  25  26
HETATM   26  C   UNL     1     -13.057   8.875  71.913  1.00  0.00    -0.436 C  
BRANCH  26  27
HETATM   27  C   UNL     1     -12.956  10.382  71.694  1.00  0.00    -0.581 C  
HETATM   28  C   UNL     1     -12.381  10.703  70.326  1.00  0.00    -0.406 C  
ENDBRANCH  26  27
ENDBRANCH  25  26
ENDBRANCH  22  25
ENDBRANCH   6  22
TORSDOF 10
ENDMDL
MODEL       19
REMARK 921   NORMALIZED FREE ENERGY PREDICTED BY IDOCK:   -5.80 KCAL/MOL
REMARK 922        TOTAL FREE ENERGY PREDICTED BY IDOCK:  -10.96 KCAL/MOL
REMARK 923 INTER-LIGAND FREE ENERGY PREDICTED BY IDOCK:   -9.42 KCAL/MOL
REMARK 924 INTRA-LIGAND FREE ENERGY PREDICTED BY IDOCK:   -1.54 KCAL/MOL
REMARK 927      BINDING AFFINITY PREDICTED BY RF-SCORE:    0.00 PKD
ROOT
HETATM    1  C   UNL     1     -12.078  12.555  66.219  1.00  0.00    -0.243 C  
HETATM    2  C   UNL     1     -12.443  12.868  64.780  1.00  0.00    -0.517 C  
HETATM    3  C   UNL     1     -12.175  14.350  64.737  1.00  0.00    -0.446 C  
HETATM    4  O   UNL     1     -12.644  15.077  63.871  1.00  0.00    -0.813 OA 
HETATM    5  C   UNL     1     -11.299  14.829  65.892  1.00  0.00    -0.331 C  
HETATM    6  C   UNL     1     -11.178  10.923  67.724  1.00  0.00    -0.317 C  
HETATM    7  C   UNL     1     -10.915  13.487  66.511  1.00  0.00    -0.295 C  
HETATM    8  C   UNL     1     -10.654  13.447  68.005  1.00  0.00    -0.252 C  
HETATM    9  O   UNL     1     -11.617  11.228  66.385  1.00  0.00    -0.300 OA 
HETATM   10  C   UNL     1     -10.257  12.010  68.353  1.00  0.00    -0.211 C  
HETATM   11  O   UNL     1     -12.349  10.755  68.533  1.00  0.00    -0.825 OA 
HETATM   12  H   UNL     1     -12.911  10.092  68.149  1.00  0.00     0.000 HD 
ENDROOT
BRANCH   5  13
HETATM   13  C   UNL     1     -10.028  15.565  65.463  1.00  0.00    -0.377 C  
BRANCH  13  14
HETATM   14  C   UNL     1      -9.478  16.518  66.514  1.00  0.00    -0.296 C  
BRANCH  14  15
HETATM   15  C   UNL     1     -10.609  17.125  67.341  1.00  0.00    -0.297 C  
BRANCH  15  16
HETATM   16  C   UNL     1     -10.065  17.656  68.664  1.00  0.00    -0.377 C  
BRANCH  16  17
HETATM   17  C   UNL     1      -9.933  19.174  68.638  1.00  0.00    -0.486 C  
BRANCH  17  18
HETATM   18  C   UNL     1      -8.468  19.590  68.552  1.00  0.00    -0.374 C  
HETATM   19  O   UNL     1      -6.786  20.378  67.068  1.00  0.00    -0.230 OA 
HETATM   20  C   UNL     1      -8.085  20.006  67.153  1.00  0.00    -0.320 C  
HETATM   21  O   UNL     1      -8.830  20.016  66.187  1.00  0.00    -0.346 OA 
ENDBRANCH  17  18
ENDBRANCH  16  17
ENDBRANCH  15  16
ENDBRANCH  14  15
ENDBRANCH  13  14
ENDBRANCH   5  13
BRANCH   6  22
HETATM   22  C   UNL     1     -10.368   9.587  67.661  1.00  0.00    -0.244 C  
HETATM   23  F   UNL     1     -11.243   8.540  67.563  1.00  0.00    -0.148 F  
HETATM   24  F   UNL     1      -9.625   9.556  66.518  1.00  0.00    -0.191 F  
BRANCH  22  25
HETATM   25  C   UNL     1      -9.462   9.349  68.862  1.00  0.00    -0.154 C  
BRANCH  25  26
HETATM   26  C   UNL     1     -10.131   8.426  69.882  1.00  0.00    -0.195 C  
BRANCH  26  27
HETATM   27  C   UNL     1     -10.191   9.080  71.260  1.00  0.00    -0.384 C  
HETATM   28  C   UNL     1     -11.609   9.496  71.612  1.00  0.00    -0.451 C  
ENDBRANCH  26  27
ENDBRANCH  25  26
ENDBRANCH  22  25
ENDBRANCH   6  22
TORSDOF 10
ENDMDL
MODEL       20
REMARK 921   NORMALIZED FREE ENERGY PREDICTED BY IDOCK:   -5.78 KCAL/MOL
REMARK 922        TOTAL FREE ENERGY PREDICTED BY IDOCK:  -10.93 KCAL/MOL
REMARK 923 INTER-LIGAND FREE ENERGY PREDICTED BY IDOCK:   -8.94 KCAL/MOL
REMARK 924 INTRA-LIGAND FREE ENERGY PREDICTED BY IDOCK:   -2.00 KCAL/MOL
REMARK 927      BINDING AFFINITY PREDICTED BY RF-SCORE:    0.00 PKD
ROOT
HETATM    1  C   UNL     1      -9.398  13.840  66.562  1.00  0.00    -0.233 C  
HETATM    2  C   UNL     1      -8.164  14.681  66.826  1.00  0.00     0.003 C  
HETATM    3  C   UNL     1      -8.772  16.058  66.899  1.00  0.00    -0.229 C  
HETATM    4  O   UNL     1      -8.106  17.077  66.770  1.00  0.00    -0.200 OA 
HETATM    5  C   UNL     1     -10.283  16.030  67.116  1.00  0.00    -0.278 C  
HETATM    6  C   UNL     1     -10.463  11.722  66.909  1.00  0.00    -0.223 C  
HETATM    7  C   UNL     1     -10.491  14.536  67.354  1.00  0.00    -0.264 C  
HETATM    8  C   UNL     1     -11.819  13.932  66.939  1.00  0.00    -0.453 C  
HETATM    9  O   UNL     1      -9.275  12.523  67.064  1.00  0.00    -0.200 OA 
HETATM   10  C   UNL     1     -11.778  12.450  67.319  1.00  0.00    -0.419 C  
HETATM   11  O   UNL     1     -10.539  11.328  65.533  1.00  0.00    -0.262 OA 
HETATM   12  H   UNL     1      -9.737  10.884  65.282  1.00  0.00     0.000 HD 
ENDROOT
BRANCH   5  13
HETATM   13  C   UNL     1     -10.763  16.805  68.344  1.00  0.00    -0.362 C  
BRANCH  13  14
HETATM   14  C   UNL     1     -10.738  15.999  69.636  1.00  0.00    -0.316 C  
BRANCH  14  15
HETATM   15  C   UNL     1     -12.130  15.930  70.259  1.00  0.00    -0.294 C  
BRANCH  15  16
HETATM   16  C   UNL     1     -12.482  14.485  70.597  1.00  0.00    -0.409 C  
BRANCH  16  17
HETATM   17  C   UNL     1     -13.517  14.415  71.715  1.00  0.00    -0.456 C  
BRANCH  17  18
HETATM   18  C   UNL     1     -13.571  15.731  72.486  1.00  0.00    -0.589 C  
HETATM   19  O   UNL     1     -12.907  16.792  74.507  1.00  0.00    -0.539 OA 
HETATM   20  C   UNL     1     -12.865  15.629  73.817  1.00  0.00    -0.560 C  
HETATM   21  O   UNL     1     -12.314  14.631  74.253  1.00  0.00    -0.454 OA 
ENDBRANCH  17  18
ENDBRANCH  16  17
ENDBRANCH  15  16
ENDBRANCH  14  15
ENDBRANCH  13  14
ENDBRANCH   5  13
BRANCH   6  22
HETATM   22  C   UNL     1     -10.306  10.464  67.824  1.00  0.00    -0.206 C  
HETATM   23  F   UNL     1     -11.366   9.625  67.612  1.00  0.00    -0.285 F  
HETATM   24  F   UNL     1      -9.199   9.763  67.450  1.00  0.00    -0.135 F  
BRANCH  22  25
HETATM   25  C   UNL     1     -10.229  10.781  69.312  1.00  0.00    -0.217 C  
BRANCH  25  26
HETATM   26  C   UNL     1     -11.260   9.971  70.101  1.00  0.00    -0.367 C  
BRANCH  26  27
HETATM   27  C   UNL     1     -12.379  10.866  70.626  1.00  0.00    -0.470 C  
HETATM   28  C   UNL     1     -13.247  10.131  71.632  1.00  0.00    -0.518 C  
ENDBRANCH  26  27
ENDBRANCH  25  26
ENDBRANCH  22  25
ENDBRANCH   6  22
TORSDOF 10
ENDMDL
MODEL       21
REMARK 921   NORMALIZED FREE ENERGY PREDICTED BY IDOCK:   -5.76 KCAL/MOL
REMARK 922        TOTAL FREE ENERGY PREDICTED BY IDOCK:  -10.90 KCAL/MOL
REMARK 923 INTER-LIGAND FREE ENERGY PREDICTED BY IDOCK:   -8.96 KCAL/MOL
REMARK 924 INTRA-LIGAND FREE ENERGY PREDICTED BY IDOCK:   -1.94 KCAL/MOL
REMARK 927      BINDING AFFINITY PREDICTED BY RF-SCORE:    0.00 PKD
ROOT
HETATM    1  C   UNL     1      -9.753   9.339  66.917  1.00  0.00    -0.190 C  
HETATM    2  C   UNL     1     -10.535   8.087  67.263  1.00  0.00    -0.384 C  
HETATM    3  C   UNL     1     -10.064   7.841  68.674  1.00  0.00    -0.199 C  
HETATM    4  O   UNL     1     -10.184   6.756  69.226  1.00  0.00    -0.169 OA 
HETATM    5  C   UNL     1      -9.409   9.069  69.303  1.00  0.00    -0.150 C  
HETATM    6  C   UNL     1      -9.744  11.391  65.681  1.00  0.00    -0.231 C  
HETATM    7  C   UNL     1      -9.699  10.109  68.224  1.00  0.00    -0.154 C  
HETATM    8  C   UNL     1      -8.707  11.244  68.052  1.00  0.00    -0.144 C  
HETATM    9  O   UNL     1     -10.418  10.150  65.968  1.00  0.00    -0.194 OA 
HETATM   10  C   UNL     1      -9.251  12.153  66.947  1.00  0.00    -0.203 C  
HETATM   11  O   UNL     1      -8.629  11.090  64.833  1.00  0.00    -0.353 OA 
HETATM   12  H   UNL     1      -8.930  10.625  64.061  1.00  0.00     0.000 HD 
ENDROOT
BRANCH   5  13
HETATM   13  C   UNL     1     -10.041   9.521  70.620  1.00  0.00    -0.353 C  
BRANCH  13  14
HETATM   14  C   UNL     1     -11.240  10.444  70.448  1.00  0.00    -0.399 C  
BRANCH  14  15
HETATM   15  C   UNL     1     -12.500   9.809  71.032  1.00  0.00    -0.414 C  
BRANCH  15  16
HETATM   16  C   UNL     1     -13.262  10.831  71.869  1.00  0.00    -0.524 C  
BRANCH  16  17
HETATM   17  C   UNL     1     -12.714  12.238  71.658  1.00  0.00    -0.309 C  
BRANCH  17  18
HETATM   18  C   UNL     1     -13.697  13.286  72.173  1.00  0.00    -0.619 C  
HETATM   19  O   UNL     1     -13.971  15.609  72.593  1.00  0.00    -0.566 OA 
HETATM   20  C   UNL     1     -13.106  14.674  72.139  1.00  0.00    -0.347 C  
HETATM   21  O   UNL     1     -11.981  14.957  71.756  1.00  0.00    -0.344 OA 
ENDBRANCH  17  18
ENDBRANCH  16  17
ENDBRANCH  15  16
ENDBRANCH  14  15
ENDBRANCH  13  14
ENDBRANCH   5  13
BRANCH   6  22
HETATM   22  C   UNL     1     -10.759  12.315  64.931  1.00  0.00    -0.297 C  
HETATM   23  F   UNL     1     -10.139  13.493  64.616  1.00  0.00    -0.380 F  
HETATM   24  F   UNL     1     -11.102  11.747  63.741  1.00  0.00    -0.369 F  
BRANCH  22  25
HETATM   25  C   UNL     1     -12.021  12.630  65.725  1.00  0.00    -0.503 C  
BRANCH  25  26
HETATM   26  C   UNL     1     -12.233  14.140  65.847  1.00  0.00    -0.458 C  
BRANCH  26  27
HETATM   27  C   UNL     1     -11.765  14.655  67.205  1.00  0.00    -0.406 C  
HETATM   28  C   UNL     1     -12.095  13.669  68.312  1.00  0.00    -0.306 C  
ENDBRANCH  26  27
ENDBRANCH  25  26
ENDBRANCH  22  25
ENDBRANCH   6  22
TORSDOF 10
ENDMDL
MODEL       22
REMARK 921   NORMALIZED FREE ENERGY PREDICTED BY IDOCK:   -5.76 KCAL/MOL
REMARK 922        TOTAL FREE ENERGY PREDICTED BY IDOCK:  -10.90 KCAL/MOL
REMARK 923 INTER-LIGAND FREE ENERGY PREDICTED BY IDOCK:   -8.66 KCAL/MOL
REMARK 924 INTRA-LIGAND FREE ENERGY PREDICTED BY IDOCK:   -2.23 KCAL/MOL
REMARK 927      BINDING AFFINITY PREDICTED BY RF-SCORE:    0.00 PKD
ROOT
HETATM    1  C   UNL     1      -9.085   8.249  69.976  1.00  0.00    -0.150 C  
HETATM    2  C   UNL     1      -8.315   9.550  70.086  1.00  0.00    -0.212 C  
HETATM    3  C   UNL     1      -8.227   9.950  68.636  1.00  0.00    -0.108 C  
HETATM    4  O   UNL     1      -7.410  10.764  68.227  1.00  0.00    -0.081 OA 
HETATM    5  C   UNL     1      -9.234   9.213  67.755  1.00  0.00    -0.145 C  
HETATM    6  C   UNL     1     -10.670   6.789  71.025  1.00  0.00    -0.231 C  
HETATM    7  C   UNL     1     -10.047   8.489  68.826  1.00  0.00    -0.210 C  
HETATM    8  C   UNL     1     -10.672   7.157  68.459  1.00  0.00    -0.191 C  
HETATM    9  O   UNL     1      -9.856   7.974  71.130  1.00  0.00    -0.165 OA 
HETATM   10  C   UNL     1     -11.453   6.674  69.683  1.00  0.00    -0.358 C  
HETATM   11  O   UNL     1      -9.803   5.658  71.177  1.00  0.00    -0.167 OA 
HETATM   12  H   UNL     1      -9.325   5.728  71.996  1.00  0.00     0.000 HD 
ENDROOT
BRANCH   5  13
HETATM   13  C   UNL     1     -10.162  10.125  66.951  1.00  0.00    -0.295 C  
BRANCH  13  14
HETATM   14  C   UNL     1     -11.273  10.761  67.775  1.00  0.00    -0.385 C  
BRANCH  14  15
HETATM   15  C   UNL     1     -10.987  12.240  68.021  1.00  0.00    -0.265 C  
BRANCH  15  16
HETATM   16  C   UNL     1     -10.120  12.800  66.898  1.00  0.00    -0.234 C  
BRANCH  16  17
HETATM   17  C   UNL     1     -10.678  14.118  66.372  1.00  0.00    -0.288 C  
BRANCH  17  18
HETATM   18  C   UNL     1     -10.852  14.065  64.857  1.00  0.00    -0.421 C  
HETATM   19  O   UNL     1     -12.438  13.699  63.124  1.00  0.00    -0.786 OA 
HETATM   20  C   UNL     1     -12.274  13.746  64.467  1.00  0.00    -0.403 C  
HETATM   21  O   UNL     1     -13.194  13.544  65.244  1.00  0.00    -0.688 OA 
ENDBRANCH  17  18
ENDBRANCH  16  17
ENDBRANCH  15  16
ENDBRANCH  14  15
ENDBRANCH  13  14
ENDBRANCH   5  13
BRANCH   6  22
HETATM   22  C   UNL     1     -11.714   6.831  72.187  1.00  0.00    -0.297 C  
HETATM   23  F   UNL     1     -11.955   5.554  72.615  1.00  0.00    -0.355 F  
HETATM   24  F   UNL     1     -11.182   7.485  73.258  1.00  0.00    -0.395 F  
BRANCH  22  25
HETATM   25  C   UNL     1     -13.043   7.473  71.810  1.00  0.00    -0.362 C  
BRANCH  25  26
HETATM   26  C   UNL     1     -13.106   8.927  72.280  1.00  0.00    -0.491 C  
BRANCH  26  27
HETATM   27  C   UNL     1     -12.769   9.889  71.144  1.00  0.00    -0.462 C  
HETATM   28  C   UNL     1     -12.977  11.333  71.564  1.00  0.00    -0.520 C  
ENDBRANCH  26  27
ENDBRANCH  25  26
ENDBRANCH  22  25
ENDBRANCH   6  22
TORSDOF 10
ENDMDL
MODEL       23
REMARK 921   NORMALIZED FREE ENERGY PREDICTED BY IDOCK:   -5.75 KCAL/MOL
REMARK 922        TOTAL FREE ENERGY PREDICTED BY IDOCK:  -10.89 KCAL/MOL
REMARK 923 INTER-LIGAND FREE ENERGY PREDICTED BY IDOCK:   -9.30 KCAL/MOL
REMARK 924 INTRA-LIGAND FREE ENERGY PREDICTED BY IDOCK:   -1.59 KCAL/MOL
REMARK 927      BINDING AFFINITY PREDICTED BY RF-SCORE:    0.00 PKD
ROOT
HETATM    1  C   UNL     1     -12.161  12.312  66.330  1.00  0.00    -0.043 C  
HETATM    2  C   UNL     1     -12.148  12.374  64.815  1.00  0.00    -0.483 C  
HETATM    3  C   UNL     1     -12.256  13.860  64.593  1.00  0.00    -0.419 C  
HETATM    4  O   UNL     1     -12.611  14.341  63.524  1.00  0.00    -0.814 OA 
HETATM    5  C   UNL     1     -11.909  14.674  65.838  1.00  0.00    -0.272 C  
HETATM    6  C   UNL     1     -11.374  11.150  68.272  1.00  0.00    -0.297 C  
HETATM    7  C   UNL     1     -11.407  13.560  66.754  1.00  0.00    -0.351 C  
HETATM    8  C   UNL     1     -11.600  13.732  68.248  1.00  0.00    -0.373 C  
HETATM    9  O   UNL     1     -11.457  11.193  66.834  1.00  0.00    -0.414 OA 
HETATM   10  C   UNL     1     -10.980  12.508  68.926  1.00  0.00    -0.272 C  
HETATM   11  O   UNL     1     -12.652  10.729  68.764  1.00  0.00    -0.732 OA 
HETATM   12  H   UNL     1     -12.892   9.901  68.366  1.00  0.00     0.000 HD 
ENDROOT
BRANCH   5  13
HETATM   13  C   UNL     1     -10.793  15.699  65.636  1.00  0.00    -0.336 C  
BRANCH  13  14
HETATM   14  C   UNL     1      -9.391  15.138  65.836  1.00  0.00    -0.279 C  
BRANCH  14  15
HETATM   15  C   UNL     1      -8.510  16.135  66.585  1.00  0.00    -0.315 C  
BRANCH  15  16
HETATM   16  C   UNL     1      -9.195  16.573  67.875  1.00  0.00    -0.211 C  
BRANCH  16  17
HETATM   17  C   UNL     1      -9.213  18.093  68.003  1.00  0.00    -0.285 C  
BRANCH  17  18
HETATM   18  C   UNL     1     -10.373  18.689  67.211  1.00  0.00    -0.440 C  
HETATM   19  O   UNL     1     -10.911  20.111  65.383  1.00  0.00    -0.307 OA 
HETATM   20  C   UNL     1      -9.888  19.579  66.093  1.00  0.00    -0.412 C  
HETATM   21  O   UNL     1      -8.720  19.817  65.831  1.00  0.00    -0.369 OA 
ENDBRANCH  17  18
ENDBRANCH  16  17
ENDBRANCH  15  16
ENDBRANCH  14  15
ENDBRANCH  13  14
ENDBRANCH   5  13
BRANCH   6  22
HETATM   22  C   UNL     1     -10.277  10.101  68.649  1.00  0.00    -0.176 C  
HETATM   23  F   UNL     1      -9.952   9.377  67.535  1.00  0.00    -0.188 F  
HETATM   24  F   UNL     1      -9.134  10.747  69.017  1.00  0.00    -0.163 F  
BRANCH  22  25
HETATM   25  C   UNL     1     -10.690   9.134  69.751  1.00  0.00    -0.239 C  
BRANCH  25  26
HETATM   26  C   UNL     1      -9.806   9.298  70.989  1.00  0.00    -0.355 C  
BRANCH  26  27
HETATM   27  C   UNL     1     -10.380   8.538  72.181  1.00  0.00    -0.409 C  
HETATM   28  C   UNL     1     -11.708   7.889  71.833  1.00  0.00    -0.342 C  
ENDBRANCH  26  27
ENDBRANCH  25  26
ENDBRANCH  22  25
ENDBRANCH   6  22
TORSDOF 10
ENDMDL
MODEL       24
REMARK 921   NORMALIZED FREE ENERGY PREDICTED BY IDOCK:   -5.75 KCAL/MOL
REMARK 922        TOTAL FREE ENERGY PREDICTED BY IDOCK:  -10.88 KCAL/MOL
REMARK 923 INTER-LIGAND FREE ENERGY PREDICTED BY IDOCK:   -9.03 KCAL/MOL
REMARK 924 INTRA-LIGAND FREE ENERGY PREDICTED BY IDOCK:   -1.85 KCAL/MOL
REMARK 927      BINDING AFFINITY PREDICTED BY RF-SCORE:    0.00 PKD
ROOT
HETATM    1  C   UNL     1     -11.564  16.188  69.396  1.00  0.00    -0.261 C  
HETATM    2  C   UNL     1     -11.986  15.774  70.793  1.00  0.00    -0.444 C  
HETATM    3  C   UNL     1     -12.454  14.364  70.539  1.00  0.00    -0.350 C  
HETATM    4  O   UNL     1     -13.182  13.764  71.319  1.00  0.00    -0.319 OA 
HETATM    5  C   UNL     1     -11.948  13.799  69.213  1.00  0.00    -0.399 C  
HETATM    6  C   UNL     1     -10.047  17.509  68.095  1.00  0.00    -0.341 C  
HETATM    7  C   UNL     1     -10.994  14.915  68.794  1.00  0.00    -0.259 C  
HETATM    8  C   UNL     1     -10.795  15.154  67.310  1.00  0.00    -0.316 C  
HETATM    9  O   UNL     1     -10.533  17.157  69.405  1.00  0.00    -0.321 OA 
HETATM   10  C   UNL     1      -9.774  16.286  67.169  1.00  0.00    -0.240 C  
HETATM   11  O   UNL     1     -11.023  18.365  67.489  1.00  0.00    -0.354 OA 
HETATM   12  H   UNL     1     -11.189  19.111  68.054  1.00  0.00     0.000 HD 
ENDROOT
BRANCH   5  13
HETATM   13  C   UNL     1     -11.167  12.490  69.336  1.00  0.00    -0.215 C  
BRANCH  13  14
HETATM   14  C   UNL     1     -11.968  11.252  68.959  1.00  0.00    -0.393 C  
BRANCH  14  15
HETATM   15  C   UNL     1     -11.409  10.610  67.692  1.00  0.00    -0.284 C  
BRANCH  15  16
HETATM   16  C   UNL     1     -10.051  11.215  67.353  1.00  0.00    -0.213 C  
BRANCH  16  17
HETATM   17  C   UNL     1     -10.030  11.766  65.931  1.00  0.00    -0.266 C  
BRANCH  17  18
HETATM   18  C   UNL     1     -11.434  12.164  65.485  1.00  0.00    -0.394 C  
HETATM   19  O   UNL     1     -12.761  12.681  63.581  1.00  0.00    -0.711 OA 
HETATM   20  C   UNL     1     -11.519  12.330  63.987  1.00  0.00    -0.409 C  
HETATM   21  O   UNL     1     -10.596  12.177  63.203  1.00  0.00    -0.380 OA 
ENDBRANCH  17  18
ENDBRANCH  16  17
ENDBRANCH  15  16
ENDBRANCH  14  15
ENDBRANCH  13  14
ENDBRANCH   5  13
BRANCH   6  22
HETATM   22  C   UNL     1      -8.698  18.276  68.285  1.00  0.00    -0.288 C  
HETATM   23  F   UNL     1      -8.954  19.490  68.861  1.00  0.00    -0.388 F  
HETATM   24  F   UNL     1      -7.910  17.605  69.172  1.00  0.00    -0.239 F  
BRANCH  22  25
HETATM   25  C   UNL     1      -7.924  18.508  66.993  1.00  0.00    -0.243 C  
BRANCH  25  26
HETATM   26  C   UNL     1      -8.110  19.940  66.488  1.00  0.00    -0.357 C  
BRANCH  26  27
HETATM   27  C   UNL     1      -6.773  20.668  66.391  1.00  0.00    -0.303 C  
HETATM   28  C   UNL     1      -6.114  20.797  67.753  1.00  0.00    -0.346 C  
ENDBRANCH  26  27
ENDBRANCH  25  26
ENDBRANCH  22  25
ENDBRANCH   6  22
TORSDOF 10
ENDMDL
MODEL       25
REMARK 921   NORMALIZED FREE ENERGY PREDICTED BY IDOCK:   -5.73 KCAL/MOL
REMARK 922        TOTAL FREE ENERGY PREDICTED BY IDOCK:  -10.86 KCAL/MOL
REMARK 923 INTER-LIGAND FREE ENERGY PREDICTED BY IDOCK:   -9.00 KCAL/MOL
REMARK 924 INTRA-LIGAND FREE ENERGY PREDICTED BY IDOCK:   -1.87 KCAL/MOL
REMARK 927      BINDING AFFINITY PREDICTED BY RF-SCORE:    0.00 PKD
ROOT
HETATM    1  C   UNL     1     -10.524  11.056  66.778  1.00  0.00    -0.251 C  
HETATM    2  C   UNL     1      -9.837  11.925  65.742  1.00  0.00    -0.262 C  
HETATM    3  C   UNL     1     -10.838  13.043  65.604  1.00  0.00    -0.273 C  
HETATM    4  O   UNL     1     -10.852  13.796  64.639  1.00  0.00    -0.375 OA 
HETATM    5  C   UNL     1     -11.827  13.102  66.767  1.00  0.00    -0.444 C  
HETATM    6  C   UNL     1     -10.219   9.549  68.615  1.00  0.00    -0.195 C  
HETATM    7  C   UNL     1     -11.214  12.053  67.691  1.00  0.00    -0.343 C  
HETATM    8  C   UNL     1     -12.151  11.278  68.599  1.00  0.00    -0.211 C  
HETATM    9  O   UNL     1      -9.606  10.319  67.562  1.00  0.00    -0.154 OA 
HETATM   10  C   UNL     1     -11.286  10.333  69.436  1.00  0.00    -0.292 C  
HETATM   11  O   UNL     1     -10.824   8.399  68.011  1.00  0.00    -0.454 OA 
HETATM   12  H   UNL     1     -10.173   7.920  67.510  1.00  0.00     0.000 HD 
ENDROOT
BRANCH   5  13
HETATM   13  C   UNL     1     -11.872  14.447  67.494  1.00  0.00    -0.418 C  
BRANCH  13  14
HETATM   14  C   UNL     1     -10.527  14.900  68.044  1.00  0.00    -0.246 C  
BRANCH  14  15
HETATM   15  C   UNL     1     -10.649  15.294  69.514  1.00  0.00    -0.272 C  
BRANCH  15  16
HETATM   16  C   UNL     1     -11.780  14.512  70.175  1.00  0.00    -0.357 C  
BRANCH  16  17
HETATM   17  C   UNL     1     -12.777  15.447  70.851  1.00  0.00    -0.520 C  
BRANCH  17  18
HETATM   18  C   UNL     1     -12.254  15.908  72.208  1.00  0.00    -0.585 C  
HETATM   19  O   UNL     1     -12.193  15.362  74.521  1.00  0.00    -0.648 OA 
HETATM   20  C   UNL     1     -12.654  14.961  73.313  1.00  0.00    -0.471 C  
HETATM   21  O   UNL     1     -13.319  13.947  73.172  1.00  0.00    -0.571 OA 
ENDBRANCH  17  18
ENDBRANCH  16  17
ENDBRANCH  15  16
ENDBRANCH  14  15
ENDBRANCH  13  14
ENDBRANCH   5  13
BRANCH   6  22
HETATM   22  C   UNL     1      -9.085   9.110  69.599  1.00  0.00    -0.160 C  
HETATM   23  F   UNL     1      -8.691   7.838  69.284  1.00  0.00    -0.134 F  
HETATM   24  F   UNL     1      -7.987   9.895  69.410  1.00  0.00    -0.090 F  
BRANCH  22  25
HETATM   25  C   UNL     1      -9.486   9.142  71.068  1.00  0.00    -0.344 C  
BRANCH  25  26
HETATM   26  C   UNL     1      -9.721   7.730  71.606  1.00  0.00    -0.200 C  
BRANCH  26  27
HETATM   27  C   UNL     1     -11.185   7.522  71.987  1.00  0.00    -0.298 C  
HETATM   28  C   UNL     1     -11.960   6.863  70.859  1.00  0.00    -0.430 C  
ENDBRANCH  26  27
ENDBRANCH  25  26
ENDBRANCH  22  25
ENDBRANCH   6  22
TORSDOF 10
ENDMDL
MODEL       26
REMARK 921   NORMALIZED FREE ENERGY PREDICTED BY IDOCK:   -5.71 KCAL/MOL
REMARK 922        TOTAL FREE ENERGY PREDICTED BY IDOCK:  -10.82 KCAL/MOL
REMARK 923 INTER-LIGAND FREE ENERGY PREDICTED BY IDOCK:   -9.17 KCAL/MOL
REMARK 924 INTRA-LIGAND FREE ENERGY PREDICTED BY IDOCK:   -1.65 KCAL/MOL
REMARK 927      BINDING AFFINITY PREDICTED BY RF-SCORE:    0.00 PKD
ROOT
HETATM    1  C   UNL     1     -12.160  12.573  66.385  1.00  0.00    -0.207 C  
HETATM    2  C   UNL     1     -12.288  12.818  64.893  1.00  0.00    -0.551 C  
HETATM    3  C   UNL     1     -12.242  14.324  64.851  1.00  0.00    -0.440 C  
HETATM    4  O   UNL     1     -12.640  14.966  63.888  1.00  0.00    -0.831 OA 
HETATM    5  C   UNL     1     -11.681  14.937  66.132  1.00  0.00    -0.178 C  
HETATM    6  C   UNL     1     -11.329  11.105  68.086  1.00  0.00    -0.309 C  
HETATM    7  C   UNL     1     -11.227  13.673  66.857  1.00  0.00    -0.326 C  
HETATM    8  C   UNL     1     -11.250  13.681  68.374  1.00  0.00    -0.306 C  
HETATM    9  O   UNL     1     -11.547  11.332  66.680  1.00  0.00    -0.385 OA 
HETATM   10  C   UNL     1     -10.716  12.324  68.839  1.00  0.00    -0.210 C  
HETATM   11  O   UNL     1     -12.593  10.764  68.668  1.00  0.00    -0.669 OA 
HETATM   12  H   UNL     1     -12.967  10.021  68.209  1.00  0.00     0.000 HD 
ENDROOT
BRANCH   5  13
HETATM   13  C   UNL     1     -10.477  15.856  65.922  1.00  0.00    -0.373 C  
BRANCH  13  14
HETATM   14  C   UNL     1      -9.132  15.176  66.139  1.00  0.00    -0.276 C  
BRANCH  14  15
HETATM   15  C   UNL     1      -8.234  16.025  67.035  1.00  0.00    -0.255 C  
BRANCH  15  16
HETATM   16  C   UNL     1      -9.062  16.690  68.130  1.00  0.00    -0.213 C  
BRANCH  16  17
HETATM   17  C   UNL     1      -8.725  18.171  68.257  1.00  0.00    -0.294 C  
BRANCH  17  18
HETATM   18  C   UNL     1      -9.795  19.030  67.591  1.00  0.00    -0.395 C  
HETATM   19  O   UNL     1     -10.301  20.280  65.634  1.00  0.00    -0.364 OA 
HETATM   20  C   UNL     1      -9.356  19.519  66.233  1.00  0.00    -0.372 C  
HETATM   21  O   UNL     1      -8.282  19.279  65.705  1.00  0.00    -0.445 OA 
ENDBRANCH  17  18
ENDBRANCH  16  17
ENDBRANCH  15  16
ENDBRANCH  14  15
ENDBRANCH  13  14
ENDBRANCH   5  13
BRANCH   6  22
HETATM   22  C   UNL     1     -10.331   9.908  68.221  1.00  0.00    -0.201 C  
HETATM   23  F   UNL     1      -9.099  10.393  68.565  1.00  0.00    -0.125 F  
HETATM   24  F   UNL     1     -10.716   9.106  69.254  1.00  0.00    -0.220 F  
BRANCH  22  25
HETATM   25  C   UNL     1     -10.186   9.072  66.956  1.00  0.00    -0.336 C  
BRANCH  25  26
HETATM   26  C   UNL     1     -10.695   7.646  67.177  1.00  0.00    -0.361 C  
BRANCH  26  27
HETATM   27  C   UNL     1      -9.730   6.620  66.588  1.00  0.00    -0.210 C  
HETATM   28  C   UNL     1     -10.396   5.264  66.430  1.00  0.00    -0.315 C  
ENDBRANCH  26  27
ENDBRANCH  25  26
ENDBRANCH  22  25
ENDBRANCH   6  22
TORSDOF 10
ENDMDL
MODEL       27
REMARK 921   NORMALIZED FREE ENERGY PREDICTED BY IDOCK:   -5.70 KCAL/MOL
REMARK 922        TOTAL FREE ENERGY PREDICTED BY IDOCK:  -10.81 KCAL/MOL
REMARK 923 INTER-LIGAND FREE ENERGY PREDICTED BY IDOCK:   -9.09 KCAL/MOL
REMARK 924 INTRA-LIGAND FREE ENERGY PREDICTED BY IDOCK:   -1.72 KCAL/MOL
REMARK 927      BINDING AFFINITY PREDICTED BY RF-SCORE:    0.00 PKD
ROOT
HETATM    1  C   UNL     1     -11.623  14.163  68.455  1.00  0.00    -0.316 C  
HETATM    2  C   UNL     1     -12.405  15.137  69.315  1.00  0.00    -0.128 C  
HETATM    3  C   UNL     1     -11.292  15.761  70.117  1.00  0.00    -0.355 C  
HETATM    4  O   UNL     1     -11.495  16.363  71.164  1.00  0.00    -0.394 OA 
HETATM    5  C   UNL     1      -9.914  15.531  69.500  1.00  0.00    -0.280 C  
HETATM    6  C   UNL     1     -11.490  13.059  66.333  1.00  0.00    -0.341 C  
HETATM    7  C   UNL     1     -10.318  14.887  68.176  1.00  0.00    -0.237 C  
HETATM    8  C   UNL     1      -9.359  13.890  67.553  1.00  0.00    -0.217 C  
HETATM    9  O   UNL     1     -12.249  13.912  67.212  1.00  0.00    -0.394 OA 
HETATM   10  C   UNL     1      -9.981  13.433  66.232  1.00  0.00    -0.298 C  
HETATM   11  O   UNL     1     -11.623  11.716  66.817  1.00  0.00    -0.503 OA 
HETATM   12  H   UNL     1     -12.543  11.488  66.879  1.00  0.00     0.000 HD 
ENDROOT
BRANCH   5  13
HETATM   13  C   UNL     1      -9.123  16.809  69.217  1.00  0.00    -0.026 C  
BRANCH  13  14
HETATM   14  C   UNL     1      -9.580  17.558  67.972  1.00  0.00    -0.282 C  
BRANCH  14  15
HETATM   15  C   UNL     1     -10.033  18.972  68.326  1.00  0.00    -0.459 C  
BRANCH  15  16
HETATM   16  C   UNL     1      -9.812  19.906  67.140  1.00  0.00    -0.539 C  
BRANCH  16  17
HETATM   17  C   UNL     1      -8.353  19.903  66.699  1.00  0.00    -0.369 C  
BRANCH  17  18
HETATM   18  C   UNL     1      -7.526  20.857  67.557  1.00  0.00    -0.304 C  
HETATM   19  O   UNL     1      -5.737  20.962  69.119  1.00  0.00    -0.359 OA 
HETATM   20  C   UNL     1      -6.476  20.124  68.356  1.00  0.00    -0.301 C  
HETATM   21  O   UNL     1      -6.288  18.918  68.343  1.00  0.00    -0.219 OA 
ENDBRANCH  17  18
ENDBRANCH  16  17
ENDBRANCH  15  16
ENDBRANCH  14  15
ENDBRANCH  13  14
ENDBRANCH   5  13
BRANCH   6  22
HETATM   22  C   UNL     1     -12.111  13.183  64.904  1.00  0.00    -0.402 C  
HETATM   23  F   UNL     1     -13.127  12.275  64.780  1.00  0.00    -0.520 F  
HETATM   24  F   UNL     1     -12.691  14.408  64.762  1.00  0.00    -0.424 F  
BRANCH  22  25
HETATM   25  C   UNL     1     -11.119  12.956  63.770  1.00  0.00    -0.424 C  
BRANCH  25  26
HETATM   26  C   UNL     1     -11.200  11.521  63.246  1.00  0.00    -0.239 C  
BRANCH  26  27
HETATM   27  C   UNL     1      -9.843  10.827  63.328  1.00  0.00    -0.394 C  
HETATM   28  C   UNL     1      -9.609  10.237  64.708  1.00  0.00    -0.369 C  
ENDBRANCH  26  27
ENDBRANCH  25  26
ENDBRANCH  22  25
ENDBRANCH   6  22
TORSDOF 10
ENDMDL
MODEL       28
REMARK 921   NORMALIZED FREE ENERGY PREDICTED BY IDOCK:   -5.69 KCAL/MOL
REMARK 922        TOTAL FREE ENERGY PREDICTED BY IDOCK:  -10.79 KCAL/MOL
REMARK 923 INTER-LIGAND FREE ENERGY PREDICTED BY IDOCK:   -9.11 KCAL/MOL
REMARK 924 INTRA-LIGAND FREE ENERGY PREDICTED BY IDOCK:   -1.68 KCAL/MOL
REMARK 927      BINDING AFFINITY PREDICTED BY RF-SCORE:    0.00 PKD
ROOT
HETATM    1  C   UNL     1     -10.592  15.340  65.819  1.00  0.00    -0.347 C  
HETATM    2  C   UNL     1     -11.716  14.590  65.130  1.00  0.00    -0.376 C  
HETATM    3  C   UNL     1     -11.881  13.415  66.059  1.00  0.00    -0.383 C  
HETATM    4  O   UNL     1     -12.449  12.385  65.721  1.00  0.00    -0.615 OA 
HETATM    5  C   UNL     1     -11.243  13.646  67.428  1.00  0.00    -0.323 C  
HETATM    6  C   UNL     1      -9.642  17.489  66.290  1.00  0.00    -0.237 C  
HETATM    7  C   UNL     1     -10.856  15.116  67.297  1.00  0.00    -0.316 C  
HETATM    8  C   UNL     1      -9.637  15.597  68.063  1.00  0.00    -0.203 C  
HETATM    9  O   UNL     1     -10.643  16.733  65.579  1.00  0.00    -0.496 OA 
HETATM   10  C   UNL     1      -9.497  17.096  67.791  1.00  0.00    -0.253 C  
HETATM   11  O   UNL     1      -8.393  17.288  65.616  1.00  0.00    -0.475 OA 
HETATM   12  H   UNL     1      -8.481  17.527  64.700  1.00  0.00     0.000 HD 
ENDROOT
BRANCH   5  13
HETATM   13  C   UNL     1     -12.200  13.482  68.610  1.00  0.00    -0.172 C  
BRANCH  13  14
HETATM   14  C   UNL     1     -11.682  12.558  69.704  1.00  0.00    -0.372 C  
BRANCH  14  15
HETATM   15  C   UNL     1     -11.849  11.095  69.301  1.00  0.00    -0.422 C  
BRANCH  15  16
HETATM   16  C   UNL     1     -10.683  10.268  69.834  1.00  0.00    -0.344 C  
BRANCH  16  17
HETATM   17  C   UNL     1      -9.580  10.131  68.790  1.00  0.00    -0.170 C  
BRANCH  17  18
HETATM   18  C   UNL     1     -10.174   9.982  67.392  1.00  0.00    -0.269 C  
HETATM   19  O   UNL     1      -9.843  10.537  65.104  1.00  0.00    -0.251 OA 
HETATM   20  C   UNL     1      -9.325  10.665  66.348  1.00  0.00    -0.169 C  
HETATM   21  O   UNL     1      -8.288  11.274  66.563  1.00  0.00    -0.162 OA 
ENDBRANCH  17  18
ENDBRANCH  16  17
ENDBRANCH  15  16
ENDBRANCH  14  15
ENDBRANCH  13  14
ENDBRANCH   5  13
BRANCH   6  22
HETATM   22  C   UNL     1     -10.055  18.995  66.226  1.00  0.00    -0.422 C  
HETATM   23  F   UNL     1     -10.982  19.160  65.234  1.00  0.00    -0.510 F  
HETATM   24  F   UNL     1     -10.685  19.346  67.383  1.00  0.00    -0.478 F  
BRANCH  22  25
HETATM   25  C   UNL     1      -8.896  19.950  65.969  1.00  0.00    -0.287 C  
BRANCH  25  26
HETATM   26  C   UNL     1      -8.307  20.467  67.283  1.00  0.00    -0.398 C  
BRANCH  26  27
HETATM   27  C   UNL     1      -6.838  20.846  67.116  1.00  0.00    -0.417 C  
HETATM   28  C   UNL     1      -6.269  20.291  65.823  1.00  0.00    -0.242 C  
ENDBRANCH  26  27
ENDBRANCH  25  26
ENDBRANCH  22  25
ENDBRANCH   6  22
TORSDOF 10
ENDMDL
MODEL       29
REMARK 921   NORMALIZED FREE ENERGY PREDICTED BY IDOCK:   -5.69 KCAL/MOL
REMARK 922        TOTAL FREE ENERGY PREDICTED BY IDOCK:  -10.78 KCAL/MOL
REMARK 923 INTER-LIGAND FREE ENERGY PREDICTED BY IDOCK:   -8.61 KCAL/MOL
REMARK 924 INTRA-LIGAND FREE ENERGY PREDICTED BY IDOCK:   -2.18 KCAL/MOL
REMARK 927      BINDING AFFINITY PREDICTED BY RF-SCORE:    0.00 PKD
ROOT
HETATM    1  C   UNL     1     -10.437  15.648  65.008  1.00  0.00    -0.333 C  
HETATM    2  C   UNL     1     -11.801  15.617  64.345  1.00  0.00    -0.183 C  
HETATM    3  C   UNL     1     -11.936  14.145  64.047  1.00  0.00    -0.327 C  
HETATM    4  O   UNL     1     -12.732  13.713  63.224  1.00  0.00    -0.765 OA 
HETATM    5  C   UNL     1     -10.964  13.285  64.852  1.00  0.00    -0.345 C  
HETATM    6  C   UNL     1      -9.057  16.713  66.651  1.00  0.00    -0.250 C  
HETATM    7  C   UNL     1     -10.378  14.343  65.783  1.00  0.00    -0.340 C  
HETATM    8  C   UNL     1      -8.950  14.152  66.259  1.00  0.00     0.026 C  
HETATM    9  O   UNL     1     -10.309  16.706  65.938  1.00  0.00    -0.342 OA 
HETATM   10  C   UNL     1      -8.630  15.318  67.198  1.00  0.00    -0.236 C  
HETATM   11  O   UNL     1      -8.054  17.208  65.755  1.00  0.00    -0.497 OA 
HETATM   12  H   UNL     1      -8.315  18.059  65.422  1.00  0.00     0.000 HD 
ENDROOT
BRANCH   5  13
HETATM   13  C   UNL     1     -11.628  12.191  65.689  1.00  0.00    -0.409 C  
BRANCH  13  14
HETATM   14  C   UNL     1     -10.759  10.959  65.901  1.00  0.00    -0.193 C  
BRANCH  14  15
HETATM   15  C   UNL     1     -10.676  10.603  67.384  1.00  0.00    -0.326 C  
BRANCH  15  16
HETATM   16  C   UNL     1     -11.510  11.582  68.205  1.00  0.00    -0.368 C  
BRANCH  16  17
HETATM   17  C   UNL     1     -11.377  11.304  69.699  1.00  0.00    -0.359 C  
BRANCH  17  18
HETATM   18  C   UNL     1     -12.209  12.292  70.510  1.00  0.00    -0.387 C  
HETATM   19  O   UNL     1     -13.679  12.482  72.369  1.00  0.00    -0.472 OA 
HETATM   20  C   UNL     1     -12.939  11.612  71.643  1.00  0.00    -0.378 C  
HETATM   21  O   UNL     1     -12.893  10.420  71.902  1.00  0.00    -0.433 OA 
ENDBRANCH  17  18
ENDBRANCH  16  17
ENDBRANCH  15  16
ENDBRANCH  14  15
ENDBRANCH  13  14
ENDBRANCH   5  13
BRANCH   6  22
HETATM   22  C   UNL     1      -9.216  17.678  67.871  1.00  0.00    -0.267 C  
HETATM   23  F   UNL     1      -8.255  17.382  68.800  1.00  0.00    -0.253 F  
HETATM   24  F   UNL     1      -8.968  18.959  67.477  1.00  0.00    -0.284 F  
BRANCH  22  25
HETATM   25  C   UNL     1     -10.579  17.610  68.548  1.00  0.00    -0.281 C  
BRANCH  25  26
HETATM   26  C   UNL     1     -10.484  16.925  69.912  1.00  0.00     0.018 C  
BRANCH  26  27
HETATM   27  C   UNL     1     -11.529  15.822  70.049  1.00  0.00    -0.359 C  
HETATM   28  C   UNL     1     -11.986  15.323  68.690  1.00  0.00    -0.263 C  
ENDBRANCH  26  27
ENDBRANCH  25  26
ENDBRANCH  22  25
ENDBRANCH   6  22
TORSDOF 10
ENDMDL
MODEL       30
REMARK 921   NORMALIZED FREE ENERGY PREDICTED BY IDOCK:   -5.68 KCAL/MOL
REMARK 922        TOTAL FREE ENERGY PREDICTED BY IDOCK:  -10.77 KCAL/MOL
REMARK 923 INTER-LIGAND FREE ENERGY PREDICTED BY IDOCK:   -9.01 KCAL/MOL
REMARK 924 INTRA-LIGAND FREE ENERGY PREDICTED BY IDOCK:   -1.76 KCAL/MOL
REMARK 927      BINDING AFFINITY PREDICTED BY RF-SCORE:    0.00 PKD
ROOT
HETATM    1  C   UNL     1     -11.346   9.922  68.560  1.00  0.00     0.013 C  
HETATM    2  C   UNL     1     -10.608  10.085  67.246  1.00  0.00    -0.319 C  
HETATM    3  C   UNL     1     -11.037  11.475  66.852  1.00  0.00    -0.307 C  
HETATM    4  O   UNL     1     -10.946  11.890  65.704  1.00  0.00    -0.288 OA 
HETATM    5  C   UNL     1     -11.616  12.271  68.020  1.00  0.00    -0.408 C  
HETATM    6  C   UNL     1     -11.309   8.937  70.744  1.00  0.00    -0.278 C  
HETATM    7  C   UNL     1     -11.319  11.312  69.170  1.00  0.00    -0.349 C  
HETATM    8  C   UNL     1     -12.266  11.316  70.356  1.00  0.00    -0.453 C  
HETATM    9  O   UNL     1     -10.681   9.048  69.452  1.00  0.00    -0.229 OA 
HETATM   10  C   UNL     1     -11.723  10.304  71.368  1.00  0.00    -0.312 C  
HETATM   11  O   UNL     1     -12.466   8.106  70.590  1.00  0.00    -0.490 OA 
HETATM   12  H   UNL     1     -12.214   7.273  70.210  1.00  0.00     0.000 HD 
ENDROOT
BRANCH   5  13
HETATM   13  C   UNL     1     -10.917  13.605  68.287  1.00  0.00    -0.275 C  
BRANCH  13  14
HETATM   14  C   UNL     1     -11.735  14.825  67.884  1.00  0.00    -0.367 C  
BRANCH  14  15
HETATM   15  C   UNL     1     -11.434  16.006  68.804  1.00  0.00    -0.375 C  
BRANCH  15  16
HETATM   16  C   UNL     1     -11.233  15.519  70.235  1.00  0.00    -0.342 C  
BRANCH  16  17
HETATM   17  C   UNL     1     -12.482  15.749  71.079  1.00  0.00    -0.473 C  
BRANCH  17  18
HETATM   18  C   UNL     1     -13.323  14.478  71.158  1.00  0.00    -0.415 C  
HETATM   19  O   UNL     1     -14.200  12.855  72.658  1.00  0.00    -0.523 OA 
HETATM   20  C   UNL     1     -13.454  13.981  72.578  1.00  0.00    -0.558 C  
HETATM   21  O   UNL     1     -12.957  14.506  73.562  1.00  0.00    -0.551 OA 
ENDBRANCH  17  18
ENDBRANCH  16  17
ENDBRANCH  15  16
ENDBRANCH  14  15
ENDBRANCH  13  14
ENDBRANCH   5  13
BRANCH   6  22
HETATM   22  C   UNL     1     -10.283   8.262  71.711  1.00  0.00    -0.230 C  
HETATM   23  F   UNL     1      -9.402   9.209  72.158  1.00  0.00    -0.314 F  
HETATM   24  F   UNL     1     -10.930   7.805  72.820  1.00  0.00    -0.311 F  
BRANCH  22  25
HETATM   25  C   UNL     1      -9.489   7.123  71.082  1.00  0.00    -0.157 C  
BRANCH  25  26
HETATM   26  C   UNL     1      -9.862   5.779  71.711  1.00  0.00    -0.200 C  
BRANCH  26  27
HETATM   27  C   UNL     1     -10.385   4.805  70.659  1.00  0.00    -0.184 C  
HETATM   28  C   UNL     1     -10.176   5.345  69.255  1.00  0.00    -0.315 C  
ENDBRANCH  26  27
ENDBRANCH  25  26
ENDBRANCH  22  25
ENDBRANCH   6  22
TORSDOF 10
ENDMDL
MODEL       31
REMARK 921   NORMALIZED FREE ENERGY PREDICTED BY IDOCK:   -5.66 KCAL/MOL
REMARK 922        TOTAL FREE ENERGY PREDICTED BY IDOCK:  -10.75 KCAL/MOL
REMARK 923 INTER-LIGAND FREE ENERGY PREDICTED BY IDOCK:   -8.44 KCAL/MOL
REMARK 924 INTRA-LIGAND FREE ENERGY PREDICTED BY IDOCK:   -2.31 KCAL/MOL
REMARK 927      BINDING AFFINITY PREDICTED BY RF-SCORE:    0.00 PKD
ROOT
HETATM    1  C   UNL     1     -11.096   7.558  73.153  1.00  0.00    -0.326 C  
HETATM    2  C   UNL     1      -9.626   7.498  73.524  1.00  0.00    -0.339 C  
HETATM    3  C   UNL     1      -9.333   6.040  73.278  1.00  0.00    -0.135 C  
HETATM    4  O   UNL     1      -8.358   5.476  73.758  1.00  0.00    -0.111 OA 
HETATM    5  C   UNL     1     -10.388   5.360  72.408  1.00  0.00    -0.257 C  
HETATM    6  C   UNL     1     -12.852   8.899  72.228  1.00  0.00    -0.411 C  
HETATM    7  C   UNL     1     -11.223   6.573  72.004  1.00  0.00    -0.312 C  
HETATM    8  C   UNL     1     -12.701   6.357  71.741  1.00  0.00    -0.052 C  
HETATM    9  O   UNL     1     -11.482   8.831  72.672  1.00  0.00    -0.227 OA 
HETATM   10  C   UNL     1     -13.286   7.708  71.322  1.00  0.00    -0.276 C  
HETATM   11  O   UNL     1     -13.681   8.945  73.395  1.00  0.00    -1.094 OA 
HETATM   12  H   UNL     1     -13.417   9.672  73.948  1.00  0.00     0.000 HD 
ENDROOT
BRANCH   5  13
HETATM   13  C   UNL     1      -9.836   4.689  71.149  1.00  0.00    -0.261 C  
BRANCH  13  14
HETATM   14  C   UNL     1      -9.504   5.659  70.024  1.00  0.00    -0.199 C  
BRANCH  14  15
HETATM   15  C   UNL     1     -10.075   5.166  68.696  1.00  0.00    -0.220 C  
BRANCH  15  16
HETATM   16  C   UNL     1     -10.994   6.224  68.095  1.00  0.00    -0.412 C  
BRANCH  16  17
HETATM   17  C   UNL     1     -10.392   7.619  68.227  1.00  0.00    -0.238 C  
BRANCH  17  18
HETATM   18  C   UNL     1     -10.656   8.444  66.971  1.00  0.00    -0.316 C  
HETATM   19  O   UNL     1      -9.606   9.484  65.109  1.00  0.00    -0.280 OA 
HETATM   20  C   UNL     1      -9.381   8.754  66.226  1.00  0.00    -0.222 C  
HETATM   21  O   UNL     1      -8.260   8.406  66.563  1.00  0.00    -0.102 OA 
ENDBRANCH  17  18
ENDBRANCH  16  17
ENDBRANCH  15  16
ENDBRANCH  14  15
ENDBRANCH  13  14
ENDBRANCH   5  13
BRANCH   6  22
HETATM   22  C   UNL     1     -13.012  10.215  71.398  1.00  0.00    -0.429 C  
HETATM   23  F   UNL     1     -14.014  10.045  70.483  1.00  0.00    -0.227 F  
HETATM   24  F   UNL     1     -13.425  11.224  72.216  1.00  0.00    -0.566 F  
BRANCH  22  25
HETATM   25  C   UNL     1     -11.751  10.645  70.660  1.00  0.00    -0.454 C  
BRANCH  25  26
HETATM   26  C   UNL     1     -12.034  10.874  69.174  1.00  0.00    -0.359 C  
BRANCH  26  27
HETATM   27  C   UNL     1     -11.742  12.318  68.774  1.00  0.00    -0.390 C  
HETATM   28  C   UNL     1     -10.434  12.425  68.009  1.00  0.00    -0.227 C  
ENDBRANCH  26  27
ENDBRANCH  25  26
ENDBRANCH  22  25
ENDBRANCH   6  22
TORSDOF 10
ENDMDL
MODEL       32
REMARK 921   NORMALIZED FREE ENERGY PREDICTED BY IDOCK:   -5.63 KCAL/MOL
REMARK 922        TOTAL FREE ENERGY PREDICTED BY IDOCK:  -10.70 KCAL/MOL
REMARK 923 INTER-LIGAND FREE ENERGY PREDICTED BY IDOCK:   -8.75 KCAL/MOL
REMARK 924 INTRA-LIGAND FREE ENERGY PREDICTED BY IDOCK:   -1.95 KCAL/MOL
REMARK 927      BINDING AFFINITY PREDICTED BY RF-SCORE:    0.00 PKD
ROOT
HETATM    1  C   UNL     1      -9.208   9.207  65.925  1.00  0.00    -0.227 C  
HETATM    2  C   UNL     1      -8.786   7.943  65.202  1.00  0.00     0.015 C  
HETATM    3  C   UNL     1      -8.895   6.932  66.314  1.00  0.00    -0.148 C  
HETATM    4  O   UNL     1      -8.336   5.844  66.269  1.00  0.00    -0.111 OA 
HETATM    5  C   UNL     1      -9.737   7.429  67.488  1.00  0.00    -0.186 C  
HETATM    6  C   UNL     1     -10.302  11.329  65.729  1.00  0.00    -0.258 C  
HETATM    7  C   UNL     1     -10.271   8.733  66.900  1.00  0.00    -0.357 C  
HETATM    8  C   UNL     1     -10.562   9.872  67.858  1.00  0.00    -0.303 C  
HETATM    9  O   UNL     1      -9.809  10.152  65.060  1.00  0.00    -0.296 OA 
HETATM   10  C   UNL     1     -11.115  11.031  67.024  1.00  0.00    -0.311 C  
HETATM   11  O   UNL     1      -9.171  12.149  66.048  1.00  0.00    -0.345 OA 
HETATM   12  H   UNL     1      -8.675  12.331  65.258  1.00  0.00     0.000 HD 
ENDROOT
BRANCH   5  13
HETATM   13  C   UNL     1     -10.914   6.523  67.852  1.00  0.00    -0.382 C  
BRANCH  13  14
HETATM   14  C   UNL     1     -10.787   5.859  69.216  1.00  0.00    -0.414 C  
BRANCH  14  15
HETATM   15  C   UNL     1     -11.541   6.656  70.279  1.00  0.00    -0.454 C  
BRANCH  15  16
HETATM   16  C   UNL     1     -10.570   7.163  71.340  1.00  0.00    -0.234 C  
BRANCH  16  17
HETATM   17  C   UNL     1     -11.191   8.281  72.170  1.00  0.00    -0.413 C  
BRANCH  17  18
HETATM   18  C   UNL     1     -11.186   9.596  71.397  1.00  0.00    -0.426 C  
HETATM   19  O   UNL     1     -12.528  11.460  70.781  1.00  0.00    -0.360 OA 
HETATM   20  C   UNL     1     -12.524  10.291  71.464  1.00  0.00    -0.422 C  
HETATM   21  O   UNL     1     -13.510   9.876  72.051  1.00  0.00    -0.413 OA 
ENDBRANCH  17  18
ENDBRANCH  16  17
ENDBRANCH  15  16
ENDBRANCH  14  15
ENDBRANCH  13  14
ENDBRANCH   5  13
BRANCH   6  22
HETATM   22  C   UNL     1     -11.247  12.076  64.732  1.00  0.00    -0.318 C  
HETATM   23  F   UNL     1     -11.418  11.303  63.617  1.00  0.00    -0.471 F  
HETATM   24  F   UNL     1     -12.487  12.205  65.286  1.00  0.00    -0.441 F  
BRANCH  22  25
HETATM   25  C   UNL     1     -10.740  13.446  64.298  1.00  0.00    -0.374 C  
BRANCH  25  26
HETATM   26  C   UNL     1     -11.647  14.561  64.824  1.00  0.00    -0.414 C  
BRANCH  26  27
HETATM   27  C   UNL     1     -11.015  15.264  66.023  1.00  0.00    -0.317 C  
HETATM   28  C   UNL     1     -11.575  14.734  67.331  1.00  0.00    -0.377 C  
ENDBRANCH  26  27
ENDBRANCH  25  26
ENDBRANCH  22  25
ENDBRANCH   6  22
TORSDOF 10
ENDMDL
MODEL       33
REMARK 921   NORMALIZED FREE ENERGY PREDICTED BY IDOCK:   -5.62 KCAL/MOL
REMARK 922        TOTAL FREE ENERGY PREDICTED BY IDOCK:  -10.68 KCAL/MOL
REMARK 923 INTER-LIGAND FREE ENERGY PREDICTED BY IDOCK:   -8.56 KCAL/MOL
REMARK 924 INTRA-LIGAND FREE ENERGY PREDICTED BY IDOCK:   -2.13 KCAL/MOL
REMARK 927      BINDING AFFINITY PREDICTED BY RF-SCORE:    0.00 PKD
ROOT
HETATM    1  C   UNL     1     -10.471  16.556  68.671  1.00  0.00    -0.304 C  
HETATM    2  C   UNL     1     -10.601  17.898  67.976  1.00  0.00    -0.366 C  
HETATM    3  C   UNL     1      -9.830  17.635  66.708  1.00  0.00    -0.304 C  
HETATM    4  O   UNL     1      -9.397  18.537  66.003  1.00  0.00    -0.496 OA 
HETATM    5  C   UNL     1      -9.631  16.145  66.432  1.00  0.00    -0.312 C  
HETATM    6  C   UNL     1     -11.519  14.973  70.133  1.00  0.00    -0.277 C  
HETATM    7  C   UNL     1     -10.506  15.551  67.533  1.00  0.00    -0.282 C  
HETATM    8  C   UNL     1     -10.110  14.200  68.098  1.00  0.00    -0.239 C  
HETATM    9  O   UNL     1     -11.566  16.279  69.523  1.00  0.00    -0.284 OA 
HETATM   10  C   UNL     1     -11.163  13.823  69.144  1.00  0.00    -0.307 C  
HETATM   11  O   UNL     1     -10.547  15.024  71.184  1.00  0.00    -0.506 OA 
HETATM   12  H   UNL     1     -10.764  15.726  71.787  1.00  0.00     0.000 HD 
ENDROOT
BRANCH   5  13
HETATM   13  C   UNL     1     -10.149  15.677  65.071  1.00  0.00    -0.102 C  
BRANCH  13  14
HETATM   14  C   UNL     1     -11.662  15.764  64.920  1.00  0.00     0.003 C  
BRANCH  14  15
HETATM   15  C   UNL     1     -12.227  14.458  64.368  1.00  0.00    -0.481 C  
BRANCH  15  16
HETATM   16  C   UNL     1     -12.703  13.567  65.512  1.00  0.00    -0.493 C  
BRANCH  16  17
HETATM   17  C   UNL     1     -11.887  12.281  65.587  1.00  0.00    -0.423 C  
BRANCH  17  18
HETATM   18  C   UNL     1     -11.300  11.932  64.222  1.00  0.00    -0.425 C  
HETATM   19  O   UNL     1      -9.814  10.454  63.100  1.00  0.00    -0.299 OA 
HETATM   20  C   UNL     1     -10.339  10.772  64.307  1.00  0.00    -0.331 C  
HETATM   21  O   UNL     1     -10.042  10.169  65.326  1.00  0.00    -0.319 OA 
ENDBRANCH  17  18
ENDBRANCH  16  17
ENDBRANCH  15  16
ENDBRANCH  14  15
ENDBRANCH  13  14
ENDBRANCH   5  13
BRANCH   6  22
HETATM   22  C   UNL     1     -12.937  14.677  70.721  1.00  0.00    -0.347 C  
HETATM   23  F   UNL     1     -13.657  15.840  70.753  1.00  0.00    -0.513 F  
HETATM   24  F   UNL     1     -13.616  13.845  69.881  1.00  0.00     0.440 F  
BRANCH  22  25
HETATM   25  C   UNL     1     -12.919  14.080  72.122  1.00  0.00    -0.458 C  
BRANCH  25  26
HETATM   26  C   UNL     1     -13.656  12.740  72.159  1.00  0.00    -0.547 C  
BRANCH  26  27
HETATM   27  C   UNL     1     -12.690  11.576  71.954  1.00  0.00    -0.250 C  
HETATM   28  C   UNL     1     -13.367  10.417  71.243  1.00  0.00    -0.334 C  
ENDBRANCH  26  27
ENDBRANCH  25  26
ENDBRANCH  22  25
ENDBRANCH   6  22
TORSDOF 10
ENDMDL
MODEL       34
REMARK 921   NORMALIZED FREE ENERGY PREDICTED BY IDOCK:   -5.60 KCAL/MOL
REMARK 922        TOTAL FREE ENERGY PREDICTED BY IDOCK:  -10.65 KCAL/MOL
REMARK 923 INTER-LIGAND FREE ENERGY PREDICTED BY IDOCK:   -8.94 KCAL/MOL
REMARK 924 INTRA-LIGAND FREE ENERGY PREDICTED BY IDOCK:   -1.71 KCAL/MOL
REMARK 927      BINDING AFFINITY PREDICTED BY RF-SCORE:    0.00 PKD
ROOT
HETATM    1  C   UNL     1      -9.638  10.884  68.415  1.00  0.00    -0.177 C  
HETATM    2  C   UNL     1      -8.969   9.626  68.935  1.00  0.00    -0.144 C  
HETATM    3  C   UNL     1      -9.635   9.487  70.280  1.00  0.00    -0.265 C  
HETATM    4  O   UNL     1      -9.165   8.800  71.177  1.00  0.00    -0.192 OA 
HETATM    5  C   UNL     1     -10.917  10.310  70.396  1.00  0.00    -0.365 C  
HETATM    6  C   UNL     1     -10.425  12.054  66.478  1.00  0.00    -0.221 C  
HETATM    7  C   UNL     1     -11.055  10.794  68.954  1.00  0.00    -0.307 C  
HETATM    8  C   UNL     1     -11.725  12.134  68.720  1.00  0.00    -0.374 C  
HETATM    9  O   UNL     1      -9.716  10.914  67.003  1.00  0.00    -0.172 OA 
HETATM   10  C   UNL     1     -11.768  12.357  67.206  1.00  0.00    -0.419 C  
HETATM   11  O   UNL     1      -9.553  13.187  66.583  1.00  0.00    -0.248 OA 
HETATM   12  H   UNL     1      -8.733  13.003  66.139  1.00  0.00     0.000 HD 
ENDROOT
BRANCH   5  13
HETATM   13  C   UNL     1     -12.158   9.501  70.775  1.00  0.00    -0.305 C  
BRANCH  13  14
HETATM   14  C   UNL     1     -13.284  10.336  71.370  1.00  0.00    -0.464 C  
BRANCH  14  15
HETATM   15  C   UNL     1     -12.736  11.615  71.999  1.00  0.00    -0.095 C  
BRANCH  15  16
HETATM   16  C   UNL     1     -13.881  12.561  72.345  1.00  0.00    -0.171 C  
BRANCH  16  17
HETATM   17  C   UNL     1     -13.370  13.972  72.617  1.00  0.00    -0.643 C  
BRANCH  17  18
HETATM   18  C   UNL     1     -12.582  14.502  71.423  1.00  0.00    -0.411 C  
HETATM   19  O   UNL     1     -11.307  16.350  70.641  1.00  0.00    -0.368 OA 
HETATM   20  C   UNL     1     -12.009  15.872  71.694  1.00  0.00    -0.480 C  
HETATM   21  O   UNL     1     -12.146  16.506  72.729  1.00  0.00    -0.508 OA 
ENDBRANCH  17  18
ENDBRANCH  16  17
ENDBRANCH  15  16
ENDBRANCH  14  15
ENDBRANCH  13  14
ENDBRANCH   5  13
BRANCH   6  22
HETATM   22  C   UNL     1     -10.749  11.757  64.978  1.00  0.00    -0.292 C  
HETATM   23  F   UNL     1      -9.822  12.383  64.190  1.00  0.00    -0.285 F  
HETATM   24  F   UNL     1     -10.602  10.424  64.734  1.00  0.00    -0.397 F  
BRANCH  22  25
HETATM   25  C   UNL     1     -12.137  12.204  64.539  1.00  0.00    -0.416 C  
BRANCH  25  26
HETATM   26  C   UNL     1     -12.058  13.418  63.611  1.00  0.00    -0.513 C  
BRANCH  26  27
HETATM   27  C   UNL     1     -12.357  14.710  64.366  1.00  0.00    -0.420 C  
HETATM   28  C   UNL     1     -11.101  15.542  64.554  1.00  0.00    -0.290 C  
ENDBRANCH  26  27
ENDBRANCH  25  26
ENDBRANCH  22  25
ENDBRANCH   6  22
TORSDOF 10
ENDMDL
MODEL       35
REMARK 921   NORMALIZED FREE ENERGY PREDICTED BY IDOCK:   -5.59 KCAL/MOL
REMARK 922        TOTAL FREE ENERGY PREDICTED BY IDOCK:  -10.63 KCAL/MOL
REMARK 923 INTER-LIGAND FREE ENERGY PREDICTED BY IDOCK:   -9.36 KCAL/MOL
REMARK 924 INTRA-LIGAND FREE ENERGY PREDICTED BY IDOCK:   -1.27 KCAL/MOL
REMARK 927      BINDING AFFINITY PREDICTED BY RF-SCORE:    0.00 PKD
ROOT
HETATM    1  C   UNL     1     -11.099   9.381  68.483  1.00  0.00     0.068 C  
HETATM    2  C   UNL     1     -10.244   9.498  67.235  1.00  0.00    -0.295 C  
HETATM    3  C   UNL     1     -10.656  10.861  66.739  1.00  0.00    -0.259 C  
HETATM    4  O   UNL     1     -10.465  11.225  65.586  1.00  0.00    -0.253 OA 
HETATM    5  C   UNL     1     -11.351  11.698  67.811  1.00  0.00    -0.356 C  
HETATM    6  C   UNL     1     -11.250   8.498  70.705  1.00  0.00    -0.257 C  
HETATM    7  C   UNL     1     -11.148  10.798  69.027  1.00  0.00    -0.308 C  
HETATM    8  C   UNL     1     -12.200  10.838  70.119  1.00  0.00    -0.425 C  
HETATM    9  O   UNL     1     -10.506   8.562  69.472  1.00  0.00    -0.217 OA 
HETATM   10  C   UNL     1     -11.739   9.884  71.223  1.00  0.00    -0.472 C  
HETATM   11  O   UNL     1     -12.376   7.640  70.485  1.00  0.00    -0.511 OA 
HETATM   12  H   UNL     1     -12.077   6.795  70.169  1.00  0.00     0.000 HD 
ENDROOT
BRANCH   5  13
HETATM   13  C   UNL     1     -10.699  13.056  68.077  1.00  0.00    -0.248 C  
BRANCH  13  14
HETATM   14  C   UNL     1     -11.482  14.239  67.523  1.00  0.00    -0.368 C  
BRANCH  14  15
HETATM   15  C   UNL     1     -11.698  15.298  68.602  1.00  0.00    -0.367 C  
BRANCH  15  16
HETATM   16  C   UNL     1     -12.008  14.630  69.938  1.00  0.00    -0.381 C  
BRANCH  16  17
HETATM   17  C   UNL     1     -12.949  15.487  70.779  1.00  0.00    -0.490 C  
BRANCH  17  18
HETATM   18  C   UNL     1     -12.358  15.742  72.162  1.00  0.00    -0.539 C  
HETATM   19  O   UNL     1     -12.320  14.948  74.402  1.00  0.00    -0.560 OA 
HETATM   20  C   UNL     1     -12.841  14.730  73.172  1.00  0.00    -0.508 C  
HETATM   21  O   UNL     1     -13.612  13.812  72.944  1.00  0.00    -0.681 OA 
ENDBRANCH  17  18
ENDBRANCH  16  17
ENDBRANCH  15  16
ENDBRANCH  14  15
ENDBRANCH  13  14
ENDBRANCH   5  13
BRANCH   6  22
HETATM   22  C   UNL     1     -10.307   7.886  71.792  1.00  0.00    -0.209 C  
HETATM   23  F   UNL     1      -9.376   7.094  71.178  1.00  0.00    -0.155 F  
HETATM   24  F   UNL     1      -9.602   8.883  72.399  1.00  0.00    -0.355 F  
BRANCH  22  25
HETATM   25  C   UNL     1     -11.027   7.058  72.848  1.00  0.00    -0.337 C  
BRANCH  25  26
HETATM   26  C   UNL     1     -10.256   5.774  73.162  1.00  0.00    -0.212 C  
BRANCH  26  27
HETATM   27  C   UNL     1     -11.208   4.611  73.428  1.00  0.00    -0.423 C  
HETATM   28  C   UNL     1     -10.604   3.291  72.980  1.00  0.00    -0.241 C  
ENDBRANCH  26  27
ENDBRANCH  25  26
ENDBRANCH  22  25
ENDBRANCH   6  22
TORSDOF 10
ENDMDL
MODEL       36
REMARK 921   NORMALIZED FREE ENERGY PREDICTED BY IDOCK:   -5.57 KCAL/MOL
REMARK 922        TOTAL FREE ENERGY PREDICTED BY IDOCK:  -10.60 KCAL/MOL
REMARK 923 INTER-LIGAND FREE ENERGY PREDICTED BY IDOCK:   -7.96 KCAL/MOL
REMARK 924 INTRA-LIGAND FREE ENERGY PREDICTED BY IDOCK:   -2.64 KCAL/MOL
REMARK 927      BINDING AFFINITY PREDICTED BY RF-SCORE:    0.00 PKD
ROOT
HETATM    1  C   UNL     1     -11.016  13.493  68.646  1.00  0.00    -0.263 C  
HETATM    2  C   UNL     1     -12.185  14.186  69.321  1.00  0.00    -0.308 C  
HETATM    3  C   UNL     1     -11.475  15.315  70.024  1.00  0.00    -0.292 C  
HETATM    4  O   UNL     1     -11.980  15.931  70.953  1.00  0.00    -0.376 OA 
HETATM    5  C   UNL     1     -10.073  15.569  69.473  1.00  0.00    -0.278 C  
HETATM    6  C   UNL     1     -10.292  12.237  66.739  1.00  0.00    -0.217 C  
HETATM    7  C   UNL     1     -10.085  14.631  68.269  1.00  0.00    -0.228 C  
HETATM    8  C   UNL     1      -8.764  14.023  67.834  1.00  0.00    -0.184 C  
HETATM    9  O   UNL     1     -11.393  12.833  67.453  1.00  0.00    -0.277 OA 
HETATM   10  C   UNL     1      -9.049  13.166  66.598  1.00  0.00    -0.180 C  
HETATM   11  O   UNL     1      -9.923  11.041  67.437  1.00  0.00    -0.178 OA 
HETATM   12  H   UNL     1     -10.681  10.474  67.523  1.00  0.00     0.000 HD 
ENDROOT
BRANCH   5  13
HETATM   13  C   UNL     1      -9.830  17.001  68.992  1.00  0.00    -0.240 C  
BRANCH  13  14
HETATM   14  C   UNL     1     -10.715  17.422  67.827  1.00  0.00    -0.332 C  
BRANCH  14  15
HETATM   15  C   UNL     1     -10.611  18.926  67.584  1.00  0.00    -0.501 C  
BRANCH  15  16
HETATM   16  C   UNL     1      -9.927  19.195  66.247  1.00  0.00    -0.462 C  
BRANCH  16  17
HETATM   17  C   UNL     1      -8.426  19.390  66.424  1.00  0.00    -0.361 C  
BRANCH  17  18
HETATM   18  C   UNL     1      -7.660  18.161  65.944  1.00  0.00    -0.166 C  
HETATM   19  O   UNL     1      -6.072  16.518  66.601  1.00  0.00    -0.307 OA 
HETATM   20  C   UNL     1      -6.754  17.610  67.018  1.00  0.00    -0.171 C  
HETATM   21  O   UNL     1      -6.624  18.071  68.141  1.00  0.00    -0.192 OA 
ENDBRANCH  17  18
ENDBRANCH  16  17
ENDBRANCH  15  16
ENDBRANCH  14  15
ENDBRANCH  13  14
ENDBRANCH   5  13
BRANCH   6  22
HETATM   22  C   UNL     1     -10.796  11.890  65.301  1.00  0.00    -0.297 C  
HETATM   23  F   UNL     1      -9.916  12.400  64.386  1.00  0.00    -0.290 F  
HETATM   24  F   UNL     1     -10.774  10.538  65.122  1.00  0.00    -0.324 F  
BRANCH  22  25
HETATM   25  C   UNL     1     -12.188  12.421  64.982  1.00  0.00    -0.465 C  
BRANCH  25  26
HETATM   26  C   UNL     1     -12.111  13.704  64.151  1.00  0.00    -0.484 C  
BRANCH  26  27
HETATM   27  C   UNL     1     -12.106  14.940  65.046  1.00  0.00    -0.216 C  
HETATM   28  C   UNL     1     -11.039  15.930  64.614  1.00  0.00    -0.368 C  
ENDBRANCH  26  27
ENDBRANCH  25  26
ENDBRANCH  22  25
ENDBRANCH   6  22
TORSDOF 10
ENDMDL
MODEL       37
REMARK 921   NORMALIZED FREE ENERGY PREDICTED BY IDOCK:   -5.56 KCAL/MOL
REMARK 922        TOTAL FREE ENERGY PREDICTED BY IDOCK:  -10.58 KCAL/MOL
REMARK 923 INTER-LIGAND FREE ENERGY PREDICTED BY IDOCK:   -8.88 KCAL/MOL
REMARK 924 INTRA-LIGAND FREE ENERGY PREDICTED BY IDOCK:   -1.70 KCAL/MOL
REMARK 927      BINDING AFFINITY PREDICTED BY RF-SCORE:    0.00 PKD
ROOT
HETATM    1  C   UNL     1     -11.298  14.669  66.634  1.00  0.00    -0.356 C  
HETATM    2  C   UNL     1     -10.560  15.981  66.454  1.00  0.00    -0.284 C  
HETATM    3  C   UNL     1     -10.895  16.674  67.749  1.00  0.00    -0.292 C  
HETATM    4  O   UNL     1     -10.783  17.884  67.895  1.00  0.00    -0.392 OA 
HETATM    5  C   UNL     1     -11.409  15.714  68.821  1.00  0.00    -0.351 C  
HETATM    6  C   UNL     1     -11.313  12.322  66.154  1.00  0.00    -0.353 C  
HETATM    7  C   UNL     1     -11.171  14.379  68.119  1.00  0.00    -0.300 C  
HETATM    8  C   UNL     1     -12.106  13.231  68.449  1.00  0.00    -0.244 C  
HETATM    9  O   UNL     1     -10.688  13.602  65.934  1.00  0.00    -0.276 OA 
HETATM   10  C   UNL     1     -11.628  12.017  67.649  1.00  0.00    -0.392 C  
HETATM   11  O   UNL     1     -12.526  12.299  65.391  1.00  0.00    -0.596 OA 
HETATM   12  H   UNL     1     -12.335  12.485  64.479  1.00  0.00     0.000 HD 
ENDROOT
BRANCH   5  13
HETATM   13  C   UNL     1     -10.618  15.742  70.130  1.00  0.00    -0.334 C  
BRANCH  13  14
HETATM   14  C   UNL     1     -11.437  15.369  71.357  1.00  0.00    -0.465 C  
BRANCH  14  15
HETATM   15  C   UNL     1     -12.926  15.587  71.102  1.00  0.00    -0.560 C  
BRANCH  15  16
HETATM   16  C   UNL     1     -13.715  14.345  71.505  1.00  0.00    -0.458 C  
BRANCH  16  17
HETATM   17  C   UNL     1     -12.796  13.142  71.691  1.00  0.00    -0.388 C  
BRANCH  17  18
HETATM   18  C   UNL     1     -13.590  11.917  72.132  1.00  0.00    -0.188 C  
HETATM   19  O   UNL     1     -13.636   9.541  72.065  1.00  0.00    -0.411 OA 
HETATM   20  C   UNL     1     -12.939  10.633  71.676  1.00  0.00    -0.477 C  
HETATM   21  O   UNL     1     -11.907  10.552  71.029  1.00  0.00    -0.350 OA 
ENDBRANCH  17  18
ENDBRANCH  16  17
ENDBRANCH  15  16
ENDBRANCH  14  15
ENDBRANCH  13  14
ENDBRANCH   5  13
BRANCH   6  22
HETATM   22  C   UNL     1     -10.329  11.223  65.637  1.00  0.00    -0.256 C  
HETATM   23  F   UNL     1      -9.211  11.221  66.426  1.00  0.00    -0.170 F  
HETATM   24  F   UNL     1     -10.894   9.992  65.795  1.00  0.00    -0.124 F  
BRANCH  22  25
HETATM   25  C   UNL     1      -9.898  11.402  64.187  1.00  0.00    -0.307 C  
BRANCH  25  26
HETATM   26  C   UNL     1      -9.257  10.124  63.641  1.00  0.00    -0.320 C  
BRANCH  26  27
HETATM   27  C   UNL     1      -7.735  10.191  63.725  1.00  0.00    -0.141 C  
HETATM   28  C   UNL     1      -7.192   9.170  64.709  1.00  0.00    -0.097 C  
ENDBRANCH  26  27
ENDBRANCH  25  26
ENDBRANCH  22  25
ENDBRANCH   6  22
TORSDOF 10
ENDMDL
MODEL       38
REMARK 921   NORMALIZED FREE ENERGY PREDICTED BY IDOCK:   -5.55 KCAL/MOL
REMARK 922        TOTAL FREE ENERGY PREDICTED BY IDOCK:  -10.57 KCAL/MOL
REMARK 923 INTER-LIGAND FREE ENERGY PREDICTED BY IDOCK:   -8.47 KCAL/MOL
REMARK 924 INTRA-LIGAND FREE ENERGY PREDICTED BY IDOCK:   -2.10 KCAL/MOL
REMARK 927      BINDING AFFINITY PREDICTED BY RF-SCORE:    0.00 PKD
ROOT
HETATM    1  C   UNL     1     -11.423  11.935  68.084  1.00  0.00    -0.320 C  
HETATM    2  C   UNL     1     -11.659  10.481  68.445  1.00  0.00    -0.205 C  
HETATM    3  C   UNL     1     -10.576   9.811  67.639  1.00  0.00    -0.276 C  
HETATM    4  O   UNL     1     -10.602   8.617  67.370  1.00  0.00    -0.274 OA 
HETATM    5  C   UNL     1      -9.488  10.782  67.183  1.00  0.00    -0.180 C  
HETATM    6  C   UNL     1     -11.526  14.206  68.840  1.00  0.00    -0.293 C  
HETATM    7  C   UNL     1      -9.915  12.036  67.942  1.00  0.00    -0.199 C  
HETATM    8  C   UNL     1      -9.597  13.381  67.317  1.00  0.00    -0.234 C  
HETATM    9  O   UNL     1     -11.818  12.821  69.113  1.00  0.00    -0.298 OA 
HETATM   10  C   UNL     1     -10.091  14.456  68.288  1.00  0.00    -0.239 C  
HETATM   11  O   UNL     1     -12.496  14.671  67.892  1.00  0.00    -0.586 OA 
HETATM   12  H   UNL     1     -13.371  14.518  68.229  1.00  0.00     0.000 HD 
ENDROOT
BRANCH   5  13
HETATM   13  C   UNL     1      -8.072  10.393  67.611  1.00  0.00    -0.107 C  
BRANCH  13  14
HETATM   14  C   UNL     1      -7.755  10.709  69.066  1.00  0.00    -0.130 C  
BRANCH  14  15
HETATM   15  C   UNL     1      -7.598   9.425  69.877  1.00  0.00    -0.109 C  
BRANCH  15  16
HETATM   16  C   UNL     1      -8.768   9.269  70.843  1.00  0.00    -0.234 C  
BRANCH  16  17
HETATM   17  C   UNL     1      -9.472   7.930  70.647  1.00  0.00    -0.162 C  
BRANCH  17  18
HETATM   18  C   UNL     1     -10.848   7.940  71.306  1.00  0.00    -0.263 C  
HETATM   19  O   UNL     1     -13.023   6.987  71.208  1.00  0.00    -0.378 OA 
HETATM   20  C   UNL     1     -11.800   6.985  70.629  1.00  0.00    -0.330 C  
HETATM   21  O   UNL     1     -11.535   6.281  69.667  1.00  0.00    -0.432 OA 
ENDBRANCH  17  18
ENDBRANCH  16  17
ENDBRANCH  15  16
ENDBRANCH  14  15
ENDBRANCH  13  14
ENDBRANCH   5  13
BRANCH   6  22
HETATM   22  C   UNL     1     -11.666  14.991  70.185  1.00  0.00    -0.299 C  
HETATM   23  F   UNL     1     -10.418  15.322  70.638  1.00  0.00    -0.302 F  
HETATM   24  F   UNL     1     -12.304  16.175  69.960  1.00  0.00    -0.287 F  
BRANCH  22  25
HETATM   25  C   UNL     1     -12.392  14.224  71.283  1.00  0.00    -0.439 C  
BRANCH  25  26
HETATM   26  C   UNL     1     -13.745  14.863  71.599  1.00  0.00    -0.527 C  
BRANCH  26  27
HETATM   27  C   UNL     1     -13.663  15.737  72.848  1.00  0.00    -0.631 C  
HETATM   28  C   UNL     1     -12.579  15.249  73.792  1.00  0.00    -0.736 C  
ENDBRANCH  26  27
ENDBRANCH  25  26
ENDBRANCH  22  25
ENDBRANCH   6  22
TORSDOF 10
ENDMDL
MODEL       39
REMARK 921   NORMALIZED FREE ENERGY PREDICTED BY IDOCK:   -5.51 KCAL/MOL
REMARK 922        TOTAL FREE ENERGY PREDICTED BY IDOCK:  -10.51 KCAL/MOL
REMARK 923 INTER-LIGAND FREE ENERGY PREDICTED BY IDOCK:   -8.61 KCAL/MOL
REMARK 924 INTRA-LIGAND FREE ENERGY PREDICTED BY IDOCK:   -1.90 KCAL/MOL
REMARK 927      BINDING AFFINITY PREDICTED BY RF-SCORE:    0.00 PKD
ROOT
HETATM    1  C   UNL     1      -9.397   9.196  66.736  1.00  0.00    -0.165 C  
HETATM    2  C   UNL     1      -9.472   7.708  66.452  1.00  0.00    -0.224 C  
HETATM    3  C   UNL     1      -9.437   7.152  67.853  1.00  0.00    -0.130 C  
HETATM    4  O   UNL     1      -9.147   5.987  68.089  1.00  0.00    -0.119 OA 
HETATM    5  C   UNL     1      -9.769   8.198  68.915  1.00  0.00    -0.156 C  
HETATM    6  C   UNL     1     -10.055  11.385  66.019  1.00  0.00    -0.234 C  
HETATM    7  C   UNL     1     -10.186   9.363  68.022  1.00  0.00    -0.248 C  
HETATM    8  C   UNL     1      -9.941  10.770  68.535  1.00  0.00    -0.186 C  
HETATM    9  O   UNL     1     -10.031   9.971  65.738  1.00  0.00    -0.258 OA 
HETATM   10  C   UNL     1     -10.480  11.735  67.477  1.00  0.00    -0.228 C  
HETATM   11  O   UNL     1      -8.741  11.897  65.763  1.00  0.00    -0.399 OA 
HETATM   12  H   UNL     1      -8.482  11.683  64.874  1.00  0.00     0.000 HD 
ENDROOT
BRANCH   5  13
HETATM   13  C   UNL     1     -10.936   7.824  69.831  1.00  0.00    -0.194 C  
BRANCH  13  14
HETATM   14  C   UNL     1     -10.739   8.233  71.285  1.00  0.00    -0.276 C  
BRANCH  14  15
HETATM   15  C   UNL     1     -12.056   8.701  71.899  1.00  0.00    -0.422 C  
BRANCH  15  16
HETATM   16  C   UNL     1     -12.662   9.816  71.053  1.00  0.00    -0.392 C  
BRANCH  16  17
HETATM   17  C   UNL     1     -13.008  11.032  71.906  1.00  0.00    -0.485 C  
BRANCH  17  18
HETATM   18  C   UNL     1     -12.647  12.324  71.180  1.00  0.00    -0.353 C  
HETATM   19  O   UNL     1     -13.076  14.661  71.105  1.00  0.00    -0.336 OA 
HETATM   20  C   UNL     1     -13.391  13.510  71.743  1.00  0.00    -0.397 C  
HETATM   21  O   UNL     1     -14.193  13.473  72.662  1.00  0.00    -0.751 OA 
ENDBRANCH  17  18
ENDBRANCH  16  17
ENDBRANCH  15  16
ENDBRANCH  14  15
ENDBRANCH  13  14
ENDBRANCH   5  13
BRANCH   6  22
HETATM   22  C   UNL     1     -11.090  12.041  65.048  1.00  0.00    -0.316 C  
HETATM   23  F   UNL     1     -11.516  11.100  64.151  1.00  0.00    -0.359 F  
HETATM   24  F   UNL     1     -12.199  12.416  65.746  1.00  0.00    -0.476 F  
BRANCH  22  25
HETATM   25  C   UNL     1     -10.549  13.237  64.274  1.00  0.00    -0.402 C  
BRANCH  25  26
HETATM   26  C   UNL     1     -11.075  14.551  64.853  1.00  0.00    -0.401 C  
BRANCH  26  27
HETATM   27  C   UNL     1     -10.031  15.218  65.745  1.00  0.00    -0.391 C  
HETATM   28  C   UNL     1     -10.642  15.689  67.052  1.00  0.00    -0.311 C  
ENDBRANCH  26  27
ENDBRANCH  25  26
ENDBRANCH  22  25
ENDBRANCH   6  22
TORSDOF 10
ENDMDL
MODEL       40
REMARK 921   NORMALIZED FREE ENERGY PREDICTED BY IDOCK:   -5.51 KCAL/MOL
REMARK 922        TOTAL FREE ENERGY PREDICTED BY IDOCK:  -10.50 KCAL/MOL
REMARK 923 INTER-LIGAND FREE ENERGY PREDICTED BY IDOCK:   -8.82 KCAL/MOL
REMARK 924 INTRA-LIGAND FREE ENERGY PREDICTED BY IDOCK:   -1.68 KCAL/MOL
REMARK 927      BINDING AFFINITY PREDICTED BY RF-SCORE:    0.00 PKD
ROOT
HETATM    1  C   UNL     1     -12.244  10.999  69.955  1.00  0.00    -0.336 C  
HETATM    2  C   UNL     1     -12.983  11.042  71.278  1.00  0.00    -0.472 C  
HETATM    3  C   UNL     1     -12.686   9.664  71.811  1.00  0.00    -0.420 C  
HETATM    4  O   UNL     1     -13.351   9.146  72.699  1.00  0.00    -0.454 OA 
HETATM    5  C   UNL     1     -11.506   8.996  71.108  1.00  0.00    -0.376 C  
HETATM    6  C   UNL     1     -11.019  12.262  68.328  1.00  0.00    -0.232 C  
HETATM    7  C   UNL     1     -11.014  10.159  70.250  1.00  0.00    -0.380 C  
HETATM    8  C   UNL     1     -10.349   9.830  68.927  1.00  0.00    -0.225 C  
HETATM    9  O   UNL     1     -11.802  12.277  69.538  1.00  0.00    -0.305 OA 
HETATM   10  C   UNL     1      -9.921  11.157  68.296  1.00  0.00    -0.196 C  
HETATM   11  O   UNL     1     -11.924  12.075  67.233  1.00  0.00    -0.591 OA 
HETATM   12  H   UNL     1     -12.593  12.749  67.252  1.00  0.00     0.000 HD 
ENDROOT
BRANCH   5  13
HETATM   13  C   UNL     1     -10.380   8.549  72.042  1.00  0.00    -0.408 C  
BRANCH  13  14
HETATM   14  C   UNL     1     -10.550   7.137  72.586  1.00  0.00    -0.290 C  
BRANCH  14  15
HETATM   15  C   UNL     1     -11.182   6.225  71.537  1.00  0.00    -0.344 C  
BRANCH  15  16
HETATM   16  C   UNL     1     -10.229   5.086  71.189  1.00  0.00    -0.281 C  
BRANCH  16  17
HETATM   17  C   UNL     1     -10.028   4.974  69.682  1.00  0.00    -0.311 C  
BRANCH  17  18
HETATM   18  C   UNL     1     -10.563   6.214  68.970  1.00  0.00    -0.341 C  
HETATM   19  O   UNL     1     -11.226   7.068  66.853  1.00  0.00    -0.302 OA 
HETATM   20  C   UNL     1     -10.750   5.974  67.492  1.00  0.00    -0.301 C  
HETATM   21  O   UNL     1     -10.508   4.931  66.906  1.00  0.00    -0.221 OA 
ENDBRANCH  17  18
ENDBRANCH  16  17
ENDBRANCH  15  16
ENDBRANCH  14  15
ENDBRANCH  13  14
ENDBRANCH   5  13
BRANCH   6  22
HETATM   22  C   UNL     1     -10.306  13.648  68.212  1.00  0.00    -0.251 C  
HETATM   23  F   UNL     1      -8.953  13.462  68.290  1.00  0.00    -0.171 F  
HETATM   24  F   UNL     1     -10.535  14.178  66.977  1.00  0.00    -0.263 F  
BRANCH  22  25
HETATM   25  C   UNL     1     -10.719  14.654  69.279  1.00  0.00    -0.254 C  
BRANCH  25  26
HETATM   26  C   UNL     1     -11.422  15.862  68.657  1.00  0.00    -0.391 C  
BRANCH  26  27
HETATM   27  C   UNL     1     -10.535  17.103  68.710  1.00  0.00    -0.351 C  
HETATM   28  C   UNL     1     -10.740  17.979  67.487  1.00  0.00    -0.352 C  
ENDBRANCH  26  27
ENDBRANCH  25  26
ENDBRANCH  22  25
ENDBRANCH   6  22
TORSDOF 10
ENDMDL
MODEL       41
REMARK 921   NORMALIZED FREE ENERGY PREDICTED BY IDOCK:   -5.50 KCAL/MOL
REMARK 922        TOTAL FREE ENERGY PREDICTED BY IDOCK:  -10.50 KCAL/MOL
REMARK 923 INTER-LIGAND FREE ENERGY PREDICTED BY IDOCK:   -8.36 KCAL/MOL
REMARK 924 INTRA-LIGAND FREE ENERGY PREDICTED BY IDOCK:   -2.14 KCAL/MOL
REMARK 927      BINDING AFFINITY PREDICTED BY RF-SCORE:    0.00 PKD
ROOT
HETATM    1  C   UNL     1     -10.850   7.500  72.657  1.00  0.00    -0.315 C  
HETATM    2  C   UNL     1      -9.365   7.335  72.920  1.00  0.00    -0.194 C  
HETATM    3  C   UNL     1      -9.171   5.890  72.537  1.00  0.00    -0.138 C  
HETATM    4  O   UNL     1      -8.200   5.240  72.901  1.00  0.00    -0.108 OA 
HETATM    5  C   UNL     1     -10.316   5.341  71.690  1.00  0.00    -0.281 C  
HETATM    6  C   UNL     1     -12.584   9.002  71.968  1.00  0.00    -0.394 C  
HETATM    7  C   UNL     1     -11.106   6.624  71.445  1.00  0.00    -0.306 C  
HETATM    8  C   UNL     1     -12.608   6.506  71.268  1.00  0.00    -0.091 C  
HETATM    9  O   UNL     1     -11.195   8.827  72.309  1.00  0.00    -0.354 OA 
HETATM   10  C   UNL     1     -13.142   7.915  71.001  1.00  0.00    -0.005 C  
HETATM   11  O   UNL     1     -13.332   8.991  73.190  1.00  0.00    -0.902 OA 
HETATM   12  H   UNL     1     -12.992   9.655  73.780  1.00  0.00     0.000 HD 
ENDROOT
BRANCH   5  13
HETATM   13  C   UNL     1      -9.886   4.751  70.346  1.00  0.00    -0.309 C  
BRANCH  13  14
HETATM   14  C   UNL     1      -9.532   5.795  69.296  1.00  0.00    -0.159 C  
BRANCH  14  15
HETATM   15  C   UNL     1     -10.339   5.575  68.019  1.00  0.00    -0.237 C  
BRANCH  15  16
HETATM   16  C   UNL     1     -10.948   6.892  67.550  1.00  0.00    -0.340 C  
BRANCH  16  17
HETATM   17  C   UNL     1     -10.147   8.085  68.061  1.00  0.00    -0.238 C  
BRANCH  17  18
HETATM   18  C   UNL     1     -11.005   9.347  68.076  1.00  0.00    -0.119 C  
HETATM   19  O   UNL     1     -11.468  11.360  66.899  1.00  0.00    -0.445 OA 
HETATM   20  C   UNL     1     -10.710  10.238  66.895  1.00  0.00    -0.184 C  
HETATM   21  O   UNL     1      -9.890  10.009  66.020  1.00  0.00    -0.222 OA 
ENDBRANCH  17  18
ENDBRANCH  16  17
ENDBRANCH  15  16
ENDBRANCH  14  15
ENDBRANCH  13  14
ENDBRANCH   5  13
BRANCH   6  22
HETATM   22  C   UNL     1     -12.724  10.390  71.260  1.00  0.00    -0.432 C  
HETATM   23  F   UNL     1     -11.486  10.810  70.858  1.00  0.00    -0.387 F  
HETATM   24  F   UNL     1     -13.456  10.250  70.119  1.00  0.00    -0.245 F  
BRANCH  22  25
HETATM   25  C   UNL     1     -13.344  11.475  72.131  1.00  0.00    -0.284 C  
BRANCH  25  26
HETATM   26  C   UNL     1     -12.908  12.867  71.671  1.00  0.00    -0.368 C  
BRANCH  26  27
HETATM   27  C   UNL     1     -13.726  13.956  72.359  1.00  0.00    -0.678 C  
HETATM   28  C   UNL     1     -12.858  14.805  73.270  1.00  0.00    -0.621 C  
ENDBRANCH  26  27
ENDBRANCH  25  26
ENDBRANCH  22  25
ENDBRANCH   6  22
TORSDOF 10
ENDMDL
MODEL       42
REMARK 921   NORMALIZED FREE ENERGY PREDICTED BY IDOCK:   -5.50 KCAL/MOL
REMARK 922        TOTAL FREE ENERGY PREDICTED BY IDOCK:  -10.49 KCAL/MOL
REMARK 923 INTER-LIGAND FREE ENERGY PREDICTED BY IDOCK:   -8.68 KCAL/MOL
REMARK 924 INTRA-LIGAND FREE ENERGY PREDICTED BY IDOCK:   -1.82 KCAL/MOL
REMARK 927      BINDING AFFINITY PREDICTED BY RF-SCORE:    0.00 PKD
ROOT
HETATM    1  C   UNL     1     -11.466  14.964  65.023  1.00  0.00    -0.379 C  
HETATM    2  C   UNL     1     -11.114  16.268  64.333  1.00  0.00    -0.044 C  
HETATM    3  C   UNL     1     -10.811  17.143  65.522  1.00  0.00    -0.055 C  
HETATM    4  O   UNL     1     -10.802  18.365  65.452  1.00  0.00    -0.577 OA 
HETATM    5  C   UNL     1     -10.554  16.344  66.798  1.00  0.00    -0.238 C  
HETATM    6  C   UNL     1     -11.416  12.573  64.884  1.00  0.00    -0.325 C  
HETATM    7  C   UNL     1     -10.542  14.928  66.228  1.00  0.00    -0.309 C  
HETATM    8  C   UNL     1     -11.004  13.799  67.131  1.00  0.00    -0.299 C  
HETATM    9  O   UNL     1     -11.176  13.832  64.226  1.00  0.00    -0.373 OA 
HETATM   10  C   UNL     1     -10.857  12.499  66.336  1.00  0.00    -0.290 C  
HETATM   11  O   UNL     1     -12.833  12.359  64.901  1.00  0.00    -0.711 OA 
HETATM   12  H   UNL     1     -13.174  12.404  64.015  1.00  0.00     0.000 HD 
ENDROOT
BRANCH   5  13
HETATM   13  C   UNL     1      -9.207  16.628  67.464  1.00  0.00    -0.207 C  
BRANCH  13  14
HETATM   14  C   UNL     1      -9.259  16.647  68.985  1.00  0.00    -0.223 C  
BRANCH  14  15
HETATM   15  C   UNL     1     -10.704  16.668  69.478  1.00  0.00    -0.306 C  
BRANCH  15  16
HETATM   16  C   UNL     1     -10.963  15.477  70.394  1.00  0.00    -0.360 C  
BRANCH  16  17
HETATM   17  C   UNL     1     -12.435  15.078  70.381  1.00  0.00    -0.407 C  
BRANCH  17  18
HETATM   18  C   UNL     1     -12.600  13.605  70.743  1.00  0.00    -0.397 C  
HETATM   19  O   UNL     1     -13.543  12.122  72.344  1.00  0.00    -0.382 OA 
HETATM   20  C   UNL     1     -13.390  13.426  72.016  1.00  0.00    -0.479 C  
HETATM   21  O   UNL     1     -13.850  14.328  72.698  1.00  0.00    -0.558 OA 
ENDBRANCH  17  18
ENDBRANCH  16  17
ENDBRANCH  15  16
ENDBRANCH  14  15
ENDBRANCH  13  14
ENDBRANCH   5  13
BRANCH   6  22
HETATM   22  C   UNL     1     -10.711  11.460  64.043  1.00  0.00    -0.387 C  
HETATM   23  F   UNL     1     -11.629  10.886  63.206  1.00  0.00    -0.080 F  
HETATM   24  F   UNL     1      -9.773  12.025  63.231  1.00  0.00    -0.374 F  
BRANCH  22  25
HETATM   25  C   UNL     1     -10.064  10.361  64.877  1.00  0.00    -0.382 C  
BRANCH  25  26
HETATM   26  C   UNL     1      -8.935   9.676  64.105  1.00  0.00    -0.269 C  
BRANCH  26  27
HETATM   27  C   UNL     1      -7.600   9.835  64.827  1.00  0.00    -0.129 C  
HETATM   28  C   UNL     1      -7.773  10.544  66.158  1.00  0.00    -0.142 C  
ENDBRANCH  26  27
ENDBRANCH  25  26
ENDBRANCH  22  25
ENDBRANCH   6  22
TORSDOF 10
ENDMDL
MODEL       43
REMARK 921   NORMALIZED FREE ENERGY PREDICTED BY IDOCK:   -5.49 KCAL/MOL
REMARK 922        TOTAL FREE ENERGY PREDICTED BY IDOCK:  -10.47 KCAL/MOL
REMARK 923 INTER-LIGAND FREE ENERGY PREDICTED BY IDOCK:   -8.60 KCAL/MOL
REMARK 924 INTRA-LIGAND FREE ENERGY PREDICTED BY IDOCK:   -1.87 KCAL/MOL
REMARK 927      BINDING AFFINITY PREDICTED BY RF-SCORE:    0.00 PKD
ROOT
HETATM    1  C   UNL     1     -11.706   7.403  71.493  1.00  0.00    -0.284 C  
HETATM    2  C   UNL     1     -13.212   7.481  71.655  1.00  0.00    -0.404 C  
HETATM    3  C   UNL     1     -13.373   8.908  72.114  1.00  0.00    -0.440 C  
HETATM    4  O   UNL     1     -14.383   9.306  72.677  1.00  0.00    -0.497 OA 
HETATM    5  C   UNL     1     -12.142   9.766  71.826  1.00  0.00    -0.425 C  
HETATM    6  C   UNL     1      -9.894   6.429  70.266  1.00  0.00    -0.168 C  
HETATM    7  C   UNL     1     -11.320   8.784  70.995  1.00  0.00    -0.332 C  
HETATM    8  C   UNL     1      -9.809   8.895  71.061  1.00  0.00    -0.321 C  
HETATM    9  O   UNL     1     -11.314   6.466  70.508  1.00  0.00    -0.326 OA 
HETATM   10  C   UNL     1      -9.238   7.834  70.117  1.00  0.00    -0.153 C  
HETATM   11  O   UNL     1      -9.289   5.727  71.359  1.00  0.00    -0.146 OA 
HETATM   12  H   UNL     1      -9.689   4.870  71.450  1.00  0.00     0.000 HD 
ENDROOT
BRANCH   5  13
HETATM   13  C   UNL     1     -12.422  11.018  70.993  1.00  0.00    -0.512 C  
BRANCH  13  14
HETATM   14  C   UNL     1     -12.482  10.764  69.493  1.00  0.00    -0.090 C  
BRANCH  14  15
HETATM   15  C   UNL     1     -11.296  11.416  68.786  1.00  0.00    -0.334 C  
BRANCH  15  16
HETATM   16  C   UNL     1     -11.786  12.500  67.832  1.00  0.00    -0.416 C  
BRANCH  16  17
HETATM   17  C   UNL     1     -11.904  11.971  66.407  1.00  0.00    -0.232 C  
BRANCH  17  18
HETATM   18  C   UNL     1     -12.275  13.093  65.441  1.00  0.00    -0.510 C  
HETATM   19  O   UNL     1     -12.543  13.627  63.140  1.00  0.00    -0.792 OA 
HETATM   20  C   UNL     1     -12.214  12.638  64.004  1.00  0.00    -0.463 C  
HETATM   21  O   UNL     1     -11.906  11.518  63.626  1.00  0.00    -0.354 OA 
ENDBRANCH  17  18
ENDBRANCH  16  17
ENDBRANCH  15  16
ENDBRANCH  14  15
ENDBRANCH  13  14
ENDBRANCH   5  13
BRANCH   6  22
HETATM   22  C   UNL     1      -9.665   5.649  68.930  1.00  0.00    -0.138 C  
HETATM   23  F   UNL     1      -8.451   6.005  68.410  1.00  0.00    -0.110 F  
HETATM   24  F   UNL     1      -9.579   4.313  69.188  1.00  0.00    -0.199 F  
BRANCH  22  25
HETATM   25  C   UNL     1     -10.734   5.894  67.873  1.00  0.00    -0.336 C  
BRANCH  25  26
HETATM   26  C   UNL     1     -10.155   6.630  66.663  1.00  0.00    -0.202 C  
BRANCH  26  27
HETATM   27  C   UNL     1     -10.656   8.070  66.602  1.00  0.00    -0.074 C  
HETATM   28  C   UNL     1      -9.628   8.986  65.963  1.00  0.00    -0.342 C  
ENDBRANCH  26  27
ENDBRANCH  25  26
ENDBRANCH  22  25
ENDBRANCH   6  22
TORSDOF 10
ENDMDL
MODEL       44
REMARK 921   NORMALIZED FREE ENERGY PREDICTED BY IDOCK:   -5.47 KCAL/MOL
REMARK 922        TOTAL FREE ENERGY PREDICTED BY IDOCK:  -10.45 KCAL/MOL
REMARK 923 INTER-LIGAND FREE ENERGY PREDICTED BY IDOCK:   -8.96 KCAL/MOL
REMARK 924 INTRA-LIGAND FREE ENERGY PREDICTED BY IDOCK:   -1.49 KCAL/MOL
REMARK 927      BINDING AFFINITY PREDICTED BY RF-SCORE:    0.00 PKD
ROOT
HETATM    1  C   UNL     1     -11.662   9.810  71.185  1.00  0.00    -0.385 C  
HETATM    2  C   UNL     1     -12.951  10.388  71.735  1.00  0.00    -0.580 C  
HETATM    3  C   UNL     1     -12.806  11.833  71.333  1.00  0.00    -0.335 C  
HETATM    4  O   UNL     1     -13.457  12.728  71.856  1.00  0.00    -0.450 OA 
HETATM    5  C   UNL     1     -11.755  12.045  70.246  1.00  0.00    -0.267 C  
HETATM    6  C   UNL     1     -10.603   7.885  70.228  1.00  0.00    -0.231 C  
HETATM    7  C   UNL     1     -11.427  10.593  69.906  1.00  0.00    -0.393 C  
HETATM    8  C   UNL     1     -10.023  10.280  69.423  1.00  0.00    -0.254 C  
HETATM    9  O   UNL     1     -11.784   8.444  70.836  1.00  0.00    -0.284 OA 
HETATM   10  C   UNL     1      -9.975   8.781  69.119  1.00  0.00    -0.193 C  
HETATM   11  O   UNL     1      -9.645   7.666  71.271  1.00  0.00    -0.157 OA 
HETATM   12  H   UNL     1     -10.027   7.120  71.948  1.00  0.00     0.000 HD 
ENDROOT
BRANCH   5  13
HETATM   13  C   UNL     1     -12.271  12.750  68.991  1.00  0.00    -0.041 C  
BRANCH  13  14
HETATM   14  C   UNL     1     -11.670  14.130  68.764  1.00  0.00    -0.380 C  
BRANCH  14  15
HETATM   15  C   UNL     1     -11.139  14.262  67.338  1.00  0.00    -0.314 C  
BRANCH  15  16
HETATM   16  C   UNL     1     -10.126  13.158  67.052  1.00  0.00    -0.241 C  
BRANCH  16  17
HETATM   17  C   UNL     1     -10.570  12.290  65.880  1.00  0.00    -0.290 C  
BRANCH  17  18
HETATM   18  C   UNL     1     -10.885  13.148  64.659  1.00  0.00    -0.383 C  
HETATM   19  O   UNL     1     -12.609  13.753  63.139  1.00  0.00    -0.793 OA 
HETATM   20  C   UNL     1     -12.321  12.994  64.221  1.00  0.00    -0.366 C  
HETATM   21  O   UNL     1     -13.152  12.276  64.754  1.00  0.00    -0.724 OA 
ENDBRANCH  17  18
ENDBRANCH  16  17
ENDBRANCH  15  16
ENDBRANCH  14  15
ENDBRANCH  13  14
ENDBRANCH   5  13
BRANCH   6  22
HETATM   22  C   UNL     1     -11.009   6.525  69.573  1.00  0.00    -0.340 C  
HETATM   23  F   UNL     1     -10.218   5.532  70.082  1.00  0.00    -0.242 F  
HETATM   24  F   UNL     1     -12.284   6.205  69.936  1.00  0.00    -0.251 F  
BRANCH  22  25
HETATM   25  C   UNL     1     -10.894   6.505  68.054  1.00  0.00    -0.372 C  
BRANCH  25  26
HETATM   26  C   UNL     1     -10.268   5.197  67.566  1.00  0.00    -0.210 C  
BRANCH  26  27
HETATM   27  C   UNL     1     -10.601   4.940  66.099  1.00  0.00    -0.322 C  
HETATM   28  C   UNL     1      -9.352   4.617  65.299  1.00  0.00    -0.159 C  
ENDBRANCH  26  27
ENDBRANCH  25  26
ENDBRANCH  22  25
ENDBRANCH   6  22
TORSDOF 10
ENDMDL
MODEL       45
REMARK 921   NORMALIZED FREE ENERGY PREDICTED BY IDOCK:   -5.46 KCAL/MOL
REMARK 922        TOTAL FREE ENERGY PREDICTED BY IDOCK:  -10.43 KCAL/MOL
REMARK 923 INTER-LIGAND FREE ENERGY PREDICTED BY IDOCK:   -9.08 KCAL/MOL
REMARK 924 INTRA-LIGAND FREE ENERGY PREDICTED BY IDOCK:   -1.35 KCAL/MOL
REMARK 927      BINDING AFFINITY PREDICTED BY RF-SCORE:    0.00 PKD
ROOT
HETATM    1  C   UNL     1     -11.809  12.860  65.966  1.00  0.00    -0.430 C  
HETATM    2  C   UNL     1     -12.030  13.341  64.545  1.00  0.00    -0.449 C  
HETATM    3  C   UNL     1     -11.931  14.833  64.734  1.00  0.00    -0.404 C  
HETATM    4  O   UNL     1     -12.371  15.629  63.915  1.00  0.00    -0.673 OA 
HETATM    5  C   UNL     1     -11.262  15.222  66.050  1.00  0.00    -0.231 C  
HETATM    6  C   UNL     1     -10.918  11.121  67.353  1.00  0.00    -0.290 C  
HETATM    7  C   UNL     1     -10.805  13.847  66.534  1.00  0.00    -0.295 C  
HETATM    8  C   UNL     1     -10.725  13.616  68.031  1.00  0.00    -0.258 C  
HETATM    9  O   UNL     1     -11.223  11.573  66.019  1.00  0.00    -0.270 OA 
HETATM   10  C   UNL     1     -10.210  12.190  68.239  1.00  0.00    -0.209 C  
HETATM   11  O   UNL     1     -12.151  10.726  67.966  1.00  0.00    -0.778 OA 
HETATM   12  H   UNL     1     -12.583  10.074  67.425  1.00  0.00     0.000 HD 
ENDROOT
BRANCH   5  13
HETATM   13  C   UNL     1     -10.041  16.131  65.898  1.00  0.00    -0.379 C  
BRANCH  13  14
HETATM   14  C   UNL     1     -10.308  17.590  66.242  1.00  0.00    -0.335 C  
BRANCH  14  15
HETATM   15  C   UNL     1     -10.581  17.754  67.735  1.00  0.00    -0.392 C  
BRANCH  15  16
HETATM   16  C   UNL     1      -9.266  17.858  68.500  1.00  0.00    -0.288 C  
BRANCH  16  17
HETATM   17  C   UNL     1      -8.243  18.687  67.732  1.00  0.00    -0.273 C  
BRANCH  17  18
HETATM   18  C   UNL     1      -6.948  17.905  67.537  1.00  0.00    -0.204 C  
HETATM   19  O   UNL     1      -5.261  17.362  65.952  1.00  0.00    -0.293 OA 
HETATM   20  C   UNL     1      -6.411  18.051  66.134  1.00  0.00    -0.248 C  
HETATM   21  O   UNL     1      -6.928  18.703  65.241  1.00  0.00    -0.523 OA 
ENDBRANCH  17  18
ENDBRANCH  16  17
ENDBRANCH  15  16
ENDBRANCH  14  15
ENDBRANCH  13  14
ENDBRANCH   5  13
BRANCH   6  22
HETATM   22  C   UNL     1      -9.959   9.893  67.226  1.00  0.00    -0.196 C  
HETATM   23  F   UNL     1      -9.735   9.639  65.900  1.00  0.00    -0.248 F  
HETATM   24  F   UNL     1      -8.741  10.207  67.752  1.00  0.00    -0.120 F  
BRANCH  22  25
HETATM   25  C   UNL     1     -10.483   8.621  67.881  1.00  0.00    -0.269 C  
BRANCH  25  26
HETATM   26  C   UNL     1      -9.904   7.376  67.206  1.00  0.00    -0.230 C  
BRANCH  26  27
HETATM   27  C   UNL     1     -10.910   6.228  67.213  1.00  0.00    -0.457 C  
HETATM   28  C   UNL     1     -10.462   5.097  66.303  1.00  0.00    -0.341 C  
ENDBRANCH  26  27
ENDBRANCH  25  26
ENDBRANCH  22  25
ENDBRANCH   6  22
TORSDOF 10
ENDMDL
MODEL       46
REMARK 921   NORMALIZED FREE ENERGY PREDICTED BY IDOCK:   -5.45 KCAL/MOL
REMARK 922        TOTAL FREE ENERGY PREDICTED BY IDOCK:  -10.42 KCAL/MOL
REMARK 923 INTER-LIGAND FREE ENERGY PREDICTED BY IDOCK:   -8.21 KCAL/MOL
REMARK 924 INTRA-LIGAND FREE ENERGY PREDICTED BY IDOCK:   -2.20 KCAL/MOL
REMARK 927      BINDING AFFINITY PREDICTED BY RF-SCORE:    0.00 PKD
ROOT
HETATM    1  C   UNL     1      -9.014  11.046  68.373  1.00  0.00    -0.158 C  
HETATM    2  C   UNL     1      -7.584  10.795  68.813  1.00  0.00    -0.113 C  
HETATM    3  C   UNL     1      -6.845  11.782  67.947  1.00  0.00    -0.077 C  
HETATM    4  O   UNL     1      -5.644  11.695  67.730  1.00  0.00    -0.045 OA 
HETATM    5  C   UNL     1      -7.757  12.858  67.361  1.00  0.00    -0.160 C  
HETATM    6  C   UNL     1     -11.315  11.082  69.040  1.00  0.00    -0.277 C  
HETATM    7  C   UNL     1      -9.055  12.539  68.100  1.00  0.00    -0.204 C  
HETATM    8  C   UNL     1     -10.363  12.845  67.395  1.00  0.00    -0.233 C  
HETATM    9  O   UNL     1      -9.953  10.770  69.394  1.00  0.00    -0.198 OA 
HETATM   10  C   UNL     1     -11.491  12.472  68.359  1.00  0.00    -0.355 C  
HETATM   11  O   UNL     1     -11.777  10.051  68.159  1.00  0.00    -0.660 OA 
HETATM   12  H   UNL     1     -11.669   9.203  68.574  1.00  0.00     0.000 HD 
ENDROOT
BRANCH   5  13
HETATM   13  C   UNL     1      -7.335  14.292  67.683  1.00  0.00    -0.192 C  
BRANCH  13  14
HETATM   14  C   UNL     1      -7.650  14.726  69.108  1.00  0.00    -0.151 C  
BRANCH  14  15
HETATM   15  C   UNL     1      -8.439  16.033  69.115  1.00  0.00    -0.247 C  
BRANCH  15  16
HETATM   16  C   UNL     1      -9.886  15.770  69.517  1.00  0.00    -0.283 C  
BRANCH  16  17
HETATM   17  C   UNL     1     -10.853  16.595  68.675  1.00  0.00    -0.344 C  
BRANCH  17  18
HETATM   18  C   UNL     1     -10.812  16.155  67.215  1.00  0.00    -0.235 C  
HETATM   19  O   UNL     1     -10.610  16.947  64.982  1.00  0.00    -0.700 OA 
HETATM   20  C   UNL     1     -10.650  17.329  66.280  1.00  0.00    -0.184 C  
HETATM   21  O   UNL     1     -10.564  18.498  66.619  1.00  0.00    -0.390 OA 
ENDBRANCH  17  18
ENDBRANCH  16  17
ENDBRANCH  15  16
ENDBRANCH  14  15
ENDBRANCH  13  14
ENDBRANCH   5  13
BRANCH   6  22
HETATM   22  C   UNL     1     -12.155  11.084  70.358  1.00  0.00    -0.373 C  
HETATM   23  F   UNL     1     -13.349  10.457  70.126  1.00  0.00    -0.296 F  
HETATM   24  F   UNL     1     -11.522  10.336  71.306  1.00  0.00    -0.410 F  
BRANCH  22  25
HETATM   25  C   UNL     1     -12.440  12.473  70.915  1.00  0.00    -0.361 C  
BRANCH  25  26
HETATM   26  C   UNL     1     -13.470  12.414  72.045  1.00  0.00    -0.460 C  
BRANCH  26  27
HETATM   27  C   UNL     1     -14.127  13.774  72.263  1.00  0.00    -0.627 C  
HETATM   28  C   UNL     1     -13.627  14.796  71.257  1.00  0.00    -0.480 C  
ENDBRANCH  26  27
ENDBRANCH  25  26
ENDBRANCH  22  25
ENDBRANCH   6  22
TORSDOF 10
ENDMDL
MODEL       47
REMARK 921   NORMALIZED FREE ENERGY PREDICTED BY IDOCK:   -5.45 KCAL/MOL
REMARK 922        TOTAL FREE ENERGY PREDICTED BY IDOCK:  -10.41 KCAL/MOL
REMARK 923 INTER-LIGAND FREE ENERGY PREDICTED BY IDOCK:   -8.89 KCAL/MOL
REMARK 924 INTRA-LIGAND FREE ENERGY PREDICTED BY IDOCK:   -1.51 KCAL/MOL
REMARK 927      BINDING AFFINITY PREDICTED BY RF-SCORE:    0.00 PKD
ROOT
HETATM    1  C   UNL     1      -9.300  13.885  66.632  1.00  0.00    -0.268 C  
HETATM    2  C   UNL     1      -8.230  14.750  67.271  1.00  0.00    -0.237 C  
HETATM    3  C   UNL     1      -8.977  16.050  67.430  1.00  0.00    -0.191 C  
HETATM    4  O   UNL     1      -8.405  17.118  67.599  1.00  0.00    -0.189 OA 
HETATM    5  C   UNL     1     -10.492  15.881  67.325  1.00  0.00    -0.310 C  
HETATM    6  C   UNL     1     -10.193  11.672  66.420  1.00  0.00    -0.221 C  
HETATM    7  C   UNL     1     -10.589  14.359  67.281  1.00  0.00    -0.279 C  
HETATM    8  C   UNL     1     -11.745  13.746  66.514  1.00  0.00    -0.412 C  
HETATM    9  O   UNL     1      -9.144  12.513  66.939  1.00  0.00    -0.202 OA 
HETATM   10  C   UNL     1     -11.629  12.227  66.660  1.00  0.00    -0.438 C  
HETATM   11  O   UNL     1      -9.964  11.516  65.014  1.00  0.00    -0.244 OA 
HETATM   12  H   UNL     1      -9.089  11.177  64.868  1.00  0.00     0.000 HD 
ENDROOT
BRANCH   5  13
HETATM   13  C   UNL     1     -11.273  16.400  68.533  1.00  0.00    -0.334 C  
BRANCH  13  14
HETATM   14  C   UNL     1     -11.218  15.483  69.747  1.00  0.00    -0.307 C  
BRANCH  14  15
HETATM   15  C   UNL     1     -12.588  14.870  70.026  1.00  0.00    -0.260 C  
BRANCH  15  16
HETATM   16  C   UNL     1     -12.428  13.519  70.715  1.00  0.00    -0.428 C  
BRANCH  16  17
HETATM   17  C   UNL     1     -13.282  13.435  71.975  1.00  0.00    -0.531 C  
BRANCH  17  18
HETATM   18  C   UNL     1     -13.763  14.820  72.396  1.00  0.00    -0.576 C  
HETATM   19  O   UNL     1     -13.388  16.588  73.940  1.00  0.00    -0.573 OA 
HETATM   20  C   UNL     1     -12.969  15.359  73.561  1.00  0.00    -0.528 C  
HETATM   21  O   UNL     1     -12.053  14.780  74.122  1.00  0.00    -0.510 OA 
ENDBRANCH  17  18
ENDBRANCH  16  17
ENDBRANCH  15  16
ENDBRANCH  14  15
ENDBRANCH  13  14
ENDBRANCH   5  13
BRANCH   6  22
HETATM   22  C   UNL     1     -10.088  10.289  67.142  1.00  0.00    -0.210 C  
HETATM   23  F   UNL     1      -9.030  10.319  68.009  1.00  0.00    -0.128 F  
HETATM   24  F   UNL     1     -11.193  10.091  67.914  1.00  0.00    -0.320 F  
BRANCH  22  25
HETATM   25  C   UNL     1      -9.908   9.105  66.200  1.00  0.00    -0.363 C  
BRANCH  25  26
HETATM   26  C   UNL     1      -9.218   7.937  66.908  1.00  0.00    -0.191 C  
BRANCH  26  27
HETATM   27  C   UNL     1      -9.952   6.625  66.648  1.00  0.00    -0.203 C  
HETATM   28  C   UNL     1     -11.022   6.374  67.695  1.00  0.00    -0.441 C  
ENDBRANCH  26  27
ENDBRANCH  25  26
ENDBRANCH  22  25
ENDBRANCH   6  22
TORSDOF 10
ENDMDL
MODEL       48
REMARK 921   NORMALIZED FREE ENERGY PREDICTED BY IDOCK:   -5.42 KCAL/MOL
REMARK 922        TOTAL FREE ENERGY PREDICTED BY IDOCK:  -10.37 KCAL/MOL
REMARK 923 INTER-LIGAND FREE ENERGY PREDICTED BY IDOCK:   -8.47 KCAL/MOL
REMARK 924 INTRA-LIGAND FREE ENERGY PREDICTED BY IDOCK:   -1.90 KCAL/MOL
REMARK 927      BINDING AFFINITY PREDICTED BY RF-SCORE:    0.00 PKD
ROOT
HETATM    1  C   UNL     1     -11.379   6.826  69.858  1.00  0.00    -0.320 C  
HETATM    2  C   UNL     1     -10.802   6.310  68.554  1.00  0.00    -0.394 C  
HETATM    3  C   UNL     1     -10.617   7.601  67.798  1.00  0.00    -0.196 C  
HETATM    4  O   UNL     1     -10.485   7.636  66.581  1.00  0.00    -0.281 OA 
HETATM    5  C   UNL     1     -10.644   8.829  68.705  1.00  0.00    -0.174 C  
HETATM    6  C   UNL     1     -11.527   6.495  72.226  1.00  0.00    -0.289 C  
HETATM    7  C   UNL     1     -10.671   8.151  70.072  1.00  0.00    -0.243 C  
HETATM    8  C   UNL     1     -11.373   8.874  71.206  1.00  0.00    -0.371 C  
HETATM    9  O   UNL     1     -11.069   5.990  70.956  1.00  0.00    -0.288 OA 
HETATM   10  C   UNL     1     -11.220   8.005  72.457  1.00  0.00    -0.452 C  
HETATM   11  O   UNL     1     -12.942   6.275  72.292  1.00  0.00    -0.507 OA 
HETATM   12  H   UNL     1     -13.129   5.354  72.152  1.00  0.00     0.000 HD 
ENDROOT
BRANCH   5  13
HETATM   13  C   UNL     1      -9.402   9.717  68.609  1.00  0.00    -0.147 C  
BRANCH  13  14
HETATM   14  C   UNL     1      -9.687  11.130  68.118  1.00  0.00    -0.186 C  
BRANCH  14  15
HETATM   15  C   UNL     1     -10.921  11.706  68.809  1.00  0.00    -0.274 C  
BRANCH  15  16
HETATM   16  C   UNL     1     -11.473  12.878  68.005  1.00  0.00    -0.361 C  
BRANCH  16  17
HETATM   17  C   UNL     1     -11.763  12.473  66.564  1.00  0.00    -0.454 C  
BRANCH  17  18
HETATM   18  C   UNL     1     -12.423  13.618  65.801  1.00  0.00    -0.524 C  
HETATM   19  O   UNL     1     -12.431  14.783  63.729  1.00  0.00    -0.782 OA 
HETATM   20  C   UNL     1     -11.850  13.770  64.413  1.00  0.00    -0.427 C  
HETATM   21  O   UNL     1     -10.965  13.081  63.931  1.00  0.00    -0.395 OA 
ENDBRANCH  17  18
ENDBRANCH  16  17
ENDBRANCH  15  16
ENDBRANCH  14  15
ENDBRANCH  13  14
ENDBRANCH   5  13
BRANCH   6  22
HETATM   22  C   UNL     1     -10.800   5.682  73.346  1.00  0.00    -0.275 C  
HETATM   23  F   UNL     1     -10.606   6.494  74.430  1.00  0.00    -0.334 F  
HETATM   24  F   UNL     1     -11.610   4.674  73.779  1.00  0.00    -0.333 F  
BRANCH  22  25
HETATM   25  C   UNL     1      -9.454   5.107  72.926  1.00  0.00    -0.158 C  
BRANCH  25  26
HETATM   26  C   UNL     1      -8.313   6.069  73.263  1.00  0.00    -0.115 C  
BRANCH  26  27
HETATM   27  C   UNL     1      -7.727   6.693  72.000  1.00  0.00    -0.097 C  
HETATM   28  C   UNL     1      -7.684   5.691  70.859  1.00  0.00    -0.096 C  
ENDBRANCH  26  27
ENDBRANCH  25  26
ENDBRANCH  22  25
ENDBRANCH   6  22
TORSDOF 10
ENDMDL
MODEL       49
REMARK 921   NORMALIZED FREE ENERGY PREDICTED BY IDOCK:   -5.41 KCAL/MOL
REMARK 922        TOTAL FREE ENERGY PREDICTED BY IDOCK:  -10.35 KCAL/MOL
REMARK 923 INTER-LIGAND FREE ENERGY PREDICTED BY IDOCK:   -9.46 KCAL/MOL
REMARK 924 INTRA-LIGAND FREE ENERGY PREDICTED BY IDOCK:   -0.89 KCAL/MOL
REMARK 927      BINDING AFFINITY PREDICTED BY RF-SCORE:    0.00 PKD
ROOT
HETATM    1  C   UNL     1     -11.780  15.869  70.394  1.00  0.00    -0.354 C  
HETATM    2  C   UNL     1     -11.964  15.849  71.899  1.00  0.00    -0.588 C  
HETATM    3  C   UNL     1     -12.816  14.617  72.062  1.00  0.00    -0.330 C  
HETATM    4  O   UNL     1     -13.475  14.404  73.071  1.00  0.00    -0.615 OA 
HETATM    5  C   UNL     1     -12.784  13.706  70.836  1.00  0.00    -0.382 C  
HETATM    6  C   UNL     1     -10.315  16.438  68.584  1.00  0.00    -0.273 C  
HETATM    7  C   UNL     1     -11.701  14.401  70.015  1.00  0.00    -0.360 C  
HETATM    8  C   UNL     1     -11.790  14.307  68.504  1.00  0.00    -0.382 C  
HETATM    9  O   UNL     1     -10.564  16.480  70.004  1.00  0.00    -0.276 OA 
HETATM   10  C   UNL     1     -10.577  15.047  67.934  1.00  0.00    -0.259 C  
HETATM   11  O   UNL     1     -11.156  17.423  67.971  1.00  0.00    -0.259 OA 
HETATM   12  H   UNL     1     -10.997  18.272  68.368  1.00  0.00     0.000 HD 
ENDROOT
BRANCH   5  13
HETATM   13  C   UNL     1     -12.351  12.268  71.125  1.00  0.00    -0.251 C  
BRANCH  13  14
HETATM   14  C   UNL     1     -13.359  11.468  71.938  1.00  0.00    -0.408 C  
BRANCH  14  15
HETATM   15  C   UNL     1     -12.931  10.006  72.044  1.00  0.00    -0.514 C  
BRANCH  15  16
HETATM   16  C   UNL     1     -11.717   9.749  71.157  1.00  0.00    -0.465 C  
BRANCH  16  17
HETATM   17  C   UNL     1     -11.251   8.302  71.264  1.00  0.00    -0.302 C  
BRANCH  17  18
HETATM   18  C   UNL     1     -10.549   8.055  72.596  1.00  0.00    -0.419 C  
HETATM   19  O   UNL     1     -10.243   6.458  74.331  1.00  0.00    -0.335 OA 
HETATM   20  C   UNL     1     -10.863   6.686  73.149  1.00  0.00    -0.269 C  
HETATM   21  O   UNL     1     -11.588   5.858  72.623  1.00  0.00    -0.290 OA 
ENDBRANCH  17  18
ENDBRANCH  16  17
ENDBRANCH  15  16
ENDBRANCH  14  15
ENDBRANCH  13  14
ENDBRANCH   5  13
BRANCH   6  22
HETATM   22  C   UNL     1      -8.810  16.796  68.360  1.00  0.00    -0.237 C  
HETATM   23  F   UNL     1      -8.046  16.072  69.233  1.00  0.00    -0.206 F  
HETATM   24  F   UNL     1      -8.426  16.398  67.114  1.00  0.00    -0.172 F  
BRANCH  22  25
HETATM   25  C   UNL     1      -8.486  18.273  68.543  1.00  0.00    -0.325 C  
BRANCH  25  26
HETATM   26  C   UNL     1      -8.058  18.912  67.220  1.00  0.00    -0.277 C  
BRANCH  26  27
HETATM   27  C   UNL     1      -8.873  20.168  66.926  1.00  0.00    -0.426 C  
HETATM   28  C   UNL     1      -9.952  19.895  65.893  1.00  0.00    -0.489 C  
ENDBRANCH  26  27
ENDBRANCH  25  26
ENDBRANCH  22  25
ENDBRANCH   6  22
TORSDOF 10
ENDMDL
MODEL       50
REMARK 921   NORMALIZED FREE ENERGY PREDICTED BY IDOCK:   -5.41 KCAL/MOL
REMARK 922        TOTAL FREE ENERGY PREDICTED BY IDOCK:  -10.35 KCAL/MOL
REMARK 923 INTER-LIGAND FREE ENERGY PREDICTED BY IDOCK:   -8.66 KCAL/MOL
REMARK 924 INTRA-LIGAND FREE ENERGY PREDICTED BY IDOCK:   -1.69 KCAL/MOL
REMARK 927      BINDING AFFINITY PREDICTED BY RF-SCORE:    0.00 PKD
ROOT
HETATM    1  C   UNL     1     -12.235  10.836  69.855  1.00  0.00    -0.313 C  
HETATM    2  C   UNL     1     -12.920  10.909  71.206  1.00  0.00    -0.492 C  
HETATM    3  C   UNL     1     -12.486   9.600  71.813  1.00  0.00    -0.402 C  
HETATM    4  O   UNL     1     -13.067   9.092  72.763  1.00  0.00    -0.386 OA 
HETATM    5  C   UNL     1     -11.284   8.984  71.099  1.00  0.00    -0.375 C  
HETATM    6  C   UNL     1     -11.191  12.080  68.094  1.00  0.00    -0.260 C  
HETATM    7  C   UNL     1     -10.928  10.122  70.146  1.00  0.00    -0.376 C  
HETATM    8  C   UNL     1     -10.293   9.758  68.817  1.00  0.00    -0.227 C  
HETATM    9  O   UNL     1     -11.921  12.114  69.336  1.00  0.00    -0.303 OA 
HETATM   10  C   UNL     1     -10.006  11.069  68.081  1.00  0.00    -0.190 C  
HETATM   11  O   UNL     1     -12.121  11.746  67.056  1.00  0.00    -0.575 OA 
HETATM   12  H   UNL     1     -12.844  12.363  67.064  1.00  0.00     0.000 HD 
ENDROOT
BRANCH   5  13
HETATM   13  C   UNL     1     -10.087   8.695  72.006  1.00  0.00    -0.401 C  
BRANCH  13  14
HETATM   14  C   UNL     1      -9.442   7.336  71.767  1.00  0.00    -0.162 C  
BRANCH  14  15
HETATM   15  C   UNL     1     -10.489   6.226  71.803  1.00  0.00    -0.249 C  
BRANCH  15  16
HETATM   16  C   UNL     1     -10.286   5.276  70.627  1.00  0.00    -0.327 C  
BRANCH  16  17
HETATM   17  C   UNL     1     -10.021   6.042  69.336  1.00  0.00    -0.220 C  
BRANCH  17  18
HETATM   18  C   UNL     1      -9.927   5.088  68.149  1.00  0.00    -0.190 C  
HETATM   19  O   UNL     1     -10.568   4.789  65.879  1.00  0.00    -0.303 OA 
HETATM   20  C   UNL     1     -10.648   5.628  66.938  1.00  0.00    -0.296 C  
HETATM   21  O   UNL     1     -11.245   6.691  66.883  1.00  0.00    -0.391 OA 
ENDBRANCH  17  18
ENDBRANCH  16  17
ENDBRANCH  15  16
ENDBRANCH  14  15
ENDBRANCH  13  14
ENDBRANCH   5  13
BRANCH   6  22
HETATM   22  C   UNL     1     -10.603  13.509  67.854  1.00  0.00    -0.248 C  
HETATM   23  F   UNL     1      -9.470  13.656  68.606  1.00  0.00    -0.205 F  
HETATM   24  F   UNL     1     -10.204  13.628  66.556  1.00  0.00    -0.262 F  
BRANCH  22  25
HETATM   25  C   UNL     1     -11.561  14.644  68.196  1.00  0.00    -0.362 C  
BRANCH  25  26
HETATM   26  C   UNL     1     -11.118  15.376  69.464  1.00  0.00    -0.284 C  
BRANCH  26  27
HETATM   27  C   UNL     1     -12.292  15.589  70.415  1.00  0.00    -0.451 C  
HETATM   28  C   UNL     1     -12.221  14.642  71.600  1.00  0.00    -0.411 C  
ENDBRANCH  26  27
ENDBRANCH  25  26
ENDBRANCH  22  25
ENDBRANCH   6  22
TORSDOF 10
ENDMDL
MODEL       51
REMARK 921   NORMALIZED FREE ENERGY PREDICTED BY IDOCK:   -5.38 KCAL/MOL
REMARK 922        TOTAL FREE ENERGY PREDICTED BY IDOCK:  -10.30 KCAL/MOL
REMARK 923 INTER-LIGAND FREE ENERGY PREDICTED BY IDOCK:   -8.77 KCAL/MOL
REMARK 924 INTRA-LIGAND FREE ENERGY PREDICTED BY IDOCK:   -1.53 KCAL/MOL
REMARK 927      BINDING AFFINITY PREDICTED BY RF-SCORE:    0.00 PKD
ROOT
HETATM    1  C   UNL     1     -12.011  13.248  68.562  1.00  0.00    -0.304 C  
HETATM    2  C   UNL     1     -12.241  13.303  70.060  1.00  0.00    -0.345 C  
HETATM    3  C   UNL     1     -12.089  11.847  70.421  1.00  0.00    -0.333 C  
HETATM    4  O   UNL     1     -12.516  11.383  71.470  1.00  0.00    -0.297 OA 
HETATM    5  C   UNL     1     -11.384  11.036  69.336  1.00  0.00    -0.352 C  
HETATM    6  C   UNL     1     -11.154  14.403  66.646  1.00  0.00    -0.326 C  
HETATM    7  C   UNL     1     -10.965  12.160  68.392  1.00  0.00    -0.271 C  
HETATM    8  C   UNL     1     -10.866  11.841  66.912  1.00  0.00    -0.312 C  
HETATM    9  O   UNL     1     -11.467  14.450  68.052  1.00  0.00    -0.279 OA 
HETATM   10  C   UNL     1     -10.396  13.115  66.207  1.00  0.00    -0.291 C  
HETATM   11  O   UNL     1     -12.389  14.506  65.926  1.00  0.00    -0.331 OA 
HETATM   12  H   UNL     1     -12.852  15.292  66.194  1.00  0.00     0.000 HD 
ENDROOT
BRANCH   5  13
HETATM   13  C   UNL     1     -10.137  10.289  69.811  1.00  0.00    -0.244 C  
BRANCH  13  14
HETATM   14  C   UNL     1      -9.987   8.894  69.219  1.00  0.00    -0.192 C  
BRANCH  14  15
HETATM   15  C   UNL     1      -9.234   7.976  70.179  1.00  0.00    -0.152 C  
BRANCH  15  16
HETATM   16  C   UNL     1      -9.308   8.528  71.599  1.00  0.00    -0.311 C  
BRANCH  16  17
HETATM   17  C   UNL     1     -10.226   7.682  72.474  1.00  0.00    -0.298 C  
BRANCH  17  18
HETATM   18  C   UNL     1     -11.624   8.288  72.538  1.00  0.00    -0.454 C  
HETATM   19  O   UNL     1     -13.816   8.144  71.627  1.00  0.00    -0.365 OA 
HETATM   20  C   UNL     1     -12.572   7.614  71.576  1.00  0.00    -0.343 C  
HETATM   21  O   UNL     1     -12.284   6.697  70.823  1.00  0.00    -0.378 OA 
ENDBRANCH  17  18
ENDBRANCH  16  17
ENDBRANCH  15  16
ENDBRANCH  14  15
ENDBRANCH  13  14
ENDBRANCH   5  13
BRANCH   6  22
HETATM   22  C   UNL     1     -10.239  15.630  66.326  1.00  0.00    -0.299 C  
HETATM   23  F   UNL     1      -9.072  15.181  65.770  1.00  0.00    -0.333 F  
HETATM   24  F   UNL     1     -10.829  16.405  65.373  1.00  0.00    -0.346 F  
BRANCH  22  25
HETATM   25  C   UNL     1      -9.898  16.487  67.538  1.00  0.00    -0.248 C  
BRANCH  25  26
HETATM   26  C   UNL     1     -10.778  17.738  67.593  1.00  0.00    -0.330 C  
BRANCH  26  27
HETATM   27  C   UNL     1      -9.950  19.003  67.389  1.00  0.00    -0.410 C  
HETATM   28  C   UNL     1     -10.397  19.761  66.152  1.00  0.00    -0.627 C  
ENDBRANCH  26  27
ENDBRANCH  25  26
ENDBRANCH  22  25
ENDBRANCH   6  22
TORSDOF 10
ENDMDL
MODEL       52
REMARK 921   NORMALIZED FREE ENERGY PREDICTED BY IDOCK:   -5.37 KCAL/MOL
REMARK 922        TOTAL FREE ENERGY PREDICTED BY IDOCK:  -10.28 KCAL/MOL
REMARK 923 INTER-LIGAND FREE ENERGY PREDICTED BY IDOCK:   -8.15 KCAL/MOL
REMARK 924 INTRA-LIGAND FREE ENERGY PREDICTED BY IDOCK:   -2.14 KCAL/MOL
REMARK 927      BINDING AFFINITY PREDICTED BY RF-SCORE:    0.00 PKD
ROOT
HETATM    1  C   UNL     1     -11.810  11.767  67.681  1.00  0.00    -0.171 C  
HETATM    2  C   UNL     1     -11.822  11.984  69.183  1.00  0.00    -0.369 C  
HETATM    3  C   UNL     1     -11.127  10.732  69.653  1.00  0.00    -0.279 C  
HETATM    4  O   UNL     1     -11.210  10.329  70.806  1.00  0.00    -0.329 OA 
HETATM    5  C   UNL     1     -10.355  10.026  68.540  1.00  0.00    -0.217 C  
HETATM    6  C   UNL     1     -11.695  12.815  65.530  1.00  0.00    -0.395 C  
HETATM    7  C   UNL     1     -10.492  11.059  67.424  1.00  0.00    -0.255 C  
HETATM    8  C   UNL     1     -10.509  10.556  65.993  1.00  0.00    -0.226 C  
HETATM    9  O   UNL     1     -11.794  12.983  66.958  1.00  0.00    -0.367 OA 
HETATM   10  C   UNL     1     -10.614  11.784  65.085  1.00  0.00    -0.332 C  
HETATM   11  O   UNL     1     -12.981  12.400  65.055  1.00  0.00    -0.705 OA 
HETATM   12  H   UNL     1     -13.641  13.028  65.326  1.00  0.00     0.000 HD 
ENDROOT
BRANCH   5  13
HETATM   13  C   UNL     1      -8.872   9.803  68.839  1.00  0.00    -0.140 C  
BRANCH  13  14
HETATM   14  C   UNL     1      -8.319   8.495  68.292  1.00  0.00    -0.124 C  
BRANCH  14  15
HETATM   15  C   UNL     1      -9.321   7.359  68.487  1.00  0.00    -0.141 C  
BRANCH  15  16
HETATM   16  C   UNL     1      -9.170   6.760  69.881  1.00  0.00    -0.147 C  
BRANCH  16  17
HETATM   17  C   UNL     1     -10.351   5.861  70.228  1.00  0.00    -0.298 C  
BRANCH  17  18
HETATM   18  C   UNL     1     -11.653   6.658  70.238  1.00  0.00    -0.454 C  
HETATM   19  O   UNL     1     -13.464   7.346  71.615  1.00  0.00    -0.368 OA 
HETATM   20  C   UNL     1     -12.310   6.640  71.597  1.00  0.00    -0.332 C  
HETATM   21  O   UNL     1     -11.881   6.065  72.584  1.00  0.00    -0.237 OA 
ENDBRANCH  17  18
ENDBRANCH  16  17
ENDBRANCH  15  16
ENDBRANCH  14  15
ENDBRANCH  13  14
ENDBRANCH   5  13
BRANCH   6  22
HETATM   22  C   UNL     1     -11.314  14.202  64.918  1.00  0.00    -0.365 C  
HETATM   23  F   UNL     1     -10.229  14.044  64.099  1.00  0.00    -0.317 F  
HETATM   24  F   UNL     1     -12.323  14.640  64.114  1.00  0.00    -0.498 F  
BRANCH  22  25
HETATM   25  C   UNL     1     -10.987  15.272  65.952  1.00  0.00    -0.325 C  
BRANCH  25  26
HETATM   26  C   UNL     1      -9.475  15.437  66.116  1.00  0.00    -0.371 C  
BRANCH  26  27
HETATM   27  C   UNL     1      -9.030  15.055  67.525  1.00  0.00    -0.189 C  
HETATM   28  C   UNL     1      -8.265  13.744  67.526  1.00  0.00    -0.194 C  
ENDBRANCH  26  27
ENDBRANCH  25  26
ENDBRANCH  22  25
ENDBRANCH   6  22
TORSDOF 10
ENDMDL
MODEL       53
REMARK 921   NORMALIZED FREE ENERGY PREDICTED BY IDOCK:   -5.35 KCAL/MOL
REMARK 922        TOTAL FREE ENERGY PREDICTED BY IDOCK:  -10.26 KCAL/MOL
REMARK 923 INTER-LIGAND FREE ENERGY PREDICTED BY IDOCK:   -8.65 KCAL/MOL
REMARK 924 INTRA-LIGAND FREE ENERGY PREDICTED BY IDOCK:   -1.61 KCAL/MOL
REMARK 927      BINDING AFFINITY PREDICTED BY RF-SCORE:    0.00 PKD
ROOT
HETATM    1  C   UNL     1     -12.524  11.906  70.434  1.00  0.00    -0.170 C  
HETATM    2  C   UNL     1     -13.112  11.560  71.789  1.00  0.00    -0.503 C  
HETATM    3  C   UNL     1     -12.827  10.081  71.851  1.00  0.00    -0.426 C  
HETATM    4  O   UNL     1     -13.416   9.331  72.617  1.00  0.00    -0.444 OA 
HETATM    5  C   UNL     1     -11.765   9.639  70.846  1.00  0.00    -0.412 C  
HETATM    6  C   UNL     1     -11.423  13.580  69.121  1.00  0.00    -0.295 C  
HETATM    7  C   UNL     1     -11.312  10.998  70.319  1.00  0.00    -0.291 C  
HETATM    8  C   UNL     1     -10.813  11.071  68.889  1.00  0.00    -0.262 C  
HETATM    9  O   UNL     1     -12.068  13.243  70.365  1.00  0.00    -0.348 OA 
HETATM   10  C   UNL     1     -10.391  12.520  68.633  1.00  0.00    -0.193 C  
HETATM   11  O   UNL     1     -12.450  13.745  68.135  1.00  0.00    -0.372 OA 
HETATM   12  H   UNL     1     -13.080  14.391  68.433  1.00  0.00     0.000 HD 
ENDROOT
BRANCH   5  13
HETATM   13  C   UNL     1     -10.568   8.915  71.464  1.00  0.00    -0.399 C  
BRANCH  13  14
HETATM   14  C   UNL     1     -10.062   7.738  70.642  1.00  0.00    -0.191 C  
BRANCH  14  15
HETATM   15  C   UNL     1     -11.206   6.789  70.295  1.00  0.00    -0.385 C  
BRANCH  15  16
HETATM   16  C   UNL     1     -11.108   6.362  68.833  1.00  0.00    -0.420 C  
BRANCH  16  17
HETATM   17  C   UNL     1     -10.020   7.141  68.102  1.00  0.00    -0.172 C  
BRANCH  17  18
HETATM   18  C   UNL     1     -10.615   7.960  66.960  1.00  0.00    -0.381 C  
HETATM   19  O   UNL     1     -10.119   9.633  65.346  1.00  0.00    -0.272 OA 
HETATM   20  C   UNL     1      -9.601   8.903  66.361  1.00  0.00    -0.238 C  
HETATM   21  O   UNL     1      -8.442   9.024  66.724  1.00  0.00    -0.117 OA 
ENDBRANCH  17  18
ENDBRANCH  16  17
ENDBRANCH  15  16
ENDBRANCH  14  15
ENDBRANCH  13  14
ENDBRANCH   5  13
BRANCH   6  22
HETATM   22  C   UNL     1     -10.660  14.928  69.337  1.00  0.00    -0.246 C  
HETATM   23  F   UNL     1     -10.732  15.273  70.658  1.00  0.00    -0.307 F  
HETATM   24  F   UNL     1      -9.334  14.750  69.073  1.00  0.00    -0.198 F  
BRANCH  22  25
HETATM   25  C   UNL     1     -11.192  16.087  68.504  1.00  0.00    -0.374 C  
BRANCH  25  26
HETATM   26  C   UNL     1     -10.517  17.403  68.897  1.00  0.00    -0.312 C  
BRANCH  26  27
HETATM   27  C   UNL     1     -10.549  18.403  67.745  1.00  0.00    -0.419 C  
HETATM   28  C   UNL     1      -9.693  19.620  68.048  1.00  0.00    -0.501 C  
ENDBRANCH  26  27
ENDBRANCH  25  26
ENDBRANCH  22  25
ENDBRANCH   6  22
TORSDOF 10
ENDMDL
MODEL       54
REMARK 921   NORMALIZED FREE ENERGY PREDICTED BY IDOCK:   -5.35 KCAL/MOL
REMARK 922        TOTAL FREE ENERGY PREDICTED BY IDOCK:  -10.25 KCAL/MOL
REMARK 923 INTER-LIGAND FREE ENERGY PREDICTED BY IDOCK:   -8.08 KCAL/MOL
REMARK 924 INTRA-LIGAND FREE ENERGY PREDICTED BY IDOCK:   -2.18 KCAL/MOL
REMARK 927      BINDING AFFINITY PREDICTED BY RF-SCORE:    0.00 PKD
ROOT
HETATM    1  C   UNL     1     -11.525  16.088  69.915  1.00  0.00    -0.326 C  
HETATM    2  C   UNL     1     -11.560  15.818  71.407  1.00  0.00    -0.511 C  
HETATM    3  C   UNL     1     -12.410  14.574  71.448  1.00  0.00    -0.356 C  
HETATM    4  O   UNL     1     -12.970  14.195  72.469  1.00  0.00    -0.401 OA 
HETATM    5  C   UNL     1     -12.513  13.880  70.092  1.00  0.00    -0.355 C  
HETATM    6  C   UNL     1     -10.238  16.952  68.088  1.00  0.00    -0.311 C  
HETATM    7  C   UNL     1     -11.506  14.704  69.293  1.00  0.00    -0.322 C  
HETATM    8  C   UNL     1     -11.746  14.862  67.804  1.00  0.00    -0.340 C  
HETATM    9  O   UNL     1     -10.345  16.757  69.512  1.00  0.00    -0.280 OA 
HETATM   10  C   UNL     1     -10.584  15.688  67.246  1.00  0.00    -0.305 C  
HETATM   11  O   UNL     1     -11.121  18.024  67.733  1.00  0.00    -0.206 OA 
HETATM   12  H   UNL     1     -10.910  18.796  68.247  1.00  0.00     0.000 HD 
ENDROOT
BRANCH   5  13
HETATM   13  C   UNL     1     -12.075  12.415  70.094  1.00  0.00    -0.366 C  
BRANCH  13  14
HETATM   14  C   UNL     1     -11.876  11.825  68.704  1.00  0.00    -0.369 C  
BRANCH  14  15
HETATM   15  C   UNL     1     -10.945  10.615  68.757  1.00  0.00    -0.292 C  
BRANCH  15  16
HETATM   16  C   UNL     1      -9.791  10.798  67.777  1.00  0.00    -0.186 C  
BRANCH  16  17
HETATM   17  C   UNL     1     -10.135  11.824  66.703  1.00  0.00    -0.231 C  
BRANCH  17  18
HETATM   18  C   UNL     1     -10.015  11.212  65.311  1.00  0.00    -0.311 C  
HETATM   19  O   UNL     1     -10.105  11.709  62.988  1.00  0.00    -0.370 OA 
HETATM   20  C   UNL     1     -10.211  12.243  64.227  1.00  0.00    -0.330 C  
HETATM   21  O   UNL     1     -10.443  13.428  64.408  1.00  0.00    -0.426 OA 
ENDBRANCH  17  18
ENDBRANCH  16  17
ENDBRANCH  15  16
ENDBRANCH  14  15
ENDBRANCH  13  14
ENDBRANCH   5  13
BRANCH   6  22
HETATM   22  C   UNL     1      -8.757  17.345  67.777  1.00  0.00    -0.232 C  
HETATM   23  F   UNL     1      -8.534  17.210  66.434  1.00  0.00    -0.237 F  
HETATM   24  F   UNL     1      -8.567  18.667  68.053  1.00  0.00    -0.280 F  
BRANCH  22  25
HETATM   25  C   UNL     1      -7.721  16.516  68.525  1.00  0.00    -0.204 C  
BRANCH  25  26
HETATM   26  C   UNL     1      -6.783  15.799  67.552  1.00  0.00    -0.220 C  
BRANCH  26  27
HETATM   27  C   UNL     1      -7.118  14.312  67.459  1.00  0.00    -0.189 C  
HETATM   28  C   UNL     1      -7.907  13.848  68.670  1.00  0.00    -0.120 C  
ENDBRANCH  26  27
ENDBRANCH  25  26
ENDBRANCH  22  25
ENDBRANCH   6  22
TORSDOF 10
ENDMDL
MODEL       55
REMARK 921   NORMALIZED FREE ENERGY PREDICTED BY IDOCK:   -5.34 KCAL/MOL
REMARK 922        TOTAL FREE ENERGY PREDICTED BY IDOCK:  -10.24 KCAL/MOL
REMARK 923 INTER-LIGAND FREE ENERGY PREDICTED BY IDOCK:   -8.47 KCAL/MOL
REMARK 924 INTRA-LIGAND FREE ENERGY PREDICTED BY IDOCK:   -1.77 KCAL/MOL
REMARK 927      BINDING AFFINITY PREDICTED BY RF-SCORE:    0.00 PKD
ROOT
HETATM    1  C   UNL     1     -12.325  10.904  70.014  1.00  0.00    -0.313 C  
HETATM    2  C   UNL     1     -12.976  10.919  71.384  1.00  0.00    -0.527 C  
HETATM    3  C   UNL     1     -12.585   9.555  71.895  1.00  0.00    -0.396 C  
HETATM    4  O   UNL     1     -13.167   9.012  72.825  1.00  0.00    -0.403 OA 
HETATM    5  C   UNL     1     -11.428   8.936  71.114  1.00  0.00    -0.364 C  
HETATM    6  C   UNL     1     -11.266  12.213  68.310  1.00  0.00    -0.268 C  
HETATM    7  C   UNL     1     -11.044  10.117  70.226  1.00  0.00    -0.384 C  
HETATM    8  C   UNL     1     -10.455   9.813  68.861  1.00  0.00    -0.233 C  
HETATM    9  O   UNL     1     -11.966  12.198  69.570  1.00  0.00    -0.302 OA 
HETATM   10  C   UNL     1     -10.127  11.156  68.204  1.00  0.00    -0.193 C  
HETATM   11  O   UNL     1     -12.233  11.987  67.277  1.00  0.00    -0.496 OA 
HETATM   12  H   UNL     1     -12.928  12.632  67.342  1.00  0.00     0.000 HD 
ENDROOT
BRANCH   5  13
HETATM   13  C   UNL     1     -10.225   8.539  71.970  1.00  0.00    -0.391 C  
BRANCH  13  14
HETATM   14  C   UNL     1      -9.811   7.082  71.820  1.00  0.00    -0.169 C  
BRANCH  14  15
HETATM   15  C   UNL     1     -10.997   6.223  71.386  1.00  0.00    -0.327 C  
BRANCH  15  16
HETATM   16  C   UNL     1     -10.617   5.379  70.174  1.00  0.00    -0.344 C  
BRANCH  16  17
HETATM   17  C   UNL     1     -11.008   6.072  68.873  1.00  0.00    -0.395 C  
BRANCH  17  18
HETATM   18  C   UNL     1      -9.772   6.393  68.037  1.00  0.00    -0.122 C  
HETATM   19  O   UNL     1      -8.789   6.116  65.890  1.00  0.00    -0.153 OA 
HETATM   20  C   UNL     1      -9.881   5.835  66.639  1.00  0.00    -0.165 C  
HETATM   21  O   UNL     1     -10.825   5.197  66.201  1.00  0.00    -0.282 OA 
ENDBRANCH  17  18
ENDBRANCH  16  17
ENDBRANCH  15  16
ENDBRANCH  14  15
ENDBRANCH  13  14
ENDBRANCH   5  13
BRANCH   6  22
HETATM   22  C   UNL     1     -10.621  13.629  68.147  1.00  0.00    -0.247 C  
HETATM   23  F   UNL     1     -10.387  14.157  69.387  1.00  0.00    -0.195 F  
HETATM   24  F   UNL     1      -9.397  13.509  67.558  1.00  0.00    -0.194 F  
BRANCH  22  25
HETATM   25  C   UNL     1     -11.471  14.614  67.354  1.00  0.00    -0.384 C  
BRANCH  25  26
HETATM   26  C   UNL     1     -10.599  15.503  66.466  1.00  0.00    -0.307 C  
BRANCH  26  27
HETATM   27  C   UNL     1     -10.830  15.201  64.988  1.00  0.00    -0.457 C  
HETATM   28  C   UNL     1     -12.042  14.308  64.791  1.00  0.00    -0.457 C  
ENDBRANCH  26  27
ENDBRANCH  25  26
ENDBRANCH  22  25
ENDBRANCH   6  22
TORSDOF 10
ENDMDL
MODEL       56
REMARK 921   NORMALIZED FREE ENERGY PREDICTED BY IDOCK:   -5.33 KCAL/MOL
REMARK 922        TOTAL FREE ENERGY PREDICTED BY IDOCK:  -10.23 KCAL/MOL
REMARK 923 INTER-LIGAND FREE ENERGY PREDICTED BY IDOCK:   -8.08 KCAL/MOL
REMARK 924 INTRA-LIGAND FREE ENERGY PREDICTED BY IDOCK:   -2.14 KCAL/MOL
REMARK 927      BINDING AFFINITY PREDICTED BY RF-SCORE:    0.00 PKD
ROOT
HETATM    1  C   UNL     1     -10.540  17.169  67.651  1.00  0.00    -0.343 C  
HETATM    2  C   UNL     1     -10.315  18.354  66.732  1.00  0.00    -0.420 C  
HETATM    3  C   UNL     1      -9.148  19.021  67.414  1.00  0.00    -0.293 C  
HETATM    4  O   UNL     1      -8.845  20.188  67.204  1.00  0.00    -0.329 OA 
HETATM    5  C   UNL     1      -8.428  18.099  68.396  1.00  0.00    -0.311 C  
HETATM    6  C   UNL     1     -11.243  14.883  67.800  1.00  0.00    -0.321 C  
HETATM    7  C   UNL     1      -9.142  16.783  68.100  1.00  0.00    -0.227 C  
HETATM    8  C   UNL     1      -9.279  15.783  69.232  1.00  0.00    -0.266 C  
HETATM    9  O   UNL     1     -11.097  16.057  66.976  1.00  0.00    -0.222 OA 
HETATM   10  C   UNL     1      -9.989  14.553  68.663  1.00  0.00    -0.237 C  
HETATM   11  O   UNL     1     -12.375  15.095  68.653  1.00  0.00    -0.583 OA 
HETATM   12  H   UNL     1     -13.140  15.296  68.127  1.00  0.00     0.000 HD 
ENDROOT
BRANCH   5  13
HETATM   13  C   UNL     1      -6.932  17.930  68.127  1.00  0.00    -0.218 C  
BRANCH  13  14
HETATM   14  C   UNL     1      -6.059  18.070  69.366  1.00  0.00    -0.245 C  
BRANCH  14  15
HETATM   15  C   UNL     1      -5.710  16.700  69.941  1.00  0.00    -0.213 C  
BRANCH  15  16
HETATM   16  C   UNL     1      -5.405  15.720  68.813  1.00  0.00    -0.104 C  
BRANCH  16  17
HETATM   17  C   UNL     1      -6.057  14.365  69.065  1.00  0.00    -0.091 C  
BRANCH  17  18
HETATM   18  C   UNL     1      -6.311  13.632  67.751  1.00  0.00    -0.172 C  
HETATM   19  O   UNL     1      -7.076  11.583  66.819  1.00  0.00    -0.141 OA 
HETATM   20  C   UNL     1      -6.846  12.240  67.980  1.00  0.00    -0.082 C  
HETATM   21  O   UNL     1      -7.057  11.731  69.070  1.00  0.00    -0.107 OA 
ENDBRANCH  17  18
ENDBRANCH  16  17
ENDBRANCH  15  16
ENDBRANCH  14  15
ENDBRANCH  13  14
ENDBRANCH   5  13
BRANCH   6  22
HETATM   22  C   UNL     1     -11.503  13.670  66.848  1.00  0.00    -0.345 C  
HETATM   23  F   UNL     1     -10.301  13.159  66.441  1.00  0.00    -0.267 F  
HETATM   24  F   UNL     1     -12.115  12.668  67.541  1.00  0.00    -0.411 F  
BRANCH  22  25
HETATM   25  C   UNL     1     -12.327  14.010  65.613  1.00  0.00    -0.502 C  
BRANCH  25  26
HETATM   26  C   UNL     1     -12.639  12.755  64.796  1.00  0.00    -0.518 C  
BRANCH  26  27
HETATM   27  C   UNL     1     -11.852  12.739  63.489  1.00  0.00    -0.618 C  
HETATM   28  C   UNL     1     -10.855  11.594  63.460  1.00  0.00    -0.497 C  
ENDBRANCH  26  27
ENDBRANCH  25  26
ENDBRANCH  22  25
ENDBRANCH   6  22
TORSDOF 10
ENDMDL
MODEL       57
REMARK 921   NORMALIZED FREE ENERGY PREDICTED BY IDOCK:   -5.32 KCAL/MOL
REMARK 922        TOTAL FREE ENERGY PREDICTED BY IDOCK:  -10.21 KCAL/MOL
REMARK 923 INTER-LIGAND FREE ENERGY PREDICTED BY IDOCK:   -9.10 KCAL/MOL
REMARK 924 INTRA-LIGAND FREE ENERGY PREDICTED BY IDOCK:   -1.11 KCAL/MOL
REMARK 927      BINDING AFFINITY PREDICTED BY RF-SCORE:    0.00 PKD
ROOT
HETATM    1  C   UNL     1     -11.238  16.138  69.300  1.00  0.00    -0.337 C  
HETATM    2  C   UNL     1     -11.423  15.742  70.753  1.00  0.00    -0.423 C  
HETATM    3  C   UNL     1     -12.050  14.380  70.595  1.00  0.00    -0.334 C  
HETATM    4  O   UNL     1     -12.667  13.833  71.500  1.00  0.00    -0.343 OA 
HETATM    5  C   UNL     1     -11.854  13.794  69.198  1.00  0.00    -0.398 C  
HETATM    6  C   UNL     1      -9.886  17.344  67.733  1.00  0.00    -0.283 C  
HETATM    7  C   UNL     1     -10.904  14.830  68.604  1.00  0.00    -0.257 C  
HETATM    8  C   UNL     1     -10.968  15.072  67.108  1.00  0.00    -0.329 C  
HETATM    9  O   UNL     1     -10.145  17.016  69.112  1.00  0.00    -0.283 OA 
HETATM   10  C   UNL     1      -9.899  16.115  66.775  1.00  0.00    -0.255 C  
HETATM   11  O   UNL     1     -10.882  18.288  67.321  1.00  0.00    -0.373 OA 
HETATM   12  H   UNL     1     -10.874  19.038  67.905  1.00  0.00     0.000 HD 
ENDROOT
BRANCH   5  13
HETATM   13  C   UNL     1     -11.179  12.421  69.175  1.00  0.00    -0.295 C  
BRANCH  13  14
HETATM   14  C   UNL     1     -12.153  11.251  69.172  1.00  0.00    -0.348 C  
BRANCH  14  15
HETATM   15  C   UNL     1     -12.134  10.527  70.516  1.00  0.00    -0.437 C  
BRANCH  15  16
HETATM   16  C   UNL     1     -10.811   9.789  70.696  1.00  0.00    -0.396 C  
BRANCH  16  17
HETATM   17  C   UNL     1     -10.889   8.783  71.838  1.00  0.00    -0.431 C  
BRANCH  17  18
HETATM   18  C   UNL     1     -12.336   8.378  72.105  1.00  0.00    -0.426 C  
HETATM   19  O   UNL     1     -14.003   6.770  71.568  1.00  0.00    -0.192 OA 
HETATM   20  C   UNL     1     -12.721   7.138  71.336  1.00  0.00    -0.391 C  
HETATM   21  O   UNL     1     -11.991   6.515  70.582  1.00  0.00    -0.386 OA 
ENDBRANCH  17  18
ENDBRANCH  16  17
ENDBRANCH  15  16
ENDBRANCH  14  15
ENDBRANCH  13  14
ENDBRANCH   5  13
BRANCH   6  22
HETATM   22  C   UNL     1      -8.464  17.991  67.662  1.00  0.00    -0.239 C  
HETATM   23  F   UNL     1      -7.579  17.195  68.337  1.00  0.00    -0.192 F  
HETATM   24  F   UNL     1      -8.034  18.010  66.369  1.00  0.00    -0.247 F  
BRANCH  22  25
HETATM   25  C   UNL     1      -8.389  19.398  68.243  1.00  0.00    -0.379 C  
BRANCH  25  26
HETATM   26  C   UNL     1      -7.130  19.576  69.093  1.00  0.00    -0.392 C  
BRANCH  26  27
HETATM   27  C   UNL     1      -6.027  20.276  68.304  1.00  0.00    -0.304 C  
HETATM   28  C   UNL     1      -6.606  21.192  67.240  1.00  0.00    -0.429 C  
ENDBRANCH  26  27
ENDBRANCH  25  26
ENDBRANCH  22  25
ENDBRANCH   6  22
TORSDOF 10
ENDMDL
MODEL       58
REMARK 921   NORMALIZED FREE ENERGY PREDICTED BY IDOCK:   -5.32 KCAL/MOL
REMARK 922        TOTAL FREE ENERGY PREDICTED BY IDOCK:  -10.20 KCAL/MOL
REMARK 923 INTER-LIGAND FREE ENERGY PREDICTED BY IDOCK:   -8.77 KCAL/MOL
REMARK 924 INTRA-LIGAND FREE ENERGY PREDICTED BY IDOCK:   -1.42 KCAL/MOL
REMARK 927      BINDING AFFINITY PREDICTED BY RF-SCORE:    0.00 PKD
ROOT
HETATM    1  C   UNL     1     -11.099   8.934  68.740  1.00  0.00     0.223 C  
HETATM    2  C   UNL     1     -10.140   8.922  67.564  1.00  0.00    -0.285 C  
HETATM    3  C   UNL     1     -10.380  10.295  66.992  1.00  0.00    -0.243 C  
HETATM    4  O   UNL     1     -10.064  10.594  65.848  1.00  0.00    -0.241 OA 
HETATM    5  C   UNL     1     -11.076  11.235  67.975  1.00  0.00    -0.325 C  
HETATM    6  C   UNL     1     -11.508   8.157  70.969  1.00  0.00    -0.279 C  
HETATM    7  C   UNL     1     -11.057  10.369  69.231  1.00  0.00    -0.303 C  
HETATM    8  C   UNL     1     -12.183  10.549  70.231  1.00  0.00    -0.393 C  
HETATM    9  O   UNL     1     -10.667   8.103  69.800  1.00  0.00    -0.245 OA 
HETATM   10  C   UNL     1     -11.904   9.601  71.400  1.00  0.00    -0.484 C  
HETATM   11  O   UNL     1     -12.690   7.398  70.684  1.00  0.00    -0.576 OA 
HETATM   12  H   UNL     1     -12.448   6.517  70.422  1.00  0.00     0.000 HD 
ENDROOT
BRANCH   5  13
HETATM   13  C   UNL     1     -10.322  12.537  68.250  1.00  0.00    -0.241 C  
BRANCH  13  14
HETATM   14  C   UNL     1     -11.225  13.727  68.546  1.00  0.00    -0.304 C  
BRANCH  14  15
HETATM   15  C   UNL     1     -11.812  14.296  67.256  1.00  0.00    -0.444 C  
BRANCH  15  16
HETATM   16  C   UNL     1     -10.725  15.002  66.453  1.00  0.00    -0.322 C  
BRANCH  16  17
HETATM   17  C   UNL     1     -11.040  14.983  64.961  1.00  0.00    -0.421 C  
BRANCH  17  18
HETATM   18  C   UNL     1     -12.282  14.143  64.680  1.00  0.00    -0.465 C  
HETATM   19  O   UNL     1     -13.048  12.154  63.627  1.00  0.00    -0.787 OA 
HETATM   20  C   UNL     1     -11.952  12.907  63.879  1.00  0.00    -0.480 C  
HETATM   21  O   UNL     1     -10.840  12.593  63.485  1.00  0.00    -0.429 OA 
ENDBRANCH  17  18
ENDBRANCH  16  17
ENDBRANCH  15  16
ENDBRANCH  14  15
ENDBRANCH  13  14
ENDBRANCH   5  13
BRANCH   6  22
HETATM   22  C   UNL     1     -10.717   7.505  72.149  1.00  0.00    -0.234 C  
HETATM   23  F   UNL     1     -11.383   7.749  73.319  1.00  0.00    -0.448 F  
HETATM   24  F   UNL     1     -10.711   6.150  72.003  1.00  0.00    -0.234 F  
BRANCH  22  25
HETATM   25  C   UNL     1      -9.286   8.007  72.294  1.00  0.00    -0.243 C  
BRANCH  25  26
HETATM   26  C   UNL     1      -8.817   7.923  73.748  1.00  0.00    -0.332 C  
BRANCH  26  27
HETATM   27  C   UNL     1      -8.004   6.654  73.992  1.00  0.00    -0.122 C  
HETATM   28  C   UNL     1      -8.879   5.531  74.520  1.00  0.00    -0.117 C  
ENDBRANCH  26  27
ENDBRANCH  25  26
ENDBRANCH  22  25
ENDBRANCH   6  22
TORSDOF 10
ENDMDL
MODEL       59
REMARK 921   NORMALIZED FREE ENERGY PREDICTED BY IDOCK:   -5.31 KCAL/MOL
REMARK 922        TOTAL FREE ENERGY PREDICTED BY IDOCK:  -10.18 KCAL/MOL
REMARK 923 INTER-LIGAND FREE ENERGY PREDICTED BY IDOCK:   -8.78 KCAL/MOL
REMARK 924 INTRA-LIGAND FREE ENERGY PREDICTED BY IDOCK:   -1.40 KCAL/MOL
REMARK 927      BINDING AFFINITY PREDICTED BY RF-SCORE:    0.00 PKD
ROOT
HETATM    1  C   UNL     1     -11.856  12.788  67.898  1.00  0.00    -0.339 C  
HETATM    2  C   UNL     1     -11.817  12.753  69.414  1.00  0.00    -0.359 C  
HETATM    3  C   UNL     1     -11.479  11.304  69.654  1.00  0.00    -0.309 C  
HETATM    4  O   UNL     1     -11.670  10.755  70.731  1.00  0.00    -0.328 OA 
HETATM    5  C   UNL     1     -10.914  10.612  68.414  1.00  0.00    -0.303 C  
HETATM    6  C   UNL     1     -11.458  14.104  65.936  1.00  0.00    -0.338 C  
HETATM    7  C   UNL     1     -10.769  11.812  67.482  1.00  0.00    -0.262 C  
HETATM    8  C   UNL     1     -10.910  11.570  65.991  1.00  0.00    -0.330 C  
HETATM    9  O   UNL     1     -11.517  14.058  67.375  1.00  0.00    -0.312 OA 
HETATM   10  C   UNL     1     -10.684  12.914  65.294  1.00  0.00    -0.318 C  
HETATM   11  O   UNL     1     -12.806  14.121  65.451  1.00  0.00    -0.637 OA 
HETATM   12  H   UNL     1     -13.278  14.847  65.842  1.00  0.00     0.000 HD 
ENDROOT
BRANCH   5  13
HETATM   13  C   UNL     1      -9.543   9.965  68.618  1.00  0.00    -0.159 C  
BRANCH  13  14
HETATM   14  C   UNL     1      -9.302   8.737  67.751  1.00  0.00    -0.157 C  
BRANCH  14  15
HETATM   15  C   UNL     1     -10.508   7.801  67.790  1.00  0.00    -0.277 C  
BRANCH  15  16
HETATM   16  C   UNL     1     -10.182   6.561  68.617  1.00  0.00    -0.192 C  
BRANCH  16  17
HETATM   17  C   UNL     1     -11.337   6.194  69.542  1.00  0.00    -0.426 C  
BRANCH  17  18
HETATM   18  C   UNL     1     -11.624   7.324  70.526  1.00  0.00    -0.292 C  
HETATM   19  O   UNL     1     -11.402   7.983  72.799  1.00  0.00    -0.394 OA 
HETATM   20  C   UNL     1     -11.153   6.985  71.920  1.00  0.00    -0.242 C  
HETATM   21  O   UNL     1     -10.612   5.943  72.252  1.00  0.00    -0.202 OA 
ENDBRANCH  17  18
ENDBRANCH  16  17
ENDBRANCH  15  16
ENDBRANCH  14  15
ENDBRANCH  13  14
ENDBRANCH   5  13
BRANCH   6  22
HETATM   22  C   UNL     1     -10.722  15.424  65.537  1.00  0.00    -0.384 C  
HETATM   23  F   UNL     1      -9.447  15.122  65.146  1.00  0.00    -0.258 F  
HETATM   24  F   UNL     1     -11.325  15.971  64.443  1.00  0.00    -0.468 F  
BRANCH  22  25
HETATM   25  C   UNL     1     -10.654  16.462  66.650  1.00  0.00    -0.239 C  
BRANCH  25  26
HETATM   26  C   UNL     1     -10.216  17.824  66.108  1.00  0.00    -0.339 C  
BRANCH  26  27
HETATM   27  C   UNL     1     -10.611  18.949  67.060  1.00  0.00    -0.510 C  
HETATM   28  C   UNL     1      -9.412  19.460  67.839  1.00  0.00    -0.407 C  
ENDBRANCH  26  27
ENDBRANCH  25  26
ENDBRANCH  22  25
ENDBRANCH   6  22
TORSDOF 10
ENDMDL
MODEL       60
REMARK 921   NORMALIZED FREE ENERGY PREDICTED BY IDOCK:   -5.30 KCAL/MOL
REMARK 922        TOTAL FREE ENERGY PREDICTED BY IDOCK:  -10.17 KCAL/MOL
REMARK 923 INTER-LIGAND FREE ENERGY PREDICTED BY IDOCK:   -8.61 KCAL/MOL
REMARK 924 INTRA-LIGAND FREE ENERGY PREDICTED BY IDOCK:   -1.57 KCAL/MOL
REMARK 927      BINDING AFFINITY PREDICTED BY RF-SCORE:    0.00 PKD
ROOT
HETATM    1  C   UNL     1     -11.903  12.256  66.324  1.00  0.00    -0.317 C  
HETATM    2  C   UNL     1     -11.867  12.466  64.822  1.00  0.00    -0.442 C  
HETATM    3  C   UNL     1     -12.133  13.947  64.738  1.00  0.00    -0.419 C  
HETATM    4  O   UNL     1     -12.517  14.488  63.710  1.00  0.00    -0.809 OA 
HETATM    5  C   UNL     1     -11.902  14.668  66.065  1.00  0.00    -0.280 C  
HETATM    6  C   UNL     1     -11.031  11.002  68.170  1.00  0.00    -0.247 C  
HETATM    7  C   UNL     1     -11.299  13.530  66.886  1.00  0.00    -0.350 C  
HETATM    8  C   UNL     1     -11.539  13.535  68.383  1.00  0.00    -0.378 C  
HETATM    9  O   UNL     1     -11.090  11.175  66.740  1.00  0.00    -0.278 OA 
HETATM   10  C   UNL     1     -10.802  12.324  68.961  1.00  0.00    -0.197 C  
HETATM   11  O   UNL     1     -12.265  10.401  68.582  1.00  0.00    -0.750 OA 
HETATM   12  H   UNL     1     -12.405   9.594  68.099  1.00  0.00     0.000 HD 
ENDROOT
BRANCH   5  13
HETATM   13  C   UNL     1     -10.901  15.822  65.994  1.00  0.00    -0.256 C  
BRANCH  13  14
HETATM   14  C   UNL     1      -9.448  15.393  66.141  1.00  0.00    -0.371 C  
BRANCH  14  15
HETATM   15  C   UNL     1      -8.832  15.988  67.405  1.00  0.00    -0.197 C  
BRANCH  15  16
HETATM   16  C   UNL     1      -9.910  16.669  68.243  1.00  0.00    -0.253 C  
BRANCH  16  17
HETATM   17  C   UNL     1      -9.623  18.157  68.409  1.00  0.00    -0.345 C  
BRANCH  17  18
HETATM   18  C   UNL     1     -10.528  18.988  67.505  1.00  0.00    -0.537 C  
HETATM   19  O   UNL     1     -10.670  20.021  65.368  1.00  0.00    -0.388 OA 
HETATM   20  C   UNL     1      -9.873  19.286  66.178  1.00  0.00    -0.367 C  
HETATM   21  O   UNL     1      -8.756  18.924  65.841  1.00  0.00    -0.464 OA 
ENDBRANCH  17  18
ENDBRANCH  16  17
ENDBRANCH  15  16
ENDBRANCH  14  15
ENDBRANCH  13  14
ENDBRANCH   5  13
BRANCH   6  22
HETATM   22  C   UNL     1      -9.834  10.045  68.479  1.00  0.00    -0.156 C  
HETATM   23  F   UNL     1      -9.440  10.231  69.776  1.00  0.00    -0.220 F  
HETATM   24  F   UNL     1     -10.251   8.750  68.401  1.00  0.00    -0.186 F  
BRANCH  22  25
HETATM   25  C   UNL     1      -8.625  10.245  67.573  1.00  0.00    -0.118 C  
BRANCH  25  26
HETATM   26  C   UNL     1      -7.577  11.137  68.242  1.00  0.00    -0.111 C  
BRANCH  26  27
HETATM   27  C   UNL     1      -6.175  10.816  67.732  1.00  0.00    -0.047 C  
HETATM   28  C   UNL     1      -6.134  10.787  66.214  1.00  0.00    -0.126 C  
ENDBRANCH  26  27
ENDBRANCH  25  26
ENDBRANCH  22  25
ENDBRANCH   6  22
TORSDOF 10
ENDMDL
MODEL       61
REMARK 921   NORMALIZED FREE ENERGY PREDICTED BY IDOCK:   -5.30 KCAL/MOL
REMARK 922        TOTAL FREE ENERGY PREDICTED BY IDOCK:  -10.17 KCAL/MOL
REMARK 923 INTER-LIGAND FREE ENERGY PREDICTED BY IDOCK:   -7.75 KCAL/MOL
REMARK 924 INTRA-LIGAND FREE ENERGY PREDICTED BY IDOCK:   -2.41 KCAL/MOL
REMARK 927      BINDING AFFINITY PREDICTED BY RF-SCORE:    0.00 PKD
ROOT
HETATM    1  C   UNL     1     -12.262  13.533  67.946  1.00  0.00    -0.133 C  
HETATM    2  C   UNL     1     -12.143  13.785  69.437  1.00  0.00    -0.377 C  
HETATM    3  C   UNL     1     -12.000  12.376  69.950  1.00  0.00    -0.299 C  
HETATM    4  O   UNL     1     -12.206  12.079  71.120  1.00  0.00    -0.256 OA 
HETATM    5  C   UNL     1     -11.609  11.382  68.858  1.00  0.00    -0.388 C  
HETATM    6  C   UNL     1     -11.793  14.373  65.752  1.00  0.00    -0.364 C  
HETATM    7  C   UNL     1     -11.348  12.345  67.702  1.00  0.00    -0.371 C  
HETATM    8  C   UNL     1     -11.606  11.845  66.294  1.00  0.00    -0.317 C  
HETATM    9  O   UNL     1     -11.777  14.614  67.173  1.00  0.00    -0.378 OA 
HETATM   10  C   UNL     1     -11.232  12.980  65.337  1.00  0.00    -0.317 C  
HETATM   11  O   UNL     1     -13.151  14.498  65.310  1.00  0.00    -0.524 OA 
HETATM   12  H   UNL     1     -13.493  15.347  65.562  1.00  0.00     0.000 HD 
ENDROOT
BRANCH   5  13
HETATM   13  C   UNL     1     -10.333  10.589  69.148  1.00  0.00    -0.240 C  
BRANCH  13  14
HETATM   14  C   UNL     1     -10.450   9.099  68.860  1.00  0.00    -0.239 C  
BRANCH  14  15
HETATM   15  C   UNL     1      -9.953   8.779  67.452  1.00  0.00    -0.267 C  
BRANCH  15  16
HETATM   16  C   UNL     1      -8.518   9.268  67.279  1.00  0.00    -0.125 C  
BRANCH  16  17
HETATM   17  C   UNL     1      -8.382  10.160  66.050  1.00  0.00    -0.130 C  
BRANCH  17  18
HETATM   18  C   UNL     1      -9.198   9.607  64.886  1.00  0.00    -0.306 C  
HETATM   19  O   UNL     1      -9.258   9.401  62.519  1.00  0.00    -0.243 OA 
HETATM   20  C   UNL     1      -8.542   9.890  63.557  1.00  0.00    -0.199 C  
HETATM   21  O   UNL     1      -7.490  10.489  63.399  1.00  0.00    -0.091 OA 
ENDBRANCH  17  18
ENDBRANCH  16  17
ENDBRANCH  15  16
ENDBRANCH  14  15
ENDBRANCH  13  14
ENDBRANCH   5  13
BRANCH   6  22
HETATM   22  C   UNL     1     -10.903  15.467  65.078  1.00  0.00    -0.450 C  
HETATM   23  F   UNL     1      -9.917  14.855  64.354  1.00  0.00    -0.130 F  
HETATM   24  F   UNL     1     -11.644  16.169  64.175  1.00  0.00    -0.511 F  
BRANCH  22  25
HETATM   25  C   UNL     1     -10.252  16.434  66.060  1.00  0.00    -0.373 C  
BRANCH  25  26
HETATM   26  C   UNL     1      -8.806  16.029  66.355  1.00  0.00    -0.363 C  
BRANCH  26  27
HETATM   27  C   UNL     1      -8.735  15.061  67.533  1.00  0.00    -0.194 C  
HETATM   28  C   UNL     1      -7.629  14.038  67.340  1.00  0.00    -0.167 C  
ENDBRANCH  26  27
ENDBRANCH  25  26
ENDBRANCH  22  25
ENDBRANCH   6  22
TORSDOF 10
ENDMDL
MODEL       62
REMARK 921   NORMALIZED FREE ENERGY PREDICTED BY IDOCK:   -5.29 KCAL/MOL
REMARK 922        TOTAL FREE ENERGY PREDICTED BY IDOCK:  -10.15 KCAL/MOL
REMARK 923 INTER-LIGAND FREE ENERGY PREDICTED BY IDOCK:   -8.64 KCAL/MOL
REMARK 924 INTRA-LIGAND FREE ENERGY PREDICTED BY IDOCK:   -1.51 KCAL/MOL
REMARK 927      BINDING AFFINITY PREDICTED BY RF-SCORE:    0.00 PKD
ROOT
HETATM    1  C   UNL     1     -11.871  15.533  70.361  1.00  0.00    -0.351 C  
HETATM    2  C   UNL     1     -12.072  15.759  71.847  1.00  0.00    -0.548 C  
HETATM    3  C   UNL     1     -13.040  14.650  72.172  1.00  0.00    -0.347 C  
HETATM    4  O   UNL     1     -13.727  14.654  73.185  1.00  0.00    -0.530 OA 
HETATM    5  C   UNL     1     -13.082  13.564  71.098  1.00  0.00    -0.285 C  
HETATM    6  C   UNL     1     -10.340  15.682  68.524  1.00  0.00    -0.219 C  
HETATM    7  C   UNL     1     -11.929  14.023  70.209  1.00  0.00    -0.409 C  
HETATM    8  C   UNL     1     -12.010  13.709  68.728  1.00  0.00    -0.394 C  
HETATM    9  O   UNL     1     -10.599  15.961  69.914  1.00  0.00    -0.286 OA 
HETATM   10  C   UNL     1     -10.726  14.238  68.084  1.00  0.00    -0.249 C  
HETATM   11  O   UNL     1     -11.076  16.636  67.749  1.00  0.00    -0.279 OA 
HETATM   12  H   UNL     1     -10.841  17.517  68.017  1.00  0.00     0.000 HD 
ENDROOT
BRANCH   5  13
HETATM   13  C   UNL     1     -12.791  12.153  71.611  1.00  0.00    -0.390 C  
BRANCH  13  14
HETATM   14  C   UNL     1     -12.622  11.116  70.509  1.00  0.00    -0.360 C  
BRANCH  14  15
HETATM   15  C   UNL     1     -11.427  10.210  70.796  1.00  0.00    -0.442 C  
BRANCH  15  16
HETATM   16  C   UNL     1     -10.448  10.247  69.627  1.00  0.00    -0.286 C  
BRANCH  16  17
HETATM   17  C   UNL     1     -11.183  10.316  68.292  1.00  0.00    -0.295 C  
BRANCH  17  18
HETATM   18  C   UNL     1     -10.194  10.380  67.132  1.00  0.00    -0.271 C  
HETATM   19  O   UNL     1      -9.130   9.079  65.451  1.00  0.00    -0.209 OA 
HETATM   20  C   UNL     1     -10.005   9.031  66.482  1.00  0.00    -0.285 C  
HETATM   21  O   UNL     1     -10.557   7.997  66.822  1.00  0.00    -0.320 OA 
ENDBRANCH  17  18
ENDBRANCH  16  17
ENDBRANCH  15  16
ENDBRANCH  14  15
ENDBRANCH  13  14
ENDBRANCH   5  13
BRANCH   6  22
HETATM   22  C   UNL     1      -8.805  15.860  68.286  1.00  0.00    -0.179 C  
HETATM   23  F   UNL     1      -8.171  15.920  69.497  1.00  0.00    -0.225 F  
HETATM   24  F   UNL     1      -8.307  14.755  67.662  1.00  0.00    -0.136 F  
BRANCH  22  25
HETATM   25  C   UNL     1      -8.438  17.104  67.486  1.00  0.00    -0.206 C  
BRANCH  25  26
HETATM   26  C   UNL     1      -7.950  18.226  68.404  1.00  0.00    -0.320 C  
BRANCH  26  27
HETATM   27  C   UNL     1      -8.915  19.408  68.391  1.00  0.00    -0.403 C  
HETATM   28  C   UNL     1      -8.599  20.365  67.255  1.00  0.00    -0.414 C  
ENDBRANCH  26  27
ENDBRANCH  25  26
ENDBRANCH  22  25
ENDBRANCH   6  22
TORSDOF 10
ENDMDL
MODEL       63
REMARK 921   NORMALIZED FREE ENERGY PREDICTED BY IDOCK:   -5.28 KCAL/MOL
REMARK 922        TOTAL FREE ENERGY PREDICTED BY IDOCK:  -10.14 KCAL/MOL
REMARK 923 INTER-LIGAND FREE ENERGY PREDICTED BY IDOCK:   -8.54 KCAL/MOL
REMARK 924 INTRA-LIGAND FREE ENERGY PREDICTED BY IDOCK:   -1.60 KCAL/MOL
REMARK 927      BINDING AFFINITY PREDICTED BY RF-SCORE:    0.00 PKD
ROOT
HETATM    1  C   UNL     1     -10.830  15.075  65.412  1.00  0.00    -0.364 C  
HETATM    2  C   UNL     1      -9.687  15.937  65.912  1.00  0.00    -0.386 C  
HETATM    3  C   UNL     1     -10.269  16.457  67.201  1.00  0.00    -0.282 C  
HETATM    4  O   UNL     1      -9.824  17.445  67.771  1.00  0.00    -0.267 OA 
HETATM    5  C   UNL     1     -11.468  15.642  67.683  1.00  0.00    -0.167 C  
HETATM    6  C   UNL     1     -11.439  13.105  64.191  1.00  0.00    -0.403 C  
HETATM    7  C   UNL     1     -11.430  14.492  66.679  1.00  0.00    -0.373 C  
HETATM    8  C   UNL     1     -12.745  13.834  66.309  1.00  0.00    -0.258 C  
HETATM    9  O   UNL     1     -10.387  13.996  64.611  1.00  0.00    -0.440 OA 
HETATM   10  C   UNL     1     -12.422  12.702  65.330  1.00  0.00    -0.421 C  
HETATM   11  O   UNL     1     -12.161  13.758  63.139  1.00  0.00    -1.048 OA 
HETATM   12  H   UNL     1     -11.561  14.004  62.444  1.00  0.00     0.000 HD 
ENDROOT
BRANCH   5  13
HETATM   13  C   UNL     1     -11.326  15.079  69.098  1.00  0.00    -0.311 C  
BRANCH  13  14
HETATM   14  C   UNL     1     -12.312  13.966  69.424  1.00  0.00    -0.240 C  
BRANCH  14  15
HETATM   15  C   UNL     1     -11.580  12.726  69.931  1.00  0.00    -0.243 C  
BRANCH  15  16
HETATM   16  C   UNL     1     -12.023  11.497  69.143  1.00  0.00    -0.386 C  
BRANCH  16  17
HETATM   17  C   UNL     1     -10.862  10.534  68.922  1.00  0.00    -0.275 C  
BRANCH  17  18
HETATM   18  C   UNL     1     -10.512   9.801  70.213  1.00  0.00    -0.345 C  
HETATM   19  O   UNL     1      -8.700   9.087  71.577  1.00  0.00    -0.304 OA 
HETATM   20  C   UNL     1      -9.020   9.734  70.432  1.00  0.00    -0.088 C  
HETATM   21  O   UNL     1      -8.172  10.194  69.685  1.00  0.00    -0.162 OA 
ENDBRANCH  17  18
ENDBRANCH  16  17
ENDBRANCH  15  16
ENDBRANCH  14  15
ENDBRANCH  13  14
ENDBRANCH   5  13
BRANCH   6  22
HETATM   22  C   UNL     1     -10.765  11.800  63.656  1.00  0.00    -0.440 C  
HETATM   23  F   UNL     1     -11.683  11.091  62.930  1.00  0.00     0.011 F  
HETATM   24  F   UNL     1      -9.772  12.124  62.780  1.00  0.00    -0.278 F  
BRANCH  22  25
HETATM   25  C   UNL     1     -10.206  10.894  64.746  1.00  0.00    -0.398 C  
BRANCH  25  26
HETATM   26  C   UNL     1      -8.775  10.460  64.420  1.00  0.00    -0.209 C  
BRANCH  26  27
HETATM   27  C   UNL     1      -8.447   9.116  65.065  1.00  0.00    -0.187 C  
HETATM   28  C   UNL     1      -9.514   8.711  66.067  1.00  0.00    -0.278 C  
ENDBRANCH  26  27
ENDBRANCH  25  26
ENDBRANCH  22  25
ENDBRANCH   6  22
TORSDOF 10
ENDMDL
MODEL       64
REMARK 921   NORMALIZED FREE ENERGY PREDICTED BY IDOCK:   -5.27 KCAL/MOL
REMARK 922        TOTAL FREE ENERGY PREDICTED BY IDOCK:  -10.13 KCAL/MOL
REMARK 923 INTER-LIGAND FREE ENERGY PREDICTED BY IDOCK:   -8.94 KCAL/MOL
REMARK 924 INTRA-LIGAND FREE ENERGY PREDICTED BY IDOCK:   -1.19 KCAL/MOL
REMARK 927      BINDING AFFINITY PREDICTED BY RF-SCORE:    0.00 PKD
ROOT
HETATM    1  C   UNL     1     -11.393   9.228  69.061  1.00  0.00     0.289 C  
HETATM    2  C   UNL     1     -10.493   9.502  67.871  1.00  0.00    -0.293 C  
HETATM    3  C   UNL     1     -10.905  10.910  67.525  1.00  0.00    -0.272 C  
HETATM    4  O   UNL     1     -10.675  11.411  66.432  1.00  0.00    -0.258 OA 
HETATM    5  C   UNL     1     -11.653  11.606  68.660  1.00  0.00    -0.373 C  
HETATM    6  C   UNL     1     -11.616   8.083  71.154  1.00  0.00    -0.282 C  
HETATM    7  C   UNL     1     -11.484  10.568  69.767  1.00  0.00    -0.365 C  
HETATM    8  C   UNL     1     -12.577  10.467  70.814  1.00  0.00    -0.474 C  
HETATM    9  O   UNL     1     -10.827   8.301  69.967  1.00  0.00    -0.247 OA 
HETATM   10  C   UNL     1     -12.145   9.392  71.814  1.00  0.00    -0.454 C  
HETATM   11  O   UNL     1     -12.720   7.246  70.788  1.00  0.00    -0.586 OA 
HETATM   12  H   UNL     1     -12.397   6.448  70.386  1.00  0.00     0.000 HD 
ENDROOT
BRANCH   5  13
HETATM   13  C   UNL     1     -11.032  12.929  69.112  1.00  0.00    -0.184 C  
BRANCH  13  14
HETATM   14  C   UNL     1     -12.045  13.955  69.600  1.00  0.00    -0.404 C  
BRANCH  14  15
HETATM   15  C   UNL     1     -11.961  15.235  68.771  1.00  0.00    -0.279 C  
BRANCH  15  16
HETATM   16  C   UNL     1     -10.531  15.455  68.290  1.00  0.00    -0.241 C  
BRANCH  16  17
HETATM   17  C   UNL     1     -10.501  15.922  66.838  1.00  0.00    -0.309 C  
BRANCH  17  18
HETATM   18  C   UNL     1     -11.398  15.045  65.970  1.00  0.00    -0.270 C  
HETATM   19  O   UNL     1     -12.516  14.935  63.874  1.00  0.00    -0.806 OA 
HETATM   20  C   UNL     1     -11.722  15.707  64.652  1.00  0.00    -0.190 C  
HETATM   21  O   UNL     1     -11.333  16.808  64.297  1.00  0.00    -1.170 OA 
ENDBRANCH  17  18
ENDBRANCH  16  17
ENDBRANCH  15  16
ENDBRANCH  14  15
ENDBRANCH  13  14
ENDBRANCH   5  13
BRANCH   6  22
HETATM   22  C   UNL     1     -10.707   7.355  72.197  1.00  0.00    -0.225 C  
HETATM   23  F   UNL     1      -9.512   7.047  71.606  1.00  0.00    -0.156 F  
HETATM   24  F   UNL     1     -10.407   8.208  73.217  1.00  0.00    -0.386 F  
BRANCH  22  25
HETATM   25  C   UNL     1     -11.309   6.076  72.765  1.00  0.00    -0.282 C  
BRANCH  25  26
HETATM   26  C   UNL     1     -10.401   4.874  72.499  1.00  0.00    -0.256 C  
BRANCH  26  27
HETATM   27  C   UNL     1     -10.940   3.616  73.175  1.00  0.00    -0.228 C  
HETATM   28  C   UNL     1     -10.332   3.427  74.553  1.00  0.00    -0.243 C  
ENDBRANCH  26  27
ENDBRANCH  25  26
ENDBRANCH  22  25
ENDBRANCH   6  22
TORSDOF 10
ENDMDL
MODEL       65
REMARK 921   NORMALIZED FREE ENERGY PREDICTED BY IDOCK:   -5.27 KCAL/MOL
REMARK 922        TOTAL FREE ENERGY PREDICTED BY IDOCK:  -10.13 KCAL/MOL
REMARK 923 INTER-LIGAND FREE ENERGY PREDICTED BY IDOCK:   -8.46 KCAL/MOL
REMARK 924 INTRA-LIGAND FREE ENERGY PREDICTED BY IDOCK:   -1.67 KCAL/MOL
REMARK 927      BINDING AFFINITY PREDICTED BY RF-SCORE:    0.00 PKD
ROOT
HETATM    1  C   UNL     1     -12.187  13.879  69.342  1.00  0.00    -0.292 C  
HETATM    2  C   UNL     1     -12.350  14.338  70.778  1.00  0.00    -0.427 C  
HETATM    3  C   UNL     1     -12.944  13.102  71.403  1.00  0.00    -0.298 C  
HETATM    4  O   UNL     1     -13.540  13.129  72.472  1.00  0.00    -0.579 OA 
HETATM    5  C   UNL     1     -12.745  11.851  70.550  1.00  0.00    -0.105 C  
HETATM    6  C   UNL     1     -10.878  14.054  67.342  1.00  0.00    -0.282 C  
HETATM    7  C   UNL     1     -11.826  12.409  69.467  1.00  0.00    -0.368 C  
HETATM    8  C   UNL     1     -11.908  11.793  68.083  1.00  0.00    -0.324 C  
HETATM    9  O   UNL     1     -11.118  14.529  68.682  1.00  0.00    -0.237 OA 
HETATM   10  C   UNL     1     -10.868  12.501  67.212  1.00  0.00    -0.277 C  
HETATM   11  O   UNL     1     -11.900  14.602  66.502  1.00  0.00    -0.373 OA 
HETATM   12  H   UNL     1     -11.906  15.549  66.581  1.00  0.00     0.000 HD 
ENDROOT
BRANCH   5  13
HETATM   13  C   UNL     1     -12.036  10.700  71.267  1.00  0.00    -0.401 C  
BRANCH  13  14
HETATM   14  C   UNL     1     -12.968   9.585  71.722  1.00  0.00    -0.502 C  
BRANCH  14  15
HETATM   15  C   UNL     1     -12.170   8.385  72.227  1.00  0.00    -0.449 C  
BRANCH  15  16
HETATM   16  C   UNL     1     -12.168   7.278  71.179  1.00  0.00    -0.376 C  
BRANCH  16  17
HETATM   17  C   UNL     1     -10.761   7.016  70.653  1.00  0.00    -0.255 C  
BRANCH  17  18
HETATM   18  C   UNL     1     -10.480   7.860  69.413  1.00  0.00    -0.222 C  
HETATM   19  O   UNL     1      -9.205   9.691  68.594  1.00  0.00    -0.133 OA 
HETATM   20  C   UNL     1      -9.462   8.939  69.689  1.00  0.00    -0.168 C  
HETATM   21  O   UNL     1      -8.915   9.141  70.762  1.00  0.00    -0.209 OA 
ENDBRANCH  17  18
ENDBRANCH  16  17
ENDBRANCH  15  16
ENDBRANCH  14  15
ENDBRANCH  13  14
ENDBRANCH   5  13
BRANCH   6  22
HETATM   22  C   UNL     1      -9.474  14.580  66.901  1.00  0.00    -0.252 C  
HETATM   23  F   UNL     1      -8.564  13.563  67.004  1.00  0.00    -0.196 F  
HETATM   24  F   UNL     1      -9.505  14.915  65.579  1.00  0.00    -0.345 F  
BRANCH  22  25
HETATM   25  C   UNL     1      -8.968  15.766  67.712  1.00  0.00    -0.176 C  
BRANCH  25  26
HETATM   26  C   UNL     1      -9.332  17.090  67.038  1.00  0.00    -0.249 C  
BRANCH  26  27
HETATM   27  C   UNL     1     -10.468  17.791  67.780  1.00  0.00    -0.402 C  
HETATM   28  C   UNL     1     -10.775  19.145  67.165  1.00  0.00    -0.567 C  
ENDBRANCH  26  27
ENDBRANCH  25  26
ENDBRANCH  22  25
ENDBRANCH   6  22
TORSDOF 10
ENDMDL
MODEL       66
REMARK 921   NORMALIZED FREE ENERGY PREDICTED BY IDOCK:   -5.26 KCAL/MOL
REMARK 922        TOTAL FREE ENERGY PREDICTED BY IDOCK:  -10.11 KCAL/MOL
REMARK 923 INTER-LIGAND FREE ENERGY PREDICTED BY IDOCK:   -8.15 KCAL/MOL
REMARK 924 INTRA-LIGAND FREE ENERGY PREDICTED BY IDOCK:   -1.96 KCAL/MOL
REMARK 927      BINDING AFFINITY PREDICTED BY RF-SCORE:    0.00 PKD
ROOT
HETATM    1  C   UNL     1     -12.092  12.253  66.182  1.00  0.00    -0.111 C  
HETATM    2  C   UNL     1     -11.982  12.147  64.673  1.00  0.00    -0.398 C  
HETATM    3  C   UNL     1     -12.224  13.579  64.271  1.00  0.00    -0.396 C  
HETATM    4  O   UNL     1     -12.551  13.896  63.135  1.00  0.00    -0.775 OA 
HETATM    5  C   UNL     1     -12.047  14.559  65.429  1.00  0.00    -0.317 C  
HETATM    6  C   UNL     1     -11.327  11.407  68.288  1.00  0.00    -0.286 C  
HETATM    7  C   UNL     1     -11.499  13.615  66.497  1.00  0.00    -0.357 C  
HETATM    8  C   UNL     1     -11.810  13.931  67.947  1.00  0.00    -0.413 C  
HETATM    9  O   UNL     1     -11.315  11.280  66.853  1.00  0.00    -0.379 OA 
HETATM   10  C   UNL     1     -11.119  12.864  68.799  1.00  0.00    -0.305 C  
HETATM   11  O   UNL     1     -12.587  10.908  68.754  1.00  0.00    -0.699 OA 
HETATM   12  H   UNL     1     -12.714  10.019  68.443  1.00  0.00     0.000 HD 
ENDROOT
BRANCH   5  13
HETATM   13  C   UNL     1     -11.029  15.670  65.171  1.00  0.00    -0.411 C  
BRANCH  13  14
HETATM   14  C   UNL     1      -9.596  15.293  65.523  1.00  0.00    -0.243 C  
BRANCH  14  15
HETATM   15  C   UNL     1      -8.872  16.466  66.179  1.00  0.00    -0.349 C  
BRANCH  15  16
HETATM   16  C   UNL     1      -9.646  16.940  67.405  1.00  0.00    -0.241 C  
BRANCH  16  17
HETATM   17  C   UNL     1      -8.797  16.842  68.667  1.00  0.00    -0.262 C  
BRANCH  17  18
HETATM   18  C   UNL     1      -8.497  15.385  69.006  1.00  0.00    -0.229 C  
HETATM   19  O   UNL     1      -6.748  13.867  69.547  1.00  0.00    -0.110 OA 
HETATM   20  C   UNL     1      -7.024  15.157  69.244  1.00  0.00    -0.161 C  
HETATM   21  O   UNL     1      -6.154  16.011  69.176  1.00  0.00    -0.124 OA 
ENDBRANCH  17  18
ENDBRANCH  16  17
ENDBRANCH  15  16
ENDBRANCH  14  15
ENDBRANCH  13  14
ENDBRANCH   5  13
BRANCH   6  22
HETATM   22  C   UNL     1     -10.159  10.532  68.848  1.00  0.00    -0.202 C  
HETATM   23  F   UNL     1      -9.740   9.671  67.870  1.00  0.00    -0.150 F  
HETATM   24  F   UNL     1      -9.086  11.325  69.127  1.00  0.00    -0.148 F  
BRANCH  22  25
HETATM   25  C   UNL     1     -10.524   9.719  70.084  1.00  0.00    -0.338 C  
BRANCH  25  26
HETATM   26  C   UNL     1     -10.125   8.251  69.915  1.00  0.00    -0.195 C  
BRANCH  26  27
HETATM   27  C   UNL     1      -9.561   7.681  71.214  1.00  0.00    -0.171 C  
HETATM   28  C   UNL     1     -10.316   8.209  72.421  1.00  0.00    -0.382 C  
ENDBRANCH  26  27
ENDBRANCH  25  26
ENDBRANCH  22  25
ENDBRANCH   6  22
TORSDOF 10
ENDMDL
MODEL       67
REMARK 921   NORMALIZED FREE ENERGY PREDICTED BY IDOCK:   -5.26 KCAL/MOL
REMARK 922        TOTAL FREE ENERGY PREDICTED BY IDOCK:  -10.10 KCAL/MOL
REMARK 923 INTER-LIGAND FREE ENERGY PREDICTED BY IDOCK:   -8.79 KCAL/MOL
REMARK 924 INTRA-LIGAND FREE ENERGY PREDICTED BY IDOCK:   -1.32 KCAL/MOL
REMARK 927      BINDING AFFINITY PREDICTED BY RF-SCORE:    0.00 PKD
ROOT
HETATM    1  C   UNL     1      -9.256  11.573  68.125  1.00  0.00    -0.181 C  
HETATM    2  C   UNL     1      -7.765  11.607  68.402  1.00  0.00    -0.130 C  
HETATM    3  C   UNL     1      -7.350  12.791  67.566  1.00  0.00    -0.153 C  
HETATM    4  O   UNL     1      -6.189  12.982  67.229  1.00  0.00    -0.279 OA 
HETATM    5  C   UNL     1      -8.527  13.681  67.172  1.00  0.00    -0.186 C  
HETATM    6  C   UNL     1     -11.423  11.060  69.007  1.00  0.00    -0.299 C  
HETATM    7  C   UNL     1      -9.638  13.036  67.997  1.00  0.00    -0.224 C  
HETATM    8  C   UNL     1     -11.052  13.100  67.451  1.00  0.00    -0.301 C  
HETATM    9  O   UNL     1      -9.995  11.028  69.201  1.00  0.00    -0.195 OA 
HETATM   10  C   UNL     1     -11.962  12.423  68.479  1.00  0.00    -0.273 C  
HETATM   11  O   UNL     1     -11.756  10.017  68.082  1.00  0.00    -0.660 OA 
HETATM   12  H   UNL     1     -11.427   9.186  68.404  1.00  0.00     0.000 HD 
ENDROOT
BRANCH   5  13
HETATM   13  C   UNL     1      -8.380  15.147  67.585  1.00  0.00    -0.172 C  
BRANCH  13  14
HETATM   14  C   UNL     1      -8.493  16.131  66.428  1.00  0.00    -0.369 C  
BRANCH  14  15
HETATM   15  C   UNL     1      -9.955  16.460  66.138  1.00  0.00    -0.360 C  
BRANCH  15  16
HETATM   16  C   UNL     1     -10.399  17.657  66.972  1.00  0.00    -0.330 C  
BRANCH  16  17
HETATM   17  C   UNL     1     -10.301  18.953  66.175  1.00  0.00    -0.517 C  
BRANCH  17  18
HETATM   18  C   UNL     1      -9.501  20.001  66.943  1.00  0.00    -0.529 C  
HETATM   19  O   UNL     1      -7.342  20.969  67.174  1.00  0.00    -0.340 OA 
HETATM   20  C   UNL     1      -8.059  20.041  66.499  1.00  0.00    -0.311 C  
HETATM   21  O   UNL     1      -7.562  19.332  65.638  1.00  0.00    -0.443 OA 
ENDBRANCH  17  18
ENDBRANCH  16  17
ENDBRANCH  15  16
ENDBRANCH  14  15
ENDBRANCH  13  14
ENDBRANCH   5  13
BRANCH   6  22
HETATM   22  C   UNL     1     -12.092  10.786  70.394  1.00  0.00    -0.354 C  
HETATM   23  F   UNL     1     -12.239  11.972  71.059  1.00  0.00    -0.437 F  
HETATM   24  F   UNL     1     -13.355  10.308  70.206  1.00  0.00    -0.329 F  
BRANCH  22  25
HETATM   25  C   UNL     1     -11.313   9.826  71.284  1.00  0.00    -0.445 C  
BRANCH  25  26
HETATM   26  C   UNL     1     -12.087   8.523  71.499  1.00  0.00    -0.351 C  
BRANCH  26  27
HETATM   27  C   UNL     1     -11.300   7.323  70.979  1.00  0.00    -0.301 C  
HETATM   28  C   UNL     1     -11.075   6.295  72.073  1.00  0.00    -0.313 C  
ENDBRANCH  26  27
ENDBRANCH  25  26
ENDBRANCH  22  25
ENDBRANCH   6  22
TORSDOF 10
ENDMDL
MODEL       68
REMARK 921   NORMALIZED FREE ENERGY PREDICTED BY IDOCK:   -5.25 KCAL/MOL
REMARK 922        TOTAL FREE ENERGY PREDICTED BY IDOCK:  -10.10 KCAL/MOL
REMARK 923 INTER-LIGAND FREE ENERGY PREDICTED BY IDOCK:   -8.45 KCAL/MOL
REMARK 924 INTRA-LIGAND FREE ENERGY PREDICTED BY IDOCK:   -1.65 KCAL/MOL
REMARK 927      BINDING AFFINITY PREDICTED BY RF-SCORE:    0.00 PKD
ROOT
HETATM    1  C   UNL     1     -10.562  11.255  64.808  1.00  0.00    -0.312 C  
HETATM    2  C   UNL     1     -10.681  12.361  63.777  1.00  0.00    -0.492 C  
HETATM    3  C   UNL     1     -11.860  13.127  64.322  1.00  0.00    -0.406 C  
HETATM    4  O   UNL     1     -12.511  13.904  63.636  1.00  0.00    -0.768 OA 
HETATM    5  C   UNL     1     -12.156  12.801  65.784  1.00  0.00    -0.505 C  
HETATM    6  C   UNL     1      -9.069   9.791  65.978  1.00  0.00    -0.162 C  
HETATM    7  C   UNL     1     -10.947  11.928  66.113  1.00  0.00    -0.352 C  
HETATM    8  C   UNL     1     -11.123  10.844  67.159  1.00  0.00    -0.308 C  
HETATM    9  O   UNL     1      -9.236  10.781  64.944  1.00  0.00    -0.197 OA 
HETATM   10  C   UNL     1      -9.767  10.153  67.323  1.00  0.00    -0.203 C  
HETATM   11  O   UNL     1      -9.596   8.555  65.478  1.00  0.00    -0.444 OA 
HETATM   12  H   UNL     1      -9.171   8.334  64.658  1.00  0.00     0.000 HD 
ENDROOT
BRANCH   5  13
HETATM   13  C   UNL     1     -12.167  14.015  66.715  1.00  0.00    -0.439 C  
BRANCH  13  14
HETATM   14  C   UNL     1     -10.783  14.477  67.148  1.00  0.00    -0.286 C  
BRANCH  14  15
HETATM   15  C   UNL     1     -10.714  14.635  68.665  1.00  0.00    -0.252 C  
BRANCH  15  16
HETATM   16  C   UNL     1     -12.030  15.196  69.194  1.00  0.00    -0.304 C  
BRANCH  16  17
HETATM   17  C   UNL     1     -12.549  14.375  70.369  1.00  0.00    -0.405 C  
BRANCH  17  18
HETATM   18  C   UNL     1     -12.049  14.946  71.693  1.00  0.00    -0.415 C  
HETATM   19  O   UNL     1     -12.752  15.915  73.747  1.00  0.00    -0.513 OA 
HETATM   20  C   UNL     1     -13.187  15.407  72.570  1.00  0.00    -0.447 C  
HETATM   21  O   UNL     1     -14.372  15.349  72.283  1.00  0.00    -0.550 OA 
ENDBRANCH  17  18
ENDBRANCH  16  17
ENDBRANCH  15  16
ENDBRANCH  14  15
ENDBRANCH  13  14
ENDBRANCH   5  13
BRANCH   6  22
HETATM   22  C   UNL     1      -7.537   9.652  66.255  1.00  0.00    -0.101 C  
HETATM   23  F   UNL     1      -7.012   8.725  65.398  1.00  0.00    -0.072 F  
HETATM   24  F   UNL     1      -6.911  10.826  65.959  1.00  0.00    -0.117 F  
BRANCH  22  25
HETATM   25  C   UNL     1      -7.195   9.240  67.682  1.00  0.00    -0.083 C  
BRANCH  25  26
HETATM   26  C   UNL     1      -6.772   7.771  67.744  1.00  0.00    -0.068 C  
BRANCH  26  27
HETATM   27  C   UNL     1      -7.911   6.891  68.249  1.00  0.00    -0.119 C  
HETATM   28  C   UNL     1      -8.542   7.470  69.503  1.00  0.00    -0.133 C  
ENDBRANCH  26  27
ENDBRANCH  25  26
ENDBRANCH  22  25
ENDBRANCH   6  22
TORSDOF 10
ENDMDL
MODEL       69
REMARK 921   NORMALIZED FREE ENERGY PREDICTED BY IDOCK:   -5.25 KCAL/MOL
REMARK 922        TOTAL FREE ENERGY PREDICTED BY IDOCK:  -10.10 KCAL/MOL
REMARK 923 INTER-LIGAND FREE ENERGY PREDICTED BY IDOCK:   -7.96 KCAL/MOL
REMARK 924 INTRA-LIGAND FREE ENERGY PREDICTED BY IDOCK:   -2.14 KCAL/MOL
REMARK 927      BINDING AFFINITY PREDICTED BY RF-SCORE:    0.00 PKD
ROOT
HETATM    1  C   UNL     1     -10.977  15.387  64.980  1.00  0.00    -0.436 C  
HETATM    2  C   UNL     1     -12.280  14.938  64.346  1.00  0.00    -0.399 C  
HETATM    3  C   UNL     1     -11.986  13.480  64.101  1.00  0.00    -0.448 C  
HETATM    4  O   UNL     1     -12.630  12.804  63.309  1.00  0.00    -0.676 OA 
HETATM    5  C   UNL     1     -10.798  12.968  64.914  1.00  0.00    -0.343 C  
HETATM    6  C   UNL     1      -9.949  16.868  66.558  1.00  0.00    -0.301 C  
HETATM    7  C   UNL     1     -10.535  14.186  65.797  1.00  0.00    -0.320 C  
HETATM    8  C   UNL     1      -9.109  14.434  66.251  1.00  0.00    -0.130 C  
HETATM    9  O   UNL     1     -11.153  16.472  65.871  1.00  0.00    -0.036 OA 
HETATM   10  C   UNL     1      -9.131  15.678  67.143  1.00  0.00    -0.227 C  
HETATM   11  O   UNL     1      -9.141  17.597  65.625  1.00  0.00    -0.394 OA 
HETATM   12  H   UNL     1      -9.640  18.323  65.269  1.00  0.00     0.000 HD 
ENDROOT
BRANCH   5  13
HETATM   13  C   UNL     1     -11.109  11.762  65.802  1.00  0.00    -0.351 C  
BRANCH  13  14
HETATM   14  C   UNL     1     -11.894  12.104  67.061  1.00  0.00    -0.288 C  
BRANCH  14  15
HETATM   15  C   UNL     1     -11.356  11.330  68.262  1.00  0.00    -0.359 C  
BRANCH  15  16
HETATM   16  C   UNL     1     -10.019  11.913  68.706  1.00  0.00    -0.105 C  
BRANCH  16  17
HETATM   17  C   UNL     1      -8.913  10.866  68.650  1.00  0.00    -0.162 C  
BRANCH  17  18
HETATM   18  C   UNL     1      -7.905  11.200  67.555  1.00  0.00    -0.117 C  
HETATM   19  O   UNL     1      -7.026  10.460  65.473  1.00  0.00    -0.139 OA 
HETATM   20  C   UNL     1      -7.916  10.171  66.451  1.00  0.00    -0.120 C  
HETATM   21  O   UNL     1      -8.628   9.180  66.412  1.00  0.00    -0.120 OA 
ENDBRANCH  17  18
ENDBRANCH  16  17
ENDBRANCH  15  16
ENDBRANCH  14  15
ENDBRANCH  13  14
ENDBRANCH   5  13
BRANCH   6  22
HETATM   22  C   UNL     1     -10.369  17.791  67.748  1.00  0.00    -0.380 C  
HETATM   23  F   UNL     1     -10.863  18.964  67.248  1.00  0.00    -0.463 F  
HETATM   24  F   UNL     1     -11.399  17.217  68.431  1.00  0.00    -0.290 F  
BRANCH  22  25
HETATM   25  C   UNL     1      -9.237  18.116  68.715  1.00  0.00    -0.247 C  
BRANCH  25  26
HETATM   26  C   UNL     1      -8.700  19.529  68.479  1.00  0.00    -0.388 C  
BRANCH  26  27
HETATM   27  C   UNL     1      -7.307  19.492  67.855  1.00  0.00    -0.310 C  
HETATM   28  C   UNL     1      -6.830  20.885  67.488  1.00  0.00    -0.416 C  
ENDBRANCH  26  27
ENDBRANCH  25  26
ENDBRANCH  22  25
ENDBRANCH   6  22
TORSDOF 10
ENDMDL
MODEL       70
REMARK 921   NORMALIZED FREE ENERGY PREDICTED BY IDOCK:   -5.25 KCAL/MOL
REMARK 922        TOTAL FREE ENERGY PREDICTED BY IDOCK:  -10.09 KCAL/MOL
REMARK 923 INTER-LIGAND FREE ENERGY PREDICTED BY IDOCK:   -7.53 KCAL/MOL
REMARK 924 INTRA-LIGAND FREE ENERGY PREDICTED BY IDOCK:   -2.55 KCAL/MOL
REMARK 927      BINDING AFFINITY PREDICTED BY RF-SCORE:    0.00 PKD
ROOT
HETATM    1  C   UNL     1      -9.571  13.895  67.402  1.00  0.00    -0.235 C  
HETATM    2  C   UNL     1      -8.134  14.354  67.236  1.00  0.00    -0.209 C  
HETATM    3  C   UNL     1      -7.449  13.521  68.289  1.00  0.00    -0.122 C  
HETATM    4  O   UNL     1      -6.343  13.801  68.731  1.00  0.00    -0.082 OA 
HETATM    5  C   UNL     1      -8.293  12.333  68.749  1.00  0.00     0.097 C  
HETATM    6  C   UNL     1     -11.657  13.481  66.301  1.00  0.00    -0.345 C  
HETATM    7  C   UNL     1      -9.446  12.423  67.752  1.00  0.00    -0.199 C  
HETATM    8  C   UNL     1     -10.810  11.938  68.204  1.00  0.00    -0.259 C  
HETATM    9  O   UNL     1     -10.313  13.991  66.202  1.00  0.00    -0.283 OA 
HETATM   10  C   UNL     1     -11.762  12.101  67.017  1.00  0.00    -0.373 C  
HETATM   11  O   UNL     1     -12.435  14.453  67.010  1.00  0.00    -0.579 OA 
HETATM   12  H   UNL     1     -12.371  15.295  66.573  1.00  0.00     0.000 HD 
ENDROOT
BRANCH   5  13
HETATM   13  C   UNL     1      -7.608  10.973  68.603  1.00  0.00    -0.124 C  
BRANCH  13  14
HETATM   14  C   UNL     1      -7.325  10.277  69.927  1.00  0.00    -0.166 C  
BRANCH  14  15
HETATM   15  C   UNL     1      -8.495   9.383  70.331  1.00  0.00    -0.247 C  
BRANCH  15  16
HETATM   16  C   UNL     1      -9.030   8.638  69.112  1.00  0.00    -0.142 C  
BRANCH  16  17
HETATM   17  C   UNL     1     -10.538   8.432  69.208  1.00  0.00    -0.193 C  
BRANCH  17  18
HETATM   18  C   UNL     1     -11.099   9.108  70.455  1.00  0.00    -0.308 C  
HETATM   19  O   UNL     1     -12.484   8.767  72.358  1.00  0.00    -0.379 OA 
HETATM   20  C   UNL     1     -11.983   8.176  71.248  1.00  0.00    -0.291 C  
HETATM   21  O   UNL     1     -12.242   7.021  70.951  1.00  0.00    -0.364 OA 
ENDBRANCH  17  18
ENDBRANCH  16  17
ENDBRANCH  15  16
ENDBRANCH  14  15
ENDBRANCH  13  14
ENDBRANCH   5  13
BRANCH   6  22
HETATM   22  C   UNL     1     -12.203  13.308  64.846  1.00  0.00    -0.420 C  
HETATM   23  F   UNL     1     -13.150  12.320  64.841  1.00  0.00    -0.475 F  
HETATM   24  F   UNL     1     -12.852  14.444  64.463  1.00  0.00    -0.357 F  
BRANCH  22  25
HETATM   25  C   UNL     1     -11.136  12.960  63.816  1.00  0.00    -0.424 C  
BRANCH  25  26
HETATM   26  C   UNL     1     -10.988  11.445  63.666  1.00  0.00    -0.443 C  
BRANCH  26  27
HETATM   27  C   UNL     1      -9.656  10.963  64.235  1.00  0.00    -0.318 C  
HETATM   28  C   UNL     1      -9.848   9.768  65.152  1.00  0.00    -0.294 C  
ENDBRANCH  26  27
ENDBRANCH  25  26
ENDBRANCH  22  25
ENDBRANCH   6  22
TORSDOF 10
ENDMDL
MODEL       71
REMARK 921   NORMALIZED FREE ENERGY PREDICTED BY IDOCK:   -5.23 KCAL/MOL
REMARK 922        TOTAL FREE ENERGY PREDICTED BY IDOCK:  -10.06 KCAL/MOL
REMARK 923 INTER-LIGAND FREE ENERGY PREDICTED BY IDOCK:   -7.64 KCAL/MOL
REMARK 924 INTRA-LIGAND FREE ENERGY PREDICTED BY IDOCK:   -2.42 KCAL/MOL
REMARK 927      BINDING AFFINITY PREDICTED BY RF-SCORE:    0.00 PKD
ROOT
HETATM    1  C   UNL     1     -12.068  12.441  66.269  1.00  0.00    -0.180 C  
HETATM    2  C   UNL     1     -12.249  12.613  64.773  1.00  0.00    -0.528 C  
HETATM    3  C   UNL     1     -12.119  14.109  64.644  1.00  0.00    -0.452 C  
HETATM    4  O   UNL     1     -12.524  14.721  63.664  1.00  0.00    -0.726 OA 
HETATM    5  C   UNL     1     -11.468  14.756  65.865  1.00  0.00    -0.319 C  
HETATM    6  C   UNL     1     -11.245  11.021  68.015  1.00  0.00    -0.309 C  
HETATM    7  C   UNL     1     -11.053  13.508  66.640  1.00  0.00    -0.309 C  
HETATM    8  C   UNL     1     -11.008  13.599  68.153  1.00  0.00    -0.273 C  
HETATM    9  O   UNL     1     -11.513  11.185  66.608  1.00  0.00    -0.338 OA 
HETATM   10  C   UNL     1     -10.531  12.240  68.671  1.00  0.00    -0.228 C  
HETATM   11  O   UNL     1     -12.499  10.787  68.667  1.00  0.00    -0.793 OA 
HETATM   12  H   UNL     1     -12.935  10.043  68.266  1.00  0.00     0.000 HD 
ENDROOT
BRANCH   5  13
HETATM   13  C   UNL     1     -10.224  15.590  65.553  1.00  0.00    -0.415 C  
BRANCH  13  14
HETATM   14  C   UNL     1     -10.057  16.812  66.446  1.00  0.00    -0.327 C  
BRANCH  14  15
HETATM   15  C   UNL     1      -8.920  16.601  67.444  1.00  0.00    -0.204 C  
BRANCH  15  16
HETATM   16  C   UNL     1      -7.871  15.665  66.853  1.00  0.00    -0.258 C  
BRANCH  16  17
HETATM   17  C   UNL     1      -7.112  14.924  67.949  1.00  0.00    -0.168 C  
BRANCH  17  18
HETATM   18  C   UNL     1      -7.055  13.428  67.651  1.00  0.00    -0.168 C  
HETATM   19  O   UNL     1      -6.330  11.333  68.509  1.00  0.00    -0.046 OA 
HETATM   20  C   UNL     1      -6.384  12.661  68.764  1.00  0.00    -0.080 C  
HETATM   21  O   UNL     1      -5.928  13.148  69.786  1.00  0.00    -0.110 OA 
ENDBRANCH  17  18
ENDBRANCH  16  17
ENDBRANCH  15  16
ENDBRANCH  14  15
ENDBRANCH  13  14
ENDBRANCH   5  13
BRANCH   6  22
HETATM   22  C   UNL     1     -10.312   9.776  68.174  1.00  0.00    -0.202 C  
HETATM   23  F   UNL     1      -9.171  10.157  68.826  1.00  0.00    -0.138 F  
HETATM   24  F   UNL     1     -10.911   8.856  68.983  1.00  0.00    -0.233 F  
BRANCH  22  25
HETATM   25  C   UNL     1      -9.920   9.117  66.858  1.00  0.00    -0.304 C  
BRANCH  25  26
HETATM   26  C   UNL     1      -8.413   9.224  66.616  1.00  0.00    -0.130 C  
BRANCH  26  27
HETATM   27  C   UNL     1      -8.113   9.582  65.163  1.00  0.00    -0.126 C  
HETATM   28  C   UNL     1      -9.391   9.722  64.354  1.00  0.00    -0.278 C  
ENDBRANCH  26  27
ENDBRANCH  25  26
ENDBRANCH  22  25
ENDBRANCH   6  22
TORSDOF 10
ENDMDL
MODEL       72
REMARK 921   NORMALIZED FREE ENERGY PREDICTED BY IDOCK:   -5.22 KCAL/MOL
REMARK 922        TOTAL FREE ENERGY PREDICTED BY IDOCK:  -10.04 KCAL/MOL
REMARK 923 INTER-LIGAND FREE ENERGY PREDICTED BY IDOCK:   -8.86 KCAL/MOL
REMARK 924 INTRA-LIGAND FREE ENERGY PREDICTED BY IDOCK:   -1.18 KCAL/MOL
REMARK 927      BINDING AFFINITY PREDICTED BY RF-SCORE:    0.00 PKD
ROOT
HETATM    1  C   UNL     1     -11.133  10.256  70.558  1.00  0.00    -0.306 C  
HETATM    2  C   UNL     1     -12.233  11.297  70.472  1.00  0.00    -0.474 C  
HETATM    3  C   UNL     1     -11.822  12.037  69.225  1.00  0.00    -0.318 C  
HETATM    4  O   UNL     1     -12.235  13.159  68.962  1.00  0.00    -0.247 OA 
HETATM    5  C   UNL     1     -10.831  11.253  68.368  1.00  0.00    -0.248 C  
HETATM    6  C   UNL     1     -10.567   8.023  71.219  1.00  0.00    -0.209 C  
HETATM    7  C   UNL     1     -10.835   9.918  69.108  1.00  0.00    -0.248 C  
HETATM    8  C   UNL     1      -9.565   9.089  69.078  1.00  0.00    -0.160 C  
HETATM    9  O   UNL     1     -11.560   9.068  71.197  1.00  0.00    -0.273 OA 
HETATM   10  C   UNL     1      -9.850   7.801  69.854  1.00  0.00    -0.177 C  
HETATM   11  O   UNL     1      -9.601   8.369  72.220  1.00  0.00    -0.249 OA 
HETATM   12  H   UNL     1     -10.038   8.504  73.053  1.00  0.00     0.000 HD 
ENDROOT
BRANCH   5  13
HETATM   13  C   UNL     1     -11.281  11.027  66.923  1.00  0.00    -0.210 C  
BRANCH  13  14
HETATM   14  C   UNL     1     -10.195  11.285  65.888  1.00  0.00    -0.298 C  
BRANCH  14  15
HETATM   15  C   UNL     1     -10.158  12.761  65.498  1.00  0.00    -0.278 C  
BRANCH  15  16
HETATM   16  C   UNL     1     -11.400  13.122  64.691  1.00  0.00    -0.363 C  
BRANCH  16  17
HETATM   17  C   UNL     1     -12.190  14.240  65.361  1.00  0.00    -0.408 C  
BRANCH  17  18
HETATM   18  C   UNL     1     -11.252  15.304  65.923  1.00  0.00    -0.237 C  
HETATM   19  O   UNL     1     -10.234  17.400  65.451  1.00  0.00    -0.603 OA 
HETATM   20  C   UNL     1     -11.064  16.451  64.959  1.00  0.00    -0.208 C  
HETATM   21  O   UNL     1     -11.580  16.543  63.857  1.00  0.00    -1.175 OA 
ENDBRANCH  17  18
ENDBRANCH  16  17
ENDBRANCH  15  16
ENDBRANCH  14  15
ENDBRANCH  13  14
ENDBRANCH   5  13
BRANCH   6  22
HETATM   22  C   UNL     1     -11.292   6.692  71.602  1.00  0.00    -0.276 C  
HETATM   23  F   UNL     1     -12.392   6.987  72.360  1.00  0.00    -0.265 F  
HETATM   24  F   UNL     1     -11.769   6.091  70.476  1.00  0.00    -0.387 F  
BRANCH  22  25
HETATM   25  C   UNL     1     -10.422   5.708  72.374  1.00  0.00    -0.255 C  
BRANCH  25  26
HETATM   26  C   UNL     1     -11.248   4.936  73.406  1.00  0.00    -0.415 C  
BRANCH  26  27
HETATM   27  C   UNL     1     -10.520   3.672  73.858  1.00  0.00    -0.262 C  
HETATM   28  C   UNL     1     -11.362   2.433  73.612  1.00  0.00    -0.311 C  
ENDBRANCH  26  27
ENDBRANCH  25  26
ENDBRANCH  22  25
ENDBRANCH   6  22
TORSDOF 10
ENDMDL
MODEL       73
REMARK 921   NORMALIZED FREE ENERGY PREDICTED BY IDOCK:   -5.21 KCAL/MOL
REMARK 922        TOTAL FREE ENERGY PREDICTED BY IDOCK:  -10.03 KCAL/MOL
REMARK 923 INTER-LIGAND FREE ENERGY PREDICTED BY IDOCK:   -7.85 KCAL/MOL
REMARK 924 INTRA-LIGAND FREE ENERGY PREDICTED BY IDOCK:   -2.18 KCAL/MOL
REMARK 927      BINDING AFFINITY PREDICTED BY RF-SCORE:    0.00 PKD
ROOT
HETATM    1  C   UNL     1      -9.185   8.641  69.819  1.00  0.00    -0.154 C  
HETATM    2  C   UNL     1      -8.529  10.008  69.842  1.00  0.00    -0.171 C  
HETATM    3  C   UNL     1      -8.365  10.266  68.366  1.00  0.00    -0.119 C  
HETATM    4  O   UNL     1      -7.585  11.101  67.928  1.00  0.00    -0.094 OA 
HETATM    5  C   UNL     1      -9.243   9.361  67.503  1.00  0.00    -0.139 C  
HETATM    6  C   UNL     1     -10.725   7.164  70.911  1.00  0.00    -0.231 C  
HETATM    7  C   UNL     1     -10.075   8.682  68.589  1.00  0.00    -0.207 C  
HETATM    8  C   UNL     1     -10.566   7.272  68.325  1.00  0.00    -0.217 C  
HETATM    9  O   UNL     1     -10.016   8.419  70.943  1.00  0.00    -0.182 OA 
HETATM   10  C   UNL     1     -11.395   6.849  69.540  1.00  0.00    -0.218 C  
HETATM   11  O   UNL     1      -9.787   6.132  71.238  1.00  0.00    -0.174 OA 
HETATM   12  H   UNL     1      -9.378   6.324  72.075  1.00  0.00     0.000 HD 
ENDROOT
BRANCH   5  13
HETATM   13  C   UNL     1     -10.177  10.106  66.548  1.00  0.00    -0.288 C  
BRANCH  13  14
HETATM   14  C   UNL     1     -11.155  11.044  67.242  1.00  0.00    -0.359 C  
BRANCH  14  15
HETATM   15  C   UNL     1     -11.472  12.248  66.358  1.00  0.00    -0.434 C  
BRANCH  15  16
HETATM   16  C   UNL     1     -10.884  13.516  66.969  1.00  0.00    -0.287 C  
BRANCH  16  17
HETATM   17  C   UNL     1     -11.088  13.549  68.479  1.00  0.00    -0.300 C  
BRANCH  17  18
HETATM   18  C   UNL     1     -11.875  14.789  68.892  1.00  0.00    -0.331 C  
HETATM   19  O   UNL     1     -13.089  15.777  70.682  1.00  0.00    -0.497 OA 
HETATM   20  C   UNL     1     -12.391  14.680  70.307  1.00  0.00    -0.349 C  
HETATM   21  O   UNL     1     -12.220  13.729  71.053  1.00  0.00    -0.348 OA 
ENDBRANCH  17  18
ENDBRANCH  16  17
ENDBRANCH  15  16
ENDBRANCH  14  15
ENDBRANCH  13  14
ENDBRANCH   5  13
BRANCH   6  22
HETATM   22  C   UNL     1     -11.853   7.233  71.991  1.00  0.00    -0.296 C  
HETATM   23  F   UNL     1     -12.237   5.961  72.314  1.00  0.00    -0.366 F  
HETATM   24  F   UNL     1     -11.354   7.772  73.139  1.00  0.00    -0.432 F  
BRANCH  22  25
HETATM   25  C   UNL     1     -13.086   8.016  71.557  1.00  0.00    -0.322 C  
BRANCH  25  26
HETATM   26  C   UNL     1     -13.369   9.174  72.516  1.00  0.00    -0.481 C  
BRANCH  26  27
HETATM   27  C   UNL     1     -13.045  10.517  71.868  1.00  0.00    -0.567 C  
HETATM   28  C   UNL     1     -12.739  10.357  70.389  1.00  0.00    -0.289 C  
ENDBRANCH  26  27
ENDBRANCH  25  26
ENDBRANCH  22  25
ENDBRANCH   6  22
TORSDOF 10
ENDMDL
MODEL       74
REMARK 921   NORMALIZED FREE ENERGY PREDICTED BY IDOCK:   -5.17 KCAL/MOL
REMARK 922        TOTAL FREE ENERGY PREDICTED BY IDOCK:   -9.97 KCAL/MOL
REMARK 923 INTER-LIGAND FREE ENERGY PREDICTED BY IDOCK:   -7.89 KCAL/MOL
REMARK 924 INTRA-LIGAND FREE ENERGY PREDICTED BY IDOCK:   -2.08 KCAL/MOL
REMARK 927      BINDING AFFINITY PREDICTED BY RF-SCORE:    0.00 PKD
ROOT
HETATM    1  C   UNL     1     -11.229  16.045  68.761  1.00  0.00    -0.360 C  
HETATM    2  C   UNL     1     -11.331  15.363  70.111  1.00  0.00    -0.321 C  
HETATM    3  C   UNL     1     -12.035  14.086  69.730  1.00  0.00    -0.334 C  
HETATM    4  O   UNL     1     -12.614  13.385  70.550  1.00  0.00    -0.286 OA 
HETATM    5  C   UNL     1     -11.969  13.796  68.232  1.00  0.00    -0.392 C  
HETATM    6  C   UNL     1      -9.932  17.503  67.370  1.00  0.00    -0.315 C  
HETATM    7  C   UNL     1     -11.012  14.900  67.788  1.00  0.00    -0.294 C  
HETATM    8  C   UNL     1     -11.169  15.449  66.383  1.00  0.00    -0.164 C  
HETATM    9  O   UNL     1     -10.109  16.905  68.670  1.00  0.00    -0.257 OA 
HETATM   10  C   UNL     1     -10.075  16.501  66.186  1.00  0.00    -0.365 C  
HETATM   11  O   UNL     1     -10.905  18.546  67.240  1.00  0.00    -0.408 OA 
HETATM   12  H   UNL     1     -10.818  19.157  67.963  1.00  0.00     0.000 HD 
ENDROOT
BRANCH   5  13
HETATM   13  C   UNL     1     -11.368  12.436  67.874  1.00  0.00    -0.344 C  
BRANCH  13  14
HETATM   14  C   UNL     1      -9.890  12.302  68.215  1.00  0.00    -0.217 C  
BRANCH  14  15
HETATM   15  C   UNL     1      -9.615  10.980  68.926  1.00  0.00    -0.174 C  
BRANCH  15  16
HETATM   16  C   UNL     1     -10.901  10.440  69.545  1.00  0.00    -0.295 C  
BRANCH  16  17
HETATM   17  C   UNL     1     -10.605   9.543  70.742  1.00  0.00    -0.387 C  
BRANCH  17  18
HETATM   18  C   UNL     1     -11.898   9.112  71.428  1.00  0.00    -0.415 C  
HETATM   19  O   UNL     1     -13.410   7.297  71.693  1.00  0.00    -0.370 OA 
HETATM   20  C   UNL     1     -12.265   7.688  71.087  1.00  0.00    -0.285 C  
HETATM   21  O   UNL     1     -11.630   6.948  70.353  1.00  0.00    -0.325 OA 
ENDBRANCH  17  18
ENDBRANCH  16  17
ENDBRANCH  15  16
ENDBRANCH  14  15
ENDBRANCH  13  14
ENDBRANCH   5  13
BRANCH   6  22
HETATM   22  C   UNL     1      -8.488  18.100  67.320  1.00  0.00    -0.242 C  
HETATM   23  F   UNL     1      -8.062  18.126  66.021  1.00  0.00    -0.274 F  
HETATM   24  F   UNL     1      -8.517  19.402  67.726  1.00  0.00    -0.309 F  
BRANCH  22  25
HETATM   25  C   UNL     1      -7.466  17.333  68.149  1.00  0.00    -0.208 C  
BRANCH  25  26
HETATM   26  C   UNL     1      -6.567  16.473  67.258  1.00  0.00    -0.215 C  
BRANCH  26  27
HETATM   27  C   UNL     1      -6.578  15.016  67.710  1.00  0.00    -0.189 C  
HETATM   28  C   UNL     1      -7.293  14.855  69.040  1.00  0.00    -0.143 C  
ENDBRANCH  26  27
ENDBRANCH  25  26
ENDBRANCH  22  25
ENDBRANCH   6  22
TORSDOF 10
ENDMDL
MODEL       75
REMARK 921   NORMALIZED FREE ENERGY PREDICTED BY IDOCK:   -5.15 KCAL/MOL
REMARK 922        TOTAL FREE ENERGY PREDICTED BY IDOCK:   -9.94 KCAL/MOL
REMARK 923 INTER-LIGAND FREE ENERGY PREDICTED BY IDOCK:   -7.97 KCAL/MOL
REMARK 924 INTRA-LIGAND FREE ENERGY PREDICTED BY IDOCK:   -1.98 KCAL/MOL
REMARK 927      BINDING AFFINITY PREDICTED BY RF-SCORE:    0.00 PKD
ROOT
HETATM    1  C   UNL     1      -9.107  10.450  67.137  1.00  0.00    -0.139 C  
HETATM    2  C   UNL     1      -8.335   9.721  66.055  1.00  0.00    -0.123 C  
HETATM    3  C   UNL     1      -8.555   8.288  66.468  1.00  0.00    -0.132 C  
HETATM    4  O   UNL     1      -7.843   7.374  66.072  1.00  0.00    -0.094 OA 
HETATM    5  C   UNL     1      -9.722   8.122  67.439  1.00  0.00    -0.221 C  
HETATM    6  C   UNL     1     -10.431  12.373  67.672  1.00  0.00    -0.216 C  
HETATM    7  C   UNL     1     -10.289   9.539  67.419  1.00  0.00    -0.319 C  
HETATM    8  C   UNL     1     -10.974  10.045  68.675  1.00  0.00    -0.247 C  
HETATM    9  O   UNL     1      -9.618  11.693  66.696  1.00  0.00    -0.195 OA 
HETATM   10  C   UNL     1     -11.478  11.458  68.375  1.00  0.00    -0.367 C  
HETATM   11  O   UNL     1      -9.549  12.937  68.651  1.00  0.00    -0.380 OA 
HETATM   12  H   UNL     1      -8.910  13.495  68.222  1.00  0.00     0.000 HD 
ENDROOT
BRANCH   5  13
HETATM   13  C   UNL     1     -10.800   7.142  66.975  1.00  0.00    -0.382 C  
BRANCH  13  14
HETATM   14  C   UNL     1     -10.618   5.725  67.500  1.00  0.00    -0.327 C  
BRANCH  14  15
HETATM   15  C   UNL     1      -9.846   5.730  68.818  1.00  0.00    -0.181 C  
BRANCH  15  16
HETATM   16  C   UNL     1     -10.803   5.523  69.987  1.00  0.00    -0.301 C  
BRANCH  16  17
HETATM   17  C   UNL     1     -11.025   6.820  70.757  1.00  0.00    -0.306 C  
BRANCH  17  18
HETATM   18  C   UNL     1     -12.512   7.143  70.857  1.00  0.00    -0.302 C  
HETATM   19  O   UNL     1     -14.072   8.748  71.658  1.00  0.00    -0.401 OA 
HETATM   20  C   UNL     1     -12.755   8.453  71.566  1.00  0.00    -0.308 C  
HETATM   21  O   UNL     1     -11.890   9.186  72.018  1.00  0.00    -0.365 OA 
ENDBRANCH  17  18
ENDBRANCH  16  17
ENDBRANCH  15  16
ENDBRANCH  14  15
ENDBRANCH  13  14
ENDBRANCH   5  13
BRANCH   6  22
HETATM   22  C   UNL     1     -11.209  13.507  66.928  1.00  0.00    -0.311 C  
HETATM   23  F   UNL     1     -12.549  13.235  66.979  1.00  0.00    -0.294 F  
HETATM   24  F   UNL     1     -11.046  14.686  67.593  1.00  0.00    -0.269 F  
BRANCH  22  25
HETATM   25  C   UNL     1     -10.807  13.687  65.470  1.00  0.00    -0.295 C  
BRANCH  25  26
HETATM   26  C   UNL     1     -11.976  14.219  64.638  1.00  0.00    -0.468 C  
BRANCH  26  27
HETATM   27  C   UNL     1     -12.154  13.407  63.358  1.00  0.00    -0.437 C  
HETATM   28  C   UNL     1     -12.266  11.923  63.656  1.00  0.00    -0.586 C  
ENDBRANCH  26  27
ENDBRANCH  25  26
ENDBRANCH  22  25
ENDBRANCH   6  22
TORSDOF 10
ENDMDL
MODEL       76
REMARK 921   NORMALIZED FREE ENERGY PREDICTED BY IDOCK:   -5.14 KCAL/MOL
REMARK 922        TOTAL FREE ENERGY PREDICTED BY IDOCK:   -9.92 KCAL/MOL
REMARK 923 INTER-LIGAND FREE ENERGY PREDICTED BY IDOCK:   -8.62 KCAL/MOL
REMARK 924 INTRA-LIGAND FREE ENERGY PREDICTED BY IDOCK:   -1.30 KCAL/MOL
REMARK 927      BINDING AFFINITY PREDICTED BY RF-SCORE:    0.00 PKD
ROOT
HETATM    1  C   UNL     1     -10.896   8.124  68.989  1.00  0.00     0.010 C  
HETATM    2  C   UNL     1     -10.012   7.773  67.808  1.00  0.00    -0.220 C  
HETATM    3  C   UNL     1      -9.849   9.127  67.166  1.00  0.00    -0.195 C  
HETATM    4  O   UNL     1      -9.485   9.263  66.005  1.00  0.00    -0.206 OA 
HETATM    5  C   UNL     1     -10.212  10.276  68.103  1.00  0.00    -0.192 C  
HETATM    6  C   UNL     1     -11.464   7.612  71.260  1.00  0.00    -0.269 C  
HETATM    7  C   UNL     1     -10.420   9.505  69.404  1.00  0.00    -0.231 C  
HETATM    8  C   UNL     1     -11.419  10.058  70.402  1.00  0.00    -0.389 C  
HETATM    9  O   UNL     1     -10.703   7.255  70.088  1.00  0.00    -0.232 OA 
HETATM   10  C   UNL     1     -11.405   9.127  71.617  1.00  0.00    -0.446 C  
HETATM   11  O   UNL     1     -12.823   7.224  71.025  1.00  0.00    -0.536 OA 
HETATM   12  H   UNL     1     -12.859   6.299  70.807  1.00  0.00     0.000 HD 
ENDROOT
BRANCH   5  13
HETATM   13  C   UNL     1      -9.100  11.308  68.303  1.00  0.00    -0.173 C  
BRANCH  13  14
HETATM   14  C   UNL     1      -9.484  12.721  67.887  1.00  0.00    -0.208 C  
BRANCH  14  15
HETATM   15  C   UNL     1     -10.880  13.075  68.394  1.00  0.00    -0.280 C  
BRANCH  15  16
HETATM   16  C   UNL     1     -11.746  13.573  67.241  1.00  0.00    -0.423 C  
BRANCH  16  17
HETATM   17  C   UNL     1     -10.967  13.586  65.930  1.00  0.00    -0.284 C  
BRANCH  17  18
HETATM   18  C   UNL     1     -10.759  15.015  65.439  1.00  0.00    -0.389 C  
HETATM   19  O   UNL     1     -11.592  16.666  63.945  1.00  0.00    -1.204 OA 
HETATM   20  C   UNL     1     -11.769  15.398  64.385  1.00  0.00    -0.258 C  
HETATM   21  O   UNL     1     -12.653  14.675  63.954  1.00  0.00    -0.834 OA 
ENDBRANCH  17  18
ENDBRANCH  16  17
ENDBRANCH  15  16
ENDBRANCH  14  15
ENDBRANCH  13  14
ENDBRANCH   5  13
BRANCH   6  22
HETATM   22  C   UNL     1     -10.873   6.812  72.466  1.00  0.00    -0.239 C  
HETATM   23  F   UNL     1      -9.507   6.876  72.417  1.00  0.00    -0.142 F  
HETATM   24  F   UNL     1     -11.229   7.417  73.635  1.00  0.00    -0.345 F  
BRANCH  22  25
HETATM   25  C   UNL     1     -11.287   5.347  72.507  1.00  0.00    -0.286 C  
BRANCH  25  26
HETATM   26  C   UNL     1     -10.064   4.430  72.562  1.00  0.00    -0.237 C  
BRANCH  26  27
HETATM   27  C   UNL     1      -9.869   3.691  71.241  1.00  0.00    -0.211 C  
HETATM   28  C   UNL     1      -9.423   2.258  71.472  1.00  0.00    -0.204 C  
ENDBRANCH  26  27
ENDBRANCH  25  26
ENDBRANCH  22  25
ENDBRANCH   6  22
TORSDOF 10
ENDMDL
MODEL       77
REMARK 921   NORMALIZED FREE ENERGY PREDICTED BY IDOCK:   -5.13 KCAL/MOL
REMARK 922        TOTAL FREE ENERGY PREDICTED BY IDOCK:   -9.91 KCAL/MOL
REMARK 923 INTER-LIGAND FREE ENERGY PREDICTED BY IDOCK:   -8.07 KCAL/MOL
REMARK 924 INTRA-LIGAND FREE ENERGY PREDICTED BY IDOCK:   -1.84 KCAL/MOL
REMARK 927      BINDING AFFINITY PREDICTED BY RF-SCORE:    0.00 PKD
ROOT
HETATM    1  C   UNL     1     -10.696  11.202  64.755  1.00  0.00    -0.264 C  
HETATM    2  C   UNL     1     -10.765  12.165  63.585  1.00  0.00    -0.518 C  
HETATM    3  C   UNL     1     -11.963  12.994  63.973  1.00  0.00    -0.456 C  
HETATM    4  O   UNL     1     -12.580  13.675  63.164  1.00  0.00    -0.792 OA 
HETATM    5  C   UNL     1     -12.324  12.860  65.451  1.00  0.00    -0.538 C  
HETATM    6  C   UNL     1      -9.263   9.903  66.169  1.00  0.00    -0.168 C  
HETATM    7  C   UNL     1     -11.135  12.039  65.943  1.00  0.00    -0.369 C  
HETATM    8  C   UNL     1     -11.361  11.099  67.113  1.00  0.00    -0.257 C  
HETATM    9  O   UNL     1      -9.380  10.751  65.009  1.00  0.00    -0.200 OA 
HETATM   10  C   UNL     1     -10.017  10.436  67.424  1.00  0.00    -0.226 C  
HETATM   11  O   UNL     1      -9.774   8.613  65.811  1.00  0.00    -0.451 OA 
HETATM   12  H   UNL     1      -9.314   8.287  65.046  1.00  0.00     0.000 HD 
ENDROOT
BRANCH   5  13
HETATM   13  C   UNL     1     -12.370  14.185  66.215  1.00  0.00    -0.451 C  
BRANCH  13  14
HETATM   14  C   UNL     1     -11.050  14.569  66.869  1.00  0.00    -0.325 C  
BRANCH  14  15
HETATM   15  C   UNL     1     -11.002  16.069  67.152  1.00  0.00    -0.183 C  
BRANCH  15  16
HETATM   16  C   UNL     1     -10.190  16.339  68.414  1.00  0.00    -0.249 C  
BRANCH  16  17
HETATM   17  C   UNL     1      -9.343  17.598  68.268  1.00  0.00    -0.290 C  
BRANCH  17  18
HETATM   18  C   UNL     1     -10.127  18.700  67.562  1.00  0.00    -0.397 C  
HETATM   19  O   UNL     1     -10.197  20.044  65.602  1.00  0.00    -0.429 OA 
HETATM   20  C   UNL     1      -9.507  19.068  66.236  1.00  0.00    -0.314 C  
HETATM   21  O   UNL     1      -8.500  18.568  65.761  1.00  0.00    -0.455 OA 
ENDBRANCH  17  18
ENDBRANCH  16  17
ENDBRANCH  15  16
ENDBRANCH  14  15
ENDBRANCH  13  14
ENDBRANCH   5  13
BRANCH   6  22
HETATM   22  C   UNL     1      -7.745   9.803  66.529  1.00  0.00    -0.105 C  
HETATM   23  F   UNL     1      -7.311   8.530  66.278  1.00  0.00    -0.074 F  
HETATM   24  F   UNL     1      -7.025  10.610  65.699  1.00  0.00    -0.133 F  
BRANCH  22  25
HETATM   25  C   UNL     1      -7.423  10.147  67.978  1.00  0.00    -0.087 C  
BRANCH  25  26
HETATM   26  C   UNL     1      -6.463  11.336  68.061  1.00  0.00    -0.057 C  
BRANCH  26  27
HETATM   27  C   UNL     1      -7.152  12.560  68.657  1.00  0.00    -0.100 C  
HETATM   28  C   UNL     1      -7.794  13.412  67.577  1.00  0.00    -0.181 C  
ENDBRANCH  26  27
ENDBRANCH  25  26
ENDBRANCH  22  25
ENDBRANCH   6  22
TORSDOF 10
ENDMDL
MODEL       78
REMARK 921   NORMALIZED FREE ENERGY PREDICTED BY IDOCK:   -5.13 KCAL/MOL
REMARK 922        TOTAL FREE ENERGY PREDICTED BY IDOCK:   -9.90 KCAL/MOL
REMARK 923 INTER-LIGAND FREE ENERGY PREDICTED BY IDOCK:   -7.26 KCAL/MOL
REMARK 924 INTRA-LIGAND FREE ENERGY PREDICTED BY IDOCK:   -2.64 KCAL/MOL
REMARK 927      BINDING AFFINITY PREDICTED BY RF-SCORE:    0.00 PKD
ROOT
HETATM    1  C   UNL     1     -12.272  13.012  69.364  1.00  0.00    -0.113 C  
HETATM    2  C   UNL     1     -12.413  12.927  70.872  1.00  0.00    -0.383 C  
HETATM    3  C   UNL     1     -12.655  11.450  71.050  1.00  0.00    -0.386 C  
HETATM    4  O   UNL     1     -13.148  10.984  72.068  1.00  0.00    -0.496 OA 
HETATM    5  C   UNL     1     -12.251  10.630  69.826  1.00  0.00    -0.318 C  
HETATM    6  C   UNL     1     -11.213  14.136  67.532  1.00  0.00    -0.306 C  
HETATM    7  C   UNL     1     -11.579  11.714  68.988  1.00  0.00    -0.379 C  
HETATM    8  C   UNL     1     -11.637  11.579  67.478  1.00  0.00    -0.322 C  
HETATM    9  O   UNL     1     -11.439  14.079  68.955  1.00  0.00    -0.255 OA 
HETATM   10  C   UNL     1     -10.863  12.761  66.890  1.00  0.00    -0.278 C  
HETATM   11  O   UNL     1     -12.401  14.662  66.929  1.00  0.00    -0.475 OA 
HETATM   12  H   UNL     1     -12.615  15.501  67.321  1.00  0.00     0.000 HD 
ENDROOT
BRANCH   5  13
HETATM   13  C   UNL     1     -11.242   9.518  70.112  1.00  0.00    -0.275 C  
BRANCH  13  14
HETATM   14  C   UNL     1      -9.792   9.922  69.885  1.00  0.00    -0.285 C  
BRANCH  14  15
HETATM   15  C   UNL     1      -9.115   8.979  68.893  1.00  0.00    -0.140 C  
BRANCH  15  16
HETATM   16  C   UNL     1     -10.163   8.143  68.166  1.00  0.00    -0.253 C  
BRANCH  16  17
HETATM   17  C   UNL     1     -10.193   8.467  66.677  1.00  0.00    -0.335 C  
BRANCH  17  18
HETATM   18  C   UNL     1      -8.828   8.952  66.200  1.00  0.00    -0.193 C  
HETATM   19  O   UNL     1      -7.740  10.338  64.604  1.00  0.00    -0.149 OA 
HETATM   20  C   UNL     1      -8.947   9.901  65.033  1.00  0.00    -0.201 C  
HETATM   21  O   UNL     1      -9.991  10.253  64.508  1.00  0.00    -0.339 OA 
ENDBRANCH  17  18
ENDBRANCH  16  17
ENDBRANCH  15  16
ENDBRANCH  14  15
ENDBRANCH  13  14
ENDBRANCH   5  13
BRANCH   6  22
HETATM   22  C   UNL     1     -10.008  15.101  67.286  1.00  0.00    -0.230 C  
HETATM   23  F   UNL     1      -9.606  14.986  65.983  1.00  0.00    -0.275 F  
HETATM   24  F   UNL     1     -10.418  16.392  67.434  1.00  0.00    -0.284 F  
BRANCH  22  25
HETATM   25  C   UNL     1      -8.807  14.843  68.187  1.00  0.00    -0.174 C  
BRANCH  25  26
HETATM   26  C   UNL     1      -7.590  14.402  67.371  1.00  0.00    -0.196 C  
BRANCH  26  27
HETATM   27  C   UNL     1      -6.789  13.334  68.111  1.00  0.00    -0.114 C  
HETATM   28  C   UNL     1      -7.293  11.940  67.782  1.00  0.00    -0.109 C  
ENDBRANCH  26  27
ENDBRANCH  25  26
ENDBRANCH  22  25
ENDBRANCH   6  22
TORSDOF 10
ENDMDL
MODEL       79
REMARK 921   NORMALIZED FREE ENERGY PREDICTED BY IDOCK:   -5.11 KCAL/MOL
REMARK 922        TOTAL FREE ENERGY PREDICTED BY IDOCK:   -9.88 KCAL/MOL
REMARK 923 INTER-LIGAND FREE ENERGY PREDICTED BY IDOCK:   -7.76 KCAL/MOL
REMARK 924 INTRA-LIGAND FREE ENERGY PREDICTED BY IDOCK:   -2.12 KCAL/MOL
REMARK 927      BINDING AFFINITY PREDICTED BY RF-SCORE:    0.00 PKD
ROOT
HETATM    1  C   UNL     1     -11.207  13.727  68.254  1.00  0.00    -0.273 C  
HETATM    2  C   UNL     1     -11.835  15.052  68.645  1.00  0.00    -0.325 C  
HETATM    3  C   UNL     1     -10.727  15.655  69.470  1.00  0.00    -0.271 C  
HETATM    4  O   UNL     1     -10.920  16.574  70.256  1.00  0.00    -0.332 OA 
HETATM    5  C   UNL     1      -9.377  14.980  69.237  1.00  0.00    -0.162 C  
HETATM    6  C   UNL     1     -11.054  12.028  66.571  1.00  0.00    -0.314 C  
HETATM    7  C   UNL     1      -9.737  14.059  68.073  1.00  0.00    -0.221 C  
HETATM    8  C   UNL     1      -8.979  12.751  67.948  1.00  0.00    -0.186 C  
HETATM    9  O   UNL     1     -11.693  13.241  67.017  1.00  0.00    -0.347 OA 
HETATM   10  C   UNL     1      -9.501  12.047  66.693  1.00  0.00    -0.222 C  
HETATM   11  O   UNL     1     -11.586  10.950  67.351  1.00  0.00    -0.509 OA 
HETATM   12  H   UNL     1     -12.533  10.939  67.277  1.00  0.00     0.000 HD 
ENDROOT
BRANCH   5  13
HETATM   13  C   UNL     1      -8.260  15.929  68.799  1.00  0.00    -0.196 C  
BRANCH  13  14
HETATM   14  C   UNL     1      -8.120  16.068  67.290  1.00  0.00    -0.205 C  
BRANCH  14  15
HETATM   15  C   UNL     1      -6.771  16.684  66.925  1.00  0.00    -0.247 C  
BRANCH  15  16
HETATM   16  C   UNL     1      -6.966  17.818  65.924  1.00  0.00    -0.291 C  
BRANCH  16  17
HETATM   17  C   UNL     1      -7.179  19.151  66.633  1.00  0.00    -0.226 C  
BRANCH  17  18
HETATM   18  C   UNL     1      -8.580  19.690  66.363  1.00  0.00    -0.390 C  
HETATM   19  O   UNL     1     -10.681  20.148  67.377  1.00  0.00    -0.285 OA 
HETATM   20  C   UNL     1      -9.436  19.670  67.606  1.00  0.00    -0.337 C  
HETATM   21  O   UNL     1      -9.082  19.275  68.706  1.00  0.00    -0.365 OA 
ENDBRANCH  17  18
ENDBRANCH  16  17
ENDBRANCH  15  16
ENDBRANCH  14  15
ENDBRANCH  13  14
ENDBRANCH   5  13
BRANCH   6  22
HETATM   22  C   UNL     1     -11.414  11.834  65.063  1.00  0.00    -0.188 C  
HETATM   23  F   UNL     1     -10.902  10.640  64.633  1.00  0.00    -0.368 F  
HETATM   24  F   UNL     1     -12.766  11.727  64.925  1.00  0.00    -0.132 F  
BRANCH  22  25
HETATM   25  C   UNL     1     -10.897  12.938  64.150  1.00  0.00    -0.445 C  
BRANCH  25  26
HETATM   26  C   UNL     1     -12.052  13.697  63.494  1.00  0.00    -0.341 C  
BRANCH  26  27
HETATM   27  C   UNL     1     -12.296  15.035  64.187  1.00  0.00    -0.167 C  
HETATM   28  C   UNL     1     -11.002  15.624  64.719  1.00  0.00    -0.418 C  
ENDBRANCH  26  27
ENDBRANCH  25  26
ENDBRANCH  22  25
ENDBRANCH   6  22
TORSDOF 10
ENDMDL
MODEL       80
REMARK 921   NORMALIZED FREE ENERGY PREDICTED BY IDOCK:   -5.10 KCAL/MOL
REMARK 922        TOTAL FREE ENERGY PREDICTED BY IDOCK:   -9.86 KCAL/MOL
REMARK 923 INTER-LIGAND FREE ENERGY PREDICTED BY IDOCK:   -8.03 KCAL/MOL
REMARK 924 INTRA-LIGAND FREE ENERGY PREDICTED BY IDOCK:   -1.83 KCAL/MOL
REMARK 927      BINDING AFFINITY PREDICTED BY RF-SCORE:    0.00 PKD
ROOT
HETATM    1  C   UNL     1      -9.923  12.248  65.279  1.00  0.00    -0.230 C  
HETATM    2  C   UNL     1     -10.375  11.566  64.002  1.00  0.00    -0.406 C  
HETATM    3  C   UNL     1      -9.537  10.314  64.039  1.00  0.00    -0.304 C  
HETATM    4  O   UNL     1      -9.333   9.631  63.044  1.00  0.00    -0.226 OA 
HETATM    5  C   UNL     1      -8.961  10.025  65.424  1.00  0.00    -0.213 C  
HETATM    6  C   UNL     1     -10.564  13.665  67.102  1.00  0.00    -0.272 C  
HETATM    7  C   UNL     1      -9.678  11.098  66.240  1.00  0.00    -0.244 C  
HETATM    8  C   UNL     1      -8.964  11.655  67.457  1.00  0.00    -0.165 C  
HETATM    9  O   UNL     1     -10.928  13.070  65.841  1.00  0.00    -0.269 OA 
HETATM   10  C   UNL     1      -9.907  12.671  68.106  1.00  0.00    -0.226 C  
HETATM   11  O   UNL     1      -9.658  14.740  66.825  1.00  0.00    -0.233 OA 
HETATM   12  H   UNL     1     -10.058  15.346  66.213  1.00  0.00     0.000 HD 
ENDROOT
BRANCH   5  13
HETATM   13  C   UNL     1      -9.315   8.647  65.984  1.00  0.00    -0.284 C  
BRANCH  13  14
HETATM   14  C   UNL     1      -8.386   8.170  67.091  1.00  0.00    -0.120 C  
BRANCH  14  15
HETATM   15  C   UNL     1      -9.183   7.563  68.243  1.00  0.00    -0.138 C  
BRANCH  15  16
HETATM   16  C   UNL     1     -10.429   8.399  68.517  1.00  0.00    -0.201 C  
BRANCH  16  17
HETATM   17  C   UNL     1     -10.608   8.652  70.010  1.00  0.00    -0.233 C  
BRANCH  17  18
HETATM   18  C   UNL     1     -11.264  10.007  70.255  1.00  0.00    -0.379 C  
HETATM   19  O   UNL     1     -12.749  11.183  71.692  1.00  0.00    -0.395 OA 
HETATM   20  C   UNL     1     -12.164   9.984  71.466  1.00  0.00    -0.405 C  
HETATM   21  O   UNL     1     -12.367   9.014  72.180  1.00  0.00    -0.368 OA 
ENDBRANCH  17  18
ENDBRANCH  16  17
ENDBRANCH  15  16
ENDBRANCH  14  15
ENDBRANCH  13  14
ENDBRANCH   5  13
BRANCH   6  22
HETATM   22  C   UNL     1     -11.872  14.215  67.759  1.00  0.00    -0.379 C  
HETATM   23  F   UNL     1     -12.824  14.370  66.789  1.00  0.00    -0.289 F  
HETATM   24  F   UNL     1     -12.373  13.289  68.625  1.00  0.00    -0.346 F  
BRANCH  22  25
HETATM   25  C   UNL     1     -11.696  15.544  68.482  1.00  0.00    -0.351 C  
BRANCH  25  26
HETATM   26  C   UNL     1     -12.369  15.517  69.856  1.00  0.00    -0.306 C  
BRANCH  26  27
HETATM   27  C   UNL     1     -11.334  15.533  70.977  1.00  0.00    -0.421 C  
HETATM   28  C   UNL     1     -11.886  16.193  72.228  1.00  0.00    -0.631 C  
ENDBRANCH  26  27
ENDBRANCH  25  26
ENDBRANCH  22  25
ENDBRANCH   6  22
TORSDOF 10
ENDMDL
MODEL       81
REMARK 921   NORMALIZED FREE ENERGY PREDICTED BY IDOCK:   -5.09 KCAL/MOL
REMARK 922        TOTAL FREE ENERGY PREDICTED BY IDOCK:   -9.85 KCAL/MOL
REMARK 923 INTER-LIGAND FREE ENERGY PREDICTED BY IDOCK:   -7.80 KCAL/MOL
REMARK 924 INTRA-LIGAND FREE ENERGY PREDICTED BY IDOCK:   -2.04 KCAL/MOL
REMARK 927      BINDING AFFINITY PREDICTED BY RF-SCORE:    0.00 PKD
ROOT
HETATM    1  C   UNL     1      -9.538   9.290  66.386  1.00  0.00    -0.238 C  
HETATM    2  C   UNL     1     -10.364   8.106  66.849  1.00  0.00    -0.401 C  
HETATM    3  C   UNL     1      -9.796   7.888  68.227  1.00  0.00    -0.169 C  
HETATM    4  O   UNL     1      -9.936   6.835  68.836  1.00  0.00    -0.149 OA 
HETATM    5  C   UNL     1      -9.017   9.095  68.747  1.00  0.00    -0.136 C  
HETATM    6  C   UNL     1      -9.506  11.287  65.061  1.00  0.00    -0.209 C  
HETATM    7  C   UNL     1      -9.331  10.107  67.648  1.00  0.00    -0.162 C  
HETATM    8  C   UNL     1      -8.289  11.169  67.347  1.00  0.00    -0.135 C  
HETATM    9  O   UNL     1     -10.228  10.103  65.456  1.00  0.00    -0.286 OA 
HETATM   10  C   UNL     1      -8.865  12.065  66.248  1.00  0.00    -0.075 C  
HETATM   11  O   UNL     1      -8.484  10.880  64.142  1.00  0.00    -0.363 OA 
HETATM   12  H   UNL     1      -8.875  10.405  63.418  1.00  0.00     0.000 HD 
ENDROOT
BRANCH   5  13
HETATM   13  C   UNL     1      -9.511   9.639  70.088  1.00  0.00    -0.298 C  
BRANCH  13  14
HETATM   14  C   UNL     1     -11.014   9.877  70.146  1.00  0.00    -0.356 C  
BRANCH  14  15
HETATM   15  C   UNL     1     -11.585   9.411  71.483  1.00  0.00    -0.467 C  
BRANCH  15  16
HETATM   16  C   UNL     1     -12.575   8.271  71.261  1.00  0.00    -0.237 C  
BRANCH  16  17
HETATM   17  C   UNL     1     -12.000   6.940  71.734  1.00  0.00    -0.372 C  
BRANCH  17  18
HETATM   18  C   UNL     1     -10.914   7.161  72.782  1.00  0.00    -0.346 C  
HETATM   19  O   UNL     1      -9.653   6.085  74.486  1.00  0.00    -0.176 OA 
HETATM   20  C   UNL     1     -10.617   5.899  73.555  1.00  0.00    -0.268 C  
HETATM   21  O   UNL     1     -11.164   4.821  73.390  1.00  0.00    -0.315 OA 
ENDBRANCH  17  18
ENDBRANCH  16  17
ENDBRANCH  15  16
ENDBRANCH  14  15
ENDBRANCH  13  14
ENDBRANCH   5  13
BRANCH   6  22
HETATM   22  C   UNL     1     -10.521  12.243  64.354  1.00  0.00    -0.325 C  
HETATM   23  F   UNL     1     -10.121  12.436  63.060  1.00  0.00    -0.345 F  
HETATM   24  F   UNL     1     -11.741  11.640  64.278  1.00  0.00    -0.395 F  
BRANCH  22  25
HETATM   25  C   UNL     1     -10.668  13.603  65.023  1.00  0.00    -0.374 C  
BRANCH  25  26
HETATM   26  C   UNL     1     -12.098  13.821  65.522  1.00  0.00    -0.434 C  
BRANCH  26  27
HETATM   27  C   UNL     1     -12.122  14.091  67.024  1.00  0.00    -0.455 C  
HETATM   28  C   UNL     1     -11.987  12.804  67.818  1.00  0.00    -0.316 C  
ENDBRANCH  26  27
ENDBRANCH  25  26
ENDBRANCH  22  25
ENDBRANCH   6  22
TORSDOF 10
ENDMDL
MODEL       82
REMARK 921   NORMALIZED FREE ENERGY PREDICTED BY IDOCK:   -5.09 KCAL/MOL
REMARK 922        TOTAL FREE ENERGY PREDICTED BY IDOCK:   -9.85 KCAL/MOL
REMARK 923 INTER-LIGAND FREE ENERGY PREDICTED BY IDOCK:   -8.63 KCAL/MOL
REMARK 924 INTRA-LIGAND FREE ENERGY PREDICTED BY IDOCK:   -1.22 KCAL/MOL
REMARK 927      BINDING AFFINITY PREDICTED BY RF-SCORE:    0.00 PKD
ROOT
HETATM    1  C   UNL     1     -11.598  10.063  71.023  1.00  0.00    -0.393 C  
HETATM    2  C   UNL     1     -12.768  10.872  71.551  1.00  0.00    -0.533 C  
HETATM    3  C   UNL     1     -12.530  12.193  70.865  1.00  0.00    -0.279 C  
HETATM    4  O   UNL     1     -13.039  13.235  71.254  1.00  0.00    -0.303 OA 
HETATM    5  C   UNL     1     -11.576  12.082  69.678  1.00  0.00    -0.371 C  
HETATM    6  C   UNL     1     -10.823   7.890  70.378  1.00  0.00    -0.244 C  
HETATM    7  C   UNL     1     -11.420  10.565  69.601  1.00  0.00    -0.349 C  
HETATM    8  C   UNL     1     -10.106  10.015  69.078  1.00  0.00    -0.211 C  
HETATM    9  O   UNL     1     -11.881   8.679  70.958  1.00  0.00    -0.286 OA 
HETATM   10  C   UNL     1     -10.228   8.490  69.069  1.00  0.00    -0.218 C  
HETATM   11  O   UNL     1      -9.791   7.764  71.364  1.00  0.00    -0.166 OA 
HETATM   12  H   UNL     1     -10.154   7.398  72.162  1.00  0.00     0.000 HD 
ENDROOT
BRANCH   5  13
HETATM   13  C   UNL     1     -12.147  12.595  68.355  1.00  0.00    -0.135 C  
BRANCH  13  14
HETATM   14  C   UNL     1     -11.806  14.048  68.055  1.00  0.00    -0.403 C  
BRANCH  14  15
HETATM   15  C   UNL     1     -10.323  14.318  68.298  1.00  0.00    -0.242 C  
BRANCH  15  16
HETATM   16  C   UNL     1      -9.942  15.689  67.748  1.00  0.00    -0.223 C  
BRANCH  16  17
HETATM   17  C   UNL     1      -9.563  15.608  66.273  1.00  0.00    -0.337 C  
BRANCH  17  18
HETATM   18  C   UNL     1     -10.514  16.444  65.423  1.00  0.00    -0.333 C  
HETATM   19  O   UNL     1     -12.200  16.317  63.751  1.00  0.00    -0.923 OA 
HETATM   20  C   UNL     1     -11.352  15.583  64.509  1.00  0.00    -0.314 C  
HETATM   21  O   UNL     1     -11.296  14.366  64.432  1.00  0.00    -0.335 OA 
ENDBRANCH  17  18
ENDBRANCH  16  17
ENDBRANCH  15  16
ENDBRANCH  14  15
ENDBRANCH  13  14
ENDBRANCH   5  13
BRANCH   6  22
HETATM   22  C   UNL     1     -11.418   6.485  70.034  1.00  0.00    -0.412 C  
HETATM   23  F   UNL     1     -12.715   6.433  70.466  1.00  0.00    -0.235 F  
HETATM   24  F   UNL     1     -11.472   6.330  68.681  1.00  0.00    -0.413 F  
BRANCH  22  25
HETATM   25  C   UNL     1     -10.656   5.317  70.649  1.00  0.00    -0.263 C  
BRANCH  25  26
HETATM   26  C   UNL     1      -9.908   4.522  69.577  1.00  0.00    -0.277 C  
BRANCH  26  27
HETATM   27  C   UNL     1      -9.071   3.409  70.201  1.00  0.00    -0.203 C  
HETATM   28  C   UNL     1      -9.716   2.879  71.469  1.00  0.00    -0.224 C  
ENDBRANCH  26  27
ENDBRANCH  25  26
ENDBRANCH  22  25
ENDBRANCH   6  22
TORSDOF 10
ENDMDL
MODEL       83
REMARK 921   NORMALIZED FREE ENERGY PREDICTED BY IDOCK:   -5.09 KCAL/MOL
REMARK 922        TOTAL FREE ENERGY PREDICTED BY IDOCK:   -9.84 KCAL/MOL
REMARK 923 INTER-LIGAND FREE ENERGY PREDICTED BY IDOCK:   -8.52 KCAL/MOL
REMARK 924 INTRA-LIGAND FREE ENERGY PREDICTED BY IDOCK:   -1.32 KCAL/MOL
REMARK 927      BINDING AFFINITY PREDICTED BY RF-SCORE:    0.00 PKD
ROOT
HETATM    1  C   UNL     1     -11.104  14.639  65.690  1.00  0.00    -0.338 C  
HETATM    2  C   UNL     1     -12.527  14.296  65.292  1.00  0.00    -0.428 C  
HETATM    3  C   UNL     1     -12.412  12.807  65.090  1.00  0.00    -0.501 C  
HETATM    4  O   UNL     1     -13.234  12.166  64.447  1.00  0.00    -0.758 OA 
HETATM    5  C   UNL     1     -11.163  12.214  65.738  1.00  0.00    -0.384 C  
HETATM    6  C   UNL     1      -9.706  16.075  67.002  1.00  0.00    -0.229 C  
HETATM    7  C   UNL     1     -10.651  13.435  66.497  1.00  0.00    -0.287 C  
HETATM    8  C   UNL     1      -9.154  13.559  66.710  1.00  0.00    -0.223 C  
HETATM    9  O   UNL     1     -11.035  15.773  66.533  1.00  0.00    -0.278 OA 
HETATM   10  C   UNL     1      -8.918  14.835  67.521  1.00  0.00    -0.192 C  
HETATM   11  O   UNL     1      -8.993  16.679  65.915  1.00  0.00    -0.482 OA 
HETATM   12  H   UNL     1      -9.474  17.435  65.598  1.00  0.00     0.000 HD 
ENDROOT
BRANCH   5  13
HETATM   13  C   UNL     1     -11.438  11.084  66.731  1.00  0.00     0.097 C  
BRANCH  13  14
HETATM   14  C   UNL     1     -10.258  10.146  66.946  1.00  0.00    -0.295 C  
BRANCH  14  15
HETATM   15  C   UNL     1      -9.546  10.464  68.259  1.00  0.00    -0.152 C  
BRANCH  15  16
HETATM   16  C   UNL     1     -10.500  10.268  69.434  1.00  0.00    -0.259 C  
BRANCH  16  17
HETATM   17  C   UNL     1      -9.948   9.255  70.431  1.00  0.00    -0.287 C  
BRANCH  17  18
HETATM   18  C   UNL     1      -9.139   8.177  69.716  1.00  0.00    -0.148 C  
HETATM   19  O   UNL     1      -9.232   5.952  68.883  1.00  0.00    -0.119 OA 
HETATM   20  C   UNL     1      -9.941   6.914  69.518  1.00  0.00    -0.164 C  
HETATM   21  O   UNL     1     -11.095   6.743  69.877  1.00  0.00    -0.279 OA 
ENDBRANCH  17  18
ENDBRANCH  16  17
ENDBRANCH  15  16
ENDBRANCH  14  15
ENDBRANCH  13  14
ENDBRANCH   5  13
BRANCH   6  22
HETATM   22  C   UNL     1      -9.843  17.086  68.187  1.00  0.00    -0.273 C  
HETATM   23  F   UNL     1     -11.156  17.450  68.310  1.00  0.00    -0.349 F  
HETATM   24  F   UNL     1      -9.520  16.465  69.357  1.00  0.00    -0.247 F  
BRANCH  22  25
HETATM   25  C   UNL     1      -9.003  18.347  68.032  1.00  0.00    -0.305 C  
BRANCH  25  26
HETATM   26  C   UNL     1      -9.850  19.603  68.247  1.00  0.00    -0.521 C  
BRANCH  26  27
HETATM   27  C   UNL     1      -9.853  20.485  67.001  1.00  0.00    -0.534 C  
HETATM   28  C   UNL     1     -10.524  19.785  65.832  1.00  0.00    -0.587 C  
ENDBRANCH  26  27
ENDBRANCH  25  26
ENDBRANCH  22  25
ENDBRANCH   6  22
TORSDOF 10
ENDMDL
MODEL       84
REMARK 921   NORMALIZED FREE ENERGY PREDICTED BY IDOCK:   -5.08 KCAL/MOL
REMARK 922        TOTAL FREE ENERGY PREDICTED BY IDOCK:   -9.83 KCAL/MOL
REMARK 923 INTER-LIGAND FREE ENERGY PREDICTED BY IDOCK:   -8.29 KCAL/MOL
REMARK 924 INTRA-LIGAND FREE ENERGY PREDICTED BY IDOCK:   -1.54 KCAL/MOL
REMARK 927      BINDING AFFINITY PREDICTED BY RF-SCORE:    0.00 PKD
ROOT
HETATM    1  C   UNL     1     -10.648  11.389  67.022  1.00  0.00    -0.248 C  
HETATM    2  C   UNL     1      -9.945  12.311  66.044  1.00  0.00    -0.270 C  
HETATM    3  C   UNL     1     -10.843  13.521  66.103  1.00  0.00    -0.281 C  
HETATM    4  O   UNL     1     -10.843  14.381  65.232  1.00  0.00    -0.319 OA 
HETATM    5  C   UNL     1     -11.751  13.527  67.331  1.00  0.00    -0.419 C  
HETATM    6  C   UNL     1     -10.379   9.655  68.652  1.00  0.00    -0.203 C  
HETATM    7  C   UNL     1     -11.187  12.327  68.087  1.00  0.00    -0.320 C  
HETATM    8  C   UNL     1     -12.137  11.535  68.964  1.00  0.00    -0.303 C  
HETATM    9  O   UNL     1      -9.759  10.488  67.652  1.00  0.00    -0.161 OA 
HETATM   10  C   UNL     1     -11.317  10.426  69.628  1.00  0.00    -0.333 C  
HETATM   11  O   UNL     1     -11.124   8.641  67.966  1.00  0.00    -0.470 OA 
HETATM   12  H   UNL     1     -10.552   8.171  67.371  1.00  0.00     0.000 HD 
ENDROOT
BRANCH   5  13
HETATM   13  C   UNL     1     -11.627  14.776  68.205  1.00  0.00    -0.348 C  
BRANCH  13  14
HETATM   14  C   UNL     1     -10.457  14.737  69.179  1.00  0.00    -0.243 C  
BRANCH  14  15
HETATM   15  C   UNL     1     -10.053  16.149  69.597  1.00  0.00    -0.212 C  
BRANCH  15  16
HETATM   16  C   UNL     1     -10.704  17.175  68.676  1.00  0.00    -0.306 C  
BRANCH  16  17
HETATM   17  C   UNL     1      -9.704  18.239  68.237  1.00  0.00    -0.350 C  
BRANCH  17  18
HETATM   18  C   UNL     1     -10.383  19.298  67.374  1.00  0.00    -0.540 C  
HETATM   19  O   UNL     1     -11.132  19.779  65.170  1.00  0.00    -0.349 OA 
HETATM   20  C   UNL     1     -10.529  18.846  65.942  1.00  0.00    -0.391 C  
HETATM   21  O   UNL     1     -10.155  17.773  65.495  1.00  0.00    -0.548 OA 
ENDBRANCH  17  18
ENDBRANCH  16  17
ENDBRANCH  15  16
ENDBRANCH  14  15
ENDBRANCH  13  14
ENDBRANCH   5  13
BRANCH   6  22
HETATM   22  C   UNL     1      -9.236   9.006  69.499  1.00  0.00    -0.152 C  
HETATM   23  F   UNL     1      -9.123   7.686  69.158  1.00  0.00    -0.141 F  
HETATM   24  F   UNL     1      -8.042   9.577  69.169  1.00  0.00    -0.088 F  
BRANCH  22  25
HETATM   25  C   UNL     1      -9.444   9.100  71.005  1.00  0.00    -0.344 C  
BRANCH  25  26
HETATM   26  C   UNL     1      -9.770   7.730  71.603  1.00  0.00    -0.200 C  
BRANCH  26  27
HETATM   27  C   UNL     1     -11.245   7.630  71.979  1.00  0.00    -0.317 C  
HETATM   28  C   UNL     1     -12.035   6.883  70.919  1.00  0.00    -0.430 C  
ENDBRANCH  26  27
ENDBRANCH  25  26
ENDBRANCH  22  25
ENDBRANCH   6  22
TORSDOF 10
ENDMDL
MODEL       85
REMARK 921   NORMALIZED FREE ENERGY PREDICTED BY IDOCK:   -5.08 KCAL/MOL
REMARK 922        TOTAL FREE ENERGY PREDICTED BY IDOCK:   -9.82 KCAL/MOL
REMARK 923 INTER-LIGAND FREE ENERGY PREDICTED BY IDOCK:   -8.51 KCAL/MOL
REMARK 924 INTRA-LIGAND FREE ENERGY PREDICTED BY IDOCK:   -1.31 KCAL/MOL
REMARK 927      BINDING AFFINITY PREDICTED BY RF-SCORE:    0.00 PKD
ROOT
HETATM    1  C   UNL     1     -10.702  11.939  68.628  1.00  0.00    -0.235 C  
HETATM    2  C   UNL     1      -9.339  11.924  67.964  1.00  0.00    -0.193 C  
HETATM    3  C   UNL     1      -9.134  13.395  67.707  1.00  0.00    -0.202 C  
HETATM    4  O   UNL     1      -8.319  13.812  66.895  1.00  0.00    -0.139 OA 
HETATM    5  C   UNL     1     -10.065  14.278  68.536  1.00  0.00    -0.246 C  
HETATM    6  C   UNL     1     -12.131  10.895  70.243  1.00  0.00    -0.355 C  
HETATM    7  C   UNL     1     -10.700  13.223  69.438  1.00  0.00     0.104 C  
HETATM    8  C   UNL     1     -12.117  13.468  69.922  1.00  0.00    -0.408 C  
HETATM    9  O   UNL     1     -10.880  10.863  69.528  1.00  0.00    -0.239 OA 
HETATM   10  C   UNL     1     -12.492  12.293  70.828  1.00  0.00    -0.356 C  
HETATM   11  O   UNL     1     -13.156  10.473  69.335  1.00  0.00    -0.462 OA 
HETATM   12  H   UNL     1     -12.936   9.620  68.978  1.00  0.00     0.000 HD 
ENDROOT
BRANCH   5  13
HETATM   13  C   UNL     1      -9.349  15.315  69.403  1.00  0.00    -0.228 C  
BRANCH  13  14
HETATM   14  C   UNL     1      -9.173  16.670  68.730  1.00  0.00    -0.253 C  
BRANCH  14  15
HETATM   15  C   UNL     1     -10.410  17.542  68.935  1.00  0.00    -0.338 C  
BRANCH  15  16
HETATM   16  C   UNL     1     -10.207  18.903  68.278  1.00  0.00    -0.442 C  
BRANCH  16  17
HETATM   17  C   UNL     1      -9.578  18.762  66.896  1.00  0.00    -0.332 C  
BRANCH  17  18
HETATM   18  C   UNL     1     -10.649  18.536  65.834  1.00  0.00    -0.336 C  
HETATM   19  O   UNL     1     -11.492  16.954  64.273  1.00  0.00    -1.142 OA 
HETATM   20  C   UNL     1     -10.544  17.163  65.215  1.00  0.00    -0.043 C  
HETATM   21  O   UNL     1      -9.713  16.317  65.504  1.00  0.00    -0.485 OA 
ENDBRANCH  17  18
ENDBRANCH  16  17
ENDBRANCH  15  16
ENDBRANCH  14  15
ENDBRANCH  13  14
ENDBRANCH   5  13
BRANCH   6  22
HETATM   22  C   UNL     1     -12.019   9.891  71.436  1.00  0.00    -0.404 C  
HETATM   23  F   UNL     1     -10.697   9.710  71.742  1.00  0.00    -0.406 F  
HETATM   24  F   UNL     1     -12.584  10.438  72.549  1.00  0.00    -0.261 F  
BRANCH  22  25
HETATM   25  C   UNL     1     -12.644   8.528  71.166  1.00  0.00    -0.162 C  
BRANCH  25  26
HETATM   26  C   UNL     1     -11.682   7.398  71.537  1.00  0.00    -0.314 C  
BRANCH  26  27
HETATM   27  C   UNL     1     -11.293   6.579  70.309  1.00  0.00    -0.456 C  
HETATM   28  C   UNL     1      -9.789   6.572  70.104  1.00  0.00    -0.185 C  
ENDBRANCH  26  27
ENDBRANCH  25  26
ENDBRANCH  22  25
ENDBRANCH   6  22
TORSDOF 10
ENDMDL
MODEL       86
REMARK 921   NORMALIZED FREE ENERGY PREDICTED BY IDOCK:   -5.07 KCAL/MOL
REMARK 922        TOTAL FREE ENERGY PREDICTED BY IDOCK:   -9.81 KCAL/MOL
REMARK 923 INTER-LIGAND FREE ENERGY PREDICTED BY IDOCK:   -7.79 KCAL/MOL
REMARK 924 INTRA-LIGAND FREE ENERGY PREDICTED BY IDOCK:   -2.02 KCAL/MOL
REMARK 927      BINDING AFFINITY PREDICTED BY RF-SCORE:    0.00 PKD
ROOT
HETATM    1  C   UNL     1     -10.642  17.432  67.554  1.00  0.00    -0.330 C  
HETATM    2  C   UNL     1     -10.532  18.631  66.632  1.00  0.00    -0.459 C  
HETATM    3  C   UNL     1      -9.489  19.446  67.353  1.00  0.00    -0.316 C  
HETATM    4  O   UNL     1      -9.330  20.641  67.143  1.00  0.00    -0.385 OA 
HETATM    5  C   UNL     1      -8.699  18.630  68.374  1.00  0.00    -0.361 C  
HETATM    6  C   UNL     1     -11.053  15.076  67.699  1.00  0.00    -0.316 C  
HETATM    7  C   UNL     1      -9.226  17.231  68.064  1.00  0.00    -0.256 C  
HETATM    8  C   UNL     1      -9.281  16.228  69.201  1.00  0.00    -0.235 C  
HETATM    9  O   UNL     1     -11.023  16.254  66.869  1.00  0.00    -0.213 OA 
HETATM   10  C   UNL     1      -9.804  14.914  68.617  1.00  0.00    -0.225 C  
HETATM   11  O   UNL     1     -12.237  15.146  68.504  1.00  0.00    -0.575 OA 
HETATM   12  H   UNL     1     -12.999  15.244  67.945  1.00  0.00     0.000 HD 
ENDROOT
BRANCH   5  13
HETATM   13  C   UNL     1      -7.183  18.652  68.168  1.00  0.00    -0.269 C  
BRANCH  13  14
HETATM   14  C   UNL     1      -6.408  19.252  69.332  1.00  0.00    -0.337 C  
BRANCH  14  15
HETATM   15  C   UNL     1      -5.278  18.321  69.767  1.00  0.00    -0.201 C  
BRANCH  15  16
HETATM   16  C   UNL     1      -5.451  16.949  69.124  1.00  0.00    -0.139 C  
BRANCH  16  17
HETATM   17  C   UNL     1      -5.728  15.878  70.172  1.00  0.00    -0.166 C  
BRANCH  17  18
HETATM   18  C   UNL     1      -5.868  14.505  69.520  1.00  0.00    -0.098 C  
HETATM   19  O   UNL     1      -6.043  12.179  69.977  1.00  0.00    -0.145 OA 
HETATM   20  C   UNL     1      -5.918  13.400  70.547  1.00  0.00    -0.121 C  
HETATM   21  O   UNL     1      -5.852  13.552  71.756  1.00  0.00    -0.382 OA 
ENDBRANCH  17  18
ENDBRANCH  16  17
ENDBRANCH  15  16
ENDBRANCH  14  15
ENDBRANCH  13  14
ENDBRANCH   5  13
BRANCH   6  22
HETATM   22  C   UNL     1     -11.115  13.834  66.752  1.00  0.00    -0.308 C  
HETATM   23  F   UNL     1     -11.552  14.236  65.519  1.00  0.00    -0.315 F  
HETATM   24  F   UNL     1      -9.858  13.343  66.557  1.00  0.00    -0.253 F  
BRANCH  22  25
HETATM   25  C   UNL     1     -12.025  12.716  67.246  1.00  0.00    -0.321 C  
BRANCH  25  26
HETATM   26  C   UNL     1     -11.216  11.477  67.631  1.00  0.00    -0.343 C  
BRANCH  26  27
HETATM   27  C   UNL     1     -11.744  10.854  68.921  1.00  0.00    -0.376 C  
HETATM   28  C   UNL     1     -12.116  11.920  69.936  1.00  0.00    -0.344 C  
ENDBRANCH  26  27
ENDBRANCH  25  26
ENDBRANCH  22  25
ENDBRANCH   6  22
TORSDOF 10
ENDMDL
MODEL       87
REMARK 921   NORMALIZED FREE ENERGY PREDICTED BY IDOCK:   -5.06 KCAL/MOL
REMARK 922        TOTAL FREE ENERGY PREDICTED BY IDOCK:   -9.79 KCAL/MOL
REMARK 923 INTER-LIGAND FREE ENERGY PREDICTED BY IDOCK:   -7.91 KCAL/MOL
REMARK 924 INTRA-LIGAND FREE ENERGY PREDICTED BY IDOCK:   -1.88 KCAL/MOL
REMARK 927      BINDING AFFINITY PREDICTED BY RF-SCORE:    0.00 PKD
ROOT
HETATM    1  C   UNL     1     -11.628  15.827  70.438  1.00  0.00    -0.360 C  
HETATM    2  C   UNL     1     -11.826  16.327  71.856  1.00  0.00    -0.538 C  
HETATM    3  C   UNL     1     -13.115  15.636  72.221  1.00  0.00    -0.456 C  
HETATM    4  O   UNL     1     -13.818  16.008  73.151  1.00  0.00    -0.576 OA 
HETATM    5  C   UNL     1     -13.446  14.468  71.294  1.00  0.00    -0.428 C  
HETATM    6  C   UNL     1     -10.033  15.212  68.758  1.00  0.00    -0.229 C  
HETATM    7  C   UNL     1     -12.160  14.405  70.474  1.00  0.00    -0.404 C  
HETATM    8  C   UNL     1     -12.258  13.911  69.043  1.00  0.00    -0.274 C  
HETATM    9  O   UNL     1     -10.264  15.766  70.069  1.00  0.00    -0.297 OA 
HETATM   10  C   UNL     1     -10.839  13.911  68.469  1.00  0.00    -0.274 C  
HETATM   11  O   UNL     1     -10.381  16.219  67.799  1.00  0.00    -0.270 OA 
HETATM   12  H   UNL     1      -9.889  17.013  67.976  1.00  0.00     0.000 HD 
ENDROOT
BRANCH   5  13
HETATM   13  C   UNL     1     -13.652  13.131  72.008  1.00  0.00    -0.554 C  
BRANCH  13  14
HETATM   14  C   UNL     1     -12.549  12.114  71.750  1.00  0.00    -0.133 C  
BRANCH  14  15
HETATM   15  C   UNL     1     -13.117  10.697  71.708  1.00  0.00    -0.571 C  
BRANCH  15  16
HETATM   16  C   UNL     1     -12.070   9.728  71.169  1.00  0.00    -0.460 C  
BRANCH  16  17
HETATM   17  C   UNL     1     -11.166  10.404  70.144  1.00  0.00    -0.393 C  
BRANCH  17  18
HETATM   18  C   UNL     1     -10.409   9.366  69.321  1.00  0.00    -0.217 C  
HETATM   19  O   UNL     1      -8.510   7.936  69.324  1.00  0.00    -0.134 OA 
HETATM   20  C   UNL     1      -9.187   8.858  70.047  1.00  0.00    -0.174 C  
HETATM   21  O   UNL     1      -8.820   9.217  71.154  1.00  0.00    -0.257 OA 
ENDBRANCH  17  18
ENDBRANCH  16  17
ENDBRANCH  15  16
ENDBRANCH  14  15
ENDBRANCH  13  14
ENDBRANCH   5  13
BRANCH   6  22
HETATM   22  C   UNL     1      -8.512  14.867  68.654  1.00  0.00    -0.166 C  
HETATM   23  F   UNL     1      -7.878  15.858  67.955  1.00  0.00    -0.129 F  
HETATM   24  F   UNL     1      -7.954  14.877  69.898  1.00  0.00    -0.161 F  
BRANCH  22  25
HETATM   25  C   UNL     1      -8.219  13.535  67.977  1.00  0.00    -0.163 C  
BRANCH  25  26
HETATM   26  C   UNL     1      -7.176  12.736  68.760  1.00  0.00    -0.077 C  
BRANCH  26  27
HETATM   27  C   UNL     1      -7.162  11.273  68.327  1.00  0.00    -0.080 C  
HETATM   28  C   UNL     1      -7.909  11.078  67.019  1.00  0.00    -0.137 C  
ENDBRANCH  26  27
ENDBRANCH  25  26
ENDBRANCH  22  25
ENDBRANCH   6  22
TORSDOF 10
ENDMDL
MODEL       88
REMARK 921   NORMALIZED FREE ENERGY PREDICTED BY IDOCK:   -5.05 KCAL/MOL
REMARK 922        TOTAL FREE ENERGY PREDICTED BY IDOCK:   -9.77 KCAL/MOL
REMARK 923 INTER-LIGAND FREE ENERGY PREDICTED BY IDOCK:   -8.24 KCAL/MOL
REMARK 924 INTRA-LIGAND FREE ENERGY PREDICTED BY IDOCK:   -1.53 KCAL/MOL
REMARK 927      BINDING AFFINITY PREDICTED BY RF-SCORE:    0.00 PKD
ROOT
HETATM    1  C   UNL     1     -11.474  11.263  67.371  1.00  0.00    -0.221 C  
HETATM    2  C   UNL     1     -10.748  10.949  66.077  1.00  0.00    -0.208 C  
HETATM    3  C   UNL     1     -10.513  12.338  65.542  1.00  0.00    -0.264 C  
HETATM    4  O   UNL     1     -10.252  12.553  64.365  1.00  0.00    -0.330 OA 
HETATM    5  C   UNL     1     -10.667  13.420  66.609  1.00  0.00    -0.282 C  
HETATM    6  C   UNL     1     -11.868  10.588  69.636  1.00  0.00    -0.234 C  
HETATM    7  C   UNL     1     -10.824  12.549  67.852  1.00  0.00    -0.251 C  
HETATM    8  C   UNL     1     -11.662  13.092  68.994  1.00  0.00    -0.376 C  
HETATM    9  O   UNL     1     -11.264  10.278  68.364  1.00  0.00    -0.265 OA 
HETATM   10  C   UNL     1     -11.623  12.050  70.115  1.00  0.00    -0.228 C  
HETATM   11  O   UNL     1     -13.275  10.349  69.513  1.00  0.00    -0.363 OA 
HETATM   12  H   UNL     1     -13.424   9.457  69.221  1.00  0.00     0.000 HD 
ENDROOT
BRANCH   5  13
HETATM   13  C   UNL     1      -9.444  14.323  66.779  1.00  0.00    -0.287 C  
BRANCH  13  14
HETATM   14  C   UNL     1      -9.777  15.803  66.901  1.00  0.00    -0.240 C  
BRANCH  14  15
HETATM   15  C   UNL     1      -9.556  16.292  68.331  1.00  0.00    -0.216 C  
BRANCH  15  16
HETATM   16  C   UNL     1     -10.885  16.704  68.955  1.00  0.00    -0.314 C  
BRANCH  16  17
HETATM   17  C   UNL     1     -10.989  16.228  70.400  1.00  0.00    -0.282 C  
BRANCH  17  18
HETATM   18  C   UNL     1     -12.398  15.731  70.707  1.00  0.00    -0.435 C  
HETATM   19  O   UNL     1     -13.932  15.297  72.471  1.00  0.00    -0.498 OA 
HETATM   20  C   UNL     1     -12.683  15.735  72.189  1.00  0.00    -0.447 C  
HETATM   21  O   UNL     1     -11.902  16.083  73.061  1.00  0.00    -0.461 OA 
ENDBRANCH  17  18
ENDBRANCH  16  17
ENDBRANCH  15  16
ENDBRANCH  14  15
ENDBRANCH  13  14
ENDBRANCH   5  13
BRANCH   6  22
HETATM   22  C   UNL     1     -11.246   9.625  70.699  1.00  0.00    -0.320 C  
HETATM   23  F   UNL     1     -11.734   9.953  71.935  1.00  0.00    -0.439 F  
HETATM   24  F   UNL     1     -11.665   8.350  70.462  1.00  0.00    -0.276 F  
BRANCH  22  25
HETATM   25  C   UNL     1      -9.724   9.657  70.756  1.00  0.00    -0.192 C  
BRANCH  25  26
HETATM   26  C   UNL     1      -9.166   8.346  71.314  1.00  0.00    -0.228 C  
BRANCH  26  27
HETATM   27  C   UNL     1      -9.221   8.329  72.839  1.00  0.00    -0.329 C  
HETATM   28  C   UNL     1      -9.727   6.994  73.357  1.00  0.00    -0.253 C  
ENDBRANCH  26  27
ENDBRANCH  25  26
ENDBRANCH  22  25
ENDBRANCH   6  22
TORSDOF 10
ENDMDL
MODEL       89
REMARK 921   NORMALIZED FREE ENERGY PREDICTED BY IDOCK:   -5.04 KCAL/MOL
REMARK 922        TOTAL FREE ENERGY PREDICTED BY IDOCK:   -9.76 KCAL/MOL
REMARK 923 INTER-LIGAND FREE ENERGY PREDICTED BY IDOCK:   -8.38 KCAL/MOL
REMARK 924 INTRA-LIGAND FREE ENERGY PREDICTED BY IDOCK:   -1.38 KCAL/MOL
REMARK 927      BINDING AFFINITY PREDICTED BY RF-SCORE:    0.00 PKD
ROOT
HETATM    1  C   UNL     1     -11.652  13.247  66.604  1.00  0.00    -0.365 C  
HETATM    2  C   UNL     1     -12.778  13.592  65.649  1.00  0.00    -0.505 C  
HETATM    3  C   UNL     1     -12.080  13.438  64.322  1.00  0.00    -0.424 C  
HETATM    4  O   UNL     1     -12.513  13.935  63.291  1.00  0.00    -0.817 OA 
HETATM    5  C   UNL     1     -10.784  12.636  64.422  1.00  0.00    -0.384 C  
HETATM    6  C   UNL     1     -11.072  12.269  68.713  1.00  0.00    -0.251 C  
HETATM    7  C   UNL     1     -10.870  12.169  65.873  1.00  0.00    -0.316 C  
HETATM    8  C   UNL     1      -9.570  11.951  66.624  1.00  0.00    -0.220 C  
HETATM    9  O   UNL     1     -12.120  12.690  67.817  1.00  0.00    -0.362 OA 
HETATM   10  C   UNL     1      -9.937  11.454  68.024  1.00  0.00    -0.192 C  
HETATM   11  O   UNL     1     -10.522  13.447  69.316  1.00  0.00    -0.441 OA 
HETATM   12  H   UNL     1     -11.214  13.945  69.736  1.00  0.00     0.000 HD 
ENDROOT
BRANCH   5  13
HETATM   13  C   UNL     1     -10.721  11.414  63.505  1.00  0.00    -0.453 C  
BRANCH  13  14
HETATM   14  C   UNL     1      -9.362  11.196  62.855  1.00  0.00    -0.385 C  
BRANCH  14  15
HETATM   15  C   UNL     1      -8.913   9.745  63.012  1.00  0.00    -0.271 C  
BRANCH  15  16
HETATM   16  C   UNL     1      -8.884   9.362  64.488  1.00  0.00    -0.235 C  
BRANCH  16  17
HETATM   17  C   UNL     1      -7.711   8.438  64.797  1.00  0.00    -0.109 C  
BRANCH  17  18
HETATM   18  C   UNL     1      -8.129   6.975  64.680  1.00  0.00    -0.083 C  
HETATM   19  O   UNL     1      -7.977   5.047  63.297  1.00  0.00    -0.077 OA 
HETATM   20  C   UNL     1      -7.613   6.346  63.409  1.00  0.00    -0.087 C  
HETATM   21  O   UNL     1      -6.945   6.911  62.558  1.00  0.00    -0.049 OA 
ENDBRANCH  17  18
ENDBRANCH  16  17
ENDBRANCH  15  16
ENDBRANCH  14  15
ENDBRANCH  13  14
ENDBRANCH   5  13
BRANCH   6  22
HETATM   22  C   UNL     1     -11.723  11.357  69.803  1.00  0.00    -0.344 C  
HETATM   23  F   UNL     1     -12.144  12.139  70.844  1.00  0.00    -0.443 F  
HETATM   24  F   UNL     1     -12.848  10.775  69.300  1.00  0.00    -0.202 F  
BRANCH  22  25
HETATM   25  C   UNL     1     -10.796  10.280  70.352  1.00  0.00    -0.320 C  
BRANCH  25  26
HETATM   26  C   UNL     1     -11.522   8.939  70.477  1.00  0.00    -0.231 C  
BRANCH  26  27
HETATM   27  C   UNL     1     -11.989   8.698  71.910  1.00  0.00    -0.424 C  
HETATM   28  C   UNL     1     -11.287   7.501  72.525  1.00  0.00    -0.384 C  
ENDBRANCH  26  27
ENDBRANCH  25  26
ENDBRANCH  22  25
ENDBRANCH   6  22
TORSDOF 10
ENDMDL
MODEL       90
REMARK 921   NORMALIZED FREE ENERGY PREDICTED BY IDOCK:   -5.02 KCAL/MOL
REMARK 922        TOTAL FREE ENERGY PREDICTED BY IDOCK:   -9.73 KCAL/MOL
REMARK 923 INTER-LIGAND FREE ENERGY PREDICTED BY IDOCK:   -7.82 KCAL/MOL
REMARK 924 INTRA-LIGAND FREE ENERGY PREDICTED BY IDOCK:   -1.90 KCAL/MOL
REMARK 927      BINDING AFFINITY PREDICTED BY RF-SCORE:    0.00 PKD
ROOT
HETATM    1  C   UNL     1      -9.671   9.439  67.306  1.00  0.00    -0.165 C  
HETATM    2  C   UNL     1     -10.545   8.208  67.448  1.00  0.00    -0.325 C  
HETATM    3  C   UNL     1      -9.739   7.402  68.434  1.00  0.00    -0.153 C  
HETATM    4  O   UNL     1      -9.900   6.198  68.585  1.00  0.00    -0.131 OA 
HETATM    5  C   UNL     1      -8.703   8.241  69.180  1.00  0.00    -0.143 C  
HETATM    6  C   UNL     1      -9.628  11.805  66.928  1.00  0.00    -0.193 C  
HETATM    7  C   UNL     1      -9.089   9.636  68.695  1.00  0.00    -0.132 C  
HETATM    8  C   UNL     1      -7.991  10.678  68.593  1.00  0.00    -0.128 C  
HETATM    9  O   UNL     1     -10.415  10.599  66.984  1.00  0.00    -0.220 OA 
HETATM   10  C   UNL     1      -8.647  11.979  68.126  1.00  0.00    -0.173 C  
HETATM   11  O   UNL     1      -8.890  11.780  65.700  1.00  0.00    -0.402 OA 
HETATM   12  H   UNL     1      -9.488  11.674  64.969  1.00  0.00     0.000 HD 
ENDROOT
BRANCH   5  13
HETATM   13  C   UNL     1      -8.822   8.189  70.704  1.00  0.00    -0.143 C  
BRANCH  13  14
HETATM   14  C   UNL     1      -9.731   9.259  71.292  1.00  0.00    -0.299 C  
BRANCH  14  15
HETATM   15  C   UNL     1     -11.051   8.652  71.760  1.00  0.00    -0.396 C  
BRANCH  15  16
HETATM   16  C   UNL     1     -12.213   9.258  70.979  1.00  0.00    -0.322 C  
BRANCH  16  17
HETATM   17  C   UNL     1     -12.135  10.781  70.964  1.00  0.00    -0.452 C  
BRANCH  17  18
HETATM   18  C   UNL     1     -13.206  11.387  71.866  1.00  0.00    -0.485 C  
HETATM   19  O   UNL     1     -14.098  13.441  72.662  1.00  0.00    -0.767 OA 
HETATM   20  C   UNL     1     -13.151  12.895  71.866  1.00  0.00    -0.373 C  
HETATM   21  O   UNL     1     -12.356  13.576  71.236  1.00  0.00    -0.336 OA 
ENDBRANCH  17  18
ENDBRANCH  16  17
ENDBRANCH  15  16
ENDBRANCH  14  15
ENDBRANCH  13  14
ENDBRANCH   5  13
BRANCH   6  22
HETATM   22  C   UNL     1     -10.619  13.014  66.940  1.00  0.00    -0.254 C  
HETATM   23  F   UNL     1     -11.805  12.623  66.381  1.00  0.00    -0.393 F  
HETATM   24  F   UNL     1     -10.910  13.354  68.228  1.00  0.00    -0.232 F  
BRANCH  22  25
HETATM   25  C   UNL     1     -10.114  14.242  66.193  1.00  0.00    -0.325 C  
BRANCH  25  26
HETATM   26  C   UNL     1      -9.599  15.306  67.165  1.00  0.00    -0.223 C  
BRANCH  26  27
HETATM   27  C   UNL     1     -10.583  16.466  67.283  1.00  0.00    -0.293 C  
HETATM   28  C   UNL     1     -10.211  17.392  68.428  1.00  0.00    -0.362 C  
ENDBRANCH  26  27
ENDBRANCH  25  26
ENDBRANCH  22  25
ENDBRANCH   6  22
TORSDOF 10
ENDMDL
MODEL       91
REMARK 921   NORMALIZED FREE ENERGY PREDICTED BY IDOCK:   -5.00 KCAL/MOL
REMARK 922        TOTAL FREE ENERGY PREDICTED BY IDOCK:   -9.70 KCAL/MOL
REMARK 923 INTER-LIGAND FREE ENERGY PREDICTED BY IDOCK:   -7.99 KCAL/MOL
REMARK 924 INTRA-LIGAND FREE ENERGY PREDICTED BY IDOCK:   -1.71 KCAL/MOL
REMARK 927      BINDING AFFINITY PREDICTED BY RF-SCORE:    0.00 PKD
ROOT
HETATM    1  C   UNL     1     -12.590  12.430  70.235  1.00  0.00     0.051 C  
HETATM    2  C   UNL     1     -13.019  12.120  71.656  1.00  0.00    -0.427 C  
HETATM    3  C   UNL     1     -13.027  10.613  71.625  1.00  0.00    -0.477 C  
HETATM    4  O   UNL     1     -13.628   9.943  72.454  1.00  0.00    -0.378 OA 
HETATM    5  C   UNL     1     -12.243  10.039  70.447  1.00  0.00    -0.249 C  
HETATM    6  C   UNL     1     -11.393  13.942  68.812  1.00  0.00    -0.277 C  
HETATM    7  C   UNL     1     -11.615  11.317  69.896  1.00  0.00    -0.413 C  
HETATM    8  C   UNL     1     -11.338  11.382  68.406  1.00  0.00    -0.346 C  
HETATM    9  O   UNL     1     -11.893  13.657  70.134  1.00  0.00    -0.299 OA 
HETATM   10  C   UNL     1     -10.681  12.736  68.129  1.00  0.00    -0.243 C  
HETATM   11  O   UNL     1     -12.506  14.361  68.013  1.00  0.00    -0.585 OA 
HETATM   12  H   UNL     1     -12.941  15.096  68.429  1.00  0.00     0.000 HD 
ENDROOT
BRANCH   5  13
HETATM   13  C   UNL     1     -11.132   9.063  70.840  1.00  0.00    -0.343 C  
BRANCH  13  14
HETATM   14  C   UNL     1     -11.510   7.597  70.679  1.00  0.00    -0.276 C  
BRANCH  14  15
HETATM   15  C   UNL     1     -10.501   6.871  69.792  1.00  0.00    -0.240 C  
BRANCH  15  16
HETATM   16  C   UNL     1     -10.011   7.800  68.686  1.00  0.00    -0.191 C  
BRANCH  16  17
HETATM   17  C   UNL     1     -10.711   7.504  67.365  1.00  0.00    -0.331 C  
BRANCH  17  18
HETATM   18  C   UNL     1     -10.572   6.030  66.997  1.00  0.00    -0.385 C  
HETATM   19  O   UNL     1      -9.235   4.475  65.794  1.00  0.00    -0.131 OA 
HETATM   20  C   UNL     1      -9.367   5.781  66.124  1.00  0.00    -0.144 C  
HETATM   21  O   UNL     1      -8.582   6.633  65.738  1.00  0.00    -0.148 OA 
ENDBRANCH  17  18
ENDBRANCH  16  17
ENDBRANCH  15  16
ENDBRANCH  14  15
ENDBRANCH  13  14
ENDBRANCH   5  13
BRANCH   6  22
HETATM   22  C   UNL     1     -10.353  15.102  68.942  1.00  0.00    -0.243 C  
HETATM   23  F   UNL     1     -10.409  15.609  70.211  1.00  0.00    -0.291 F  
HETATM   24  F   UNL     1      -9.092  14.605  68.797  1.00  0.00    -0.178 F  
BRANCH  22  25
HETATM   25  C   UNL     1     -10.565  16.243  67.955  1.00  0.00    -0.318 C  
BRANCH  25  26
HETATM   26  C   UNL     1      -9.688  16.068  66.713  1.00  0.00    -0.253 C  
BRANCH  26  27
HETATM   27  C   UNL     1     -10.537  15.979  65.448  1.00  0.00    -0.428 C  
HETATM   28  C   UNL     1     -10.559  14.565  64.897  1.00  0.00    -0.450 C  
ENDBRANCH  26  27
ENDBRANCH  25  26
ENDBRANCH  22  25
ENDBRANCH   6  22
TORSDOF 10
ENDMDL
MODEL       92
REMARK 921   NORMALIZED FREE ENERGY PREDICTED BY IDOCK:   -4.98 KCAL/MOL
REMARK 922        TOTAL FREE ENERGY PREDICTED BY IDOCK:   -9.67 KCAL/MOL
REMARK 923 INTER-LIGAND FREE ENERGY PREDICTED BY IDOCK:   -8.54 KCAL/MOL
REMARK 924 INTRA-LIGAND FREE ENERGY PREDICTED BY IDOCK:   -1.13 KCAL/MOL
REMARK 927      BINDING AFFINITY PREDICTED BY RF-SCORE:    0.00 PKD
ROOT
HETATM    1  C   UNL     1     -12.167  13.302  68.891  1.00  0.00    -0.098 C  
HETATM    2  C   UNL     1     -12.462  13.539  70.360  1.00  0.00    -0.345 C  
HETATM    3  C   UNL     1     -12.563  12.120  70.858  1.00  0.00    -0.247 C  
HETATM    4  O   UNL     1     -13.113  11.833  71.914  1.00  0.00    -0.468 OA 
HETATM    5  C   UNL     1     -11.943  11.107  69.898  1.00  0.00    -0.439 C  
HETATM    6  C   UNL     1     -11.039  14.118  66.941  1.00  0.00    -0.307 C  
HETATM    7  C   UNL     1     -11.302  12.055  68.888  1.00  0.00    -0.333 C  
HETATM    8  C   UNL     1     -11.180  11.580  67.452  1.00  0.00    -0.367 C  
HETATM    9  O   UNL     1     -11.412  14.350  68.314  1.00  0.00    -0.274 OA 
HETATM   10  C   UNL     1     -10.476  12.691  66.669  1.00  0.00    -0.261 C  
HETATM   11  O   UNL     1     -12.203  14.339  66.135  1.00  0.00    -0.431 OA 
HETATM   12  H   UNL     1     -12.546  15.210  66.301  1.00  0.00     0.000 HD 
ENDROOT
BRANCH   5  13
HETATM   13  C   UNL     1     -10.858  10.226  70.519  1.00  0.00    -0.281 C  
BRANCH  13  14
HETATM   14  C   UNL     1     -11.320   8.813  70.849  1.00  0.00    -0.322 C  
BRANCH  14  15
HETATM   15  C   UNL     1     -10.753   7.809  69.848  1.00  0.00    -0.245 C  
BRANCH  15  16
HETATM   16  C   UNL     1     -11.438   6.457  70.016  1.00  0.00    -0.496 C  
BRANCH  16  17
HETATM   17  C   UNL     1     -10.505   5.442  70.666  1.00  0.00    -0.329 C  
BRANCH  17  18
HETATM   18  C   UNL     1     -10.903   5.193  72.118  1.00  0.00    -0.218 C  
HETATM   19  O   UNL     1     -10.335   5.697  74.371  1.00  0.00    -0.270 OA 
HETATM   20  C   UNL     1      -9.989   5.911  73.080  1.00  0.00    -0.177 C  
HETATM   21  O   UNL     1      -9.036   6.608  72.768  1.00  0.00    -0.137 OA 
ENDBRANCH  17  18
ENDBRANCH  16  17
ENDBRANCH  15  16
ENDBRANCH  14  15
ENDBRANCH  13  14
ENDBRANCH   5  13
BRANCH   6  22
HETATM   22  C   UNL     1      -9.923  15.151  66.575  1.00  0.00    -0.266 C  
HETATM   23  F   UNL     1      -8.700  14.564  66.750  1.00  0.00    -0.233 F  
HETATM   24  F   UNL     1     -10.001  15.457  65.249  1.00  0.00    -0.350 F  
BRANCH  22  25
HETATM   25  C   UNL     1      -9.967  16.433  67.396  1.00  0.00    -0.251 C  
BRANCH  25  26
HETATM   26  C   UNL     1     -10.326  17.636  66.520  1.00  0.00    -0.337 C  
BRANCH  26  27
HETATM   27  C   UNL     1     -10.720  18.839  67.372  1.00  0.00    -0.487 C  
HETATM   28  C   UNL     1      -9.869  20.052  67.040  1.00  0.00    -0.566 C  
ENDBRANCH  26  27
ENDBRANCH  25  26
ENDBRANCH  22  25
ENDBRANCH   6  22
TORSDOF 10
ENDMDL
MODEL       93
REMARK 921   NORMALIZED FREE ENERGY PREDICTED BY IDOCK:   -4.98 KCAL/MOL
REMARK 922        TOTAL FREE ENERGY PREDICTED BY IDOCK:   -9.67 KCAL/MOL
REMARK 923 INTER-LIGAND FREE ENERGY PREDICTED BY IDOCK:   -8.47 KCAL/MOL
REMARK 924 INTRA-LIGAND FREE ENERGY PREDICTED BY IDOCK:   -1.20 KCAL/MOL
REMARK 927      BINDING AFFINITY PREDICTED BY RF-SCORE:    0.00 PKD
ROOT
HETATM    1  C   UNL     1     -12.267  13.282  67.900  1.00  0.00    -0.087 C  
HETATM    2  C   UNL     1     -12.222  13.517  69.398  1.00  0.00    -0.278 C  
HETATM    3  C   UNL     1     -11.918  12.125  69.892  1.00  0.00    -0.309 C  
HETATM    4  O   UNL     1     -12.117  11.782  71.050  1.00  0.00    -0.277 OA 
HETATM    5  C   UNL     1     -11.375  11.211  68.795  1.00  0.00    -0.342 C  
HETATM    6  C   UNL     1     -11.847  14.219  65.736  1.00  0.00    -0.374 C  
HETATM    7  C   UNL     1     -11.205  12.223  67.664  1.00  0.00    -0.346 C  
HETATM    8  C   UNL     1     -11.359  11.723  66.240  1.00  0.00    -0.350 C  
HETATM    9  O   UNL     1     -11.900  14.431  67.160  1.00  0.00    -0.388 OA 
HETATM   10  C   UNL     1     -11.104  12.915  65.315  1.00  0.00    -0.313 C  
HETATM   11  O   UNL     1     -13.196  14.182  65.255  1.00  0.00    -0.760 OA 
HETATM   12  H   UNL     1     -13.649  14.977  65.512  1.00  0.00     0.000 HD 
ENDROOT
BRANCH   5  13
HETATM   13  C   UNL     1     -10.019  10.578  69.110  1.00  0.00    -0.236 C  
BRANCH  13  14
HETATM   14  C   UNL     1     -10.079   9.078  69.364  1.00  0.00    -0.198 C  
BRANCH  14  15
HETATM   15  C   UNL     1     -10.322   8.788  70.844  1.00  0.00    -0.281 C  
BRANCH  15  16
HETATM   16  C   UNL     1     -10.696   7.322  71.036  1.00  0.00    -0.247 C  
BRANCH  16  17
HETATM   17  C   UNL     1     -11.488   6.793  69.847  1.00  0.00    -0.355 C  
BRANCH  17  18
HETATM   18  C   UNL     1     -10.767   5.617  69.195  1.00  0.00    -0.325 C  
HETATM   19  O   UNL     1     -10.063   4.722  67.108  1.00  0.00    -0.194 OA 
HETATM   20  C   UNL     1     -10.704   5.760  67.694  1.00  0.00    -0.229 C  
HETATM   21  O   UNL     1     -11.168   6.688  67.050  1.00  0.00    -0.404 OA 
ENDBRANCH  17  18
ENDBRANCH  16  17
ENDBRANCH  15  16
ENDBRANCH  14  15
ENDBRANCH  13  14
ENDBRANCH   5  13
BRANCH   6  22
HETATM   22  C   UNL     1     -11.082  15.429  65.108  1.00  0.00    -0.394 C  
HETATM   23  F   UNL     1      -9.950  14.969  64.491  1.00  0.00    -0.221 F  
HETATM   24  F   UNL     1     -11.840  15.987  64.122  1.00  0.00    -0.493 F  
BRANCH  22  25
HETATM   25  C   UNL     1     -10.683  16.504  66.111  1.00  0.00    -0.155 C  
BRANCH  25  26
HETATM   26  C   UNL     1      -9.161  16.609  66.230  1.00  0.00    -0.328 C  
BRANCH  26  27
HETATM   27  C   UNL     1      -8.755  17.844  67.031  1.00  0.00    -0.254 C  
HETATM   28  C   UNL     1      -9.742  18.124  68.150  1.00  0.00    -0.331 C  
ENDBRANCH  26  27
ENDBRANCH  25  26
ENDBRANCH  22  25
ENDBRANCH   6  22
TORSDOF 10
ENDMDL
MODEL       94
REMARK 921   NORMALIZED FREE ENERGY PREDICTED BY IDOCK:   -4.98 KCAL/MOL
REMARK 922        TOTAL FREE ENERGY PREDICTED BY IDOCK:   -9.66 KCAL/MOL
REMARK 923 INTER-LIGAND FREE ENERGY PREDICTED BY IDOCK:   -8.64 KCAL/MOL
REMARK 924 INTRA-LIGAND FREE ENERGY PREDICTED BY IDOCK:   -1.02 KCAL/MOL
REMARK 927      BINDING AFFINITY PREDICTED BY RF-SCORE:    0.00 PKD
ROOT
HETATM    1  C   UNL     1     -11.911  12.309  66.174  1.00  0.00    -0.329 C  
HETATM    2  C   UNL     1     -12.139  12.587  64.701  1.00  0.00    -0.496 C  
HETATM    3  C   UNL     1     -12.154  14.094  64.697  1.00  0.00    -0.452 C  
HETATM    4  O   UNL     1     -12.636  14.743  63.778  1.00  0.00    -0.806 OA 
HETATM    5  C   UNL     1     -11.542  14.697  65.960  1.00  0.00    -0.328 C  
HETATM    6  C   UNL     1     -10.920  10.835  67.782  1.00  0.00    -0.297 C  
HETATM    7  C   UNL     1     -10.994  13.435  66.620  1.00  0.00    -0.297 C  
HETATM    8  C   UNL     1     -10.926  13.403  68.135  1.00  0.00    -0.277 C  
HETATM    9  O   UNL     1     -11.232  11.088  66.398  1.00  0.00    -0.156 OA 
HETATM   10  C   UNL     1     -10.311  12.058  68.530  1.00  0.00    -0.228 C  
HETATM   11  O   UNL     1     -12.133  10.428  68.429  1.00  0.00    -0.769 OA 
HETATM   12  H   UNL     1     -12.504   9.681  67.972  1.00  0.00     0.000 HD 
ENDROOT
BRANCH   5  13
HETATM   13  C   UNL     1     -10.389  15.670  65.703  1.00  0.00    -0.408 C  
BRANCH  13  14
HETATM   14  C   UNL     1     -10.297  16.803  66.716  1.00  0.00    -0.293 C  
BRANCH  14  15
HETATM   15  C   UNL     1     -10.613  18.144  66.059  1.00  0.00    -0.278 C  
BRANCH  15  16
HETATM   16  C   UNL     1     -10.632  19.251  67.109  1.00  0.00    -0.575 C  
BRANCH  16  17
HETATM   17  C   UNL     1      -9.581  20.314  66.811  1.00  0.00    -0.548 C  
BRANCH  17  18
HETATM   18  C   UNL     1      -8.300  20.043  67.594  1.00  0.00    -0.364 C  
HETATM   19  O   UNL     1      -6.091  19.184  67.410  1.00  0.00    -0.188 OA 
HETATM   20  C   UNL     1      -7.232  19.426  66.724  1.00  0.00    -0.213 C  
HETATM   21  O   UNL     1      -7.349  19.160  65.538  1.00  0.00    -0.460 OA 
ENDBRANCH  17  18
ENDBRANCH  16  17
ENDBRANCH  15  16
ENDBRANCH  14  15
ENDBRANCH  13  14
ENDBRANCH   5  13
BRANCH   6  22
HETATM   22  C   UNL     1      -9.870   9.677  67.824  1.00  0.00    -0.159 C  
HETATM   23  F   UNL     1     -10.504   8.513  68.163  1.00  0.00    -0.233 F  
HETATM   24  F   UNL     1      -9.366   9.472  66.574  1.00  0.00    -0.165 F  
BRANCH  22  25
HETATM   25  C   UNL     1      -8.725   9.907  68.802  1.00  0.00    -0.132 C  
BRANCH  25  26
HETATM   26  C   UNL     1      -7.490  10.454  68.084  1.00  0.00    -0.090 C  
BRANCH  26  27
HETATM   27  C   UNL     1      -6.229   9.706  68.510  1.00  0.00    -0.047 C  
HETATM   28  C   UNL     1      -6.345   8.221  68.218  1.00  0.00    -0.051 C  
ENDBRANCH  26  27
ENDBRANCH  25  26
ENDBRANCH  22  25
ENDBRANCH   6  22
TORSDOF 10
ENDMDL
MODEL       95
REMARK 921   NORMALIZED FREE ENERGY PREDICTED BY IDOCK:   -4.97 KCAL/MOL
REMARK 922        TOTAL FREE ENERGY PREDICTED BY IDOCK:   -9.66 KCAL/MOL
REMARK 923 INTER-LIGAND FREE ENERGY PREDICTED BY IDOCK:   -8.33 KCAL/MOL
REMARK 924 INTRA-LIGAND FREE ENERGY PREDICTED BY IDOCK:   -1.33 KCAL/MOL
REMARK 927      BINDING AFFINITY PREDICTED BY RF-SCORE:    0.00 PKD
ROOT
HETATM    1  C   UNL     1     -10.229  12.607  67.938  1.00  0.00    -0.220 C  
HETATM    2  C   UNL     1      -8.893  12.954  67.311  1.00  0.00    -0.206 C  
HETATM    3  C   UNL     1      -8.995  14.456  67.243  1.00  0.00    -0.212 C  
HETATM    4  O   UNL     1      -8.283  15.130  66.510  1.00  0.00    -0.150 OA 
HETATM    5  C   UNL     1     -10.085  15.019  68.153  1.00  0.00    -0.220 C  
HETATM    6  C   UNL     1     -11.411  11.098  69.376  1.00  0.00    -0.283 C  
HETATM    7  C   UNL     1     -10.489  13.751  68.902  1.00  0.00    -0.183 C  
HETATM    8  C   UNL     1     -11.925  13.639  69.377  1.00  0.00    -0.394 C  
HETATM    9  O   UNL     1     -10.181  11.412  68.693  1.00  0.00    -0.198 OA 
HETATM   10  C   UNL     1     -12.050  12.307  70.122  1.00  0.00    -0.364 C  
HETATM   11  O   UNL     1     -12.329  10.594  68.398  1.00  0.00    -0.776 OA 
HETATM   12  H   UNL     1     -11.939   9.856  67.943  1.00  0.00     0.000 HD 
ENDROOT
BRANCH   5  13
HETATM   13  C   UNL     1      -9.596  16.062  69.159  1.00  0.00    -0.257 C  
BRANCH  13  14
HETATM   14  C   UNL     1     -10.222  17.438  68.979  1.00  0.00    -0.317 C  
BRANCH  14  15
HETATM   15  C   UNL     1     -10.668  17.646  67.533  1.00  0.00    -0.294 C  
BRANCH  15  16
HETATM   16  C   UNL     1     -10.688  19.134  67.199  1.00  0.00    -0.567 C  
BRANCH  16  17
HETATM   17  C   UNL     1      -9.628  19.892  67.990  1.00  0.00    -0.482 C  
BRANCH  17  18
HETATM   18  C   UNL     1      -8.357  20.067  67.163  1.00  0.00    -0.381 C  
HETATM   19  O   UNL     1      -6.011  19.682  67.156  1.00  0.00    -0.178 OA 
HETATM   20  C   UNL     1      -7.143  19.533  67.883  1.00  0.00    -0.260 C  
HETATM   21  O   UNL     1      -7.143  19.023  68.993  1.00  0.00    -0.318 OA 
ENDBRANCH  17  18
ENDBRANCH  16  17
ENDBRANCH  15  16
ENDBRANCH  14  15
ENDBRANCH  13  14
ENDBRANCH   5  13
BRANCH   6  22
HETATM   22  C   UNL     1     -11.092   9.995  70.437  1.00  0.00    -0.327 C  
HETATM   23  F   UNL     1      -9.735   9.891  70.577  1.00  0.00    -0.297 F  
HETATM   24  F   UNL     1     -11.561  10.384  71.657  1.00  0.00    -0.351 F  
BRANCH  22  25
HETATM   25  C   UNL     1     -11.650   8.619  70.095  1.00  0.00     0.083 C  
BRANCH  25  26
HETATM   26  C   UNL     1     -11.998   7.835  71.362  1.00  0.00    -0.331 C  
BRANCH  26  27
HETATM   27  C   UNL     1     -11.641   6.359  71.211  1.00  0.00    -0.370 C  
HETATM   28  C   UNL     1     -11.104   6.060  69.823  1.00  0.00    -0.476 C  
ENDBRANCH  26  27
ENDBRANCH  25  26
ENDBRANCH  22  25
ENDBRANCH   6  22
TORSDOF 10
ENDMDL
MODEL       96
REMARK 921   NORMALIZED FREE ENERGY PREDICTED BY IDOCK:   -4.95 KCAL/MOL
REMARK 922        TOTAL FREE ENERGY PREDICTED BY IDOCK:   -9.61 KCAL/MOL
REMARK 923 INTER-LIGAND FREE ENERGY PREDICTED BY IDOCK:   -8.30 KCAL/MOL
REMARK 924 INTRA-LIGAND FREE ENERGY PREDICTED BY IDOCK:   -1.31 KCAL/MOL
REMARK 927      BINDING AFFINITY PREDICTED BY RF-SCORE:    0.00 PKD
ROOT
HETATM    1  C   UNL     1     -12.046  12.334  67.648  1.00  0.00     0.038 C  
HETATM    2  C   UNL     1     -11.456  12.577  66.272  1.00  0.00    -0.421 C  
HETATM    3  C   UNL     1     -11.549  14.079  66.186  1.00  0.00    -0.367 C  
HETATM    4  O   UNL     1     -11.491  14.680  65.122  1.00  0.00    -0.349 OA 
HETATM    5  C   UNL     1     -11.750  14.740  67.548  1.00  0.00    -0.370 C  
HETATM    6  C   UNL     1     -12.004  10.954  69.606  1.00  0.00    -0.343 C  
HETATM    7  C   UNL     1     -11.580  13.528  68.461  1.00  0.00    -0.368 C  
HETATM    8  C   UNL     1     -12.340  13.520  69.774  1.00  0.00    -0.249 C  
HETATM    9  O   UNL     1     -11.531  11.168  68.261  1.00  0.00    -0.269 OA 
HETATM   10  C   UNL     1     -11.965  12.227  70.503  1.00  0.00    -0.296 C  
HETATM   11  O   UNL     1     -13.349  10.468  69.516  1.00  0.00    -0.309 OA 
HETATM   12  H   UNL     1     -13.373   9.692  68.969  1.00  0.00     0.000 HD 
ENDROOT
BRANCH   5  13
HETATM   13  C   UNL     1     -10.698  15.790  67.906  1.00  0.00    -0.302 C  
BRANCH  13  14
HETATM   14  C   UNL     1      -9.376  15.206  68.384  1.00  0.00    -0.197 C  
BRANCH  14  15
HETATM   15  C   UNL     1      -8.435  16.312  68.858  1.00  0.00    -0.253 C  
BRANCH  15  16
HETATM   16  C   UNL     1      -8.919  17.666  68.350  1.00  0.00    -0.280 C  
BRANCH  16  17
HETATM   17  C   UNL     1      -7.747  18.563  67.965  1.00  0.00    -0.281 C  
BRANCH  17  18
HETATM   18  C   UNL     1      -7.599  19.714  68.954  1.00  0.00    -0.344 C  
HETATM   19  O   UNL     1      -6.234  20.572  70.702  1.00  0.00    -0.536 OA 
HETATM   20  C   UNL     1      -6.374  19.554  69.822  1.00  0.00    -0.310 C  
HETATM   21  O   UNL     1      -5.583  18.626  69.767  1.00  0.00    -0.213 OA 
ENDBRANCH  17  18
ENDBRANCH  16  17
ENDBRANCH  15  16
ENDBRANCH  14  15
ENDBRANCH  13  14
ENDBRANCH   5  13
BRANCH   6  22
HETATM   22  C   UNL     1     -11.082   9.876  70.264  1.00  0.00    -0.308 C  
HETATM   23  F   UNL     1     -11.067   8.761  69.472  1.00  0.00    -0.220 F  
HETATM   24  F   UNL     1      -9.796  10.329  70.290  1.00  0.00    -0.260 F  
BRANCH  22  25
HETATM   25  C   UNL     1     -11.505   9.466  71.669  1.00  0.00    -0.463 C  
BRANCH  25  26
HETATM   26  C   UNL     1     -11.553   7.944  71.807  1.00  0.00    -0.321 C  
BRANCH  26  27
HETATM   27  C   UNL     1     -10.643   7.464  72.934  1.00  0.00    -0.370 C  
HETATM   28  C   UNL     1      -9.307   8.186  72.910  1.00  0.00    -0.343 C  
ENDBRANCH  26  27
ENDBRANCH  25  26
ENDBRANCH  22  25
ENDBRANCH   6  22
TORSDOF 10
ENDMDL
MODEL       97
REMARK 921   NORMALIZED FREE ENERGY PREDICTED BY IDOCK:   -4.94 KCAL/MOL
REMARK 922        TOTAL FREE ENERGY PREDICTED BY IDOCK:   -9.60 KCAL/MOL
REMARK 923 INTER-LIGAND FREE ENERGY PREDICTED BY IDOCK:   -7.77 KCAL/MOL
REMARK 924 INTRA-LIGAND FREE ENERGY PREDICTED BY IDOCK:   -1.83 KCAL/MOL
REMARK 927      BINDING AFFINITY PREDICTED BY RF-SCORE:    0.00 PKD
ROOT
HETATM    1  C   UNL     1     -12.528  12.036  70.261  1.00  0.00    -0.099 C  
HETATM    2  C   UNL     1     -12.828  11.675  71.703  1.00  0.00    -0.454 C  
HETATM    3  C   UNL     1     -12.847  10.170  71.618  1.00  0.00    -0.454 C  
HETATM    4  O   UNL     1     -13.374   9.471  72.474  1.00  0.00    -0.418 OA 
HETATM    5  C   UNL     1     -12.176   9.638  70.354  1.00  0.00    -0.065 C  
HETATM    6  C   UNL     1     -11.457  13.597  68.792  1.00  0.00    -0.309 C  
HETATM    7  C   UNL     1     -11.594  10.934  69.795  1.00  0.00    -0.399 C  
HETATM    8  C   UNL     1     -11.452  11.054  68.289  1.00  0.00    -0.374 C  
HETATM    9  O   UNL     1     -11.836  13.265  70.142  1.00  0.00    -0.312 OA 
HETATM   10  C   UNL     1     -10.816  12.416  68.004  1.00  0.00    -0.251 C  
HETATM   11  O   UNL     1     -12.636  14.047  68.113  1.00  0.00    -0.402 OA 
HETATM   12  H   UNL     1     -13.027  14.768  68.593  1.00  0.00     0.000 HD 
ENDROOT
BRANCH   5  13
HETATM   13  C   UNL     1     -11.040   8.646  70.608  1.00  0.00    -0.282 C  
BRANCH  13  14
HETATM   14  C   UNL     1      -9.967   9.162  71.557  1.00  0.00    -0.358 C  
BRANCH  14  15
HETATM   15  C   UNL     1      -9.671   8.136  72.649  1.00  0.00    -0.360 C  
BRANCH  15  16
HETATM   16  C   UNL     1     -10.680   6.995  72.583  1.00  0.00    -0.291 C  
BRANCH  16  17
HETATM   17  C   UNL     1      -9.981   5.641  72.528  1.00  0.00    -0.194 C  
BRANCH  17  18
HETATM   18  C   UNL     1      -8.782   5.689  71.586  1.00  0.00    -0.136 C  
HETATM   19  O   UNL     1      -8.116   5.413  69.320  1.00  0.00    -0.091 OA 
HETATM   20  C   UNL     1      -9.174   5.372  70.163  1.00  0.00    -0.140 C  
HETATM   21  O   UNL     1     -10.302   5.101  69.782  1.00  0.00    -0.271 OA 
ENDBRANCH  17  18
ENDBRANCH  16  17
ENDBRANCH  15  16
ENDBRANCH  14  15
ENDBRANCH  13  14
ENDBRANCH   5  13
BRANCH   6  22
HETATM   22  C   UNL     1     -10.403  14.750  68.869  1.00  0.00    -0.243 C  
HETATM   23  F   UNL     1     -10.361  15.229  70.149  1.00  0.00    -0.272 F  
HETATM   24  F   UNL     1      -9.160  14.250  68.620  1.00  0.00    -0.185 F  
BRANCH  22  25
HETATM   25  C   UNL     1     -10.681  15.913  67.925  1.00  0.00    -0.312 C  
BRANCH  25  26
HETATM   26  C   UNL     1      -9.794  15.837  66.681  1.00  0.00    -0.266 C  
BRANCH  26  27
HETATM   27  C   UNL     1     -10.626  15.939  65.405  1.00  0.00    -0.439 C  
HETATM   28  C   UNL     1     -11.119  14.574  64.958  1.00  0.00    -0.393 C  
ENDBRANCH  26  27
ENDBRANCH  25  26
ENDBRANCH  22  25
ENDBRANCH   6  22
TORSDOF 10
ENDMDL
MODEL       98
REMARK 921   NORMALIZED FREE ENERGY PREDICTED BY IDOCK:   -4.93 KCAL/MOL
REMARK 922        TOTAL FREE ENERGY PREDICTED BY IDOCK:   -9.59 KCAL/MOL
REMARK 923 INTER-LIGAND FREE ENERGY PREDICTED BY IDOCK:   -7.50 KCAL/MOL
REMARK 924 INTRA-LIGAND FREE ENERGY PREDICTED BY IDOCK:   -2.09 KCAL/MOL
REMARK 927      BINDING AFFINITY PREDICTED BY RF-SCORE:    0.00 PKD
ROOT
HETATM    1  C   UNL     1     -10.726  17.189  68.738  1.00  0.00    -0.289 C  
HETATM    2  C   UNL     1     -10.995  17.794  67.373  1.00  0.00    -0.074 C  
HETATM    3  C   UNL     1      -9.606  17.797  66.787  1.00  0.00    -0.300 C  
HETATM    4  O   UNL     1      -9.297  18.497  65.832  1.00  0.00    -0.486 OA 
HETATM    5  C   UNL     1      -8.647  16.868  67.530  1.00  0.00    -0.211 C  
HETATM    6  C   UNL     1     -11.594  15.824  70.505  1.00  0.00    -0.375 C  
HETATM    7  C   UNL     1      -9.624  16.177  68.478  1.00  0.00    -0.215 C  
HETATM    8  C   UNL     1      -9.095  15.713  69.822  1.00  0.00    -0.040 C  
HETATM    9  O   UNL     1     -11.842  16.486  69.249  1.00  0.00    -0.016 OA 
HETATM   10  C   UNL     1     -10.255  15.029  70.549  1.00  0.00     0.249 C  
HETATM   11  O   UNL     1     -11.594  16.827  71.528  1.00  0.00    -0.570 OA 
HETATM   12  H   UNL     1     -12.411  17.312  71.501  1.00  0.00     0.000 HD 
ENDROOT
BRANCH   5  13
HETATM   13  C   UNL     1      -7.973  15.815  66.648  1.00  0.00    -0.233 C  
BRANCH  13  14
HETATM   14  C   UNL     1      -8.841  14.597  66.364  1.00  0.00    -0.113 C  
BRANCH  14  15
HETATM   15  C   UNL     1      -8.288  13.361  67.069  1.00  0.00    -0.089 C  
BRANCH  15  16
HETATM   16  C   UNL     1      -9.415  12.606  67.766  1.00  0.00    -0.198 C  
BRANCH  16  17
HETATM   17  C   UNL     1     -10.227  11.784  66.772  1.00  0.00    -0.240 C  
BRANCH  17  18
HETATM   18  C   UNL     1     -11.629  12.363  66.608  1.00  0.00    -0.447 C  
HETATM   19  O   UNL     1     -13.203  13.139  65.003  1.00  0.00    -0.694 OA 
HETATM   20  C   UNL     1     -11.960  12.627  65.159  1.00  0.00    -0.428 C  
HETATM   21  O   UNL     1     -11.217  12.418  64.213  1.00  0.00    -0.311 OA 
ENDBRANCH  17  18
ENDBRANCH  16  17
ENDBRANCH  15  16
ENDBRANCH  14  15
ENDBRANCH  13  14
ENDBRANCH   5  13
BRANCH   6  22
HETATM   22  C   UNL     1     -12.761  14.811  70.741  1.00  0.00    -0.362 C  
HETATM   23  F   UNL     1     -13.875  15.499  71.135  1.00  0.00    -0.530 F  
HETATM   24  F   UNL     1     -13.093  14.213  69.562  1.00  0.00    -0.024 F  
BRANCH  22  25
HETATM   25  C   UNL     1     -12.458  13.742  71.784  1.00  0.00    -0.254 C  
BRANCH  25  26
HETATM   26  C   UNL     1     -13.577  12.701  71.846  1.00  0.00    -0.304 C  
BRANCH  26  27
HETATM   27  C   UNL     1     -13.012  11.283  71.844  1.00  0.00    -0.471 C  
HETATM   28  C   UNL     1     -12.177  11.025  70.602  1.00  0.00    -0.481 C  
ENDBRANCH  26  27
ENDBRANCH  25  26
ENDBRANCH  22  25
ENDBRANCH   6  22
TORSDOF 10
ENDMDL
MODEL       99
REMARK 921   NORMALIZED FREE ENERGY PREDICTED BY IDOCK:   -4.93 KCAL/MOL
REMARK 922        TOTAL FREE ENERGY PREDICTED BY IDOCK:   -9.59 KCAL/MOL
REMARK 923 INTER-LIGAND FREE ENERGY PREDICTED BY IDOCK:   -8.41 KCAL/MOL
REMARK 924 INTRA-LIGAND FREE ENERGY PREDICTED BY IDOCK:   -1.19 KCAL/MOL
REMARK 927      BINDING AFFINITY PREDICTED BY RF-SCORE:    0.00 PKD
ROOT
HETATM    1  C   UNL     1     -12.034  11.604  68.146  1.00  0.00    -0.144 C  
HETATM    2  C   UNL     1     -11.398  11.743  66.776  1.00  0.00    -0.385 C  
HETATM    3  C   UNL     1     -11.494  13.233  66.571  1.00  0.00    -0.337 C  
HETATM    4  O   UNL     1     -11.401  13.750  65.465  1.00  0.00    -0.303 OA 
HETATM    5  C   UNL     1     -11.745  13.996  67.869  1.00  0.00    -0.397 C  
HETATM    6  C   UNL     1     -12.055  10.381  70.206  1.00  0.00    -0.286 C  
HETATM    7  C   UNL     1     -11.601  12.861  68.879  1.00  0.00    -0.360 C  
HETATM    8  C   UNL     1     -12.407  12.949  70.161  1.00  0.00    -0.249 C  
HETATM    9  O   UNL     1     -11.536  10.493  68.866  1.00  0.00    -0.253 OA 
HETATM   10  C   UNL     1     -12.052  11.720  71.002  1.00  0.00    -0.163 C  
HETATM   11  O   UNL     1     -13.395   9.881  70.108  1.00  0.00    -0.411 OA 
HETATM   12  H   UNL     1     -13.397   9.064  69.622  1.00  0.00     0.000 HD 
ENDROOT
BRANCH   5  13
HETATM   13  C   UNL     1     -10.709  15.079  68.180  1.00  0.00    -0.256 C  
BRANCH  13  14
HETATM   14  C   UNL     1      -9.320  14.538  68.486  1.00  0.00    -0.203 C  
BRANCH  14  15
HETATM   15  C   UNL     1      -8.571  15.473  69.433  1.00  0.00    -0.259 C  
BRANCH  15  16
HETATM   16  C   UNL     1      -7.686  16.426  68.636  1.00  0.00    -0.204 C  
BRANCH  16  17
HETATM   17  C   UNL     1      -8.335  17.800  68.500  1.00  0.00    -0.298 C  
BRANCH  17  18
HETATM   18  C   UNL     1      -8.752  18.061  67.056  1.00  0.00    -0.253 C  
HETATM   19  O   UNL     1     -10.340  19.196  65.698  1.00  0.00    -0.511 OA 
HETATM   20  C   UNL     1      -9.964  18.957  66.976  1.00  0.00    -0.340 C  
HETATM   21  O   UNL     1     -10.562  19.427  67.931  1.00  0.00    -0.422 OA 
ENDBRANCH  17  18
ENDBRANCH  16  17
ENDBRANCH  15  16
ENDBRANCH  14  15
ENDBRANCH  13  14
ENDBRANCH   5  13
BRANCH   6  22
HETATM   22  C   UNL     1     -11.152   9.363  70.976  1.00  0.00    -0.344 C  
HETATM   23  F   UNL     1     -10.818   8.338  70.134  1.00  0.00    -0.230 F  
HETATM   24  F   UNL     1      -9.976   9.962  71.316  1.00  0.00    -0.234 F  
BRANCH  22  25
HETATM   25  C   UNL     1     -11.800   8.773  72.223  1.00  0.00    -0.403 C  
BRANCH  25  26
HETATM   26  C   UNL     1     -11.004   7.575  72.743  1.00  0.00    -0.410 C  
BRANCH  26  27
HETATM   27  C   UNL     1     -11.586   6.261  72.227  1.00  0.00    -0.355 C  
HETATM   28  C   UNL     1     -11.155   5.090  73.092  1.00  0.00    -0.395 C  
ENDBRANCH  26  27
ENDBRANCH  25  26
ENDBRANCH  22  25
ENDBRANCH   6  22
TORSDOF 10
ENDMDL
MODEL      100
REMARK 921   NORMALIZED FREE ENERGY PREDICTED BY IDOCK:   -4.93 KCAL/MOL
REMARK 922        TOTAL FREE ENERGY PREDICTED BY IDOCK:   -9.59 KCAL/MOL
REMARK 923 INTER-LIGAND FREE ENERGY PREDICTED BY IDOCK:   -8.16 KCAL/MOL
REMARK 924 INTRA-LIGAND FREE ENERGY PREDICTED BY IDOCK:   -1.42 KCAL/MOL
REMARK 927      BINDING AFFINITY PREDICTED BY RF-SCORE:    0.00 PKD
ROOT
HETATM    1  C   UNL     1     -11.299   9.173  70.942  1.00  0.00    -0.295 C  
HETATM    2  C   UNL     1     -12.685   9.444  71.495  1.00  0.00    -0.444 C  
HETATM    3  C   UNL     1     -12.747  10.945  71.376  1.00  0.00    -0.434 C  
HETATM    4  O   UNL     1     -13.550  11.621  72.007  1.00  0.00    -0.309 OA 
HETATM    5  C   UNL     1     -11.694  11.510  70.424  1.00  0.00    -0.328 C  
HETATM    6  C   UNL     1      -9.916   7.640  69.726  1.00  0.00    -0.184 C  
HETATM    7  C   UNL     1     -11.133  10.213  69.848  1.00  0.00    -0.346 C  
HETATM    8  C   UNL     1      -9.678  10.203  69.417  1.00  0.00    -0.247 C  
HETATM    9  O   UNL     1     -11.194   7.897  70.341  1.00  0.00    -0.269 OA 
HETATM   10  C   UNL     1      -9.387   8.812  68.847  1.00  0.00    -0.145 C  
HETATM   11  O   UNL     1      -8.981   7.364  70.777  1.00  0.00    -0.149 OA 
HETATM   12  H   UNL     1      -9.304   6.649  71.313  1.00  0.00     0.000 HD 
ENDROOT
BRANCH   5  13
HETATM   13  C   UNL     1     -12.260  12.362  69.287  1.00  0.00    -0.088 C  
BRANCH  13  14
HETATM   14  C   UNL     1     -11.806  13.815  69.315  1.00  0.00    -0.392 C  
BRANCH  14  15
HETATM   15  C   UNL     1     -11.501  14.316  67.905  1.00  0.00    -0.341 C  
BRANCH  15  16
HETATM   16  C   UNL     1     -11.659  13.179  66.900  1.00  0.00    -0.417 C  
BRANCH  16  17
HETATM   17  C   UNL     1     -10.912  13.478  65.605  1.00  0.00    -0.296 C  
BRANCH  17  18
HETATM   18  C   UNL     1     -11.624  14.567  64.808  1.00  0.00    -0.414 C  
HETATM   19  O   UNL     1     -11.486  16.841  64.127  1.00  0.00    -1.171 OA 
HETATM   20  C   UNL     1     -10.862  15.870  64.834  1.00  0.00    -0.400 C  
HETATM   21  O   UNL     1      -9.806  16.062  65.416  1.00  0.00    -0.440 OA 
ENDBRANCH  17  18
ENDBRANCH  16  17
ENDBRANCH  15  16
ENDBRANCH  14  15
ENDBRANCH  13  14
ENDBRANCH   5  13
BRANCH   6  22
HETATM   22  C   UNL     1     -10.080   6.387  68.805  1.00  0.00    -0.158 C  
HETATM   23  F   UNL     1     -10.062   5.260  69.580  1.00  0.00    -0.232 F  
HETATM   24  F   UNL     1     -11.309   6.411  68.215  1.00  0.00    -0.365 F  
BRANCH  22  25
HETATM   25  C   UNL     1      -9.005   6.255  67.734  1.00  0.00    -0.112 C  
BRANCH  25  26
HETATM   26  C   UNL     1      -8.056   5.096  68.046  1.00  0.00    -0.098 C  
BRANCH  26  27
HETATM   27  C   UNL     1      -6.805   5.587  68.769  1.00  0.00    -0.059 C  
HETATM   28  C   UNL     1      -6.153   6.738  68.023  1.00  0.00    -0.032 C  
ENDBRANCH  26  27
ENDBRANCH  25  26
ENDBRANCH  22  25
ENDBRANCH   6  22
TORSDOF 10
ENDMDL
MODEL      101
REMARK 921   NORMALIZED FREE ENERGY PREDICTED BY IDOCK:   -4.93 KCAL/MOL
REMARK 922        TOTAL FREE ENERGY PREDICTED BY IDOCK:   -9.58 KCAL/MOL
REMARK 923 INTER-LIGAND FREE ENERGY PREDICTED BY IDOCK:   -7.70 KCAL/MOL
REMARK 924 INTRA-LIGAND FREE ENERGY PREDICTED BY IDOCK:   -1.89 KCAL/MOL
REMARK 927      BINDING AFFINITY PREDICTED BY RF-SCORE:    0.00 PKD
ROOT
HETATM    1  C   UNL     1     -12.619  12.580  70.418  1.00  0.00    -0.023 C  
HETATM    2  C   UNL     1     -13.114  12.105  71.771  1.00  0.00    -0.457 C  
HETATM    3  C   UNL     1     -12.978  10.613  71.613  1.00  0.00    -0.477 C  
HETATM    4  O   UNL     1     -13.569   9.819  72.334  1.00  0.00    -0.407 OA 
HETATM    5  C   UNL     1     -12.064  10.219  70.454  1.00  0.00    -0.373 C  
HETATM    6  C   UNL     1     -11.476  14.314  69.224  1.00  0.00    -0.289 C  
HETATM    7  C   UNL     1     -11.523  11.592  70.062  1.00  0.00    -0.266 C  
HETATM    8  C   UNL     1     -11.151  11.817  68.609  1.00  0.00    -0.289 C  
HETATM    9  O   UNL     1     -12.036  13.868  70.475  1.00  0.00    -0.323 OA 
HETATM   10  C   UNL     1     -10.608  13.243  68.499  1.00  0.00    -0.270 C  
HETATM   11  O   UNL     1     -12.566  14.705  68.380  1.00  0.00    -0.481 OA 
HETATM   12  H   UNL     1     -13.096  15.358  68.822  1.00  0.00     0.000 HD 
ENDROOT
BRANCH   5  13
HETATM   13  C   UNL     1     -10.896   9.313  70.847  1.00  0.00    -0.365 C  
BRANCH  13  14
HETATM   14  C   UNL     1     -10.653   8.161  69.881  1.00  0.00    -0.239 C  
BRANCH  14  15
HETATM   15  C   UNL     1      -9.200   8.145  69.411  1.00  0.00    -0.155 C  
BRANCH  15  16
HETATM   16  C   UNL     1      -9.095   8.749  68.015  1.00  0.00    -0.144 C  
BRANCH  16  17
HETATM   17  C   UNL     1      -7.923   9.720  67.919  1.00  0.00    -0.104 C  
BRANCH  17  18
HETATM   18  C   UNL     1      -7.788  10.533  69.203  1.00  0.00    -0.138 C  
HETATM   19  O   UNL     1      -6.283  11.118  70.948  1.00  0.00    -0.361 OA 
HETATM   20  C   UNL     1      -6.413  10.398  69.810  1.00  0.00    -0.089 C  
HETATM   21  O   UNL     1      -5.500   9.725  69.356  1.00  0.00    -0.035 OA 
ENDBRANCH  17  18
ENDBRANCH  16  17
ENDBRANCH  15  16
ENDBRANCH  14  15
ENDBRANCH  13  14
ENDBRANCH   5  13
BRANCH   6  22
HETATM   22  C   UNL     1     -10.561  15.545  69.530  1.00  0.00    -0.258 C  
HETATM   23  F   UNL     1     -10.865  16.026  70.775  1.00  0.00    -0.303 F  
HETATM   24  F   UNL     1      -9.261  15.143  69.597  1.00  0.00    -0.221 F  
BRANCH  22  25
HETATM   25  C   UNL     1     -10.690  16.684  68.527  1.00  0.00    -0.351 C  
BRANCH  25  26
HETATM   26  C   UNL     1      -9.354  17.403  68.335  1.00  0.00    -0.285 C  
BRANCH  26  27
HETATM   27  C   UNL     1      -9.539  18.918  68.330  1.00  0.00    -0.401 C  
HETATM   28  C   UNL     1     -10.676  19.331  67.412  1.00  0.00    -0.594 C  
ENDBRANCH  26  27
ENDBRANCH  25  26
ENDBRANCH  22  25
ENDBRANCH   6  22
TORSDOF 10
ENDMDL
MODEL      102
REMARK 921   NORMALIZED FREE ENERGY PREDICTED BY IDOCK:   -4.93 KCAL/MOL
REMARK 922        TOTAL FREE ENERGY PREDICTED BY IDOCK:   -9.58 KCAL/MOL
REMARK 923 INTER-LIGAND FREE ENERGY PREDICTED BY IDOCK:   -7.96 KCAL/MOL
REMARK 924 INTRA-LIGAND FREE ENERGY PREDICTED BY IDOCK:   -1.62 KCAL/MOL
REMARK 927      BINDING AFFINITY PREDICTED BY RF-SCORE:    0.00 PKD
ROOT
HETATM    1  C   UNL     1     -12.275  10.581  69.983  1.00  0.00    -0.250 C  
HETATM    2  C   UNL     1     -13.051  10.142  71.210  1.00  0.00    -0.490 C  
HETATM    3  C   UNL     1     -12.337   8.858  71.549  1.00  0.00    -0.324 C  
HETATM    4  O   UNL     1     -12.834   8.001  72.269  1.00  0.00    -0.273 OA 
HETATM    5  C   UNL     1     -10.969   8.744  70.880  1.00  0.00    -0.315 C  
HETATM    6  C   UNL     1     -11.464  12.445  68.715  1.00  0.00    -0.304 C  
HETATM    7  C   UNL     1     -10.852  10.140  70.273  1.00  0.00    -0.370 C  
HETATM    8  C   UNL     1     -10.051  10.289  68.993  1.00  0.00    -0.225 C  
HETATM    9  O   UNL     1     -12.265  11.987  69.822  1.00  0.00    -0.244 OA 
HETATM   10  C   UNL     1     -10.061  11.775  68.627  1.00  0.00    -0.198 C  
HETATM   11  O   UNL     1     -12.200  12.184  67.514  1.00  0.00    -0.474 OA 
HETATM   12  H   UNL     1     -13.057  12.592  67.568  1.00  0.00     0.000 HD 
ENDROOT
BRANCH   5  13
HETATM   13  C   UNL     1      -9.806   8.517  71.846  1.00  0.00    -0.358 C  
BRANCH  13  14
HETATM   14  C   UNL     1      -9.100   7.180  71.664  1.00  0.00    -0.141 C  
BRANCH  14  15
HETATM   15  C   UNL     1      -9.485   6.541  70.332  1.00  0.00    -0.170 C  
BRANCH  15  16
HETATM   16  C   UNL     1      -9.561   5.025  70.480  1.00  0.00    -0.252 C  
BRANCH  16  17
HETATM   17  C   UNL     1      -9.101   4.581  71.864  1.00  0.00    -0.164 C  
BRANCH  17  18
HETATM   18  C   UNL     1      -9.938   3.407  72.362  1.00  0.00    -0.235 C  
HETATM   19  O   UNL     1     -11.830   2.830  73.682  1.00  0.00    -0.099 OA 
HETATM   20  C   UNL     1     -11.081   3.865  73.236  1.00  0.00    -0.179 C  
HETATM   21  O   UNL     1     -11.328   5.023  73.531  1.00  0.00    -0.319 OA 
ENDBRANCH  17  18
ENDBRANCH  16  17
ENDBRANCH  15  16
ENDBRANCH  14  15
ENDBRANCH  13  14
ENDBRANCH   5  13
BRANCH   6  22
HETATM   22  C   UNL     1     -11.250  13.984  68.894  1.00  0.00    -0.272 C  
HETATM   23  F   UNL     1      -9.961  14.296  68.559  1.00  0.00    -0.211 F  
HETATM   24  F   UNL     1     -12.037  14.661  68.011  1.00  0.00    -0.350 F  
BRANCH  22  25
HETATM   25  C   UNL     1     -11.519  14.491  70.306  1.00  0.00    -0.281 C  
BRANCH  25  26
HETATM   26  C   UNL     1     -12.776  15.363  70.348  1.00  0.00    -0.407 C  
BRANCH  26  27
HETATM   27  C   UNL     1     -13.834  14.760  71.268  1.00  0.00    -0.460 C  
HETATM   28  C   UNL     1     -13.199  14.087  72.472  1.00  0.00    -0.602 C  
ENDBRANCH  26  27
ENDBRANCH  25  26
ENDBRANCH  22  25
ENDBRANCH   6  22
TORSDOF 10
ENDMDL
MODEL      103
REMARK 921   NORMALIZED FREE ENERGY PREDICTED BY IDOCK:   -4.89 KCAL/MOL
REMARK 922        TOTAL FREE ENERGY PREDICTED BY IDOCK:   -9.53 KCAL/MOL
REMARK 923 INTER-LIGAND FREE ENERGY PREDICTED BY IDOCK:   -7.88 KCAL/MOL
REMARK 924 INTRA-LIGAND FREE ENERGY PREDICTED BY IDOCK:   -1.64 KCAL/MOL
REMARK 927      BINDING AFFINITY PREDICTED BY RF-SCORE:    0.00 PKD
ROOT
HETATM    1  C   UNL     1     -12.118  12.457  66.315  1.00  0.00    -0.180 C  
HETATM    2  C   UNL     1     -12.222  12.588  64.807  1.00  0.00    -0.532 C  
HETATM    3  C   UNL     1     -12.208  14.087  64.653  1.00  0.00    -0.435 C  
HETATM    4  O   UNL     1     -12.602  14.646  63.638  1.00  0.00    -0.773 OA 
HETATM    5  C   UNL     1     -11.689  14.807  65.896  1.00  0.00    -0.248 C  
HETATM    6  C   UNL     1     -11.289  11.140  68.137  1.00  0.00    -0.309 C  
HETATM    7  C   UNL     1     -11.220  13.611  66.721  1.00  0.00    -0.327 C  
HETATM    8  C   UNL     1     -11.276  13.731  68.233  1.00  0.00    -0.301 C  
HETATM    9  O   UNL     1     -11.483  11.257  66.713  1.00  0.00    -0.407 OA 
HETATM   10  C   UNL     1     -10.720  12.426  68.808  1.00  0.00    -0.242 C  
HETATM   11  O   UNL     1     -12.558  10.813  68.718  1.00  0.00    -0.732 OA 
HETATM   12  H   UNL     1     -12.905  10.028  68.309  1.00  0.00     0.000 HD 
ENDROOT
BRANCH   5  13
HETATM   13  C   UNL     1     -10.502  15.737  65.641  1.00  0.00    -0.402 C  
BRANCH  13  14
HETATM   14  C   UNL     1     -10.896  17.174  65.326  1.00  0.00    -0.043 C  
BRANCH  14  15
HETATM   15  C   UNL     1     -10.109  18.154  66.193  1.00  0.00    -0.338 C  
BRANCH  15  16
HETATM   16  C   UNL     1     -10.857  18.417  67.497  1.00  0.00    -0.304 C  
BRANCH  16  17
HETATM   17  C   UNL     1      -9.902  18.455  68.684  1.00  0.00    -0.403 C  
BRANCH  17  18
HETATM   18  C   UNL     1      -8.597  17.737  68.353  1.00  0.00    -0.292 C  
HETATM   19  O   UNL     1      -7.334  15.768  68.777  1.00  0.00    -0.125 OA 
HETATM   20  C   UNL     1      -8.488  16.412  69.067  1.00  0.00    -0.225 C  
HETATM   21  O   UNL     1      -9.322  15.946  69.827  1.00  0.00    -0.202 OA 
ENDBRANCH  17  18
ENDBRANCH  16  17
ENDBRANCH  15  16
ENDBRANCH  14  15
ENDBRANCH  13  14
ENDBRANCH   5  13
BRANCH   6  22
HETATM   22  C   UNL     1     -10.268   9.981  68.379  1.00  0.00    -0.172 C  
HETATM   23  F   UNL     1     -10.856   9.026  69.161  1.00  0.00    -0.234 F  
HETATM   24  F   UNL     1      -9.984   9.367  67.195  1.00  0.00    -0.200 F  
BRANCH  22  25
HETATM   25  C   UNL     1      -8.971  10.421  69.046  1.00  0.00    -0.184 C  
BRANCH  25  26
HETATM   26  C   UNL     1      -7.778  10.236  68.106  1.00  0.00    -0.092 C  
BRANCH  26  27
HETATM   27  C   UNL     1      -6.510   9.899  68.886  1.00  0.00    -0.045 C  
HETATM   28  C   UNL     1      -6.726  10.049  70.381  1.00  0.00    -0.138 C  
ENDBRANCH  26  27
ENDBRANCH  25  26
ENDBRANCH  22  25
ENDBRANCH   6  22
TORSDOF 10
ENDMDL
MODEL      104
REMARK 921   NORMALIZED FREE ENERGY PREDICTED BY IDOCK:   -4.88 KCAL/MOL
REMARK 922        TOTAL FREE ENERGY PREDICTED BY IDOCK:   -9.51 KCAL/MOL
REMARK 923 INTER-LIGAND FREE ENERGY PREDICTED BY IDOCK:   -7.34 KCAL/MOL
REMARK 924 INTRA-LIGAND FREE ENERGY PREDICTED BY IDOCK:   -2.17 KCAL/MOL
REMARK 927      BINDING AFFINITY PREDICTED BY RF-SCORE:    0.00 PKD
ROOT
HETATM    1  C   UNL     1      -9.191  12.338  68.236  1.00  0.00    -0.189 C  
HETATM    2  C   UNL     1      -7.695  12.198  68.034  1.00  0.00    -0.134 C  
HETATM    3  C   UNL     1      -7.424  10.931  68.803  1.00  0.00    -0.112 C  
HETATM    4  O   UNL     1      -6.303  10.620  69.184  1.00  0.00    -0.047 OA 
HETATM    5  C   UNL     1      -8.689  10.117  69.071  1.00  0.00    -0.161 C  
HETATM    6  C   UNL     1     -11.257  13.089  67.283  1.00  0.00    -0.289 C  
HETATM    7  C   UNL     1      -9.696  10.906  68.239  1.00  0.00    -0.171 C  
HETATM    8  C   UNL     1     -11.139  10.925  68.706  1.00  0.00    -0.310 C  
HETATM    9  O   UNL     1      -9.823  13.015  67.166  1.00  0.00    -0.222 OA 
HETATM   10  C   UNL     1     -11.932  11.743  67.684  1.00  0.00    -0.106 C  
HETATM   11  O   UNL     1     -11.558  14.091  68.263  1.00  0.00    -0.290 OA 
HETATM   12  H   UNL     1     -11.146  14.912  68.018  1.00  0.00     0.000 HD 
ENDROOT
BRANCH   5  13
HETATM   13  C   UNL     1      -8.636   8.676  68.562  1.00  0.00    -0.135 C  
BRANCH  13  14
HETATM   14  C   UNL     1      -8.361   8.555  67.070  1.00  0.00    -0.110 C  
BRANCH  14  15
HETATM   15  C   UNL     1      -9.465   7.759  66.378  1.00  0.00    -0.245 C  
BRANCH  15  16
HETATM   16  C   UNL     1      -9.160   6.266  66.451  1.00  0.00    -0.164 C  
BRANCH  16  17
HETATM   17  C   UNL     1     -10.364   5.479  66.957  1.00  0.00    -0.306 C  
BRANCH  17  18
HETATM   18  C   UNL     1     -11.157   6.297  67.973  1.00  0.00    -0.365 C  
HETATM   19  O   UNL     1     -11.585   6.568  70.295  1.00  0.00    -0.386 OA 
HETATM   20  C   UNL     1     -10.887   5.847  69.388  1.00  0.00    -0.352 C  
HETATM   21  O   UNL     1     -10.136   4.941  69.713  1.00  0.00    -0.232 OA 
ENDBRANCH  17  18
ENDBRANCH  16  17
ENDBRANCH  15  16
ENDBRANCH  14  15
ENDBRANCH  13  14
ENDBRANCH   5  13
BRANCH   6  22
HETATM   22  C   UNL     1     -11.822  13.511  65.888  1.00  0.00    -0.372 C  
HETATM   23  F   UNL     1     -13.027  14.134  66.065  1.00  0.00    -0.505 F  
HETATM   24  F   UNL     1     -11.002  14.443  65.325  1.00  0.00    -0.295 F  
BRANCH  22  25
HETATM   25  C   UNL     1     -12.016  12.353  64.916  1.00  0.00    -0.458 C  
BRANCH  25  26
HETATM   26  C   UNL     1     -11.412  12.675  63.548  1.00  0.00    -0.557 C  
BRANCH  26  27
HETATM   27  C   UNL     1     -10.147  11.858  63.298  1.00  0.00    -0.427 C  
HETATM   28  C   UNL     1      -9.984  10.763  64.337  1.00  0.00    -0.400 C  
ENDBRANCH  26  27
ENDBRANCH  25  26
ENDBRANCH  22  25
ENDBRANCH   6  22
TORSDOF 10
ENDMDL
MODEL      105
REMARK 921   NORMALIZED FREE ENERGY PREDICTED BY IDOCK:   -4.87 KCAL/MOL
REMARK 922        TOTAL FREE ENERGY PREDICTED BY IDOCK:   -9.49 KCAL/MOL
REMARK 923 INTER-LIGAND FREE ENERGY PREDICTED BY IDOCK:   -8.17 KCAL/MOL
REMARK 924 INTRA-LIGAND FREE ENERGY PREDICTED BY IDOCK:   -1.32 KCAL/MOL
REMARK 927      BINDING AFFINITY PREDICTED BY RF-SCORE:    0.00 PKD
ROOT
HETATM    1  C   UNL     1     -11.306  13.748  65.984  1.00  0.00    -0.314 C  
HETATM    2  C   UNL     1     -11.195  14.365  64.603  1.00  0.00    -0.366 C  
HETATM    3  C   UNL     1     -11.110  15.828  64.954  1.00  0.00    -0.399 C  
HETATM    4  O   UNL     1     -11.340  16.713  64.140  1.00  0.00    -1.141 OA 
HETATM    5  C   UNL     1     -10.744  16.067  66.417  1.00  0.00    -0.232 C  
HETATM    6  C   UNL     1     -10.782  11.855  67.356  1.00  0.00    -0.232 C  
HETATM    7  C   UNL     1     -10.435  14.637  66.853  1.00  0.00    -0.270 C  
HETATM    8  C   UNL     1     -10.696  14.268  68.301  1.00  0.00    -0.253 C  
HETATM    9  O   UNL     1     -10.772  12.439  66.038  1.00  0.00    -0.251 OA 
HETATM   10  C   UNL     1     -10.269  12.808  68.476  1.00  0.00    -0.206 C  
HETATM   11  O   UNL     1     -12.129  11.456  67.640  1.00  0.00    -0.630 OA 
HETATM   12  H   UNL     1     -12.441  10.875  66.957  1.00  0.00     0.000 HD 
ENDROOT
BRANCH   5  13
HETATM   13  C   UNL     1      -9.503  16.936  66.627  1.00  0.00    -0.282 C  
BRANCH  13  14
HETATM   14  C   UNL     1      -8.226  16.144  66.873  1.00  0.00    -0.273 C  
BRANCH  14  15
HETATM   15  C   UNL     1      -7.458  16.711  68.064  1.00  0.00    -0.170 C  
BRANCH  15  16
HETATM   16  C   UNL     1      -5.998  16.938  67.687  1.00  0.00    -0.158 C  
BRANCH  16  17
HETATM   17  C   UNL     1      -5.771  18.360  67.185  1.00  0.00    -0.150 C  
BRANCH  17  18
HETATM   18  C   UNL     1      -5.335  18.355  65.723  1.00  0.00    -0.206 C  
HETATM   19  O   UNL     1      -5.929  19.106  63.546  1.00  0.00    -0.407 OA 
HETATM   20  C   UNL     1      -6.309  19.103  64.845  1.00  0.00    -0.218 C  
HETATM   21  O   UNL     1      -7.330  19.651  65.227  1.00  0.00    -0.400 OA 
ENDBRANCH  17  18
ENDBRANCH  16  17
ENDBRANCH  15  16
ENDBRANCH  14  15
ENDBRANCH  13  14
ENDBRANCH   5  13
BRANCH   6  22
HETATM   22  C   UNL     1      -9.843  10.605  67.324  1.00  0.00    -0.176 C  
HETATM   23  F   UNL     1      -8.545  11.026  67.234  1.00  0.00    -0.126 F  
HETATM   24  F   UNL     1      -9.933   9.935  68.507  1.00  0.00    -0.150 F  
BRANCH  22  25
HETATM   25  C   UNL     1     -10.121   9.645  66.174  1.00  0.00    -0.328 C  
BRANCH  25  26
HETATM   26  C   UNL     1      -8.965   8.661  65.986  1.00  0.00    -0.227 C  
BRANCH  26  27
HETATM   27  C   UNL     1      -9.382   7.242  66.364  1.00  0.00    -0.199 C  
HETATM   28  C   UNL     1     -10.723   7.233  67.077  1.00  0.00    -0.406 C  
ENDBRANCH  26  27
ENDBRANCH  25  26
ENDBRANCH  22  25
ENDBRANCH   6  22
TORSDOF 10
ENDMDL
MODEL      106
REMARK 921   NORMALIZED FREE ENERGY PREDICTED BY IDOCK:   -4.86 KCAL/MOL
REMARK 922        TOTAL FREE ENERGY PREDICTED BY IDOCK:   -9.48 KCAL/MOL
REMARK 923 INTER-LIGAND FREE ENERGY PREDICTED BY IDOCK:   -7.27 KCAL/MOL
REMARK 924 INTRA-LIGAND FREE ENERGY PREDICTED BY IDOCK:   -2.21 KCAL/MOL
REMARK 927      BINDING AFFINITY PREDICTED BY RF-SCORE:    0.00 PKD
ROOT
HETATM    1  C   UNL     1     -10.751  15.153  65.492  1.00  0.00    -0.365 C  
HETATM    2  C   UNL     1      -9.529  15.884  66.012  1.00  0.00    -0.389 C  
HETATM    3  C   UNL     1     -10.055  16.417  67.320  1.00  0.00    -0.270 C  
HETATM    4  O   UNL     1      -9.516  17.340  67.917  1.00  0.00    -0.256 OA 
HETATM    5  C   UNL     1     -11.327  15.708  67.782  1.00  0.00    -0.261 C  
HETATM    6  C   UNL     1     -11.550  13.291  64.213  1.00  0.00    -0.400 C  
HETATM    7  C   UNL     1     -11.402  14.591  66.743  1.00  0.00    -0.358 C  
HETATM    8  C   UNL     1     -12.775  14.075  66.359  1.00  0.00    -0.138 C  
HETATM    9  O   UNL     1     -10.416  14.062  64.655  1.00  0.00    -0.434 OA 
HETATM   10  C   UNL     1     -12.565  12.949  65.344  1.00  0.00    -0.440 C  
HETATM   11  O   UNL     1     -12.207  14.043  63.186  1.00  0.00    -1.071 OA 
HETATM   12  H   UNL     1     -11.588  14.251  62.495  1.00  0.00     0.000 HD 
ENDROOT
BRANCH   5  13
HETATM   13  C   UNL     1     -11.237  15.090  69.178  1.00  0.00    -0.293 C  
BRANCH  13  14
HETATM   14  C   UNL     1     -12.374  14.132  69.507  1.00  0.00    -0.275 C  
BRANCH  14  15
HETATM   15  C   UNL     1     -11.830  12.796  70.008  1.00  0.00    -0.352 C  
BRANCH  15  16
HETATM   16  C   UNL     1     -11.880  11.758  68.892  1.00  0.00    -0.381 C  
BRANCH  16  17
HETATM   17  C   UNL     1     -10.479  11.306  68.495  1.00  0.00    -0.218 C  
BRANCH  17  18
HETATM   18  C   UNL     1      -9.418  12.132  69.215  1.00  0.00     0.705 C  
HETATM   19  O   UNL     1      -7.435  13.403  68.890  1.00  0.00    -0.095 OA 
HETATM   20  C   UNL     1      -8.380  12.667  68.259  1.00  0.00    -0.165 C  
HETATM   21  O   UNL     1      -8.360  12.476  67.054  1.00  0.00    -0.180 OA 
ENDBRANCH  17  18
ENDBRANCH  16  17
ENDBRANCH  15  16
ENDBRANCH  14  15
ENDBRANCH  13  14
ENDBRANCH   5  13
BRANCH   6  22
HETATM   22  C   UNL     1     -11.006  11.944  63.634  1.00  0.00    -0.440 C  
HETATM   23  F   UNL     1     -11.935  11.421  62.777  1.00  0.00    -0.161 F  
HETATM   24  F   UNL     1      -9.899  12.185  62.877  1.00  0.00    -0.359 F  
BRANCH  22  25
HETATM   25  C   UNL     1     -10.681  10.896  64.691  1.00  0.00    -0.254 C  
BRANCH  25  26
HETATM   26  C   UNL     1      -9.523  10.002  64.242  1.00  0.00    -0.336 C  
BRANCH  26  27
HETATM   27  C   UNL     1      -8.992   9.164  65.402  1.00  0.00    -0.255 C  
HETATM   28  C   UNL     1     -10.102   8.360  66.055  1.00  0.00     0.170 C  
ENDBRANCH  26  27
ENDBRANCH  25  26
ENDBRANCH  22  25
ENDBRANCH   6  22
TORSDOF 10
ENDMDL
MODEL      107
REMARK 921   NORMALIZED FREE ENERGY PREDICTED BY IDOCK:   -4.85 KCAL/MOL
REMARK 922        TOTAL FREE ENERGY PREDICTED BY IDOCK:   -9.46 KCAL/MOL
REMARK 923 INTER-LIGAND FREE ENERGY PREDICTED BY IDOCK:   -7.71 KCAL/MOL
REMARK 924 INTRA-LIGAND FREE ENERGY PREDICTED BY IDOCK:   -1.75 KCAL/MOL
REMARK 927      BINDING AFFINITY PREDICTED BY RF-SCORE:    0.00 PKD
ROOT
HETATM    1  C   UNL     1      -9.307  10.510  69.070  1.00  0.00    -0.196 C  
HETATM    2  C   UNL     1      -8.321   9.419  68.697  1.00  0.00    -0.117 C  
HETATM    3  C   UNL     1      -8.727   8.332  69.658  1.00  0.00    -0.138 C  
HETATM    4  O   UNL     1      -7.992   7.393  69.936  1.00  0.00    -0.115 OA 
HETATM    5  C   UNL     1     -10.116   8.552  70.253  1.00  0.00    -0.199 C  
HETATM    6  C   UNL     1     -10.608  12.359  68.279  1.00  0.00    -0.222 C  
HETATM    7  C   UNL     1     -10.573   9.751  69.425  1.00  0.00    -0.248 C  
HETATM    8  C   UNL     1     -11.533  10.732  70.072  1.00  0.00    -0.412 C  
HETATM    9  O   UNL     1      -9.608  11.364  67.984  1.00  0.00    -0.172 OA 
HETATM   10  C   UNL     1     -11.856  11.802  69.027  1.00  0.00    -0.379 C  
HETATM   11  O   UNL     1      -9.983  13.376  69.072  1.00  0.00    -0.424 OA 
HETATM   12  H   UNL     1      -9.222  13.715  68.616  1.00  0.00     0.000 HD 
ENDROOT
BRANCH   5  13
HETATM   13  C   UNL     1     -11.090   7.393  70.037  1.00  0.00    -0.238 C  
BRANCH  13  14
HETATM   14  C   UNL     1     -12.136   7.250  71.134  1.00  0.00    -0.376 C  
BRANCH  14  15
HETATM   15  C   UNL     1     -11.530   7.549  72.503  1.00  0.00    -0.376 C  
BRANCH  15  16
HETATM   16  C   UNL     1     -10.856   6.300  73.062  1.00  0.00    -0.286 C  
BRANCH  16  17
HETATM   17  C   UNL     1      -9.694   6.663  73.980  1.00  0.00    -0.287 C  
BRANCH  17  18
HETATM   18  C   UNL     1      -9.084   8.003  73.578  1.00  0.00    -0.327 C  
HETATM   19  O   UNL     1      -7.048   9.079  72.989  1.00  0.00    -0.324 OA 
HETATM   20  C   UNL     1      -7.597   7.895  73.347  1.00  0.00    -0.144 C  
HETATM   21  O   UNL     1      -6.933   6.878  73.464  1.00  0.00    -0.074 OA 
ENDBRANCH  17  18
ENDBRANCH  16  17
ENDBRANCH  15  16
ENDBRANCH  14  15
ENDBRANCH  13  14
ENDBRANCH   5  13
BRANCH   6  22
HETATM   22  C   UNL     1     -11.093  12.957  66.918  1.00  0.00    -0.278 C  
HETATM   23  F   UNL     1     -12.202  13.726  67.140  1.00  0.00    -0.413 F  
HETATM   24  F   UNL     1     -10.146  13.806  66.428  1.00  0.00    -0.264 F  
BRANCH  22  25
HETATM   25  C   UNL     1     -11.432  11.912  65.862  1.00  0.00    -0.340 C  
BRANCH  25  26
HETATM   26  C   UNL     1     -10.366  11.870  64.766  1.00  0.00    -0.323 C  
BRANCH  26  27
HETATM   27  C   UNL     1     -10.987  12.068  63.386  1.00  0.00    -0.475 C  
HETATM   28  C   UNL     1     -12.337  12.755  63.482  1.00  0.00    -0.559 C  
ENDBRANCH  26  27
ENDBRANCH  25  26
ENDBRANCH  22  25
ENDBRANCH   6  22
TORSDOF 10
ENDMDL
MODEL      108
REMARK 921   NORMALIZED FREE ENERGY PREDICTED BY IDOCK:   -4.84 KCAL/MOL
REMARK 922        TOTAL FREE ENERGY PREDICTED BY IDOCK:   -9.44 KCAL/MOL
REMARK 923 INTER-LIGAND FREE ENERGY PREDICTED BY IDOCK:   -8.09 KCAL/MOL
REMARK 924 INTRA-LIGAND FREE ENERGY PREDICTED BY IDOCK:   -1.35 KCAL/MOL
REMARK 927      BINDING AFFINITY PREDICTED BY RF-SCORE:    0.00 PKD
ROOT
HETATM    1  C   UNL     1     -10.694  11.203  64.744  1.00  0.00    -0.264 C  
HETATM    2  C   UNL     1     -10.786  12.184  63.591  1.00  0.00    -0.518 C  
HETATM    3  C   UNL     1     -11.976  13.006  64.014  1.00  0.00    -0.456 C  
HETATM    4  O   UNL     1     -12.608  13.699  63.228  1.00  0.00    -0.816 OA 
HETATM    5  C   UNL     1     -12.310  12.848  65.496  1.00  0.00    -0.517 C  
HETATM    6  C   UNL     1      -9.235   9.883  66.111  1.00  0.00    -0.168 C  
HETATM    7  C   UNL     1     -11.112  12.020  65.953  1.00  0.00    -0.369 C  
HETATM    8  C   UNL     1     -11.316  11.062  67.111  1.00  0.00    -0.214 C  
HETATM    9  O   UNL     1      -9.373  10.749  64.967  1.00  0.00    -0.200 OA 
HETATM   10  C   UNL     1      -9.966  10.396  67.388  1.00  0.00    -0.226 C  
HETATM   11  O   UNL     1      -9.751   8.598  65.742  1.00  0.00    -0.451 OA 
HETATM   12  H   UNL     1      -9.305   8.285  64.963  1.00  0.00     0.000 HD 
ENDROOT
BRANCH   5  13
HETATM   13  C   UNL     1     -12.344  14.160  66.282  1.00  0.00    -0.451 C  
BRANCH  13  14
HETATM   14  C   UNL     1     -11.009  14.542  66.908  1.00  0.00    -0.316 C  
BRANCH  14  15
HETATM   15  C   UNL     1     -10.966  16.035  67.224  1.00  0.00    -0.207 C  
BRANCH  15  16
HETATM   16  C   UNL     1     -10.119  16.284  68.468  1.00  0.00    -0.239 C  
BRANCH  16  17
HETATM   17  C   UNL     1      -9.299  17.562  68.331  1.00  0.00    -0.287 C  
BRANCH  17  18
HETATM   18  C   UNL     1     -10.127  18.671  67.690  1.00  0.00    -0.404 C  
HETATM   19  O   UNL     1     -10.290  20.077  65.780  1.00  0.00    -0.479 OA 
HETATM   20  C   UNL     1      -9.560  19.094  66.357  1.00  0.00    -0.361 C  
HETATM   21  O   UNL     1      -8.561  18.629  65.831  1.00  0.00    -0.488 OA 
ENDBRANCH  17  18
ENDBRANCH  16  17
ENDBRANCH  15  16
ENDBRANCH  14  15
ENDBRANCH  13  14
ENDBRANCH   5  13
BRANCH   6  22
HETATM   22  C   UNL     1      -7.711   9.779  66.442  1.00  0.00    -0.102 C  
HETATM   23  F   UNL     1      -7.048  10.794  65.808  1.00  0.00    -0.137 F  
HETATM   24  F   UNL     1      -7.516   9.986  67.775  1.00  0.00    -0.086 F  
BRANCH  22  25
HETATM   25  C   UNL     1      -7.072   8.457  66.035  1.00  0.00    -0.069 C  
BRANCH  25  26
HETATM   26  C   UNL     1      -6.495   7.728  67.249  1.00  0.00    -0.056 C  
BRANCH  26  27
HETATM   27  C   UNL     1      -7.282   6.456  67.554  1.00  0.00    -0.086 C  
HETATM   28  C   UNL     1      -8.425   6.732  68.514  1.00  0.00    -0.123 C  
ENDBRANCH  26  27
ENDBRANCH  25  26
ENDBRANCH  22  25
ENDBRANCH   6  22
TORSDOF 10
ENDMDL
MODEL      109
REMARK 921   NORMALIZED FREE ENERGY PREDICTED BY IDOCK:   -4.83 KCAL/MOL
REMARK 922        TOTAL FREE ENERGY PREDICTED BY IDOCK:   -9.43 KCAL/MOL
REMARK 923 INTER-LIGAND FREE ENERGY PREDICTED BY IDOCK:   -8.14 KCAL/MOL
REMARK 924 INTRA-LIGAND FREE ENERGY PREDICTED BY IDOCK:   -1.29 KCAL/MOL
REMARK 927      BINDING AFFINITY PREDICTED BY RF-SCORE:    0.00 PKD
ROOT
HETATM    1  C   UNL     1     -12.345  10.837  70.152  1.00  0.00    -0.325 C  
HETATM    2  C   UNL     1     -13.078  10.710  71.473  1.00  0.00    -0.527 C  
HETATM    3  C   UNL     1     -12.579   9.368  71.945  1.00  0.00    -0.401 C  
HETATM    4  O   UNL     1     -13.157   8.718  72.806  1.00  0.00    -0.347 OA 
HETATM    5  C   UNL     1     -11.315   8.915  71.216  1.00  0.00    -0.371 C  
HETATM    6  C   UNL     1     -11.326  12.339  68.589  1.00  0.00    -0.291 C  
HETATM    7  C   UNL     1     -11.003  10.176  70.414  1.00  0.00    -0.386 C  
HETATM    8  C   UNL     1     -10.301  10.009  69.080  1.00  0.00    -0.223 C  
HETATM    9  O   UNL     1     -12.099  12.183  69.796  1.00  0.00    -0.290 OA 
HETATM   10  C   UNL     1     -10.077  11.412  68.510  1.00  0.00    -0.211 C  
HETATM   11  O   UNL     1     -12.197  12.071  67.483  1.00  0.00    -0.490 OA 
HETATM   12  H   UNL     1     -12.959  12.637  67.530  1.00  0.00     0.000 HD 
ENDROOT
BRANCH   5  13
HETATM   13  C   UNL     1     -10.133   8.598  72.133  1.00  0.00    -0.388 C  
BRANCH  13  14
HETATM   14  C   UNL     1      -9.957   7.115  72.428  1.00  0.00    -0.190 C  
BRANCH  14  15
HETATM   15  C   UNL     1     -10.378   6.270  71.228  1.00  0.00    -0.255 C  
BRANCH  15  16
HETATM   16  C   UNL     1      -9.961   4.818  71.436  1.00  0.00    -0.267 C  
BRANCH  16  17
HETATM   17  C   UNL     1      -9.903   4.466  72.918  1.00  0.00    -0.186 C  
BRANCH  17  18
HETATM   18  C   UNL     1     -11.147   3.691  73.340  1.00  0.00    -0.297 C  
HETATM   19  O   UNL     1     -11.944   1.534  73.945  1.00  0.00    -0.155 OA 
HETATM   20  C   UNL     1     -10.846   2.230  73.570  1.00  0.00    -0.179 C  
HETATM   21  O   UNL     1      -9.753   1.702  73.438  1.00  0.00    -0.072 OA 
ENDBRANCH  17  18
ENDBRANCH  16  17
ENDBRANCH  15  16
ENDBRANCH  14  15
ENDBRANCH  13  14
ENDBRANCH   5  13
BRANCH   6  22
HETATM   22  C   UNL     1     -10.827  13.820  68.537  1.00  0.00    -0.263 C  
HETATM   23  F   UNL     1     -11.248  14.471  69.665  1.00  0.00    -0.249 F  
HETATM   24  F   UNL     1      -9.465  13.846  68.582  1.00  0.00    -0.205 F  
BRANCH  22  25
HETATM   25  C   UNL     1     -11.309  14.600  67.320  1.00  0.00    -0.364 C  
BRANCH  25  26
HETATM   26  C   UNL     1     -10.187  14.771  66.295  1.00  0.00    -0.309 C  
BRANCH  26  27
HETATM   27  C   UNL     1     -10.580  14.180  64.944  1.00  0.00    -0.449 C  
HETATM   28  C   UNL     1     -12.089  14.086  64.802  1.00  0.00    -0.455 C  
ENDBRANCH  26  27
ENDBRANCH  25  26
ENDBRANCH  22  25
ENDBRANCH   6  22
TORSDOF 10
ENDMDL
MODEL      110
REMARK 921   NORMALIZED FREE ENERGY PREDICTED BY IDOCK:   -4.82 KCAL/MOL
REMARK 922        TOTAL FREE ENERGY PREDICTED BY IDOCK:   -9.41 KCAL/MOL
REMARK 923 INTER-LIGAND FREE ENERGY PREDICTED BY IDOCK:   -7.51 KCAL/MOL
REMARK 924 INTRA-LIGAND FREE ENERGY PREDICTED BY IDOCK:   -1.90 KCAL/MOL
REMARK 927      BINDING AFFINITY PREDICTED BY RF-SCORE:    0.00 PKD
ROOT
HETATM    1  C   UNL     1     -10.959  14.832  65.106  1.00  0.00    -0.393 C  
HETATM    2  C   UNL     1     -12.284  14.538  64.429  1.00  0.00    -0.480 C  
HETATM    3  C   UNL     1     -12.019  13.161  63.877  1.00  0.00    -0.488 C  
HETATM    4  O   UNL     1     -12.694  12.672  62.981  1.00  0.00    -0.488 OA 
HETATM    5  C   UNL     1     -10.819  12.479  64.532  1.00  0.00    -0.360 C  
HETATM    6  C   UNL     1      -9.868  15.940  66.928  1.00  0.00    -0.243 C  
HETATM    7  C   UNL     1     -10.515  13.483  65.642  1.00  0.00    -0.296 C  
HETATM    8  C   UNL     1      -9.074  13.616  66.097  1.00  0.00     0.097 C  
HETATM    9  O   UNL     1     -11.094  15.708  66.208  1.00  0.00    -0.258 OA 
HETATM   10  C   UNL     1      -9.054  14.647  67.229  1.00  0.00    -0.215 C  
HETATM   11  O   UNL     1      -9.073  16.840  66.146  1.00  0.00    -0.343 OA 
HETATM   12  H   UNL     1      -9.569  17.629  65.963  1.00  0.00     0.000 HD 
ENDROOT
BRANCH   5  13
HETATM   13  C   UNL     1     -11.127  11.117  65.157  1.00  0.00    -0.079 C  
BRANCH  13  14
HETATM   14  C   UNL     1      -9.891  10.277  65.452  1.00  0.00    -0.362 C  
BRANCH  14  15
HETATM   15  C   UNL     1     -10.080   9.467  66.732  1.00  0.00    -0.325 C  
BRANCH  15  16
HETATM   16  C   UNL     1     -10.984  10.221  67.702  1.00  0.00    -0.356 C  
BRANCH  16  17
HETATM   17  C   UNL     1     -10.171  11.105  68.642  1.00  0.00    -0.216 C  
BRANCH  17  18
HETATM   18  C   UNL     1      -9.203  10.266  69.471  1.00  0.00    -0.191 C  
HETATM   19  O   UNL     1      -6.921  10.041  70.098  1.00  0.00    -0.116 OA 
HETATM   20  C   UNL     1      -7.787  10.778  69.365  1.00  0.00    -0.087 C  
HETATM   21  O   UNL     1      -7.427  11.738  68.702  1.00  0.00    -0.111 OA 
ENDBRANCH  17  18
ENDBRANCH  16  17
ENDBRANCH  15  16
ENDBRANCH  14  15
ENDBRANCH  13  14
ENDBRANCH   5  13
BRANCH   6  22
HETATM   22  C   UNL     1     -10.242  16.599  68.296  1.00  0.00    -0.281 C  
HETATM   23  F   UNL     1      -9.435  17.684  68.503  1.00  0.00    -0.260 F  
HETATM   24  F   UNL     1     -11.513  17.090  68.234  1.00  0.00    -0.269 F  
BRANCH  22  25
HETATM   25  C   UNL     1     -10.116  15.666  69.494  1.00  0.00    -0.277 C  
BRANCH  25  26
HETATM   26  C   UNL     1     -10.952  16.168  70.673  1.00  0.00    -0.229 C  
BRANCH  26  27
HETATM   27  C   UNL     1     -11.490  15.004  71.501  1.00  0.00    -0.377 C  
HETATM   28  C   UNL     1     -12.525  15.475  72.507  1.00  0.00    -0.502 C  
ENDBRANCH  26  27
ENDBRANCH  25  26
ENDBRANCH  22  25
ENDBRANCH   6  22
TORSDOF 10
ENDMDL
MODEL      111
REMARK 921   NORMALIZED FREE ENERGY PREDICTED BY IDOCK:   -4.81 KCAL/MOL
REMARK 922        TOTAL FREE ENERGY PREDICTED BY IDOCK:   -9.40 KCAL/MOL
REMARK 923 INTER-LIGAND FREE ENERGY PREDICTED BY IDOCK:   -8.23 KCAL/MOL
REMARK 924 INTRA-LIGAND FREE ENERGY PREDICTED BY IDOCK:   -1.17 KCAL/MOL
REMARK 927      BINDING AFFINITY PREDICTED BY RF-SCORE:    0.00 PKD
ROOT
HETATM    1  C   UNL     1     -11.584   8.719  71.792  1.00  0.00    -0.346 C  
HETATM    2  C   UNL     1     -13.002   9.174  72.081  1.00  0.00    -0.498 C  
HETATM    3  C   UNL     1     -12.904  10.637  71.732  1.00  0.00    -0.444 C  
HETATM    4  O   UNL     1     -13.719  11.462  72.124  1.00  0.00    -0.176 OA 
HETATM    5  C   UNL     1     -11.680  10.964  70.879  1.00  0.00    -0.265 C  
HETATM    6  C   UNL     1     -10.198   6.914  71.044  1.00  0.00    -0.197 C  
HETATM    7  C   UNL     1     -11.169   9.554  70.594  1.00  0.00    -0.364 C  
HETATM    8  C   UNL     1      -9.676   9.370  70.397  1.00  0.00    -0.315 C  
HETATM    9  O   UNL     1     -11.519   7.358  71.411  1.00  0.00    -0.251 OA 
HETATM   10  C   UNL     1      -9.442   7.888  70.092  1.00  0.00    -0.160 C  
HETATM   11  O   UNL     1      -9.449   6.744  72.255  1.00  0.00    -0.144 OA 
HETATM   12  H   UNL     1      -9.910   6.150  72.836  1.00  0.00     0.000 HD 
ENDROOT
BRANCH   5  13
HETATM   13  C   UNL     1     -11.997  11.660  69.554  1.00  0.00    -0.383 C  
BRANCH  13  14
HETATM   14  C   UNL     1     -11.787  13.168  69.580  1.00  0.00    -0.390 C  
BRANCH  14  15
HETATM   15  C   UNL     1     -11.802  13.741  68.165  1.00  0.00    -0.411 C  
BRANCH  15  16
HETATM   16  C   UNL     1     -10.654  13.154  67.350  1.00  0.00    -0.247 C  
BRANCH  16  17
HETATM   17  C   UNL     1     -10.785  13.511  65.873  1.00  0.00    -0.279 C  
BRANCH  17  18
HETATM   18  C   UNL     1     -11.588  12.450  65.128  1.00  0.00    -0.408 C  
HETATM   19  O   UNL     1     -13.117  12.112  63.339  1.00  0.00    -0.752 OA 
HETATM   20  C   UNL     1     -12.403  13.048  64.007  1.00  0.00    -0.363 C  
HETATM   21  O   UNL     1     -12.440  14.231  63.711  1.00  0.00    -0.810 OA 
ENDBRANCH  17  18
ENDBRANCH  16  17
ENDBRANCH  15  16
ENDBRANCH  14  15
ENDBRANCH  13  14
ENDBRANCH   5  13
BRANCH   6  22
HETATM   22  C   UNL     1     -10.349   5.544  70.306  1.00  0.00    -0.279 C  
HETATM   23  F   UNL     1     -10.562   4.560  71.232  1.00  0.00    -0.202 F  
HETATM   24  F   UNL     1     -11.468   5.566  69.526  1.00  0.00    -0.248 F  
BRANCH  22  25
HETATM   25  C   UNL     1      -9.146   5.156  69.456  1.00  0.00    -0.145 C  
BRANCH  25  26
HETATM   26  C   UNL     1      -8.439   3.927  70.031  1.00  0.00    -0.095 C  
BRANCH  26  27
HETATM   27  C   UNL     1      -7.227   4.329  70.866  1.00  0.00    -0.041 C  
HETATM   28  C   UNL     1      -6.275   3.161  71.056  1.00  0.00    -0.019 C  
ENDBRANCH  26  27
ENDBRANCH  25  26
ENDBRANCH  22  25
ENDBRANCH   6  22
TORSDOF 10
ENDMDL
MODEL      112
REMARK 921   NORMALIZED FREE ENERGY PREDICTED BY IDOCK:   -4.81 KCAL/MOL
REMARK 922        TOTAL FREE ENERGY PREDICTED BY IDOCK:   -9.40 KCAL/MOL
REMARK 923 INTER-LIGAND FREE ENERGY PREDICTED BY IDOCK:   -7.93 KCAL/MOL
REMARK 924 INTRA-LIGAND FREE ENERGY PREDICTED BY IDOCK:   -1.46 KCAL/MOL
REMARK 927      BINDING AFFINITY PREDICTED BY RF-SCORE:    0.00 PKD
ROOT
HETATM    1  C   UNL     1     -10.454  14.442  65.880  1.00  0.00    -0.308 C  
HETATM    2  C   UNL     1     -11.418  14.094  64.763  1.00  0.00    -0.384 C  
HETATM    3  C   UNL     1     -10.857  12.770  64.309  1.00  0.00    -0.390 C  
HETATM    4  O   UNL     1     -11.120  12.285  63.217  1.00  0.00    -0.427 OA 
HETATM    5  C   UNL     1      -9.919  12.140  65.337  1.00  0.00    -0.269 C  
HETATM    6  C   UNL     1     -10.188  15.524  68.002  1.00  0.00    -0.229 C  
HETATM    7  C   UNL     1     -10.119  13.100  66.506  1.00  0.00    -0.280 C  
HETATM    8  C   UNL     1      -8.955  13.310  67.456  1.00  0.00    -0.208 C  
HETATM    9  O   UNL     1     -11.050  15.246  66.880  1.00  0.00    -0.321 OA 
HETATM   10  C   UNL     1      -9.430  14.276  68.544  1.00  0.00    -0.206 C  
HETATM   11  O   UNL     1      -9.245  16.518  67.583  1.00  0.00    -0.200 OA 
HETATM   12  H   UNL     1      -9.708  17.280  67.253  1.00  0.00     0.000 HD 
ENDROOT
BRANCH   5  13
HETATM   13  C   UNL     1     -10.313  10.728  65.774  1.00  0.00    -0.295 C  
BRANCH  13  14
HETATM   14  C   UNL     1      -9.167   9.726  65.741  1.00  0.00    -0.242 C  
BRANCH  14  15
HETATM   15  C   UNL     1      -8.972   9.081  67.111  1.00  0.00    -0.144 C  
BRANCH  15  16
HETATM   16  C   UNL     1      -9.913   9.717  68.129  1.00  0.00    -0.179 C  
BRANCH  16  17
HETATM   17  C   UNL     1     -10.716   8.659  68.877  1.00  0.00    -0.109 C  
BRANCH  17  18
HETATM   18  C   UNL     1      -9.845   7.944  69.905  1.00  0.00    -0.182 C  
HETATM   19  O   UNL     1      -9.795   6.130  71.441  1.00  0.00    -0.173 OA 
HETATM   20  C   UNL     1     -10.562   6.771  70.528  1.00  0.00    -0.225 C  
HETATM   21  O   UNL     1     -11.700   6.415  70.267  1.00  0.00    -0.411 OA 
ENDBRANCH  17  18
ENDBRANCH  16  17
ENDBRANCH  15  16
ENDBRANCH  14  15
ENDBRANCH  13  14
ENDBRANCH   5  13
BRANCH   6  22
HETATM   22  C   UNL     1     -11.083  16.080  69.157  1.00  0.00    -0.317 C  
HETATM   23  F   UNL     1     -10.885  17.429  69.264  1.00  0.00    -0.278 F  
HETATM   24  F   UNL     1     -12.398  15.924  68.832  1.00  0.00    -0.321 F  
BRANCH  22  25
HETATM   25  C   UNL     1     -10.817  15.442  70.515  1.00  0.00    -0.327 C  
BRANCH  25  26
HETATM   26  C   UNL     1     -11.672  16.092  71.605  1.00  0.00    -0.583 C  
BRANCH  26  27
HETATM   27  C   UNL     1     -12.211  15.046  72.578  1.00  0.00    -0.443 C  
HETATM   28  C   UNL     1     -13.395  14.302  71.986  1.00  0.00    -0.484 C  
ENDBRANCH  26  27
ENDBRANCH  25  26
ENDBRANCH  22  25
ENDBRANCH   6  22
TORSDOF 10
ENDMDL
MODEL      113
REMARK 921   NORMALIZED FREE ENERGY PREDICTED BY IDOCK:   -4.80 KCAL/MOL
REMARK 922        TOTAL FREE ENERGY PREDICTED BY IDOCK:   -9.38 KCAL/MOL
REMARK 923 INTER-LIGAND FREE ENERGY PREDICTED BY IDOCK:   -7.90 KCAL/MOL
REMARK 924 INTRA-LIGAND FREE ENERGY PREDICTED BY IDOCK:   -1.49 KCAL/MOL
REMARK 927      BINDING AFFINITY PREDICTED BY RF-SCORE:    0.00 PKD
ROOT
HETATM    1  C   UNL     1      -9.147   8.149  70.245  1.00  0.00    -0.151 C  
HETATM    2  C   UNL     1      -8.556   9.541  70.360  1.00  0.00    -0.246 C  
HETATM    3  C   UNL     1      -8.866  10.092  68.992  1.00  0.00    -0.159 C  
HETATM    4  O   UNL     1      -8.285  11.064  68.529  1.00  0.00    -0.131 OA 
HETATM    5  C   UNL     1      -9.942   9.292  68.259  1.00  0.00    -0.196 C  
HETATM    6  C   UNL     1     -10.228   6.354  71.407  1.00  0.00    -0.199 C  
HETATM    7  C   UNL     1     -10.375   8.343  69.374  1.00  0.00    -0.217 C  
HETATM    8  C   UNL     1     -10.882   6.970  68.976  1.00  0.00    -0.212 C  
HETATM    9  O   UNL     1      -9.581   7.639  71.492  1.00  0.00    -0.154 OA 
HETATM   10  C   UNL     1     -11.281   6.247  70.264  1.00  0.00    -0.455 C  
HETATM   11  O   UNL     1      -9.205   5.369  71.215  1.00  0.00    -0.143 OA 
HETATM   12  H   UNL     1      -8.562   5.434  71.912  1.00  0.00     0.000 HD 
ENDROOT
BRANCH   5  13
HETATM   13  C   UNL     1     -11.147  10.117  67.805  1.00  0.00    -0.293 C  
BRANCH  13  14
HETATM   14  C   UNL     1     -11.911  10.778  68.945  1.00  0.00    -0.210 C  
BRANCH  14  15
HETATM   15  C   UNL     1     -11.848  12.299  68.829  1.00  0.00    -0.356 C  
BRANCH  15  16
HETATM   16  C   UNL     1     -11.243  12.698  67.487  1.00  0.00    -0.335 C  
BRANCH  16  17
HETATM   17  C   UNL     1     -11.793  14.038  67.009  1.00  0.00    -0.458 C  
BRANCH  17  18
HETATM   18  C   UNL     1     -12.656  13.856  65.765  1.00  0.00    -0.533 C  
HETATM   19  O   UNL     1     -12.590  13.734  63.391  1.00  0.00    -0.842 OA 
HETATM   20  C   UNL     1     -11.832  13.896  64.501  1.00  0.00    -0.426 C  
HETATM   21  O   UNL     1     -10.624  14.058  64.447  1.00  0.00    -0.382 OA 
ENDBRANCH  17  18
ENDBRANCH  16  17
ENDBRANCH  15  16
ENDBRANCH  14  15
ENDBRANCH  13  14
ENDBRANCH   5  13
BRANCH   6  22
HETATM   22  C   UNL     1     -10.967   6.109  72.763  1.00  0.00    -0.260 C  
HETATM   23  F   UNL     1     -10.884   7.241  73.526  1.00  0.00    -0.365 F  
HETATM   24  F   UNL     1     -12.296   5.915  72.532  1.00  0.00    -0.322 F  
BRANCH  22  25
HETATM   25  C   UNL     1     -10.417   4.940  73.572  1.00  0.00    -0.278 C  
BRANCH  25  26
HETATM   26  C   UNL     1     -11.403   3.771  73.590  1.00  0.00    -0.231 C  
BRANCH  26  27
HETATM   27  C   UNL     1     -10.780   2.514  72.989  1.00  0.00    -0.235 C  
HETATM   28  C   UNL     1      -9.265   2.544  73.099  1.00  0.00    -0.107 C  
ENDBRANCH  26  27
ENDBRANCH  25  26
ENDBRANCH  22  25
ENDBRANCH   6  22
TORSDOF 10
ENDMDL
MODEL      114
REMARK 921   NORMALIZED FREE ENERGY PREDICTED BY IDOCK:   -4.80 KCAL/MOL
REMARK 922        TOTAL FREE ENERGY PREDICTED BY IDOCK:   -9.38 KCAL/MOL
REMARK 923 INTER-LIGAND FREE ENERGY PREDICTED BY IDOCK:   -8.09 KCAL/MOL
REMARK 924 INTRA-LIGAND FREE ENERGY PREDICTED BY IDOCK:   -1.28 KCAL/MOL
REMARK 927      BINDING AFFINITY PREDICTED BY RF-SCORE:    0.00 PKD
ROOT
HETATM    1  C   UNL     1      -9.369  13.704  67.025  1.00  0.00    -0.248 C  
HETATM    2  C   UNL     1      -7.961  14.227  67.235  1.00  0.00    -0.191 C  
HETATM    3  C   UNL     1      -8.193  15.712  67.122  1.00  0.00    -0.213 C  
HETATM    4  O   UNL     1      -7.286  16.503  66.899  1.00  0.00    -0.185 OA 
HETATM    5  C   UNL     1      -9.662  16.098  67.282  1.00  0.00    -0.233 C  
HETATM    6  C   UNL     1     -10.949  11.989  67.577  1.00  0.00    -0.253 C  
HETATM    7  C   UNL     1     -10.250  14.749  67.686  1.00  0.00    -0.232 C  
HETATM    8  C   UNL     1     -11.687  14.458  67.295  1.00  0.00    -0.429 C  
HETATM    9  O   UNL     1      -9.595  12.473  67.683  1.00  0.00    -0.181 OA 
HETATM   10  C   UNL     1     -12.033  13.074  67.849  1.00  0.00    -0.338 C  
HETATM   11  O   UNL     1     -11.115  11.461  66.256  1.00  0.00    -0.289 OA 
HETATM   12  H   UNL     1     -10.453  10.799  66.090  1.00  0.00     0.000 HD 
ENDROOT
BRANCH   5  13
HETATM   13  C   UNL     1      -9.933  17.117  68.391  1.00  0.00    -0.310 C  
BRANCH  13  14
HETATM   14  C   UNL     1     -10.568  18.411  67.902  1.00  0.00    -0.379 C  
BRANCH  14  15
HETATM   15  C   UNL     1     -10.505  18.505  66.380  1.00  0.00    -0.443 C  
BRANCH  15  16
HETATM   16  C   UNL     1      -9.967  19.869  65.960  1.00  0.00    -0.560 C  
BRANCH  16  17
HETATM   17  C   UNL     1      -9.260  20.564  67.118  1.00  0.00    -0.485 C  
BRANCH  17  18
HETATM   18  C   UNL     1      -7.753  20.335  67.048  1.00  0.00    -0.360 C  
HETATM   19  O   UNL     1      -5.845  19.746  68.340  1.00  0.00    -0.219 OA 
HETATM   20  C   UNL     1      -7.182  19.953  68.392  1.00  0.00    -0.296 C  
HETATM   21  O   UNL     1      -7.819  19.838  69.427  1.00  0.00    -0.196 OA 
ENDBRANCH  17  18
ENDBRANCH  16  17
ENDBRANCH  15  16
ENDBRANCH  14  15
ENDBRANCH  13  14
ENDBRANCH   5  13
BRANCH   6  22
HETATM   22  C   UNL     1     -11.128  10.856  68.640  1.00  0.00    -0.252 C  
HETATM   23  F   UNL     1     -11.513   9.708  68.004  1.00  0.00    -0.180 F  
HETATM   24  F   UNL     1      -9.925  10.575  69.216  1.00  0.00    -0.196 F  
BRANCH  22  25
HETATM   25  C   UNL     1     -12.149  11.174  69.725  1.00  0.00    -0.414 C  
BRANCH  25  26
HETATM   26  C   UNL     1     -12.367   9.971  70.645  1.00  0.00    -0.342 C  
BRANCH  26  27
HETATM   27  C   UNL     1     -11.173   9.763  71.572  1.00  0.00    -0.291 C  
HETATM   28  C   UNL     1     -11.093   8.326  72.055  1.00  0.00    -0.379 C  
ENDBRANCH  26  27
ENDBRANCH  25  26
ENDBRANCH  22  25
ENDBRANCH   6  22
TORSDOF 10
ENDMDL
MODEL      115
REMARK 921   NORMALIZED FREE ENERGY PREDICTED BY IDOCK:   -4.79 KCAL/MOL
REMARK 922        TOTAL FREE ENERGY PREDICTED BY IDOCK:   -9.37 KCAL/MOL
REMARK 923 INTER-LIGAND FREE ENERGY PREDICTED BY IDOCK:   -7.92 KCAL/MOL
REMARK 924 INTRA-LIGAND FREE ENERGY PREDICTED BY IDOCK:   -1.44 KCAL/MOL
REMARK 927      BINDING AFFINITY PREDICTED BY RF-SCORE:    0.00 PKD
ROOT
HETATM    1  C   UNL     1      -9.296  11.482  68.101  1.00  0.00    -0.185 C  
HETATM    2  C   UNL     1      -7.814  11.383  68.410  1.00  0.00    -0.135 C  
HETATM    3  C   UNL     1      -7.254  12.376  67.425  1.00  0.00    -0.148 C  
HETATM    4  O   UNL     1      -6.075  12.381  67.095  1.00  0.00    -0.164 OA 
HETATM    5  C   UNL     1      -8.313  13.331  66.877  1.00  0.00    -0.018 C  
HETATM    6  C   UNL     1     -11.517  11.357  68.990  1.00  0.00    -0.300 C  
HETATM    7  C   UNL     1      -9.500  12.946  67.756  1.00  0.00    -0.202 C  
HETATM    8  C   UNL     1     -10.891  13.093  67.169  1.00  0.00    -0.271 C  
HETATM    9  O   UNL     1     -10.105  11.188  69.224  1.00  0.00    -0.159 OA 
HETATM   10  C   UNL     1     -11.885  12.683  68.258  1.00  0.00    -0.354 C  
HETATM   11  O   UNL     1     -11.962  10.238  68.214  1.00  0.00    -0.730 OA 
HETATM   12  H   UNL     1     -11.738   9.429  68.660  1.00  0.00     0.000 HD 
ENDROOT
BRANCH   5  13
HETATM   13  C   UNL     1      -7.997  14.813  67.080  1.00  0.00    -0.205 C  
BRANCH  13  14
HETATM   14  C   UNL     1      -8.091  15.275  68.528  1.00  0.00    -0.143 C  
BRANCH  14  15
HETATM   15  C   UNL     1      -8.227  16.794  68.605  1.00  0.00    -0.252 C  
BRANCH  15  16
HETATM   16  C   UNL     1      -9.585  17.227  68.063  1.00  0.00    -0.274 C  
BRANCH  16  17
HETATM   17  C   UNL     1      -9.670  18.744  67.934  1.00  0.00    -0.368 C  
BRANCH  17  18
HETATM   18  C   UNL     1      -8.514  19.416  68.669  1.00  0.00    -0.395 C  
HETATM   19  O   UNL     1      -6.566  20.744  68.363  1.00  0.00    -0.275 OA 
HETATM   20  C   UNL     1      -7.594  20.143  67.719  1.00  0.00    -0.289 C  
HETATM   21  O   UNL     1      -7.728  20.202  66.507  1.00  0.00    -0.281 OA 
ENDBRANCH  17  18
ENDBRANCH  16  17
ENDBRANCH  15  16
ENDBRANCH  14  15
ENDBRANCH  13  14
ENDBRANCH   5  13
BRANCH   6  22
HETATM   22  C   UNL     1     -12.227  11.367  70.383  1.00  0.00    -0.362 C  
HETATM   23  F   UNL     1     -13.400  10.669  70.289  1.00  0.00    -0.298 F  
HETATM   24  F   UNL     1     -11.466  10.690  71.289  1.00  0.00    -0.358 F  
BRANCH  22  25
HETATM   25  C   UNL     1     -12.534  12.760  70.918  1.00  0.00    -0.373 C  
BRANCH  25  26
HETATM   26  C   UNL     1     -13.191  12.687  72.298  1.00  0.00    -0.465 C  
BRANCH  26  27
HETATM   27  C   UNL     1     -13.269  14.068  72.944  1.00  0.00    -0.502 C  
HETATM   28  C   UNL     1     -12.759  15.146  72.004  1.00  0.00    -0.418 C  
ENDBRANCH  26  27
ENDBRANCH  25  26
ENDBRANCH  22  25
ENDBRANCH   6  22
TORSDOF 10
ENDMDL
MODEL      116
REMARK 921   NORMALIZED FREE ENERGY PREDICTED BY IDOCK:   -4.77 KCAL/MOL
REMARK 922        TOTAL FREE ENERGY PREDICTED BY IDOCK:   -9.34 KCAL/MOL
REMARK 923 INTER-LIGAND FREE ENERGY PREDICTED BY IDOCK:   -7.09 KCAL/MOL
REMARK 924 INTRA-LIGAND FREE ENERGY PREDICTED BY IDOCK:   -2.25 KCAL/MOL
REMARK 927      BINDING AFFINITY PREDICTED BY RF-SCORE:    0.00 PKD
ROOT
HETATM    1  C   UNL     1      -8.771   7.563  68.692  1.00  0.00    -0.128 C  
HETATM    2  C   UNL     1      -7.790   8.718  68.641  1.00  0.00    -0.103 C  
HETATM    3  C   UNL     1      -7.997   9.201  67.228  1.00  0.00    -0.102 C  
HETATM    4  O   UNL     1      -7.180   9.905  66.649  1.00  0.00    -0.088 OA 
HETATM    5  C   UNL     1      -9.298   8.692  66.611  1.00  0.00    -0.246 C  
HETATM    6  C   UNL     1     -10.269   6.296  70.067  1.00  0.00    -0.188 C  
HETATM    7  C   UNL     1      -9.931   8.030  67.832  1.00  0.00    -0.223 C  
HETATM    8  C   UNL     1     -10.842   6.840  67.597  1.00  0.00    -0.361 C  
HETATM    9  O   UNL     1      -9.268   7.330  69.996  1.00  0.00    -0.149 OA 
HETATM   10  C   UNL     1     -11.367   6.398  68.966  1.00  0.00    -0.332 C  
HETATM   11  O   UNL     1      -9.594   5.036  69.960  1.00  0.00    -0.156 OA 
HETATM   12  H   UNL     1      -8.925   4.974  70.632  1.00  0.00     0.000 HD 
ENDROOT
BRANCH   5  13
HETATM   13  C   UNL     1     -10.229   9.792  66.097  1.00  0.00    -0.278 C  
BRANCH  13  14
HETATM   14  C   UNL     1     -11.096  10.426  67.176  1.00  0.00    -0.195 C  
BRANCH  14  15
HETATM   15  C   UNL     1     -10.631  11.848  67.478  1.00  0.00    -0.250 C  
BRANCH  15  16
HETATM   16  C   UNL     1     -11.825  12.797  67.498  1.00  0.00    -0.402 C  
BRANCH  16  17
HETATM   17  C   UNL     1     -11.692  13.830  68.612  1.00  0.00    -0.391 C  
BRANCH  17  18
HETATM   18  C   UNL     1     -10.263  14.358  68.693  1.00  0.00    -0.245 C  
HETATM   19  O   UNL     1      -8.799  16.049  67.886  1.00  0.00    -0.179 OA 
HETATM   20  C   UNL     1     -10.064  15.573  67.820  1.00  0.00    -0.232 C  
HETATM   21  O   UNL     1     -10.920  16.091  67.120  1.00  0.00    -0.289 OA 
ENDBRANCH  17  18
ENDBRANCH  16  17
ENDBRANCH  15  16
ENDBRANCH  14  15
ENDBRANCH  13  14
ENDBRANCH   5  13
BRANCH   6  22
HETATM   22  C   UNL     1     -10.973   6.417  71.457  1.00  0.00    -0.263 C  
HETATM   23  F   UNL     1     -12.328   6.384  71.274  1.00  0.00    -0.381 F  
HETATM   24  F   UNL     1     -10.676   5.324  72.217  1.00  0.00    -0.251 F  
BRANCH  22  25
HETATM   25  C   UNL     1     -10.620   7.682  72.228  1.00  0.00    -0.298 C  
BRANCH  25  26
HETATM   26  C   UNL     1     -11.693   8.757  72.045  1.00  0.00    -0.442 C  
BRANCH  26  27
HETATM   27  C   UNL     1     -11.249   9.813  71.036  1.00  0.00    -0.451 C  
HETATM   28  C   UNL     1     -12.405  10.710  70.632  1.00  0.00    -0.462 C  
ENDBRANCH  26  27
ENDBRANCH  25  26
ENDBRANCH  22  25
ENDBRANCH   6  22
TORSDOF 10
ENDMDL
MODEL      117
REMARK 921   NORMALIZED FREE ENERGY PREDICTED BY IDOCK:   -4.77 KCAL/MOL
REMARK 922        TOTAL FREE ENERGY PREDICTED BY IDOCK:   -9.33 KCAL/MOL
REMARK 923 INTER-LIGAND FREE ENERGY PREDICTED BY IDOCK:   -7.73 KCAL/MOL
REMARK 924 INTRA-LIGAND FREE ENERGY PREDICTED BY IDOCK:   -1.60 KCAL/MOL
REMARK 927      BINDING AFFINITY PREDICTED BY RF-SCORE:    0.00 PKD
ROOT
HETATM    1  C   UNL     1     -12.120  12.245  67.875  1.00  0.00     0.016 C  
HETATM    2  C   UNL     1     -11.520  12.454  66.498  1.00  0.00    -0.427 C  
HETATM    3  C   UNL     1     -11.569  13.957  66.394  1.00  0.00    -0.367 C  
HETATM    4  O   UNL     1     -11.491  14.543  65.322  1.00  0.00    -0.334 OA 
HETATM    5  C   UNL     1     -11.755  14.640  67.747  1.00  0.00    -0.386 C  
HETATM    6  C   UNL     1     -12.123  10.888  69.849  1.00  0.00    -0.354 C  
HETATM    7  C   UNL     1     -11.622  13.435  68.675  1.00  0.00    -0.362 C  
HETATM    8  C   UNL     1     -12.386  13.464  69.985  1.00  0.00    -0.294 C  
HETATM    9  O   UNL     1     -11.641  11.072  68.504  1.00  0.00    -0.287 OA 
HETATM   10  C   UNL     1     -12.050  12.170  70.731  1.00  0.00    -0.279 C  
HETATM   11  O   UNL     1     -13.482  10.440  69.761  1.00  0.00    -0.377 OA 
HETATM   12  H   UNL     1     -13.527   9.658  69.224  1.00  0.00     0.000 HD 
ENDROOT
BRANCH   5  13
HETATM   13  C   UNL     1     -10.674  15.664  68.095  1.00  0.00    -0.287 C  
BRANCH  13  14
HETATM   14  C   UNL     1      -9.404  15.053  68.673  1.00  0.00    -0.202 C  
BRANCH  14  15
HETATM   15  C   UNL     1      -8.378  14.794  67.572  1.00  0.00    -0.197 C  
BRANCH  15  16
HETATM   16  C   UNL     1      -8.343  15.969  66.601  1.00  0.00    -0.331 C  
BRANCH  16  17
HETATM   17  C   UNL     1      -7.040  16.752  66.727  1.00  0.00    -0.270 C  
BRANCH  17  18
HETATM   18  C   UNL     1      -7.315  18.201  67.120  1.00  0.00    -0.216 C  
HETATM   19  O   UNL     1      -7.355  20.431  66.298  1.00  0.00    -0.262 OA 
HETATM   20  C   UNL     1      -7.112  19.144  65.959  1.00  0.00    -0.266 C  
HETATM   21  O   UNL     1      -6.766  18.820  64.834  1.00  0.00    -0.508 OA 
ENDBRANCH  17  18
ENDBRANCH  16  17
ENDBRANCH  15  16
ENDBRANCH  14  15
ENDBRANCH  13  14
ENDBRANCH   5  13
BRANCH   6  22
HETATM   22  C   UNL     1     -11.235   9.792  70.523  1.00  0.00    -0.315 C  
HETATM   23  F   UNL     1     -11.346   9.902  71.882  1.00  0.00    -0.384 F  
HETATM   24  F   UNL     1     -11.718   8.556  70.211  1.00  0.00    -0.219 F  
BRANCH  22  25
HETATM   25  C   UNL     1      -9.759   9.869  70.150  1.00  0.00    -0.255 C  
BRANCH  25  26
HETATM   26  C   UNL     1      -8.923   8.923  71.015  1.00  0.00    -0.298 C  
BRANCH  26  27
HETATM   27  C   UNL     1      -8.188   7.898  70.156  1.00  0.00    -0.125 C  
HETATM   28  C   UNL     1      -9.011   6.634  69.980  1.00  0.00    -0.144 C  
ENDBRANCH  26  27
ENDBRANCH  25  26
ENDBRANCH  22  25
ENDBRANCH   6  22
TORSDOF 10
ENDMDL
MODEL      118
REMARK 921   NORMALIZED FREE ENERGY PREDICTED BY IDOCK:   -4.77 KCAL/MOL
REMARK 922        TOTAL FREE ENERGY PREDICTED BY IDOCK:   -9.33 KCAL/MOL
REMARK 923 INTER-LIGAND FREE ENERGY PREDICTED BY IDOCK:   -7.75 KCAL/MOL
REMARK 924 INTRA-LIGAND FREE ENERGY PREDICTED BY IDOCK:   -1.58 KCAL/MOL
REMARK 927      BINDING AFFINITY PREDICTED BY RF-SCORE:    0.00 PKD
ROOT
HETATM    1  C   UNL     1     -12.042  13.928  69.774  1.00  0.00    -0.345 C  
HETATM    2  C   UNL     1     -12.244  14.359  71.215  1.00  0.00    -0.429 C  
HETATM    3  C   UNL     1     -13.073  13.213  71.737  1.00  0.00    -0.383 C  
HETATM    4  O   UNL     1     -13.740  13.299  72.760  1.00  0.00    -0.669 OA 
HETATM    5  C   UNL     1     -13.007  11.976  70.844  1.00  0.00    -0.087 C  
HETATM    6  C   UNL     1     -10.568  13.959  67.886  1.00  0.00    -0.245 C  
HETATM    7  C   UNL     1     -11.928  12.417  69.857  1.00  0.00    -0.369 C  
HETATM    8  C   UNL     1     -11.997  11.869  68.444  1.00  0.00    -0.246 C  
HETATM    9  O   UNL     1     -10.835  14.421  69.225  1.00  0.00    -0.254 OA 
HETATM   10  C   UNL     1     -10.793  12.431  67.685  1.00  0.00    -0.258 C  
HETATM   11  O   UNL     1     -11.422  14.694  66.999  1.00  0.00    -0.348 OA 
HETATM   12  H   UNL     1     -11.285  15.626  67.122  1.00  0.00     0.000 HD 
ENDROOT
BRANCH   5  13
HETATM   13  C   UNL     1     -12.547  10.703  71.555  1.00  0.00    -0.517 C  
BRANCH  13  14
HETATM   14  C   UNL     1     -13.613   9.619  71.638  1.00  0.00    -0.402 C  
BRANCH  14  15
HETATM   15  C   UNL     1     -13.100   8.413  72.421  1.00  0.00    -0.269 C  
BRANCH  15  16
HETATM   16  C   UNL     1     -12.888   7.230  71.483  1.00  0.00    -0.430 C  
BRANCH  16  17
HETATM   17  C   UNL     1     -11.573   6.517  71.779  1.00  0.00    -0.359 C  
BRANCH  17  18
HETATM   18  C   UNL     1     -10.666   7.390  72.640  1.00  0.00    -0.334 C  
HETATM   19  O   UNL     1      -8.695   8.720  72.605  1.00  0.00    -0.408 OA 
HETATM   20  C   UNL     1      -9.505   7.943  71.849  1.00  0.00    -0.168 C  
HETATM   21  O   UNL     1      -9.289   7.731  70.666  1.00  0.00    -0.161 OA 
ENDBRANCH  17  18
ENDBRANCH  16  17
ENDBRANCH  15  16
ENDBRANCH  14  15
ENDBRANCH  13  14
ENDBRANCH   5  13
BRANCH   6  22
HETATM   22  C   UNL     1      -9.068  14.269  67.572  1.00  0.00    -0.193 C  
HETATM   23  F   UNL     1      -9.005  15.151  66.529  1.00  0.00    -0.249 F  
HETATM   24  F   UNL     1      -8.501  14.909  68.633  1.00  0.00    -0.138 F  
BRANCH  22  25
HETATM   25  C   UNL     1      -8.238  13.041  67.218  1.00  0.00    -0.174 C  
BRANCH  25  26
HETATM   26  C   UNL     1      -6.886  13.065  67.934  1.00  0.00    -0.130 C  
BRANCH  26  27
HETATM   27  C   UNL     1      -6.482  11.666  68.393  1.00  0.00    -0.052 C  
HETATM   28  C   UNL     1      -7.693  10.849  68.805  1.00  0.00    -0.129 C  
ENDBRANCH  26  27
ENDBRANCH  25  26
ENDBRANCH  22  25
ENDBRANCH   6  22
TORSDOF 10
ENDMDL
MODEL      119
REMARK 921   NORMALIZED FREE ENERGY PREDICTED BY IDOCK:   -4.76 KCAL/MOL
REMARK 922        TOTAL FREE ENERGY PREDICTED BY IDOCK:   -9.32 KCAL/MOL
REMARK 923 INTER-LIGAND FREE ENERGY PREDICTED BY IDOCK:   -7.25 KCAL/MOL
REMARK 924 INTRA-LIGAND FREE ENERGY PREDICTED BY IDOCK:   -2.08 KCAL/MOL
REMARK 927      BINDING AFFINITY PREDICTED BY RF-SCORE:    0.00 PKD
ROOT
HETATM    1  C   UNL     1      -9.506   7.776  66.768  1.00  0.00    -0.197 C  
HETATM    2  C   UNL     1     -10.344   6.578  66.366  1.00  0.00    -0.022 C  
HETATM    3  C   UNL     1      -9.811   5.531  67.310  1.00  0.00    -0.150 C  
HETATM    4  O   UNL     1      -9.967   4.332  67.117  1.00  0.00    -0.193 OA 
HETATM    5  C   UNL     1      -9.045   6.129  68.488  1.00  0.00    -0.117 C  
HETATM    6  C   UNL     1      -9.439  10.160  66.997  1.00  0.00    -0.167 C  
HETATM    7  C   UNL     1      -9.330   7.612  68.267  1.00  0.00    -0.145 C  
HETATM    8  C   UNL     1      -8.280   8.609  68.721  1.00  0.00    -0.121 C  
HETATM    9  O   UNL     1     -10.172   9.004  66.545  1.00  0.00    -0.278 OA 
HETATM   10  C   UNL     1      -8.827  10.007  68.421  1.00  0.00    -0.117 C  
HETATM   11  O   UNL     1      -8.394  10.406  66.047  1.00  0.00    -0.137 OA 
HETATM   12  H   UNL     1      -8.767  10.499  65.178  1.00  0.00     0.000 HD 
ENDROOT
BRANCH   5  13
HETATM   13  C   UNL     1      -9.572   5.716  69.863  1.00  0.00    -0.208 C  
BRANCH  13  14
HETATM   14  C   UNL     1     -11.047   6.022  70.080  1.00  0.00    -0.451 C  
BRANCH  14  15
HETATM   15  C   UNL     1     -11.341   6.257  71.560  1.00  0.00    -0.352 C  
BRANCH  15  16
HETATM   16  C   UNL     1     -10.578   7.481  72.057  1.00  0.00    -0.248 C  
BRANCH  16  17
HETATM   17  C   UNL     1     -11.507   8.677  72.233  1.00  0.00    -0.423 C  
BRANCH  17  18
HETATM   18  C   UNL     1     -11.374   9.644  71.061  1.00  0.00    -0.444 C  
HETATM   19  O   UNL     1     -12.291  11.610  70.088  1.00  0.00    -0.274 OA 
HETATM   20  C   UNL     1     -12.403  10.747  71.124  1.00  0.00    -0.393 C  
HETATM   21  O   UNL     1     -13.253  10.875  71.991  1.00  0.00    -0.492 OA 
ENDBRANCH  17  18
ENDBRANCH  16  17
ENDBRANCH  15  16
ENDBRANCH  14  15
ENDBRANCH  13  14
ENDBRANCH   5  13
BRANCH   6  22
HETATM   22  C   UNL     1     -10.434  11.365  67.030  1.00  0.00    -0.236 C  
HETATM   23  F   UNL     1     -11.702  10.889  67.224  1.00  0.00    -0.308 F  
HETATM   24  F   UNL     1     -10.165  12.151  68.111  1.00  0.00    -0.180 F  
BRANCH  22  25
HETATM   25  C   UNL     1     -10.425  12.217  65.768  1.00  0.00    -0.287 C  
BRANCH  25  26
HETATM   26  C   UNL     1     -11.832  12.715  65.429  1.00  0.00    -0.473 C  
BRANCH  26  27
HETATM   27  C   UNL     1     -12.208  13.924  66.281  1.00  0.00    -0.498 C  
HETATM   28  C   UNL     1     -11.117  14.980  66.253  1.00  0.00    -0.334 C  
ENDBRANCH  26  27
ENDBRANCH  25  26
ENDBRANCH  22  25
ENDBRANCH   6  22
TORSDOF 10
ENDMDL
MODEL      120
REMARK 921   NORMALIZED FREE ENERGY PREDICTED BY IDOCK:   -4.76 KCAL/MOL
REMARK 922        TOTAL FREE ENERGY PREDICTED BY IDOCK:   -9.32 KCAL/MOL
REMARK 923 INTER-LIGAND FREE ENERGY PREDICTED BY IDOCK:   -7.38 KCAL/MOL
REMARK 924 INTRA-LIGAND FREE ENERGY PREDICTED BY IDOCK:   -1.94 KCAL/MOL
REMARK 927      BINDING AFFINITY PREDICTED BY RF-SCORE:    0.00 PKD
ROOT
HETATM    1  C   UNL     1      -9.081  10.379  67.010  1.00  0.00    -0.139 C  
HETATM    2  C   UNL     1      -8.714   9.830  65.644  1.00  0.00    -0.168 C  
HETATM    3  C   UNL     1      -8.790   8.348  65.907  1.00  0.00    -0.175 C  
HETATM    4  O   UNL     1      -8.254   7.524  65.177  1.00  0.00    -0.134 OA 
HETATM    5  C   UNL     1      -9.568   8.008  67.176  1.00  0.00    -0.227 C  
HETATM    6  C   UNL     1     -10.145  12.159  68.210  1.00  0.00    -0.210 C  
HETATM    7  C   UNL     1     -10.105   9.390  67.538  1.00  0.00    -0.268 C  
HETATM    8  C   UNL     1     -10.331   9.698  69.006  1.00  0.00    -0.218 C  
HETATM    9  O   UNL     1      -9.704  11.646  66.937  1.00  0.00    -0.191 OA 
HETATM   10  C   UNL     1     -10.902  11.116  69.086  1.00  0.00    -0.284 C  
HETATM   11  O   UNL     1      -8.985  12.626  68.910  1.00  0.00    -0.382 OA 
HETATM   12  H   UNL     1      -8.523  13.262  68.376  1.00  0.00     0.000 HD 
ENDROOT
BRANCH   5  13
HETATM   13  C   UNL     1     -10.743   7.052  66.964  1.00  0.00    -0.423 C  
BRANCH  13  14
HETATM   14  C   UNL     1     -10.465   5.621  67.401  1.00  0.00    -0.306 C  
BRANCH  14  15
HETATM   15  C   UNL     1      -9.576   5.596  68.643  1.00  0.00    -0.163 C  
BRANCH  15  16
HETATM   16  C   UNL     1     -10.405   5.246  69.874  1.00  0.00    -0.374 C  
BRANCH  16  17
HETATM   17  C   UNL     1     -10.566   6.452  70.793  1.00  0.00    -0.288 C  
BRANCH  17  18
HETATM   18  C   UNL     1     -12.036   6.841  70.924  1.00  0.00    -0.437 C  
HETATM   19  O   UNL     1     -13.522   8.385  71.953  1.00  0.00    -0.340 OA 
HETATM   20  C   UNL     1     -12.221   8.031  71.833  1.00  0.00    -0.319 C  
HETATM   21  O   UNL     1     -11.327   8.628  72.411  1.00  0.00    -0.359 OA 
ENDBRANCH  17  18
ENDBRANCH  16  17
ENDBRANCH  15  16
ENDBRANCH  14  15
ENDBRANCH  13  14
ENDBRANCH   5  13
BRANCH   6  22
HETATM   22  C   UNL     1     -11.122  13.346  67.927  1.00  0.00    -0.265 C  
HETATM   23  F   UNL     1     -10.775  13.934  66.741  1.00  0.00    -0.275 F  
HETATM   24  F   UNL     1     -12.385  12.866  67.746  1.00  0.00    -0.320 F  
BRANCH  22  25
HETATM   25  C   UNL     1     -11.136  14.415  69.012  1.00  0.00    -0.282 C  
BRANCH  25  26
HETATM   26  C   UNL     1     -11.297  15.812  68.407  1.00  0.00    -0.372 C  
BRANCH  26  27
HETATM   27  C   UNL     1     -10.127  16.715  68.787  1.00  0.00    -0.270 C  
HETATM   28  C   UNL     1      -8.822  16.199  68.209  1.00  0.00    -0.188 C  
ENDBRANCH  26  27
ENDBRANCH  25  26
ENDBRANCH  22  25
ENDBRANCH   6  22
TORSDOF 10
ENDMDL
MODEL      121
REMARK 921   NORMALIZED FREE ENERGY PREDICTED BY IDOCK:   -4.75 KCAL/MOL
REMARK 922        TOTAL FREE ENERGY PREDICTED BY IDOCK:   -9.30 KCAL/MOL
REMARK 923 INTER-LIGAND FREE ENERGY PREDICTED BY IDOCK:   -6.98 KCAL/MOL
REMARK 924 INTRA-LIGAND FREE ENERGY PREDICTED BY IDOCK:   -2.32 KCAL/MOL
REMARK 927      BINDING AFFINITY PREDICTED BY RF-SCORE:    0.00 PKD
ROOT
HETATM    1  C   UNL     1     -10.683  11.622  66.823  1.00  0.00    -0.260 C  
HETATM    2  C   UNL     1     -10.708  12.989  67.479  1.00  0.00    -0.248 C  
HETATM    3  C   UNL     1     -11.634  12.727  68.640  1.00  0.00    -0.314 C  
HETATM    4  O   UNL     1     -12.198  13.629  69.246  1.00  0.00    -0.320 OA 
HETATM    5  C   UNL     1     -11.804  11.239  68.940  1.00  0.00    -0.413 C  
HETATM    6  C   UNL     1      -9.377  10.048  65.575  1.00  0.00    -0.216 C  
HETATM    7  C   UNL     1     -10.761  10.655  67.990  1.00  0.00    -0.275 C  
HETATM    8  C   UNL     1     -11.017   9.270  67.427  1.00  0.00    -0.022 C  
HETATM    9  O   UNL     1      -9.471  11.372  66.137  1.00  0.00    -0.203 OA 
HETATM   10  C   UNL     1      -9.815   8.913  66.548  1.00  0.00    -0.344 C  
HETATM   11  O   UNL     1     -10.198  10.020  64.400  1.00  0.00    -0.416 OA 
HETATM   12  H   UNL     1      -9.930  10.713  63.807  1.00  0.00     0.000 HD 
ENDROOT
BRANCH   5  13
HETATM   13  C   UNL     1     -11.457  10.838  70.374  1.00  0.00    -0.397 C  
BRANCH  13  14
HETATM   14  C   UNL     1     -12.670  10.634  71.272  1.00  0.00    -0.537 C  
BRANCH  14  15
HETATM   15  C   UNL     1     -12.955   9.147  71.468  1.00  0.00    -0.409 C  
BRANCH  15  16
HETATM   16  C   UNL     1     -11.706   8.328  71.159  1.00  0.00    -0.308 C  
BRANCH  16  17
HETATM   17  C   UNL     1     -12.051   6.862  70.921  1.00  0.00    -0.424 C  
BRANCH  17  18
HETATM   18  C   UNL     1     -11.385   6.350  69.648  1.00  0.00    -0.479 C  
HETATM   19  O   UNL     1      -9.797   4.790  68.813  1.00  0.00    -0.165 OA 
HETATM   20  C   UNL     1     -10.390   5.252  69.938  1.00  0.00    -0.304 C  
HETATM   21  O   UNL     1     -10.125   4.810  71.045  1.00  0.00    -0.207 OA 
ENDBRANCH  17  18
ENDBRANCH  16  17
ENDBRANCH  15  16
ENDBRANCH  14  15
ENDBRANCH  13  14
ENDBRANCH   5  13
BRANCH   6  22
HETATM   22  C   UNL     1      -7.881   9.803  65.196  1.00  0.00    -0.126 C  
HETATM   23  F   UNL     1      -7.556   8.505  65.482  1.00  0.00    -0.082 F  
HETATM   24  F   UNL     1      -7.723   9.935  63.848  1.00  0.00    -0.120 F  
BRANCH  22  25
HETATM   25  C   UNL     1      -6.896  10.717  65.915  1.00  0.00    -0.115 C  
BRANCH  25  26
HETATM   26  C   UNL     1      -6.427  10.094  67.231  1.00  0.00    -0.068 C  
BRANCH  26  27
HETATM   27  C   UNL     1      -6.630  11.056  68.398  1.00  0.00    -0.058 C  
HETATM   28  C   UNL     1      -7.519  10.446  69.468  1.00  0.00    -0.148 C  
ENDBRANCH  26  27
ENDBRANCH  25  26
ENDBRANCH  22  25
ENDBRANCH   6  22
TORSDOF 10
ENDMDL
MODEL      122
REMARK 921   NORMALIZED FREE ENERGY PREDICTED BY IDOCK:   -4.75 KCAL/MOL
REMARK 922        TOTAL FREE ENERGY PREDICTED BY IDOCK:   -9.30 KCAL/MOL
REMARK 923 INTER-LIGAND FREE ENERGY PREDICTED BY IDOCK:   -6.88 KCAL/MOL
REMARK 924 INTRA-LIGAND FREE ENERGY PREDICTED BY IDOCK:   -2.41 KCAL/MOL
REMARK 927      BINDING AFFINITY PREDICTED BY RF-SCORE:    0.00 PKD
ROOT
HETATM    1  C   UNL     1     -11.485  10.831  66.574  1.00  0.00     0.547 C  
HETATM    2  C   UNL     1     -11.300  10.353  68.002  1.00  0.00    -0.277 C  
HETATM    3  C   UNL     1     -10.340   9.209  67.794  1.00  0.00    -0.245 C  
HETATM    4  O   UNL     1     -10.174   8.331  68.630  1.00  0.00    -0.197 OA 
HETATM    5  C   UNL     1      -9.642   9.260  66.436  1.00  0.00    -0.301 C  
HETATM    6  C   UNL     1     -11.883  12.719  65.153  1.00  0.00    -0.391 C  
HETATM    7  C   UNL     1     -10.122  10.621  65.939  1.00  0.00    -0.321 C  
HETATM    8  C   UNL     1     -10.275  10.813  64.442  1.00  0.00    -0.432 C  
HETATM    9  O   UNL     1     -11.787  12.211  66.499  1.00  0.00    -0.569 OA 
HETATM   10  C   UNL     1     -10.725  12.258  64.217  1.00  0.00    -0.389 C  
HETATM   11  O   UNL     1     -13.139  12.283  64.618  1.00  0.00    -0.770 OA 
HETATM   12  H   UNL     1     -13.845  12.564  65.189  1.00  0.00     0.000 HD 
ENDROOT
BRANCH   5  13
HETATM   13  C   UNL     1      -8.114   9.262  66.508  1.00  0.00    -0.104 C  
BRANCH  13  14
HETATM   14  C   UNL     1      -7.518  10.576  66.993  1.00  0.00    -0.100 C  
BRANCH  14  15
HETATM   15  C   UNL     1      -6.385  10.323  67.985  1.00  0.00    -0.056 C  
BRANCH  15  16
HETATM   16  C   UNL     1      -6.736   9.151  68.895  1.00  0.00    -0.052 C  
BRANCH  16  17
HETATM   17  C   UNL     1      -7.449   9.624  70.157  1.00  0.00    -0.157 C  
BRANCH  17  18
HETATM   18  C   UNL     1      -7.554   8.494  71.176  1.00  0.00    -0.104 C  
HETATM   19  O   UNL     1      -9.000   7.480  72.767  1.00  0.00    -0.132 OA 
HETATM   20  C   UNL     1      -8.898   8.481  71.862  1.00  0.00    -0.216 C  
HETATM   21  O   UNL     1      -9.808   9.267  71.654  1.00  0.00    -0.278 OA 
ENDBRANCH  17  18
ENDBRANCH  16  17
ENDBRANCH  15  16
ENDBRANCH  14  15
ENDBRANCH  13  14
ENDBRANCH   5  13
BRANCH   6  22
HETATM   22  C   UNL     1     -11.841  14.279  65.235  1.00  0.00    -0.374 C  
HETATM   23  F   UNL     1     -12.800  14.794  64.407  1.00  0.00    -0.391 F  
HETATM   24  F   UNL     1     -12.183  14.681  66.492  1.00  0.00    -0.391 F  
BRANCH  22  25
HETATM   25  C   UNL     1     -10.497  14.889  64.856  1.00  0.00    -0.389 C  
BRANCH  25  26
HETATM   26  C   UNL     1      -9.767  15.423  66.090  1.00  0.00    -0.347 C  
BRANCH  26  27
HETATM   27  C   UNL     1      -8.927  14.332  66.748  1.00  0.00    -0.249 C  
HETATM   28  C   UNL     1      -9.269  14.187  68.221  1.00  0.00    -0.198 C  
ENDBRANCH  26  27
ENDBRANCH  25  26
ENDBRANCH  22  25
ENDBRANCH   6  22
TORSDOF 10
ENDMDL
MODEL      123
REMARK 921   NORMALIZED FREE ENERGY PREDICTED BY IDOCK:   -4.74 KCAL/MOL
REMARK 922        TOTAL FREE ENERGY PREDICTED BY IDOCK:   -9.29 KCAL/MOL
REMARK 923 INTER-LIGAND FREE ENERGY PREDICTED BY IDOCK:   -7.74 KCAL/MOL
REMARK 924 INTRA-LIGAND FREE ENERGY PREDICTED BY IDOCK:   -1.55 KCAL/MOL
REMARK 927      BINDING AFFINITY PREDICTED BY RF-SCORE:    0.00 PKD
ROOT
HETATM    1  C   UNL     1     -11.523  13.265  65.668  1.00  0.00    -0.318 C  
HETATM    2  C   UNL     1     -11.723  13.848  64.282  1.00  0.00    -0.406 C  
HETATM    3  C   UNL     1     -11.638  15.322  64.581  1.00  0.00    -0.333 C  
HETATM    4  O   UNL     1     -12.070  16.173  63.815  1.00  0.00    -0.946 OA 
HETATM    5  C   UNL     1     -10.995  15.618  65.935  1.00  0.00    -0.231 C  
HETATM    6  C   UNL     1     -10.643  11.435  66.940  1.00  0.00    -0.252 C  
HETATM    7  C   UNL     1     -10.537  14.215  66.325  1.00  0.00    -0.284 C  
HETATM    8  C   UNL     1     -10.481  13.875  67.802  1.00  0.00    -0.243 C  
HETATM    9  O   UNL     1     -10.928  11.982  65.637  1.00  0.00    -0.279 OA 
HETATM   10  C   UNL     1      -9.959  12.441  67.914  1.00  0.00    -0.204 C  
HETATM   11  O   UNL     1     -11.884  10.988  67.500  1.00  0.00    -0.571 OA 
HETATM   12  H   UNL     1     -12.301  10.375  66.906  1.00  0.00     0.000 HD 
ENDROOT
BRANCH   5  13
HETATM   13  C   UNL     1      -9.779  16.544  65.871  1.00  0.00    -0.303 C  
BRANCH  13  14
HETATM   14  C   UNL     1      -9.863  17.742  66.806  1.00  0.00    -0.320 C  
BRANCH  14  15
HETATM   15  C   UNL     1      -8.477  18.130  67.315  1.00  0.00    -0.243 C  
BRANCH  15  16
HETATM   16  C   UNL     1      -7.404  17.606  66.366  1.00  0.00    -0.323 C  
BRANCH  16  17
HETATM   17  C   UNL     1      -6.408  16.713  67.096  1.00  0.00    -0.219 C  
BRANCH  17  18
HETATM   18  C   UNL     1      -7.039  16.106  68.346  1.00  0.00    -0.130 C  
HETATM   19  O   UNL     1      -7.516  14.052  69.443  1.00  0.00    -0.014 OA 
HETATM   20  C   UNL     1      -6.960  14.598  68.338  1.00  0.00    -0.113 C  
HETATM   21  O   UNL     1      -6.463  13.919  67.454  1.00  0.00    -0.299 OA 
ENDBRANCH  17  18
ENDBRANCH  16  17
ENDBRANCH  15  16
ENDBRANCH  14  15
ENDBRANCH  13  14
ENDBRANCH   5  13
BRANCH   6  22
HETATM   22  C   UNL     1      -9.672  10.226  66.741  1.00  0.00    -0.185 C  
HETATM   23  F   UNL     1     -10.236   9.344  65.860  1.00  0.00    -0.364 F  
HETATM   24  F   UNL     1      -8.522  10.656  66.150  1.00  0.00    -0.136 F  
BRANCH  22  25
HETATM   25  C   UNL     1      -9.335   9.478  68.024  1.00  0.00    -0.143 C  
BRANCH  25  26
HETATM   26  C   UNL     1     -10.090   8.150  68.103  1.00  0.00    -0.237 C  
BRANCH  26  27
HETATM   27  C   UNL     1     -10.700   7.944  69.487  1.00  0.00    -0.195 C  
HETATM   28  C   UNL     1     -11.325   6.566  69.615  1.00  0.00    -0.443 C  
ENDBRANCH  26  27
ENDBRANCH  25  26
ENDBRANCH  22  25
ENDBRANCH   6  22
TORSDOF 10
ENDMDL
MODEL      124
REMARK 921   NORMALIZED FREE ENERGY PREDICTED BY IDOCK:   -4.74 KCAL/MOL
REMARK 922        TOTAL FREE ENERGY PREDICTED BY IDOCK:   -9.29 KCAL/MOL
REMARK 923 INTER-LIGAND FREE ENERGY PREDICTED BY IDOCK:   -7.17 KCAL/MOL
REMARK 924 INTRA-LIGAND FREE ENERGY PREDICTED BY IDOCK:   -2.12 KCAL/MOL
REMARK 927      BINDING AFFINITY PREDICTED BY RF-SCORE:    0.00 PKD
ROOT
HETATM    1  C   UNL     1     -11.167  13.400  69.285  1.00  0.00    -0.219 C  
HETATM    2  C   UNL     1     -12.358  14.059  69.955  1.00  0.00    -0.397 C  
HETATM    3  C   UNL     1     -11.701  15.269  70.569  1.00  0.00    -0.318 C  
HETATM    4  O   UNL     1     -12.218  15.908  71.476  1.00  0.00    -0.415 OA 
HETATM    5  C   UNL     1     -10.334  15.575  69.960  1.00  0.00    -0.315 C  
HETATM    6  C   UNL     1     -10.418  12.078  67.433  1.00  0.00    -0.216 C  
HETATM    7  C   UNL     1     -10.320  14.568  68.814  1.00  0.00    -0.243 C  
HETATM    8  C   UNL     1      -8.977  14.017  68.373  1.00  0.00    -0.189 C  
HETATM    9  O   UNL     1     -11.534  12.647  68.145  1.00  0.00    -0.269 OA 
HETATM   10  C   UNL     1      -9.241  13.071  67.199  1.00  0.00    -0.226 C  
HETATM   11  O   UNL     1      -9.956  10.951  68.188  1.00  0.00    -0.165 OA 
HETATM   12  H   UNL     1     -10.673  10.344  68.330  1.00  0.00     0.000 HD 
ENDROOT
BRANCH   5  13
HETATM   13  C   UNL     1     -10.195  16.988  69.389  1.00  0.00    -0.190 C  
BRANCH  13  14
HETATM   14  C   UNL     1     -10.862  17.177  68.034  1.00  0.00    -0.317 C  
BRANCH  14  15
HETATM   15  C   UNL     1      -9.954  17.958  67.087  1.00  0.00    -0.327 C  
BRANCH  15  16
HETATM   16  C   UNL     1      -9.093  16.997  66.275  1.00  0.00    -0.279 C  
BRANCH  16  17
HETATM   17  C   UNL     1      -7.638  17.452  66.240  1.00  0.00    -0.348 C  
BRANCH  17  18
HETATM   18  C   UNL     1      -6.775  16.573  67.140  1.00  0.00    -0.232 C  
HETATM   19  O   UNL     1      -5.681  16.486  69.249  1.00  0.00    -0.134 OA 
HETATM   20  C   UNL     1      -6.445  17.259  68.444  1.00  0.00    -0.164 C  
HETATM   21  O   UNL     1      -6.806  18.380  68.766  1.00  0.00    -0.253 OA 
ENDBRANCH  17  18
ENDBRANCH  16  17
ENDBRANCH  15  16
ENDBRANCH  14  15
ENDBRANCH  13  14
ENDBRANCH   5  13
BRANCH   6  22
HETATM   22  C   UNL     1     -10.939  11.615  66.034  1.00  0.00    -0.286 C  
HETATM   23  F   UNL     1     -11.010  10.249  66.015  1.00  0.00    -0.140 F  
HETATM   24  F   UNL     1     -12.217  12.054  65.853  1.00  0.00    -0.391 F  
BRANCH  22  25
HETATM   25  C   UNL     1     -10.076  12.070  64.864  1.00  0.00    -0.289 C  
BRANCH  25  26
HETATM   26  C   UNL     1     -10.427  11.301  63.588  1.00  0.00    -0.464 C  
BRANCH  26  27
HETATM   27  C   UNL     1      -9.503  10.101  63.398  1.00  0.00    -0.308 C  
HETATM   28  C   UNL     1      -8.045  10.522  63.396  1.00  0.00    -0.076 C  
ENDBRANCH  26  27
ENDBRANCH  25  26
ENDBRANCH  22  25
ENDBRANCH   6  22
TORSDOF 10
ENDMDL
MODEL      125
REMARK 921   NORMALIZED FREE ENERGY PREDICTED BY IDOCK:   -4.74 KCAL/MOL
REMARK 922        TOTAL FREE ENERGY PREDICTED BY IDOCK:   -9.29 KCAL/MOL
REMARK 923 INTER-LIGAND FREE ENERGY PREDICTED BY IDOCK:   -7.59 KCAL/MOL
REMARK 924 INTRA-LIGAND FREE ENERGY PREDICTED BY IDOCK:   -1.69 KCAL/MOL
REMARK 927      BINDING AFFINITY PREDICTED BY RF-SCORE:    0.00 PKD
ROOT
HETATM    1  C   UNL     1      -9.384  10.645  69.698  1.00  0.00     0.125 C  
HETATM    2  C   UNL     1      -8.557   9.391  69.912  1.00  0.00    -0.201 C  
HETATM    3  C   UNL     1      -9.363   8.702  70.983  1.00  0.00    -0.202 C  
HETATM    4  O   UNL     1      -8.895   7.819  71.690  1.00  0.00    -0.114 OA 
HETATM    5  C   UNL     1     -10.785   9.245  71.099  1.00  0.00    -0.403 C  
HETATM    6  C   UNL     1     -10.111  12.293  68.118  1.00  0.00    -0.211 C  
HETATM    7  C   UNL     1     -10.815  10.175  69.889  1.00  0.00    -0.347 C  
HETATM    8  C   UNL     1     -11.700  11.405  69.965  1.00  0.00    -0.416 C  
HETATM    9  O   UNL     1      -9.270  11.152  68.382  1.00  0.00    -0.162 OA 
HETATM   10  C   UNL     1     -11.576  12.132  68.624  1.00  0.00    -0.372 C  
HETATM   11  O   UNL     1      -9.505  13.429  68.747  1.00  0.00    -0.394 OA 
HETATM   12  H   UNL     1      -8.611  13.527  68.439  1.00  0.00     0.000 HD 
ENDROOT
BRANCH   5  13
HETATM   13  C   UNL     1     -11.882   8.190  70.949  1.00  0.00    -0.232 C  
BRANCH  13  14
HETATM   14  C   UNL     1     -11.372   6.756  70.988  1.00  0.00    -0.356 C  
BRANCH  14  15
HETATM   15  C   UNL     1     -11.381   6.139  69.592  1.00  0.00    -0.442 C  
BRANCH  15  16
HETATM   16  C   UNL     1     -10.060   5.424  69.325  1.00  0.00    -0.301 C  
BRANCH  16  17
HETATM   17  C   UNL     1      -9.289   6.092  68.193  1.00  0.00    -0.115 C  
BRANCH  17  18
HETATM   18  C   UNL     1     -10.171   7.094  67.453  1.00  0.00    -0.291 C  
HETATM   19  O   UNL     1     -10.128   8.947  65.965  1.00  0.00    -0.260 OA 
HETATM   20  C   UNL     1      -9.353   8.056  66.626  1.00  0.00    -0.197 C  
HETATM   21  O   UNL     1      -8.136   8.061  66.541  1.00  0.00    -0.099 OA 
ENDBRANCH  17  18
ENDBRANCH  16  17
ENDBRANCH  15  16
ENDBRANCH  14  15
ENDBRANCH  13  14
ENDBRANCH   5  13
BRANCH   6  22
HETATM   22  C   UNL     1     -10.158  12.494  66.568  1.00  0.00    -0.238 C  
HETATM   23  F   UNL     1      -9.729  13.758  66.270  1.00  0.00    -0.267 F  
HETATM   24  F   UNL     1      -9.269  11.651  65.971  1.00  0.00    -0.205 F  
BRANCH  22  25
HETATM   25  C   UNL     1     -11.539  12.294  65.955  1.00  0.00    -0.450 C  
BRANCH  25  26
HETATM   26  C   UNL     1     -11.433  11.848  64.495  1.00  0.00    -0.363 C  
BRANCH  26  27
HETATM   27  C   UNL     1     -11.946  12.930  63.550  1.00  0.00    -0.629 C  
HETATM   28  C   UNL     1     -12.228  14.224  64.294  1.00  0.00    -0.451 C  
ENDBRANCH  26  27
ENDBRANCH  25  26
ENDBRANCH  22  25
ENDBRANCH   6  22
TORSDOF 10
ENDMDL
MODEL      126
REMARK 921   NORMALIZED FREE ENERGY PREDICTED BY IDOCK:   -4.73 KCAL/MOL
REMARK 922        TOTAL FREE ENERGY PREDICTED BY IDOCK:   -9.28 KCAL/MOL
REMARK 923 INTER-LIGAND FREE ENERGY PREDICTED BY IDOCK:   -8.48 KCAL/MOL
REMARK 924 INTRA-LIGAND FREE ENERGY PREDICTED BY IDOCK:   -0.80 KCAL/MOL
REMARK 927      BINDING AFFINITY PREDICTED BY RF-SCORE:    0.00 PKD
ROOT
HETATM    1  C   UNL     1     -11.440  10.540  70.813  1.00  0.00    -0.285 C  
HETATM    2  C   UNL     1     -12.449  11.649  71.042  1.00  0.00    -0.436 C  
HETATM    3  C   UNL     1     -12.022  12.640  69.990  1.00  0.00    -0.306 C  
HETATM    4  O   UNL     1     -12.347  13.819  70.029  1.00  0.00    -0.330 OA 
HETATM    5  C   UNL     1     -11.133  12.018  68.915  1.00  0.00    -0.298 C  
HETATM    6  C   UNL     1     -11.041   8.178  70.883  1.00  0.00    -0.258 C  
HETATM    7  C   UNL     1     -11.224  10.547  69.310  1.00  0.00    -0.320 C  
HETATM    8  C   UNL     1     -10.031   9.659  69.010  1.00  0.00    -0.189 C  
HETATM    9  O   UNL     1     -11.942   9.267  71.170  1.00  0.00    -0.293 OA 
HETATM   10  C   UNL     1     -10.396   8.244  69.467  1.00  0.00    -0.219 C  
HETATM   11  O   UNL     1     -10.015   8.195  71.883  1.00  0.00    -0.180 OA 
HETATM   12  H   UNL     1     -10.408   8.155  72.747  1.00  0.00     0.000 HD 
ENDROOT
BRANCH   5  13
HETATM   13  C   UNL     1     -11.652  12.187  67.486  1.00  0.00    -0.413 C  
BRANCH  13  14
HETATM   14  C   UNL     1     -10.736  13.004  66.586  1.00  0.00    -0.285 C  
BRANCH  14  15
HETATM   15  C   UNL     1     -11.151  14.474  66.581  1.00  0.00    -0.333 C  
BRANCH  15  16
HETATM   16  C   UNL     1      -9.958  15.357  66.932  1.00  0.00    -0.247 C  
BRANCH  16  17
HETATM   17  C   UNL     1     -10.386  16.557  67.770  1.00  0.00    -0.291 C  
BRANCH  17  18
HETATM   18  C   UNL     1      -9.403  17.711  67.604  1.00  0.00    -0.246 C  
HETATM   19  O   UNL     1      -8.802  19.525  66.189  1.00  0.00    -0.356 OA 
HETATM   20  C   UNL     1      -9.669  18.497  66.343  1.00  0.00    -0.336 C  
HETATM   21  O   UNL     1     -10.551  18.261  65.533  1.00  0.00    -0.632 OA 
ENDBRANCH  17  18
ENDBRANCH  16  17
ENDBRANCH  15  16
ENDBRANCH  14  15
ENDBRANCH  13  14
ENDBRANCH   5  13
BRANCH   6  22
HETATM   22  C   UNL     1     -11.863   6.851  70.974  1.00  0.00    -0.364 C  
HETATM   23  F   UNL     1     -13.173   7.155  71.222  1.00  0.00    -0.402 F  
HETATM   24  F   UNL     1     -11.851   6.222  69.764  1.00  0.00    -0.494 F  
BRANCH  22  25
HETATM   25  C   UNL     1     -11.377   5.889  72.050  1.00  0.00    -0.325 C  
BRANCH  25  26
HETATM   26  C   UNL     1     -10.170   5.084  71.566  1.00  0.00    -0.273 C  
BRANCH  26  27
HETATM   27  C   UNL     1     -10.236   3.641  72.059  1.00  0.00    -0.145 C  
HETATM   28  C   UNL     1      -9.537   2.697  71.097  1.00  0.00    -0.220 C  
ENDBRANCH  26  27
ENDBRANCH  25  26
ENDBRANCH  22  25
ENDBRANCH   6  22
TORSDOF 10
ENDMDL
MODEL      127
REMARK 921   NORMALIZED FREE ENERGY PREDICTED BY IDOCK:   -4.72 KCAL/MOL
REMARK 922        TOTAL FREE ENERGY PREDICTED BY IDOCK:   -9.26 KCAL/MOL
REMARK 923 INTER-LIGAND FREE ENERGY PREDICTED BY IDOCK:   -8.11 KCAL/MOL
REMARK 924 INTRA-LIGAND FREE ENERGY PREDICTED BY IDOCK:   -1.15 KCAL/MOL
REMARK 927      BINDING AFFINITY PREDICTED BY RF-SCORE:    0.00 PKD
ROOT
HETATM    1  C   UNL     1     -11.268   9.530  68.955  1.00  0.00     0.065 C  
HETATM    2  C   UNL     1     -10.306   9.931  67.854  1.00  0.00    -0.256 C  
HETATM    3  C   UNL     1     -10.837  11.296  67.499  1.00  0.00    -0.245 C  
HETATM    4  O   UNL     1     -10.571  11.850  66.440  1.00  0.00    -0.233 OA 
HETATM    5  C   UNL     1     -11.749  11.877  68.578  1.00  0.00    -0.388 C  
HETATM    6  C   UNL     1     -11.541   8.310  70.999  1.00  0.00    -0.275 C  
HETATM    7  C   UNL     1     -11.563  10.833  69.676  1.00  0.00    -0.388 C  
HETATM    8  C   UNL     1     -12.723  10.587  70.621  1.00  0.00    -0.441 C  
HETATM    9  O   UNL     1     -10.683   8.644  69.890  1.00  0.00    -0.227 OA 
HETATM   10  C   UNL     1     -12.263   9.536  71.635  1.00  0.00    -0.477 C  
HETATM   11  O   UNL     1     -12.514   7.371  70.523  1.00  0.00    -0.556 OA 
HETATM   12  H   UNL     1     -12.073   6.623  70.136  1.00  0.00     0.000 HD 
ENDROOT
BRANCH   5  13
HETATM   13  C   UNL     1     -11.315  13.245  69.107  1.00  0.00    -0.336 C  
BRANCH  13  14
HETATM   14  C   UNL     1     -12.194  14.398  68.641  1.00  0.00    -0.185 C  
BRANCH  14  15
HETATM   15  C   UNL     1     -11.369  15.670  68.462  1.00  0.00    -0.361 C  
BRANCH  15  16
HETATM   16  C   UNL     1     -10.031  15.340  67.807  1.00  0.00    -0.224 C  
BRANCH  16  17
HETATM   17  C   UNL     1      -9.454  16.553  67.086  1.00  0.00    -0.246 C  
BRANCH  17  18
HETATM   18  C   UNL     1      -9.870  17.846  67.781  1.00  0.00    -0.300 C  
HETATM   19  O   UNL     1     -10.860  19.978  67.425  1.00  0.00    -0.304 OA 
HETATM   20  C   UNL     1     -10.486  18.828  66.816  1.00  0.00    -0.420 C  
HETATM   21  O   UNL     1     -10.642  18.644  65.619  1.00  0.00    -0.610 OA 
ENDBRANCH  17  18
ENDBRANCH  16  17
ENDBRANCH  15  16
ENDBRANCH  14  15
ENDBRANCH  13  14
ENDBRANCH   5  13
BRANCH   6  22
HETATM   22  C   UNL     1     -10.650   7.654  72.103  1.00  0.00    -0.232 C  
HETATM   23  F   UNL     1     -11.421   7.401  73.205  1.00  0.00    -0.329 F  
HETATM   24  F   UNL     1     -10.210   6.437  71.673  1.00  0.00    -0.203 F  
BRANCH  22  25
HETATM   25  C   UNL     1      -9.459   8.502  72.530  1.00  0.00    -0.328 C  
BRANCH  25  26
HETATM   26  C   UNL     1      -8.779   7.913  73.768  1.00  0.00    -0.331 C  
BRANCH  26  27
HETATM   27  C   UNL     1      -7.291   8.255  73.793  1.00  0.00    -0.185 C  
HETATM   28  C   UNL     1      -6.767   8.538  72.397  1.00  0.00    -0.090 C  
ENDBRANCH  26  27
ENDBRANCH  25  26
ENDBRANCH  22  25
ENDBRANCH   6  22
TORSDOF 10
ENDMDL
MODEL      128
REMARK 921   NORMALIZED FREE ENERGY PREDICTED BY IDOCK:   -4.69 KCAL/MOL
REMARK 922        TOTAL FREE ENERGY PREDICTED BY IDOCK:   -9.21 KCAL/MOL
REMARK 923 INTER-LIGAND FREE ENERGY PREDICTED BY IDOCK:   -7.74 KCAL/MOL
REMARK 924 INTRA-LIGAND FREE ENERGY PREDICTED BY IDOCK:   -1.48 KCAL/MOL
REMARK 927      BINDING AFFINITY PREDICTED BY RF-SCORE:    0.00 PKD
ROOT
HETATM    1  C   UNL     1     -11.127  13.744  67.909  1.00  0.00    -0.264 C  
HETATM    2  C   UNL     1     -11.881  14.981  68.356  1.00  0.00    -0.298 C  
HETATM    3  C   UNL     1     -10.880  15.596  69.301  1.00  0.00    -0.250 C  
HETATM    4  O   UNL     1     -11.194  16.430  70.139  1.00  0.00    -0.354 OA 
HETATM    5  C   UNL     1      -9.468  15.043  69.112  1.00  0.00    -0.195 C  
HETATM    6  C   UNL     1     -10.732  12.203  66.117  1.00  0.00    -0.272 C  
HETATM    7  C   UNL     1      -9.678  14.196  67.859  1.00  0.00    -0.224 C  
HETATM    8  C   UNL     1      -8.813  12.962  67.687  1.00  0.00    -0.187 C  
HETATM    9  O   UNL     1     -11.492  13.325  66.608  1.00  0.00    -0.319 OA 
HETATM   10  C   UNL     1      -9.196  12.327  66.348  1.00  0.00    -0.203 C  
HETATM   11  O   UNL     1     -11.226  11.029  66.773  1.00  0.00    -0.264 OA 
HETATM   12  H   UNL     1     -12.163  10.954  66.632  1.00  0.00     0.000 HD 
ENDROOT
BRANCH   5  13
HETATM   13  C   UNL     1      -8.404  16.104  68.828  1.00  0.00    -0.231 C  
BRANCH  13  14
HETATM   14  C   UNL     1      -8.187  16.385  67.347  1.00  0.00    -0.178 C  
BRANCH  14  15
HETATM   15  C   UNL     1      -7.281  17.599  67.153  1.00  0.00    -0.206 C  
BRANCH  15  16
HETATM   16  C   UNL     1      -7.648  18.325  65.863  1.00  0.00    -0.164 C  
BRANCH  16  17
HETATM   17  C   UNL     1      -8.559  19.516  66.139  1.00  0.00    -0.326 C  
BRANCH  17  18
HETATM   18  C   UNL     1      -8.672  19.776  67.638  1.00  0.00    -0.383 C  
HETATM   19  O   UNL     1     -10.161  19.685  69.489  1.00  0.00    -0.326 OA 
HETATM   20  C   UNL     1     -10.052  19.459  68.159  1.00  0.00    -0.425 C  
HETATM   21  O   UNL     1     -10.986  19.048  67.489  1.00  0.00    -0.443 OA 
ENDBRANCH  17  18
ENDBRANCH  16  17
ENDBRANCH  15  16
ENDBRANCH  14  15
ENDBRANCH  13  14
ENDBRANCH   5  13
BRANCH   6  22
HETATM   22  C   UNL     1     -10.978  12.107  64.576  1.00  0.00    -0.314 C  
HETATM   23  F   UNL     1     -12.326  12.079  64.342  1.00  0.00    -0.435 F  
HETATM   24  F   UNL     1     -10.521  13.238  63.968  1.00  0.00    -0.422 F  
BRANCH  22  25
HETATM   25  C   UNL     1     -10.347  10.886  63.918  1.00  0.00    -0.397 C  
BRANCH  25  26
HETATM   26  C   UNL     1      -9.434  11.294  62.761  1.00  0.00    -0.355 C  
BRANCH  26  27
HETATM   27  C   UNL     1      -8.099  10.558  62.827  1.00  0.00    -0.159 C  
HETATM   28  C   UNL     1      -7.847   9.995  64.214  1.00  0.00    -0.144 C  
ENDBRANCH  26  27
ENDBRANCH  25  26
ENDBRANCH  22  25
ENDBRANCH   6  22
TORSDOF 10
ENDMDL
MODEL      129
REMARK 921   NORMALIZED FREE ENERGY PREDICTED BY IDOCK:   -4.69 KCAL/MOL
REMARK 922        TOTAL FREE ENERGY PREDICTED BY IDOCK:   -9.21 KCAL/MOL
REMARK 923 INTER-LIGAND FREE ENERGY PREDICTED BY IDOCK:   -7.70 KCAL/MOL
REMARK 924 INTRA-LIGAND FREE ENERGY PREDICTED BY IDOCK:   -1.51 KCAL/MOL
REMARK 927      BINDING AFFINITY PREDICTED BY RF-SCORE:    0.00 PKD
ROOT
HETATM    1  C   UNL     1     -10.521  12.913  68.667  1.00  0.00    -0.213 C  
HETATM    2  C   UNL     1     -11.788  13.713  68.903  1.00  0.00    -0.402 C  
HETATM    3  C   UNL     1     -11.218  14.977  69.493  1.00  0.00    -0.276 C  
HETATM    4  O   UNL     1     -11.898  15.767  70.135  1.00  0.00    -0.338 OA 
HETATM    5  C   UNL     1      -9.721  15.133  69.229  1.00  0.00    -0.225 C  
HETATM    6  C   UNL     1      -9.430  11.294  67.278  1.00  0.00    -0.173 C  
HETATM    7  C   UNL     1      -9.494  13.961  68.277  1.00  0.00    -0.217 C  
HETATM    8  C   UNL     1      -8.130  13.298  68.286  1.00  0.00    -0.156 C  
HETATM    9  O   UNL     1     -10.644  12.009  67.586  1.00  0.00    -0.203 OA 
HETATM   10  C   UNL     1      -8.160  12.194  67.226  1.00  0.00    -0.176 C  
HETATM   11  O   UNL     1      -9.263  10.280  68.276  1.00  0.00    -0.134 OA 
HETATM   12  H   UNL     1     -10.038   9.731  68.308  1.00  0.00     0.000 HD 
ENDROOT
BRANCH   5  13
HETATM   13  C   UNL     1      -9.334  16.434  68.525  1.00  0.00    -0.225 C  
BRANCH  13  14
HETATM   14  C   UNL     1     -10.031  16.647  67.188  1.00  0.00    -0.268 C  
BRANCH  14  15
HETATM   15  C   UNL     1     -10.857  17.931  67.206  1.00  0.00    -0.188 C  
BRANCH  15  16
HETATM   16  C   UNL     1     -10.649  18.706  65.908  1.00  0.00    -0.365 C  
BRANCH  16  17
HETATM   17  C   UNL     1     -10.267  20.156  66.185  1.00  0.00    -0.518 C  
BRANCH  17  18
HETATM   18  C   UNL     1      -9.352  20.252  67.403  1.00  0.00    -0.531 C  
HETATM   19  O   UNL     1      -7.077  20.239  68.092  1.00  0.00    -0.293 OA 
HETATM   20  C   UNL     1      -7.896  20.153  67.018  1.00  0.00    -0.319 C  
HETATM   21  O   UNL     1      -7.470  20.009  65.883  1.00  0.00    -0.311 OA 
ENDBRANCH  17  18
ENDBRANCH  16  17
ENDBRANCH  15  16
ENDBRANCH  14  15
ENDBRANCH  13  14
ENDBRANCH   5  13
BRANCH   6  22
HETATM   22  C   UNL     1      -9.613  10.642  65.869  1.00  0.00    -0.205 C  
HETATM   23  F   UNL     1      -8.509  10.912  65.107  1.00  0.00    -0.177 F  
HETATM   24  F   UNL     1      -9.653   9.285  65.995  1.00  0.00    -0.240 F  
BRANCH  22  25
HETATM   25  C   UNL     1     -10.849  11.119  65.116  1.00  0.00    -0.229 C  
BRANCH  25  26
HETATM   26  C   UNL     1     -10.462  11.977  63.910  1.00  0.00    -0.440 C  
BRANCH  26  27
HETATM   27  C   UNL     1     -11.679  12.693  63.330  1.00  0.00    -0.571 C  
HETATM   28  C   UNL     1     -12.947  11.885  63.542  1.00  0.00    -0.307 C  
ENDBRANCH  26  27
ENDBRANCH  25  26
ENDBRANCH  22  25
ENDBRANCH   6  22
TORSDOF 10
ENDMDL
MODEL      130
REMARK 921   NORMALIZED FREE ENERGY PREDICTED BY IDOCK:   -4.69 KCAL/MOL
REMARK 922        TOTAL FREE ENERGY PREDICTED BY IDOCK:   -9.20 KCAL/MOL
REMARK 923 INTER-LIGAND FREE ENERGY PREDICTED BY IDOCK:   -7.78 KCAL/MOL
REMARK 924 INTRA-LIGAND FREE ENERGY PREDICTED BY IDOCK:   -1.42 KCAL/MOL
REMARK 927      BINDING AFFINITY PREDICTED BY RF-SCORE:    0.00 PKD
ROOT
HETATM    1  C   UNL     1     -10.652  10.015  66.643  1.00  0.00    -0.125 C  
HETATM    2  C   UNL     1     -10.117  10.122  65.228  1.00  0.00    -0.344 C  
HETATM    3  C   UNL     1     -10.858  11.339  64.737  1.00  0.00    -0.244 C  
HETATM    4  O   UNL     1     -10.984  11.596  63.547  1.00  0.00    -0.397 OA 
HETATM    5  C   UNL     1     -11.446  12.174  65.873  1.00  0.00    -0.418 C  
HETATM    6  C   UNL     1     -10.167   9.376  68.901  1.00  0.00    -0.200 C  
HETATM    7  C   UNL     1     -10.833  11.459  67.075  1.00  0.00    -0.331 C  
HETATM    8  C   UNL     1     -11.618  11.459  68.373  1.00  0.00    -0.385 C  
HETATM    9  O   UNL     1      -9.727   9.414  67.529  1.00  0.00    -0.147 OA 
HETATM   10  C   UNL     1     -10.772  10.718  69.411  1.00  0.00    -0.272 C  
HETATM   11  O   UNL     1     -11.145   8.334  69.010  1.00  0.00    -0.430 OA 
HETATM   12  H   UNL     1     -10.776   7.515  68.699  1.00  0.00     0.000 HD 
ENDROOT
BRANCH   5  13
HETATM   13  C   UNL     1     -11.002  13.638  65.880  1.00  0.00    -0.284 C  
BRANCH  13  14
HETATM   14  C   UNL     1      -9.547  13.843  66.278  1.00  0.00    -0.274 C  
BRANCH  14  15
HETATM   15  C   UNL     1      -9.351  15.212  66.926  1.00  0.00    -0.251 C  
BRANCH  15  16
HETATM   16  C   UNL     1     -10.657  15.998  66.898  1.00  0.00    -0.300 C  
BRANCH  16  17
HETATM   17  C   UNL     1     -10.534  17.304  67.675  1.00  0.00    -0.363 C  
BRANCH  17  18
HETATM   18  C   UNL     1      -9.189  17.970  67.404  1.00  0.00    -0.253 C  
HETATM   19  O   UNL     1      -8.102  19.616  66.077  1.00  0.00    -0.342 OA 
HETATM   20  C   UNL     1      -9.291  19.019  66.323  1.00  0.00    -0.298 C  
HETATM   21  O   UNL     1     -10.308  19.317  65.718  1.00  0.00    -0.478 OA 
ENDBRANCH  17  18
ENDBRANCH  16  17
ENDBRANCH  15  16
ENDBRANCH  14  15
ENDBRANCH  13  14
ENDBRANCH   5  13
BRANCH   6  22
HETATM   22  C   UNL     1      -8.922   9.045  69.786  1.00  0.00    -0.154 C  
HETATM   23  F   UNL     1      -7.875   8.707  68.973  1.00  0.00    -0.091 F  
HETATM   24  F   UNL     1      -8.524  10.165  70.454  1.00  0.00    -0.169 F  
BRANCH  22  25
HETATM   25  C   UNL     1      -9.146   7.913  70.781  1.00  0.00    -0.154 C  
BRANCH  25  26
HETATM   26  C   UNL     1      -9.087   8.426  72.221  1.00  0.00    -0.313 C  
BRANCH  26  27
HETATM   27  C   UNL     1      -9.962   7.581  73.143  1.00  0.00    -0.344 C  
HETATM   28  C   UNL     1     -11.435   7.747  72.811  1.00  0.00    -0.415 C  
ENDBRANCH  26  27
ENDBRANCH  25  26
ENDBRANCH  22  25
ENDBRANCH   6  22
TORSDOF 10
ENDMDL
MODEL      131
REMARK 921   NORMALIZED FREE ENERGY PREDICTED BY IDOCK:   -4.69 KCAL/MOL
REMARK 922        TOTAL FREE ENERGY PREDICTED BY IDOCK:   -9.20 KCAL/MOL
REMARK 923 INTER-LIGAND FREE ENERGY PREDICTED BY IDOCK:   -7.22 KCAL/MOL
REMARK 924 INTRA-LIGAND FREE ENERGY PREDICTED BY IDOCK:   -1.98 KCAL/MOL
REMARK 927      BINDING AFFINITY PREDICTED BY RF-SCORE:    0.00 PKD
ROOT
HETATM    1  C   UNL     1     -11.132  16.014  68.494  1.00  0.00    -0.347 C  
HETATM    2  C   UNL     1     -11.192  15.286  69.823  1.00  0.00    -0.300 C  
HETATM    3  C   UNL     1     -11.967  14.053  69.434  1.00  0.00    -0.343 C  
HETATM    4  O   UNL     1     -12.530  13.345  70.258  1.00  0.00    -0.290 OA 
HETATM    5  C   UNL     1     -11.991  13.818  67.925  1.00  0.00    -0.391 C  
HETATM    6  C   UNL     1      -9.850  17.471  67.089  1.00  0.00    -0.297 C  
HETATM    7  C   UNL     1     -11.013  14.899  67.471  1.00  0.00    -0.302 C  
HETATM    8  C   UNL     1     -11.221  15.507  66.096  1.00  0.00    -0.102 C  
HETATM    9  O   UNL     1      -9.984  16.832  68.374  1.00  0.00    -0.245 OA 
HETATM   10  C   UNL     1     -10.096  16.522  65.878  1.00  0.00    -0.359 C  
HETATM   11  O   UNL     1     -10.785  18.556  67.048  1.00  0.00    -0.395 OA 
HETATM   12  H   UNL     1     -10.635  19.136  67.787  1.00  0.00     0.000 HD 
ENDROOT
BRANCH   5  13
HETATM   13  C   UNL     1     -11.465  12.450  67.488  1.00  0.00    -0.410 C  
BRANCH  13  14
HETATM   14  C   UNL     1      -9.985  12.234  67.771  1.00  0.00    -0.200 C  
BRANCH  14  15
HETATM   15  C   UNL     1      -9.742  10.842  68.350  1.00  0.00    -0.179 C  
BRANCH  15  16
HETATM   16  C   UNL     1      -8.790  10.060  67.451  1.00  0.00    -0.132 C  
BRANCH  16  17
HETATM   17  C   UNL     1      -9.553   9.246  66.413  1.00  0.00    -0.301 C  
BRANCH  17  18
HETATM   18  C   UNL     1     -10.583   8.342  67.083  1.00  0.00    -0.340 C  
HETATM   19  O   UNL     1     -11.038   6.093  67.707  1.00  0.00    -0.326 OA 
HETATM   20  C   UNL     1     -10.131   6.902  67.112  1.00  0.00    -0.209 C  
HETATM   21  O   UNL     1      -9.079   6.480  66.659  1.00  0.00    -0.137 OA 
ENDBRANCH  17  18
ENDBRANCH  16  17
ENDBRANCH  15  16
ENDBRANCH  14  15
ENDBRANCH  13  14
ENDBRANCH   5  13
BRANCH   6  22
HETATM   22  C   UNL     1      -8.387  18.013  66.983  1.00  0.00    -0.236 C  
HETATM   23  F   UNL     1      -8.380  19.119  66.178  1.00  0.00    -0.295 F  
HETATM   24  F   UNL     1      -7.970  18.444  68.207  1.00  0.00    -0.264 F  
BRANCH  22  25
HETATM   25  C   UNL     1      -7.387  17.006  66.431  1.00  0.00    -0.328 C  
BRANCH  25  26
HETATM   26  C   UNL     1      -6.261  16.742  67.433  1.00  0.00    -0.195 C  
BRANCH  26  27
HETATM   27  C   UNL     1      -6.502  15.446  68.202  1.00  0.00    -0.133 C  
HETATM   28  C   UNL     1      -7.308  14.457  67.379  1.00  0.00    -0.167 C  
ENDBRANCH  26  27
ENDBRANCH  25  26
ENDBRANCH  22  25
ENDBRANCH   6  22
TORSDOF 10
ENDMDL
MODEL      132
REMARK 921   NORMALIZED FREE ENERGY PREDICTED BY IDOCK:   -4.69 KCAL/MOL
REMARK 922        TOTAL FREE ENERGY PREDICTED BY IDOCK:   -9.20 KCAL/MOL
REMARK 923 INTER-LIGAND FREE ENERGY PREDICTED BY IDOCK:   -7.34 KCAL/MOL
REMARK 924 INTRA-LIGAND FREE ENERGY PREDICTED BY IDOCK:   -1.86 KCAL/MOL
REMARK 927      BINDING AFFINITY PREDICTED BY RF-SCORE:    0.00 PKD
ROOT
HETATM    1  C   UNL     1      -9.463   8.394  67.473  1.00  0.00    -0.149 C  
HETATM    2  C   UNL     1      -9.976   7.134  66.802  1.00  0.00    -0.278 C  
HETATM    3  C   UNL     1      -9.172   6.084  67.525  1.00  0.00    -0.111 C  
HETATM    4  O   UNL     1      -9.020   4.953  67.081  1.00  0.00    -0.110 OA 
HETATM    5  C   UNL     1      -8.560   6.595  68.827  1.00  0.00    -0.122 C  
HETATM    6  C   UNL     1     -10.004  10.613  68.197  1.00  0.00    -0.158 C  
HETATM    7  C   UNL     1      -9.220   7.969  68.910  1.00  0.00    -0.147 C  
HETATM    8  C   UNL     1      -8.451   9.082  69.598  1.00  0.00    -0.128 C  
HETATM    9  O   UNL     1     -10.426   9.431  67.489  1.00  0.00    -0.248 OA 
HETATM   10  C   UNL     1      -9.344  10.325  69.578  1.00  0.00    -0.200 C  
HETATM   11  O   UNL     1      -9.078  11.311  67.355  1.00  0.00    -0.149 OA 
HETATM   12  H   UNL     1      -9.481  11.487  66.512  1.00  0.00     0.000 HD 
ENDROOT
BRANCH   5  13
HETATM   13  C   UNL     1      -8.935   5.782  70.067  1.00  0.00    -0.147 C  
BRANCH  13  14
HETATM   14  C   UNL     1     -10.428   5.527  70.214  1.00  0.00    -0.365 C  
BRANCH  14  15
HETATM   15  C   UNL     1     -10.842   5.558  71.683  1.00  0.00    -0.271 C  
BRANCH  15  16
HETATM   16  C   UNL     1     -11.036   6.999  72.144  1.00  0.00    -0.279 C  
BRANCH  16  17
HETATM   17  C   UNL     1     -12.326   7.589  71.583  1.00  0.00    -0.362 C  
BRANCH  17  18
HETATM   18  C   UNL     1     -12.251   9.112  71.542  1.00  0.00    -0.422 C  
HETATM   19  O   UNL     1     -13.407  11.101  72.142  1.00  0.00    -0.452 OA 
HETATM   20  C   UNL     1     -13.466   9.749  72.172  1.00  0.00    -0.399 C  
HETATM   21  O   UNL     1     -14.410   9.148  72.658  1.00  0.00    -0.561 OA 
ENDBRANCH  17  18
ENDBRANCH  16  17
ENDBRANCH  15  16
ENDBRANCH  14  15
ENDBRANCH  13  14
ENDBRANCH   5  13
BRANCH   6  22
HETATM   22  C   UNL     1     -11.274  11.490  68.447  1.00  0.00    -0.255 C  
HETATM   23  F   UNL     1     -11.881  11.747  67.248  1.00  0.00    -0.374 F  
HETATM   24  F   UNL     1     -12.182  10.782  69.177  1.00  0.00    -0.373 F  
BRANCH  22  25
HETATM   25  C   UNL     1     -10.990  12.817  69.139  1.00  0.00    -0.185 C  
BRANCH  25  26
HETATM   26  C   UNL     1     -12.018  13.878  68.739  1.00  0.00    -0.393 C  
BRANCH  26  27
HETATM   27  C   UNL     1     -12.299  14.835  69.894  1.00  0.00    -0.328 C  
HETATM   28  C   UNL     1     -13.088  14.152  70.997  1.00  0.00    -0.370 C  
ENDBRANCH  26  27
ENDBRANCH  25  26
ENDBRANCH  22  25
ENDBRANCH   6  22
TORSDOF 10
ENDMDL
MODEL      133
REMARK 921   NORMALIZED FREE ENERGY PREDICTED BY IDOCK:   -4.68 KCAL/MOL
REMARK 922        TOTAL FREE ENERGY PREDICTED BY IDOCK:   -9.20 KCAL/MOL
REMARK 923 INTER-LIGAND FREE ENERGY PREDICTED BY IDOCK:   -7.43 KCAL/MOL
REMARK 924 INTRA-LIGAND FREE ENERGY PREDICTED BY IDOCK:   -1.77 KCAL/MOL
REMARK 927      BINDING AFFINITY PREDICTED BY RF-SCORE:    0.00 PKD
ROOT
HETATM    1  C   UNL     1     -11.280  11.744  67.065  1.00  0.00    -0.322 C  
HETATM    2  C   UNL     1     -11.204  10.410  67.783  1.00  0.00    -0.309 C  
HETATM    3  C   UNL     1     -10.513   9.569  66.740  1.00  0.00    -0.193 C  
HETATM    4  O   UNL     1     -10.541   8.345  66.760  1.00  0.00    -0.295 OA 
HETATM    5  C   UNL     1      -9.820  10.405  65.666  1.00  0.00    -0.321 C  
HETATM    6  C   UNL     1     -11.260  14.127  67.307  1.00  0.00    -0.316 C  
HETATM    7  C   UNL     1      -9.995  11.800  66.260  1.00  0.00    -0.246 C  
HETATM    8  C   UNL     1     -10.102  12.969  65.298  1.00  0.00    -0.247 C  
HETATM    9  O   UNL     1     -11.277  12.841  67.958  1.00  0.00    -0.240 OA 
HETATM   10  C   UNL     1     -10.230  14.238  66.145  1.00  0.00    -0.317 C  
HETATM   11  O   UNL     1     -12.581  14.373  66.807  1.00  0.00    -0.540 OA 
HETATM   12  H   UNL     1     -13.210  14.306  67.517  1.00  0.00     0.000 HD 
ENDROOT
BRANCH   5  13
HETATM   13  C   UNL     1      -8.328  10.113  65.499  1.00  0.00    -0.160 C  
BRANCH  13  14
HETATM   14  C   UNL     1      -7.431  10.912  66.435  1.00  0.00    -0.145 C  
BRANCH  14  15
HETATM   15  C   UNL     1      -7.045  10.081  67.656  1.00  0.00    -0.087 C  
BRANCH  15  16
HETATM   16  C   UNL     1      -7.396  10.834  68.935  1.00  0.00    -0.104 C  
BRANCH  16  17
HETATM   17  C   UNL     1      -8.541  10.156  69.680  1.00  0.00    -0.170 C  
BRANCH  17  18
HETATM   18  C   UNL     1      -8.278   8.661  69.832  1.00  0.00    -0.121 C  
HETATM   19  O   UNL     1      -8.161   6.889  71.413  1.00  0.00    -0.107 OA 
HETATM   20  C   UNL     1      -8.391   8.215  71.269  1.00  0.00    -0.121 C  
HETATM   21  O   UNL     1      -8.655   8.937  72.217  1.00  0.00    -0.397 OA 
ENDBRANCH  17  18
ENDBRANCH  16  17
ENDBRANCH  15  16
ENDBRANCH  14  15
ENDBRANCH  13  14
ENDBRANCH   5  13
BRANCH   6  22
HETATM   22  C   UNL     1     -10.883  15.195  68.385  1.00  0.00    -0.255 C  
HETATM   23  F   UNL     1      -9.553  15.494  68.269  1.00  0.00    -0.194 F  
HETATM   24  F   UNL     1     -11.547  16.358  68.129  1.00  0.00    -0.323 F  
BRANCH  22  25
HETATM   25  C   UNL     1     -11.157  14.759  69.819  1.00  0.00    -0.288 C  
BRANCH  25  26
HETATM   26  C   UNL     1     -12.460  15.369  70.341  1.00  0.00    -0.447 C  
BRANCH  26  27
HETATM   27  C   UNL     1     -12.382  15.631  71.842  1.00  0.00    -0.502 C  
HETATM   28  C   UNL     1     -13.743  15.482  72.499  1.00  0.00    -0.668 C  
ENDBRANCH  26  27
ENDBRANCH  25  26
ENDBRANCH  22  25
ENDBRANCH   6  22
TORSDOF 10
ENDMDL
MODEL      134
REMARK 921   NORMALIZED FREE ENERGY PREDICTED BY IDOCK:   -4.67 KCAL/MOL
REMARK 922        TOTAL FREE ENERGY PREDICTED BY IDOCK:   -9.17 KCAL/MOL
REMARK 923 INTER-LIGAND FREE ENERGY PREDICTED BY IDOCK:   -7.06 KCAL/MOL
REMARK 924 INTRA-LIGAND FREE ENERGY PREDICTED BY IDOCK:   -2.11 KCAL/MOL
REMARK 927      BINDING AFFINITY PREDICTED BY RF-SCORE:    0.00 PKD
ROOT
HETATM    1  C   UNL     1     -11.964  11.835  67.808  1.00  0.00    -0.064 C  
HETATM    2  C   UNL     1     -12.007  12.054  69.309  1.00  0.00    -0.329 C  
HETATM    3  C   UNL     1     -11.390  10.769  69.799  1.00  0.00    -0.300 C  
HETATM    4  O   UNL     1     -11.526  10.373  70.949  1.00  0.00    -0.344 OA 
HETATM    5  C   UNL     1     -10.623  10.025  68.708  1.00  0.00    -0.241 C  
HETATM    6  C   UNL     1     -11.735  12.872  65.661  1.00  0.00    -0.387 C  
HETATM    7  C   UNL     1     -10.676  11.062  67.589  1.00  0.00    -0.281 C  
HETATM    8  C   UNL     1     -10.677  10.558  66.158  1.00  0.00    -0.115 C  
HETATM    9  O   UNL     1     -11.866  13.047  67.086  1.00  0.00    -0.368 OA 
HETATM   10  C   UNL     1     -10.695  11.788  65.248  1.00  0.00    -0.338 C  
HETATM   11  O   UNL     1     -13.027  12.521  65.149  1.00  0.00    -0.700 OA 
HETATM   12  H   UNL     1     -13.661  13.183  65.401  1.00  0.00     0.000 HD 
ENDROOT
BRANCH   5  13
HETATM   13  C   UNL     1      -9.162   9.728  69.049  1.00  0.00    -0.165 C  
BRANCH  13  14
HETATM   14  C   UNL     1      -8.218  10.897  68.804  1.00  0.00    -0.151 C  
BRANCH  14  15
HETATM   15  C   UNL     1      -6.814  10.399  68.469  1.00  0.00    -0.061 C  
BRANCH  15  16
HETATM   16  C   UNL     1      -6.805   9.746  67.091  1.00  0.00    -0.083 C  
BRANCH  16  17
HETATM   17  C   UNL     1      -6.991  10.780  65.987  1.00  0.00    -0.104 C  
BRANCH  17  18
HETATM   18  C   UNL     1      -6.120  10.446  64.779  1.00  0.00    -0.103 C  
HETATM   19  O   UNL     1      -6.185   9.736  62.512  1.00  0.00    -0.097 OA 
HETATM   20  C   UNL     1      -6.949  10.032  63.588  1.00  0.00    -0.128 C  
HETATM   21  O   UNL     1      -8.168   9.958  63.563  1.00  0.00    -0.142 OA 
ENDBRANCH  17  18
ENDBRANCH  16  17
ENDBRANCH  15  16
ENDBRANCH  14  15
ENDBRANCH  13  14
ENDBRANCH   5  13
BRANCH   6  22
HETATM   22  C   UNL     1     -11.268  14.238  65.060  1.00  0.00    -0.364 C  
HETATM   23  F   UNL     1     -10.204  14.017  64.229  1.00  0.00    -0.417 F  
HETATM   24  F   UNL     1     -12.253  14.751  64.271  1.00  0.00    -0.468 F  
BRANCH  22  25
HETATM   25  C   UNL     1     -10.861  15.272  66.102  1.00  0.00    -0.320 C  
BRANCH  25  26
HETATM   26  C   UNL     1      -9.339  15.417  66.169  1.00  0.00    -0.367 C  
BRANCH  26  27
HETATM   27  C   UNL     1      -8.927  16.886  66.181  1.00  0.00    -0.271 C  
HETATM   28  C   UNL     1     -10.101  17.787  66.520  1.00  0.00    -0.358 C  
ENDBRANCH  26  27
ENDBRANCH  25  26
ENDBRANCH  22  25
ENDBRANCH   6  22
TORSDOF 10
ENDMDL
MODEL      135
REMARK 921   NORMALIZED FREE ENERGY PREDICTED BY IDOCK:   -4.66 KCAL/MOL
REMARK 922        TOTAL FREE ENERGY PREDICTED BY IDOCK:   -9.16 KCAL/MOL
REMARK 923 INTER-LIGAND FREE ENERGY PREDICTED BY IDOCK:   -6.99 KCAL/MOL
REMARK 924 INTRA-LIGAND FREE ENERGY PREDICTED BY IDOCK:   -2.17 KCAL/MOL
REMARK 927      BINDING AFFINITY PREDICTED BY RF-SCORE:    0.00 PKD
ROOT
HETATM    1  C   UNL     1      -9.458  13.739  67.533  1.00  0.00    -0.220 C  
HETATM    2  C   UNL     1      -8.011  14.150  67.340  1.00  0.00    -0.201 C  
HETATM    3  C   UNL     1      -7.313  13.149  68.226  1.00  0.00    -0.116 C  
HETATM    4  O   UNL     1      -6.170  13.316  68.630  1.00  0.00    -0.074 OA 
HETATM    5  C   UNL     1      -8.192  11.950  68.575  1.00  0.00    -0.126 C  
HETATM    6  C   UNL     1     -11.623  13.575  66.520  1.00  0.00    -0.359 C  
HETATM    7  C   UNL     1      -9.393  12.228  67.674  1.00  0.00    -0.186 C  
HETATM    8  C   UNL     1     -10.754  11.748  68.142  1.00  0.00    -0.247 C  
HETATM    9  O   UNL     1     -10.260  14.031  66.406  1.00  0.00    -0.277 OA 
HETATM   10  C   UNL     1     -11.761  12.116  67.050  1.00  0.00    -0.373 C  
HETATM   11  O   UNL     1     -12.306  14.475  67.401  1.00  0.00    -0.614 OA 
HETATM   12  H   UNL     1     -12.221  15.365  67.078  1.00  0.00     0.000 HD 
ENDROOT
BRANCH   5  13
HETATM   13  C   UNL     1      -7.591  10.593  68.205  1.00  0.00    -0.097 C  
BRANCH  13  14
HETATM   14  C   UNL     1      -7.687   9.550  69.310  1.00  0.00    -0.086 C  
BRANCH  14  15
HETATM   15  C   UNL     1      -8.785   8.535  69.002  1.00  0.00    -0.134 C  
BRANCH  15  16
HETATM   16  C   UNL     1      -9.084   8.523  67.507  1.00  0.00    -0.146 C  
BRANCH  16  17
HETATM   17  C   UNL     1     -10.274   7.625  67.188  1.00  0.00    -0.360 C  
BRANCH  17  18
HETATM   18  C   UNL     1     -10.166   6.298  67.934  1.00  0.00    -0.204 C  
HETATM   19  O   UNL     1      -9.154   4.147  67.877  1.00  0.00    -0.118 OA 
HETATM   20  C   UNL     1      -9.257   5.327  67.221  1.00  0.00    -0.113 C  
HETATM   21  O   UNL     1      -8.671   5.543  66.172  1.00  0.00    -0.124 OA 
ENDBRANCH  17  18
ENDBRANCH  16  17
ENDBRANCH  15  16
ENDBRANCH  14  15
ENDBRANCH  13  14
ENDBRANCH   5  13
BRANCH   6  22
HETATM   22  C   UNL     1     -12.259  13.628  65.093  1.00  0.00    -0.433 C  
HETATM   23  F   UNL     1     -13.248  12.687  65.012  1.00  0.00    -0.475 F  
HETATM   24  F   UNL     1     -12.875  14.830  64.911  1.00  0.00    -0.357 F  
BRANCH  22  25
HETATM   25  C   UNL     1     -11.269  13.388  63.959  1.00  0.00    -0.318 C  
BRANCH  25  26
HETATM   26  C   UNL     1     -11.392  11.964  63.413  1.00  0.00    -0.465 C  
BRANCH  26  27
HETATM   27  C   UNL     1     -10.018  11.332  63.210  1.00  0.00    -0.428 C  
HETATM   28  C   UNL     1      -9.562  10.593  64.456  1.00  0.00    -0.341 C  
ENDBRANCH  26  27
ENDBRANCH  25  26
ENDBRANCH  22  25
ENDBRANCH   6  22
TORSDOF 10
ENDMDL
MODEL      136
REMARK 921   NORMALIZED FREE ENERGY PREDICTED BY IDOCK:   -4.66 KCAL/MOL
REMARK 922        TOTAL FREE ENERGY PREDICTED BY IDOCK:   -9.15 KCAL/MOL
REMARK 923 INTER-LIGAND FREE ENERGY PREDICTED BY IDOCK:   -7.82 KCAL/MOL
REMARK 924 INTRA-LIGAND FREE ENERGY PREDICTED BY IDOCK:   -1.33 KCAL/MOL
REMARK 927      BINDING AFFINITY PREDICTED BY RF-SCORE:    0.00 PKD
ROOT
HETATM    1  C   UNL     1     -10.832  14.742  65.232  1.00  0.00    -0.383 C  
HETATM    2  C   UNL     1     -12.123  14.521  64.468  1.00  0.00    -0.501 C  
HETATM    3  C   UNL     1     -11.835  13.199  63.804  1.00  0.00    -0.486 C  
HETATM    4  O   UNL     1     -12.467  12.801  62.834  1.00  0.00    -0.312 OA 
HETATM    5  C   UNL     1     -10.671  12.451  64.449  1.00  0.00    -0.371 C  
HETATM    6  C   UNL     1      -9.828  15.669  67.200  1.00  0.00    -0.229 C  
HETATM    7  C   UNL     1     -10.418  13.345  65.661  1.00  0.00    -0.293 C  
HETATM    8  C   UNL     1      -9.000  13.426  66.196  1.00  0.00     0.223 C  
HETATM    9  O   UNL     1     -11.019  15.513  66.403  1.00  0.00    -0.309 OA 
HETATM   10  C   UNL     1      -9.033  14.347  67.418  1.00  0.00    -0.204 C  
HETATM   11  O   UNL     1      -8.994  16.631  66.544  1.00  0.00    -0.236 OA 
HETATM   12  H   UNL     1      -9.479  17.438  66.411  1.00  0.00     0.000 HD 
ENDROOT
BRANCH   5  13
HETATM   13  C   UNL     1     -11.011  11.040  64.929  1.00  0.00    -0.130 C  
BRANCH  13  14
HETATM   14  C   UNL     1      -9.796  10.200  65.299  1.00  0.00    -0.388 C  
BRANCH  14  15
HETATM   15  C   UNL     1     -10.025   9.467  66.619  1.00  0.00    -0.326 C  
BRANCH  15  16
HETATM   16  C   UNL     1     -10.833  10.342  67.571  1.00  0.00    -0.355 C  
BRANCH  16  17
HETATM   17  C   UNL     1     -10.601   9.940  69.024  1.00  0.00    -0.240 C  
BRANCH  17  18
HETATM   18  C   UNL     1     -11.598  10.637  69.945  1.00  0.00    -0.396 C  
HETATM   19  O   UNL     1     -13.160  10.273  71.699  1.00  0.00    -0.395 OA 
HETATM   20  C   UNL     1     -12.275   9.663  70.877  1.00  0.00    -0.285 C  
HETATM   21  O   UNL     1     -12.077   8.459  70.912  1.00  0.00    -0.253 OA 
ENDBRANCH  17  18
ENDBRANCH  16  17
ENDBRANCH  15  16
ENDBRANCH  14  15
ENDBRANCH  13  14
ENDBRANCH   5  13
BRANCH   6  22
HETATM   22  C   UNL     1     -10.267  16.200  68.603  1.00  0.00    -0.244 C  
HETATM   23  F   UNL     1     -11.628  16.103  68.710  1.00  0.00    -0.340 F  
HETATM   24  F   UNL     1      -9.761  15.392  69.578  1.00  0.00    -0.212 F  
BRANCH  22  25
HETATM   25  C   UNL     1      -9.862  17.643  68.880  1.00  0.00    -0.293 C  
BRANCH  25  26
HETATM   26  C   UNL     1     -10.897  18.622  68.320  1.00  0.00     0.073 C  
BRANCH  26  27
HETATM   27  C   UNL     1     -10.224  19.866  67.749  1.00  0.00    -0.567 C  
HETATM   28  C   UNL     1      -8.716  19.804  67.915  1.00  0.00    -0.370 C  
ENDBRANCH  26  27
ENDBRANCH  25  26
ENDBRANCH  22  25
ENDBRANCH   6  22
TORSDOF 10
ENDMDL
MODEL      137
REMARK 921   NORMALIZED FREE ENERGY PREDICTED BY IDOCK:   -4.65 KCAL/MOL
REMARK 922        TOTAL FREE ENERGY PREDICTED BY IDOCK:   -9.15 KCAL/MOL
REMARK 923 INTER-LIGAND FREE ENERGY PREDICTED BY IDOCK:   -7.88 KCAL/MOL
REMARK 924 INTRA-LIGAND FREE ENERGY PREDICTED BY IDOCK:   -1.27 KCAL/MOL
REMARK 927      BINDING AFFINITY PREDICTED BY RF-SCORE:    0.00 PKD
ROOT
HETATM    1  C   UNL     1     -11.522  16.027  69.952  1.00  0.00    -0.326 C  
HETATM    2  C   UNL     1     -11.561  15.751  71.443  1.00  0.00    -0.511 C  
HETATM    3  C   UNL     1     -12.439  14.526  71.479  1.00  0.00    -0.355 C  
HETATM    4  O   UNL     1     -13.006  14.155  72.499  1.00  0.00    -0.401 OA 
HETATM    5  C   UNL     1     -12.559  13.841  70.119  1.00  0.00    -0.253 C  
HETATM    6  C   UNL     1     -10.217  16.871  68.128  1.00  0.00    -0.311 C  
HETATM    7  C   UNL     1     -11.535  14.646  69.324  1.00  0.00    -0.322 C  
HETATM    8  C   UNL     1     -11.772  14.817  67.835  1.00  0.00    -0.367 C  
HETATM    9  O   UNL     1     -10.327  16.671  69.551  1.00  0.00    -0.287 OA 
HETATM   10  C   UNL     1     -10.592  15.618  67.280  1.00  0.00    -0.305 C  
HETATM   11  O   UNL     1     -11.076  17.964  67.780  1.00  0.00    -0.205 OA 
HETATM   12  H   UNL     1     -10.847  18.728  68.297  1.00  0.00     0.000 HD 
ENDROOT
BRANCH   5  13
HETATM   13  C   UNL     1     -12.154  12.366  70.114  1.00  0.00    -0.366 C  
BRANCH  13  14
HETATM   14  C   UNL     1     -12.533  11.614  71.383  1.00  0.00    -0.314 C  
BRANCH  14  15
HETATM   15  C   UNL     1     -13.252  10.310  71.045  1.00  0.00    -0.399 C  
BRANCH  15  16
HETATM   16  C   UNL     1     -12.682   9.167  71.878  1.00  0.00    -0.464 C  
BRANCH  16  17
HETATM   17  C   UNL     1     -11.180   9.019  71.659  1.00  0.00    -0.431 C  
BRANCH  17  18
HETATM   18  C   UNL     1     -10.883   7.868  70.702  1.00  0.00    -0.238 C  
HETATM   19  O   UNL     1     -10.229   7.350  68.476  1.00  0.00    -0.174 OA 
HETATM   20  C   UNL     1     -10.496   8.365  69.331  1.00  0.00    -0.217 C  
HETATM   21  O   UNL     1     -10.425   9.536  68.995  1.00  0.00    -0.202 OA 
ENDBRANCH  17  18
ENDBRANCH  16  17
ENDBRANCH  15  16
ENDBRANCH  14  15
ENDBRANCH  13  14
ENDBRANCH   5  13
BRANCH   6  22
HETATM   22  C   UNL     1      -8.728  17.231  67.817  1.00  0.00    -0.226 C  
HETATM   23  F   UNL     1      -8.668  18.520  67.363  1.00  0.00    -0.254 F  
HETATM   24  F   UNL     1      -8.002  17.211  68.971  1.00  0.00    -0.244 F  
BRANCH  22  25
HETATM   25  C   UNL     1      -8.068  16.324  66.786  1.00  0.00    -0.299 C  
BRANCH  25  26
HETATM   26  C   UNL     1      -6.839  15.628  67.372  1.00  0.00    -0.231 C  
BRANCH  26  27
HETATM   27  C   UNL     1      -7.123  14.155  67.657  1.00  0.00    -0.199 C  
HETATM   28  C   UNL     1      -7.671  13.961  69.059  1.00  0.00     0.026 C  
ENDBRANCH  26  27
ENDBRANCH  25  26
ENDBRANCH  22  25
ENDBRANCH   6  22
TORSDOF 10
ENDMDL
MODEL      138
REMARK 921   NORMALIZED FREE ENERGY PREDICTED BY IDOCK:   -4.65 KCAL/MOL
REMARK 922        TOTAL FREE ENERGY PREDICTED BY IDOCK:   -9.14 KCAL/MOL
REMARK 923 INTER-LIGAND FREE ENERGY PREDICTED BY IDOCK:   -7.72 KCAL/MOL
REMARK 924 INTRA-LIGAND FREE ENERGY PREDICTED BY IDOCK:   -1.41 KCAL/MOL
REMARK 927      BINDING AFFINITY PREDICTED BY RF-SCORE:    0.00 PKD
ROOT
HETATM    1  C   UNL     1     -11.651  13.530  66.030  1.00  0.00    -0.338 C  
HETATM    2  C   UNL     1     -12.613  12.767  65.141  1.00  0.00    -0.513 C  
HETATM    3  C   UNL     1     -11.648  11.982  64.289  1.00  0.00    -0.358 C  
HETATM    4  O   UNL     1     -11.972  11.483  63.220  1.00  0.00    -0.303 OA 
HETATM    5  C   UNL     1     -10.245  11.915  64.890  1.00  0.00    -0.310 C  
HETATM    6  C   UNL     1     -11.288  14.483  68.198  1.00  0.00    -0.298 C  
HETATM    7  C   UNL     1     -10.506  12.558  66.250  1.00  0.00    -0.268 C  
HETATM    8  C   UNL     1      -9.368  13.321  66.900  1.00  0.00    -0.244 C  
HETATM    9  O   UNL     1     -12.205  13.834  67.295  1.00  0.00    -0.375 OA 
HETATM   10  C   UNL     1      -9.878  13.823  68.253  1.00  0.00    -0.232 C  
HETATM   11  O   UNL     1     -11.166  15.848  67.780  1.00  0.00    -0.326 OA 
HETATM   12  H   UNL     1     -12.026  16.251  67.747  1.00  0.00     0.000 HD 
ENDROOT
BRANCH   5  13
HETATM   13  C   UNL     1      -9.712  10.497  65.099  1.00  0.00    -0.341 C  
BRANCH  13  14
HETATM   14  C   UNL     1     -10.487   9.687  66.129  1.00  0.00    -0.111 C  
BRANCH  14  15
HETATM   15  C   UNL     1      -9.662   8.499  66.617  1.00  0.00    -0.318 C  
BRANCH  15  16
HETATM   16  C   UNL     1      -9.356   8.648  68.104  1.00  0.00    -0.145 C  
BRANCH  16  17
HETATM   17  C   UNL     1      -7.855   8.598  68.367  1.00  0.00    -0.105 C  
BRANCH  17  18
HETATM   18  C   UNL     1      -7.532   9.133  69.759  1.00  0.00    -0.069 C  
HETATM   19  O   UNL     1      -6.292  10.788  70.932  1.00  0.00    -0.351 OA 
HETATM   20  C   UNL     1      -6.583  10.305  69.702  1.00  0.00    -0.077 C  
HETATM   21  O   UNL     1      -6.111  10.787  68.684  1.00  0.00    -0.040 OA 
ENDBRANCH  17  18
ENDBRANCH  16  17
ENDBRANCH  15  16
ENDBRANCH  14  15
ENDBRANCH  13  14
ENDBRANCH   5  13
BRANCH   6  22
HETATM   22  C   UNL     1     -11.908  14.409  69.632  1.00  0.00    -0.321 C  
HETATM   23  F   UNL     1     -13.149  13.841  69.551  1.00  0.00     0.070 F  
HETATM   24  F   UNL     1     -11.166  13.570  70.408  1.00  0.00    -0.101 F  
BRANCH  22  25
HETATM   25  C   UNL     1     -12.038  15.759  70.326  1.00  0.00    -0.371 C  
BRANCH  25  26
HETATM   26  C   UNL     1     -12.932  15.658  71.563  1.00  0.00    -0.549 C  
BRANCH  26  27
HETATM   27  C   UNL     1     -12.181  16.084  72.822  1.00  0.00    -0.617 C  
HETATM   28  C   UNL     1     -12.466  15.144  73.979  1.00  0.00    -0.712 C  
ENDBRANCH  26  27
ENDBRANCH  25  26
ENDBRANCH  22  25
ENDBRANCH   6  22
TORSDOF 10
ENDMDL
MODEL      139
REMARK 921   NORMALIZED FREE ENERGY PREDICTED BY IDOCK:   -4.62 KCAL/MOL
REMARK 922        TOTAL FREE ENERGY PREDICTED BY IDOCK:   -9.09 KCAL/MOL
REMARK 923 INTER-LIGAND FREE ENERGY PREDICTED BY IDOCK:   -7.84 KCAL/MOL
REMARK 924 INTRA-LIGAND FREE ENERGY PREDICTED BY IDOCK:   -1.25 KCAL/MOL
REMARK 927      BINDING AFFINITY PREDICTED BY RF-SCORE:    0.00 PKD
ROOT
HETATM    1  C   UNL     1     -11.283  16.398  69.103  1.00  0.00    -0.275 C  
HETATM    2  C   UNL     1     -11.414  15.853  70.513  1.00  0.00    -0.412 C  
HETATM    3  C   UNL     1     -11.927  14.464  70.232  1.00  0.00    -0.321 C  
HETATM    4  O   UNL     1     -12.484  13.785  71.084  1.00  0.00    -0.350 OA 
HETATM    5  C   UNL     1     -11.703  14.030  68.785  1.00  0.00    -0.388 C  
HETATM    6  C   UNL     1     -10.058  17.855  67.648  1.00  0.00    -0.348 C  
HETATM    7  C   UNL     1     -10.851  15.194  68.285  1.00  0.00    -0.262 C  
HETATM    8  C   UNL     1     -10.956  15.568  66.819  1.00  0.00    -0.257 C  
HETATM    9  O   UNL     1     -10.270  17.379  68.992  1.00  0.00    -0.330 OA 
HETATM   10  C   UNL     1      -9.982  16.724  66.579  1.00  0.00    -0.308 C  
HETATM   11  O   UNL     1     -11.135  18.746  67.333  1.00  0.00    -0.332 OA 
HETATM   12  H   UNL     1     -11.181  19.436  67.985  1.00  0.00     0.000 HD 
ENDROOT
BRANCH   5  13
HETATM   13  C   UNL     1     -10.917  12.728  68.627  1.00  0.00    -0.295 C  
BRANCH  13  14
HETATM   14  C   UNL     1     -11.790  11.491  68.467  1.00  0.00    -0.365 C  
BRANCH  14  15
HETATM   15  C   UNL     1     -11.066  10.417  67.658  1.00  0.00    -0.361 C  
BRANCH  15  16
HETATM   16  C   UNL     1     -10.618  10.986  66.315  1.00  0.00    -0.295 C  
BRANCH  16  17
HETATM   17  C   UNL     1      -9.795   9.971  65.531  1.00  0.00    -0.373 C  
BRANCH  17  18
HETATM   18  C   UNL     1      -9.802   8.614  66.229  1.00  0.00    -0.320 C  
HETATM   19  O   UNL     1      -8.473   6.702  66.708  1.00  0.00    -0.113 OA 
HETATM   20  C   UNL     1      -8.476   7.906  66.091  1.00  0.00    -0.133 C  
HETATM   21  O   UNL     1      -7.500   8.337  65.497  1.00  0.00    -0.074 OA 
ENDBRANCH  17  18
ENDBRANCH  16  17
ENDBRANCH  15  16
ENDBRANCH  14  15
ENDBRANCH  13  14
ENDBRANCH   5  13
BRANCH   6  22
HETATM   22  C   UNL     1      -8.697  18.623  67.630  1.00  0.00    -0.272 C  
HETATM   23  F   UNL     1      -8.945  19.969  67.648  1.00  0.00    -0.357 F  
HETATM   24  F   UNL     1      -8.007  18.359  68.776  1.00  0.00    -0.304 F  
BRANCH  22  25
HETATM   25  C   UNL     1      -7.818  18.310  66.426  1.00  0.00    -0.290 C  
BRANCH  25  26
HETATM   26  C   UNL     1      -6.336  18.471  66.768  1.00  0.00    -0.201 C  
BRANCH  26  27
HETATM   27  C   UNL     1      -5.812  19.832  66.320  1.00  0.00    -0.174 C  
HETATM   28  C   UNL     1      -6.549  20.329  65.089  1.00  0.00    -0.333 C  
ENDBRANCH  26  27
ENDBRANCH  25  26
ENDBRANCH  22  25
ENDBRANCH   6  22
TORSDOF 10
ENDMDL
MODEL      140
REMARK 921   NORMALIZED FREE ENERGY PREDICTED BY IDOCK:   -4.61 KCAL/MOL
REMARK 922        TOTAL FREE ENERGY PREDICTED BY IDOCK:   -9.08 KCAL/MOL
REMARK 923 INTER-LIGAND FREE ENERGY PREDICTED BY IDOCK:   -7.55 KCAL/MOL
REMARK 924 INTRA-LIGAND FREE ENERGY PREDICTED BY IDOCK:   -1.53 KCAL/MOL
REMARK 927      BINDING AFFINITY PREDICTED BY RF-SCORE:    0.00 PKD
ROOT
HETATM    1  C   UNL     1     -12.335  10.753  70.066  1.00  0.00    -0.298 C  
HETATM    2  C   UNL     1     -13.115  10.280  71.277  1.00  0.00    -0.492 C  
HETATM    3  C   UNL     1     -12.392   8.996  71.594  1.00  0.00    -0.347 C  
HETATM    4  O   UNL     1     -12.886   8.119  72.291  1.00  0.00    -0.300 OA 
HETATM    5  C   UNL     1     -11.018   8.909  70.933  1.00  0.00    -0.325 C  
HETATM    6  C   UNL     1     -11.532  12.651  68.844  1.00  0.00    -0.306 C  
HETATM    7  C   UNL     1     -10.910  10.319  70.357  1.00  0.00    -0.320 C  
HETATM    8  C   UNL     1     -10.101  10.503  69.086  1.00  0.00    -0.240 C  
HETATM    9  O   UNL     1     -12.337  12.161  69.935  1.00  0.00    -0.179 OA 
HETATM   10  C   UNL     1     -10.122  11.996  68.752  1.00  0.00    -0.113 C  
HETATM   11  O   UNL     1     -12.257  12.408  67.632  1.00  0.00    -0.425 OA 
HETATM   12  H   UNL     1     -13.118  12.808  67.688  1.00  0.00     0.000 HD 
ENDROOT
BRANCH   5  13
HETATM   13  C   UNL     1      -9.860   8.672  71.903  1.00  0.00    -0.384 C  
BRANCH  13  14
HETATM   14  C   UNL     1      -8.771   7.758  71.358  1.00  0.00    -0.142 C  
BRANCH  14  15
HETATM   15  C   UNL     1      -9.034   7.416  69.893  1.00  0.00    -0.141 C  
BRANCH  15  16
HETATM   16  C   UNL     1      -7.722   7.088  69.188  1.00  0.00    -0.105 C  
BRANCH  16  17
HETATM   17  C   UNL     1      -7.410   8.108  68.098  1.00  0.00    -0.096 C  
BRANCH  17  18
HETATM   18  C   UNL     1      -8.531   8.154  67.064  1.00  0.00    -0.120 C  
HETATM   19  O   UNL     1      -9.441   9.443  65.285  1.00  0.00    -0.265 OA 
HETATM   20  C   UNL     1      -8.451   9.394  66.207  1.00  0.00    -0.126 C  
HETATM   21  O   UNL     1      -7.610  10.273  66.307  1.00  0.00    -0.106 OA 
ENDBRANCH  17  18
ENDBRANCH  16  17
ENDBRANCH  15  16
ENDBRANCH  14  15
ENDBRANCH  13  14
ENDBRANCH   5  13
BRANCH   6  22
HETATM   22  C   UNL     1     -11.334  14.187  69.058  1.00  0.00    -0.275 C  
HETATM   23  F   UNL     1     -10.058  14.525  68.701  1.00  0.00    -0.216 F  
HETATM   24  F   UNL     1     -12.150  14.876  68.210  1.00  0.00    -0.327 F  
BRANCH  22  25
HETATM   25  C   UNL     1     -11.577  14.655  70.487  1.00  0.00    -0.319 C  
BRANCH  25  26
HETATM   26  C   UNL     1     -12.879  15.452  70.593  1.00  0.00    -0.484 C  
BRANCH  26  27
HETATM   27  C   UNL     1     -13.517  15.286  71.969  1.00  0.00    -0.547 C  
HETATM   28  C   UNL     1     -14.407  14.057  72.019  1.00  0.00    -0.548 C  
ENDBRANCH  26  27
ENDBRANCH  25  26
ENDBRANCH  22  25
ENDBRANCH   6  22
TORSDOF 10
ENDMDL
MODEL      141
REMARK 921   NORMALIZED FREE ENERGY PREDICTED BY IDOCK:   -4.60 KCAL/MOL
REMARK 922        TOTAL FREE ENERGY PREDICTED BY IDOCK:   -9.06 KCAL/MOL
REMARK 923 INTER-LIGAND FREE ENERGY PREDICTED BY IDOCK:   -6.82 KCAL/MOL
REMARK 924 INTRA-LIGAND FREE ENERGY PREDICTED BY IDOCK:   -2.24 KCAL/MOL
REMARK 927      BINDING AFFINITY PREDICTED BY RF-SCORE:    0.00 PKD
ROOT
HETATM    1  C   UNL     1     -12.403  12.596  69.961  1.00  0.00    -0.094 C  
HETATM    2  C   UNL     1     -12.654  12.321  71.431  1.00  0.00    -0.303 C  
HETATM    3  C   UNL     1     -12.900  10.835  71.402  1.00  0.00    -0.452 C  
HETATM    4  O   UNL     1     -13.465  10.245  72.313  1.00  0.00    -0.377 OA 
HETATM    5  C   UNL     1     -12.402  10.176  70.117  1.00  0.00    -0.144 C  
HETATM    6  C   UNL     1     -11.217  13.941  68.372  1.00  0.00    -0.264 C  
HETATM    7  C   UNL     1     -11.675  11.355  69.476  1.00  0.00    -0.417 C  
HETATM    8  C   UNL     1     -11.621  11.413  67.961  1.00  0.00    -0.357 C  
HETATM    9  O   UNL     1     -11.548  13.704  69.754  1.00  0.00    -0.279 OA 
HETATM   10  C   UNL     1     -10.812  12.657  67.587  1.00  0.00    -0.248 C  
HETATM   11  O   UNL     1     -12.360  14.544  67.753  1.00  0.00    -0.619 OA 
HETATM   12  H   UNL     1     -12.607  15.327  68.232  1.00  0.00     0.000 HD 
ENDROOT
BRANCH   5  13
HETATM   13  C   UNL     1     -11.410   9.032  70.334  1.00  0.00    -0.242 C  
BRANCH  13  14
HETATM   14  C   UNL     1     -10.265   9.375  71.276  1.00  0.00    -0.340 C  
BRANCH  14  15
HETATM   15  C   UNL     1      -8.923   9.285  70.554  1.00  0.00    -0.296 C  
BRANCH  15  16
HETATM   16  C   UNL     1      -8.904   8.071  69.632  1.00  0.00    -0.141 C  
BRANCH  16  17
HETATM   17  C   UNL     1      -8.341   8.426  68.260  1.00  0.00    -0.131 C  
BRANCH  17  18
HETATM   18  C   UNL     1      -8.353   9.937  68.045  1.00  0.00    -0.113 C  
HETATM   19  O   UNL     1      -7.018  11.782  67.361  1.00  0.00    -0.099 OA 
HETATM   20  C   UNL     1      -7.017  10.443  67.556  1.00  0.00    -0.084 C  
HETATM   21  O   UNL     1      -6.029   9.755  67.353  1.00  0.00    -0.053 OA 
ENDBRANCH  17  18
ENDBRANCH  16  17
ENDBRANCH  15  16
ENDBRANCH  14  15
ENDBRANCH  13  14
ENDBRANCH   5  13
BRANCH   6  22
HETATM   22  C   UNL     1     -10.003  14.925  68.340  1.00  0.00    -0.222 C  
HETATM   23  F   UNL     1     -10.470  16.210  68.378  1.00  0.00    -0.237 F  
HETATM   24  F   UNL     1      -9.258  14.769  69.471  1.00  0.00    -0.135 F  
BRANCH  22  25
HETATM   25  C   UNL     1      -9.107  14.772  67.117  1.00  0.00    -0.231 C  
BRANCH  25  26
HETATM   26  C   UNL     1      -9.571  15.681  65.977  1.00  0.00    -0.386 C  
BRANCH  26  27
HETATM   27  C   UNL     1     -10.175  14.867  64.835  1.00  0.00    -0.286 C  
HETATM   28  C   UNL     1     -11.541  15.401  64.441  1.00  0.00    -0.265 C  
ENDBRANCH  26  27
ENDBRANCH  25  26
ENDBRANCH  22  25
ENDBRANCH   6  22
TORSDOF 10
ENDMDL
MODEL      142
REMARK 921   NORMALIZED FREE ENERGY PREDICTED BY IDOCK:   -4.59 KCAL/MOL
REMARK 922        TOTAL FREE ENERGY PREDICTED BY IDOCK:   -9.05 KCAL/MOL
REMARK 923 INTER-LIGAND FREE ENERGY PREDICTED BY IDOCK:   -7.66 KCAL/MOL
REMARK 924 INTRA-LIGAND FREE ENERGY PREDICTED BY IDOCK:   -1.40 KCAL/MOL
REMARK 927      BINDING AFFINITY PREDICTED BY RF-SCORE:    0.00 PKD
ROOT
HETATM    1  C   UNL     1     -11.402   9.917  68.715  1.00  0.00     0.007 C  
HETATM    2  C   UNL     1     -10.624  10.212  67.446  1.00  0.00    -0.329 C  
HETATM    3  C   UNL     1     -11.095  11.612  67.147  1.00  0.00    -0.299 C  
HETATM    4  O   UNL     1     -10.980  12.121  66.039  1.00  0.00    -0.271 OA 
HETATM    5  C   UNL     1     -11.746  12.290  68.351  1.00  0.00    -0.390 C  
HETATM    6  C   UNL     1     -11.402   8.763  70.815  1.00  0.00    -0.272 C  
HETATM    7  C   UNL     1     -11.452  11.254  69.432  1.00  0.00    -0.370 C  
HETATM    8  C   UNL     1     -12.439  11.128  70.577  1.00  0.00    -0.414 C  
HETATM    9  O   UNL     1     -10.733   9.000  69.560  1.00  0.00    -0.229 OA 
HETATM   10  C   UNL     1     -11.892  10.059  71.527  1.00  0.00    -0.406 C  
HETATM   11  O   UNL     1     -12.519   7.905  70.552  1.00  0.00    -0.479 OA 
HETATM   12  H   UNL     1     -12.220   7.115  70.117  1.00  0.00     0.000 HD 
ENDROOT
BRANCH   5  13
HETATM   13  C   UNL     1     -11.111  13.624  68.748  1.00  0.00    -0.302 C  
BRANCH  13  14
HETATM   14  C   UNL     1     -11.765  14.839  68.104  1.00  0.00    -0.353 C  
BRANCH  14  15
HETATM   15  C   UNL     1     -10.797  15.534  67.150  1.00  0.00    -0.316 C  
BRANCH  15  16
HETATM   16  C   UNL     1      -9.375  15.036  67.391  1.00  0.00    -0.204 C  
BRANCH  16  17
HETATM   17  C   UNL     1      -8.345  16.044  66.894  1.00  0.00    -0.278 C  
BRANCH  17  18
HETATM   18  C   UNL     1      -8.732  17.462  67.305  1.00  0.00    -0.232 C  
HETATM   19  O   UNL     1      -8.230  19.217  68.828  1.00  0.00    -0.360 OA 
HETATM   20  C   UNL     1      -7.894  17.960  68.458  1.00  0.00    -0.298 C  
HETATM   21  O   UNL     1      -7.011  17.329  69.017  1.00  0.00    -0.224 OA 
ENDBRANCH  17  18
ENDBRANCH  16  17
ENDBRANCH  15  16
ENDBRANCH  14  15
ENDBRANCH  13  14
ENDBRANCH   5  13
BRANCH   6  22
HETATM   22  C   UNL     1     -10.384   8.051  71.763  1.00  0.00    -0.217 C  
HETATM   23  F   UNL     1      -9.162   8.654  71.638  1.00  0.00    -0.217 F  
HETATM   24  F   UNL     1     -10.758   8.240  73.061  1.00  0.00    -0.404 F  
BRANCH  22  25
HETATM   25  C   UNL     1     -10.217   6.561  71.495  1.00  0.00    -0.215 C  
BRANCH  25  26
HETATM   26  C   UNL     1      -8.871   6.268  70.828  1.00  0.00    -0.144 C  
BRANCH  26  27
HETATM   27  C   UNL     1      -9.042   5.346  69.624  1.00  0.00    -0.145 C  
HETATM   28  C   UNL     1     -10.416   5.506  68.997  1.00  0.00    -0.296 C  
ENDBRANCH  26  27
ENDBRANCH  25  26
ENDBRANCH  22  25
ENDBRANCH   6  22
TORSDOF 10
ENDMDL
MODEL      143
REMARK 921   NORMALIZED FREE ENERGY PREDICTED BY IDOCK:   -4.59 KCAL/MOL
REMARK 922        TOTAL FREE ENERGY PREDICTED BY IDOCK:   -9.05 KCAL/MOL
REMARK 923 INTER-LIGAND FREE ENERGY PREDICTED BY IDOCK:   -6.96 KCAL/MOL
REMARK 924 INTRA-LIGAND FREE ENERGY PREDICTED BY IDOCK:   -2.09 KCAL/MOL
REMARK 927      BINDING AFFINITY PREDICTED BY RF-SCORE:    0.00 PKD
ROOT
HETATM    1  C   UNL     1     -11.343  16.267  69.260  1.00  0.00    -0.288 C  
HETATM    2  C   UNL     1     -11.516  15.748  70.675  1.00  0.00    -0.415 C  
HETATM    3  C   UNL     1     -12.172  14.418  70.408  1.00  0.00    -0.338 C  
HETATM    4  O   UNL     1     -12.788  13.805  71.270  1.00  0.00    -0.337 OA 
HETATM    5  C   UNL     1     -12.009  13.954  68.962  1.00  0.00    -0.402 C  
HETATM    6  C   UNL     1      -9.989  17.582  67.784  1.00  0.00    -0.312 C  
HETATM    7  C   UNL     1     -11.046  15.020  68.447  1.00  0.00    -0.284 C  
HETATM    8  C   UNL     1     -11.126  15.395  66.979  1.00  0.00    -0.273 C  
HETATM    9  O   UNL     1     -10.235  17.138  69.133  1.00  0.00    -0.308 OA 
HETATM   10  C   UNL     1     -10.040  16.443  66.722  1.00  0.00    -0.287 C  
HETATM   11  O   UNL     1     -10.971  18.578  67.473  1.00  0.00    -0.371 OA 
HETATM   12  H   UNL     1     -10.939  19.272  68.121  1.00  0.00     0.000 HD 
ENDROOT
BRANCH   5  13
HETATM   13  C   UNL     1     -11.362  12.576  68.807  1.00  0.00    -0.337 C  
BRANCH  13  14
HETATM   14  C   UNL     1     -11.738  11.856  67.519  1.00  0.00    -0.335 C  
BRANCH  14  15
HETATM   15  C   UNL     1     -10.556  11.052  66.983  1.00  0.00    -0.303 C  
BRANCH  15  16
HETATM   16  C   UNL     1     -10.659   9.601  67.441  1.00  0.00    -0.333 C  
BRANCH  16  17
HETATM   17  C   UNL     1      -9.425   9.183  68.235  1.00  0.00    -0.152 C  
BRANCH  17  18
HETATM   18  C   UNL     1      -8.409  10.320  68.294  1.00  0.00    -0.116 C  
HETATM   19  O   UNL     1      -6.286  11.032  67.495  1.00  0.00    -0.051 OA 
HETATM   20  C   UNL     1      -7.192  10.028  67.450  1.00  0.00    -0.085 C  
HETATM   21  O   UNL     1      -7.011   9.015  66.793  1.00  0.00    -0.079 OA 
ENDBRANCH  17  18
ENDBRANCH  16  17
ENDBRANCH  15  16
ENDBRANCH  14  15
ENDBRANCH  13  14
ENDBRANCH   5  13
BRANCH   6  22
HETATM   22  C   UNL     1      -8.556  18.205  67.749  1.00  0.00    -0.255 C  
HETATM   23  F   UNL     1      -8.520  19.185  66.794  1.00  0.00    -0.265 F  
HETATM   24  F   UNL     1      -8.300  18.832  68.932  1.00  0.00    -0.345 F  
BRANCH  22  25
HETATM   25  C   UNL     1      -7.446  17.204  67.454  1.00  0.00    -0.182 C  
BRANCH  25  26
HETATM   26  C   UNL     1      -6.709  16.807  68.735  1.00  0.00    -0.185 C  
BRANCH  26  27
HETATM   27  C   UNL     1      -7.250  15.495  69.298  1.00  0.00    -0.196 C  
HETATM   28  C   UNL     1      -7.369  14.438  68.214  1.00  0.00    -0.122 C  
ENDBRANCH  26  27
ENDBRANCH  25  26
ENDBRANCH  22  25
ENDBRANCH   6  22
TORSDOF 10
ENDMDL
MODEL      144
REMARK 921   NORMALIZED FREE ENERGY PREDICTED BY IDOCK:   -4.58 KCAL/MOL
REMARK 922        TOTAL FREE ENERGY PREDICTED BY IDOCK:   -9.03 KCAL/MOL
REMARK 923 INTER-LIGAND FREE ENERGY PREDICTED BY IDOCK:   -7.55 KCAL/MOL
REMARK 924 INTRA-LIGAND FREE ENERGY PREDICTED BY IDOCK:   -1.49 KCAL/MOL
REMARK 927      BINDING AFFINITY PREDICTED BY RF-SCORE:    0.00 PKD
ROOT
HETATM    1  C   UNL     1      -6.344  16.726  68.212  1.00  0.00    -0.137 C  
HETATM    2  C   UNL     1      -5.369  15.870  67.426  1.00  0.00    -0.031 C  
HETATM    3  C   UNL     1      -5.964  14.501  67.634  1.00  0.00    -0.024 C  
HETATM    4  O   UNL     1      -5.325  13.473  67.454  1.00  0.00    -0.343 OA 
HETATM    5  C   UNL     1      -7.413  14.550  68.115  1.00  0.00    -0.126 C  
HETATM    6  C   UNL     1      -7.422  18.859  68.374  1.00  0.00    -0.300 C  
HETATM    7  C   UNL     1      -7.684  16.048  67.992  1.00  0.00    -0.140 C  
HETATM    8  C   UNL     1      -8.679  16.667  68.955  1.00  0.00    -0.193 C  
HETATM    9  O   UNL     1      -6.440  18.043  67.706  1.00  0.00    -0.178 OA 
HETATM   10  C   UNL     1      -8.792  18.150  68.595  1.00  0.00    -0.277 C  
HETATM   11  O   UNL     1      -6.871  19.247  69.639  1.00  0.00    -0.271 OA 
HETATM   12  H   UNL     1      -6.035  19.679  69.504  1.00  0.00     0.000 HD 
ENDROOT
BRANCH   5  13
HETATM   13  C   UNL     1      -8.402  13.787  67.231  1.00  0.00    -0.186 C  
BRANCH  13  14
HETATM   14  C   UNL     1      -8.758  12.402  67.753  1.00  0.00    -0.176 C  
BRANCH  14  15
HETATM   15  C   UNL     1     -10.162  12.394  68.353  1.00  0.00    -0.227 C  
BRANCH  15  16
HETATM   16  C   UNL     1     -11.132  13.121  67.427  1.00  0.00    -0.301 C  
BRANCH  16  17
HETATM   17  C   UNL     1     -11.706  12.178  66.376  1.00  0.00    -0.394 C  
BRANCH  17  18
HETATM   18  C   UNL     1     -12.511  12.951  65.335  1.00  0.00    -0.511 C  
HETATM   19  O   UNL     1     -12.482  13.739  63.093  1.00  0.00    -0.786 OA 
HETATM   20  C   UNL     1     -11.774  13.056  64.022  1.00  0.00    -0.436 C  
HETATM   21  O   UNL     1     -10.669  12.594  63.790  1.00  0.00    -0.416 OA 
ENDBRANCH  17  18
ENDBRANCH  16  17
ENDBRANCH  15  16
ENDBRANCH  14  15
ENDBRANCH  13  14
ENDBRANCH   5  13
BRANCH   6  22
HETATM   22  C   UNL     1      -7.673  20.119  67.483  1.00  0.00    -0.307 C  
HETATM   23  F   UNL     1      -7.074  21.202  68.066  1.00  0.00    -0.284 F  
HETATM   24  F   UNL     1      -7.055  19.958  66.279  1.00  0.00    -0.213 F  
BRANCH  22  25
HETATM   25  C   UNL     1      -9.145  20.442  67.259  1.00  0.00    -0.500 C  
BRANCH  25  26
HETATM   26  C   UNL     1      -9.597  20.011  65.863  1.00  0.00    -0.326 C  
BRANCH  26  27
HETATM   27  C   UNL     1     -10.830  19.114  65.936  1.00  0.00    -0.316 C  
HETATM   28  C   UNL     1     -10.487  17.676  65.587  1.00  0.00    -0.150 C  
ENDBRANCH  26  27
ENDBRANCH  25  26
ENDBRANCH  22  25
ENDBRANCH   6  22
TORSDOF 10
ENDMDL
MODEL      145
REMARK 921   NORMALIZED FREE ENERGY PREDICTED BY IDOCK:   -4.56 KCAL/MOL
REMARK 922        TOTAL FREE ENERGY PREDICTED BY IDOCK:   -9.01 KCAL/MOL
REMARK 923 INTER-LIGAND FREE ENERGY PREDICTED BY IDOCK:   -7.60 KCAL/MOL
REMARK 924 INTRA-LIGAND FREE ENERGY PREDICTED BY IDOCK:   -1.41 KCAL/MOL
REMARK 927      BINDING AFFINITY PREDICTED BY RF-SCORE:    0.00 PKD
ROOT
HETATM    1  C   UNL     1      -7.871  13.941  67.947  1.00  0.00    -0.161 C  
HETATM    2  C   UNL     1      -7.272  12.691  67.331  1.00  0.00    -0.138 C  
HETATM    3  C   UNL     1      -8.219  11.640  67.851  1.00  0.00    -0.141 C  
HETATM    4  O   UNL     1      -7.930  10.450  67.876  1.00  0.00    -0.101 OA 
HETATM    5  C   UNL     1      -9.534  12.225  68.361  1.00  0.00    -0.175 C  
HETATM    6  C   UNL     1      -8.256  16.291  67.681  1.00  0.00    -0.153 C  
HETATM    7  C   UNL     1      -9.366  13.679  67.927  1.00  0.00    -0.206 C  
HETATM    8  C   UNL     1     -10.035  14.749  68.768  1.00  0.00    -0.234 C  
HETATM    9  O   UNL     1      -7.627  15.098  67.171  1.00  0.00    -0.205 OA 
HETATM   10  C   UNL     1      -9.744  16.095  68.098  1.00  0.00    -0.222 C  
HETATM   11  O   UNL     1      -7.492  16.730  68.811  1.00  0.00    -0.206 OA 
HETATM   12  H   UNL     1      -6.584  16.850  68.556  1.00  0.00     0.000 HD 
ENDROOT
BRANCH   5  13
HETATM   13  C   UNL     1     -10.786  11.645  67.700  1.00  0.00    -0.249 C  
BRANCH  13  14
HETATM   14  C   UNL     1     -11.715  10.917  68.662  1.00  0.00    -0.334 C  
BRANCH  14  15
HETATM   15  C   UNL     1     -11.768  11.633  70.009  1.00  0.00    -0.402 C  
BRANCH  15  16
HETATM   16  C   UNL     1     -12.121  10.644  71.115  1.00  0.00    -0.445 C  
BRANCH  16  17
HETATM   17  C   UNL     1     -11.135   9.481  71.151  1.00  0.00    -0.450 C  
BRANCH  17  18
HETATM   18  C   UNL     1     -11.602   8.406  72.128  1.00  0.00    -0.442 C  
HETATM   19  O   UNL     1     -12.125   6.095  72.321  1.00  0.00    -0.311 OA 
HETATM   20  C   UNL     1     -11.713   7.055  71.462  1.00  0.00    -0.300 C  
HETATM   21  O   UNL     1     -11.471   6.821  70.289  1.00  0.00    -0.326 OA 
ENDBRANCH  17  18
ENDBRANCH  16  17
ENDBRANCH  15  16
ENDBRANCH  14  15
ENDBRANCH  13  14
ENDBRANCH   5  13
BRANCH   6  22
HETATM   22  C   UNL     1      -8.214  17.367  66.548  1.00  0.00    -0.276 C  
HETATM   23  F   UNL     1      -7.289  16.992  65.612  1.00  0.00    -0.210 F  
HETATM   24  F   UNL     1      -9.411  17.391  65.896  1.00  0.00    -0.246 F  
BRANCH  22  25
HETATM   25  C   UNL     1      -7.871  18.770  67.032  1.00  0.00    -0.249 C  
BRANCH  25  26
HETATM   26  C   UNL     1      -8.693  19.825  66.289  1.00  0.00    -0.403 C  
BRANCH  26  27
HETATM   27  C   UNL     1      -9.473  20.703  67.264  1.00  0.00    -0.520 C  
HETATM   28  C   UNL     1     -10.510  19.896  68.024  1.00  0.00    -0.490 C  
ENDBRANCH  26  27
ENDBRANCH  25  26
ENDBRANCH  22  25
ENDBRANCH   6  22
TORSDOF 10
ENDMDL
MODEL      146
REMARK 921   NORMALIZED FREE ENERGY PREDICTED BY IDOCK:   -4.55 KCAL/MOL
REMARK 922        TOTAL FREE ENERGY PREDICTED BY IDOCK:   -8.99 KCAL/MOL
REMARK 923 INTER-LIGAND FREE ENERGY PREDICTED BY IDOCK:   -7.30 KCAL/MOL
REMARK 924 INTRA-LIGAND FREE ENERGY PREDICTED BY IDOCK:   -1.69 KCAL/MOL
REMARK 927      BINDING AFFINITY PREDICTED BY RF-SCORE:    0.00 PKD
ROOT
HETATM    1  C   UNL     1     -11.907  11.597  68.588  1.00  0.00    -0.308 C  
HETATM    2  C   UNL     1     -12.192  11.734  70.071  1.00  0.00    -0.317 C  
HETATM    3  C   UNL     1     -11.690  10.407  70.578  1.00  0.00    -0.344 C  
HETATM    4  O   UNL     1     -12.020   9.952  71.666  1.00  0.00    -0.393 OA 
HETATM    5  C   UNL     1     -10.769   9.701  69.585  1.00  0.00    -0.260 C  
HETATM    6  C   UNL     1     -11.308  12.743  66.571  1.00  0.00    -0.322 C  
HETATM    7  C   UNL     1     -10.617  10.799  68.535  1.00  0.00    -0.223 C  
HETATM    8  C   UNL     1     -10.393  10.375  67.096  1.00  0.00    -0.290 C  
HETATM    9  O   UNL     1     -11.668  12.844  67.963  1.00  0.00    -0.321 OA 
HETATM   10  C   UNL     1     -10.237  11.654  66.269  1.00  0.00    -0.262 C  
HETATM   11  O   UNL     1     -12.505  12.460  65.837  1.00  0.00    -0.583 OA 
HETATM   12  H   UNL     1     -13.159  13.125  66.021  1.00  0.00     0.000 HD 
ENDROOT
BRANCH   5  13
HETATM   13  C   UNL     1      -9.390   9.343  70.141  1.00  0.00    -0.276 C  
BRANCH  13  14
HETATM   14  C   UNL     1      -8.243  10.104  69.491  1.00  0.00    -0.176 C  
BRANCH  14  15
HETATM   15  C   UNL     1      -7.250   9.140  68.846  1.00  0.00    -0.073 C  
BRANCH  15  16
HETATM   16  C   UNL     1      -7.908   7.782  68.620  1.00  0.00    -0.120 C  
BRANCH  16  17
HETATM   17  C   UNL     1      -8.235   7.565  67.147  1.00  0.00    -0.114 C  
BRANCH  17  18
HETATM   18  C   UNL     1      -8.788   6.162  66.916  1.00  0.00    -0.117 C  
HETATM   19  O   UNL     1     -10.797   4.910  66.694  1.00  0.00    -0.142 OA 
HETATM   20  C   UNL     1     -10.298   6.150  66.900  1.00  0.00    -0.248 C  
HETATM   21  O   UNL     1     -11.016   7.125  67.053  1.00  0.00    -0.369 OA 
ENDBRANCH  17  18
ENDBRANCH  16  17
ENDBRANCH  15  16
ENDBRANCH  14  15
ENDBRANCH  13  14
ENDBRANCH   5  13
BRANCH   6  22
HETATM   22  C   UNL     1     -10.721  14.126  66.136  1.00  0.00    -0.297 C  
HETATM   23  F   UNL     1     -10.153  13.998  64.898  1.00  0.00    -0.389 F  
HETATM   24  F   UNL     1     -11.733  15.027  65.988  1.00  0.00    -0.333 F  
BRANCH  22  25
HETATM   25  C   UNL     1      -9.676  14.689  67.092  1.00  0.00    -0.235 C  
BRANCH  25  26
HETATM   26  C   UNL     1     -10.033  16.114  67.520  1.00  0.00    -0.243 C  
BRANCH  26  27
HETATM   27  C   UNL     1     -10.895  16.111  68.779  1.00  0.00    -0.310 C  
HETATM   28  C   UNL     1     -10.242  15.311  69.893  1.00  0.00    -0.233 C  
ENDBRANCH  26  27
ENDBRANCH  25  26
ENDBRANCH  22  25
ENDBRANCH   6  22
TORSDOF 10
ENDMDL
MODEL      147
REMARK 921   NORMALIZED FREE ENERGY PREDICTED BY IDOCK:   -4.54 KCAL/MOL
REMARK 922        TOTAL FREE ENERGY PREDICTED BY IDOCK:   -8.97 KCAL/MOL
REMARK 923 INTER-LIGAND FREE ENERGY PREDICTED BY IDOCK:   -7.53 KCAL/MOL
REMARK 924 INTRA-LIGAND FREE ENERGY PREDICTED BY IDOCK:   -1.44 KCAL/MOL
REMARK 927      BINDING AFFINITY PREDICTED BY RF-SCORE:    0.00 PKD
ROOT
HETATM    1  C   UNL     1     -12.126  13.494  69.461  1.00  0.00    -0.297 C  
HETATM    2  C   UNL     1     -12.515  13.331  70.918  1.00  0.00    -0.424 C  
HETATM    3  C   UNL     1     -12.543  11.828  71.035  1.00  0.00    -0.310 C  
HETATM    4  O   UNL     1     -13.127  11.251  71.943  1.00  0.00    -0.493 OA 
HETATM    5  C   UNL     1     -11.802  11.130  69.897  1.00  0.00    -0.439 C  
HETATM    6  C   UNL     1     -10.956  14.842  67.863  1.00  0.00    -0.278 C  
HETATM    7  C   UNL     1     -11.176  12.339  69.205  1.00  0.00    -0.300 C  
HETATM    8  C   UNL     1     -10.943  12.254  67.708  1.00  0.00    -0.274 C  
HETATM    9  O   UNL     1     -11.418  14.695  69.221  1.00  0.00    -0.260 OA 
HETATM   10  C   UNL     1     -10.279  13.565  67.281  1.00  0.00    -0.242 C  
HETATM   11  O   UNL     1     -12.088  15.197  67.059  1.00  0.00    -0.203 OA 
HETATM   12  H   UNL     1     -12.500  15.976  67.414  1.00  0.00     0.000 HD 
ENDROOT
BRANCH   5  13
HETATM   13  C   UNL     1     -10.692  10.180  70.351  1.00  0.00    -0.329 C  
BRANCH  13  14
HETATM   14  C   UNL     1     -10.933   8.723  69.982  1.00  0.00    -0.216 C  
BRANCH  14  15
HETATM   15  C   UNL     1     -10.634   8.481  68.504  1.00  0.00    -0.154 C  
BRANCH  15  16
HETATM   16  C   UNL     1      -9.134   8.585  68.250  1.00  0.00    -0.138 C  
BRANCH  16  17
HETATM   17  C   UNL     1      -8.371   7.488  68.985  1.00  0.00    -0.129 C  
BRANCH  17  18
HETATM   18  C   UNL     1      -8.783   6.109  68.478  1.00  0.00    -0.111 C  
HETATM   19  O   UNL     1      -9.740   4.035  69.138  1.00  0.00    -0.181 OA 
HETATM   20  C   UNL     1      -9.370   5.260  69.579  1.00  0.00    -0.130 C  
HETATM   21  O   UNL     1      -9.507   5.603  70.742  1.00  0.00    -0.159 OA 
ENDBRANCH  17  18
ENDBRANCH  16  17
ENDBRANCH  15  16
ENDBRANCH  14  15
ENDBRANCH  13  14
ENDBRANCH   5  13
BRANCH   6  22
HETATM   22  C   UNL     1      -9.898  15.993  67.848  1.00  0.00    -0.226 C  
HETATM   23  F   UNL     1      -9.361  16.121  69.100  1.00  0.00    -0.204 F  
HETATM   24  F   UNL     1      -8.860  15.651  67.033  1.00  0.00    -0.191 F  
BRANCH  22  25
HETATM   25  C   UNL     1     -10.454  17.346  67.420  1.00  0.00    -0.336 C  
BRANCH  25  26
HETATM   26  C   UNL     1     -10.147  18.422  68.463  1.00  0.00    -0.413 C  
BRANCH  26  27
HETATM   27  C   UNL     1      -9.755  19.738  67.797  1.00  0.00    -0.495 C  
HETATM   28  C   UNL     1     -10.073  19.721  66.312  1.00  0.00    -0.601 C  
ENDBRANCH  26  27
ENDBRANCH  25  26
ENDBRANCH  22  25
ENDBRANCH   6  22
TORSDOF 10
ENDMDL
MODEL      148
REMARK 921   NORMALIZED FREE ENERGY PREDICTED BY IDOCK:   -4.52 KCAL/MOL
REMARK 922        TOTAL FREE ENERGY PREDICTED BY IDOCK:   -8.94 KCAL/MOL
REMARK 923 INTER-LIGAND FREE ENERGY PREDICTED BY IDOCK:   -7.00 KCAL/MOL
REMARK 924 INTRA-LIGAND FREE ENERGY PREDICTED BY IDOCK:   -1.94 KCAL/MOL
REMARK 927      BINDING AFFINITY PREDICTED BY RF-SCORE:    0.00 PKD
ROOT
HETATM    1  C   UNL     1      -8.477   9.829  70.176  1.00  0.00    -0.174 C  
HETATM    2  C   UNL     1      -7.255   8.989  70.495  1.00  0.00    -0.081 C  
HETATM    3  C   UNL     1      -7.614   8.480  71.868  1.00  0.00    -0.103 C  
HETATM    4  O   UNL     1      -6.777   8.033  72.642  1.00  0.00    -0.069 OA 
HETATM    5  C   UNL     1      -9.103   8.615  72.181  1.00  0.00    -0.301 C  
HETATM    6  C   UNL     1      -9.940  10.621  68.452  1.00  0.00    -0.163 C  
HETATM    7  C   UNL     1      -9.622   9.067  70.818  1.00  0.00    -0.308 C  
HETATM    8  C   UNL     1     -10.847   9.962  70.790  1.00  0.00    -0.387 C  
HETATM    9  O   UNL     1      -8.736   9.904  68.787  1.00  0.00    -0.122 OA 
HETATM   10  C   UNL     1     -11.174  10.230  69.319  1.00  0.00    -0.281 C  
HETATM   11  O   UNL     1      -9.665  12.019  68.607  1.00  0.00    -0.318 OA 
HETATM   12  H   UNL     1      -8.912  12.258  68.079  1.00  0.00     0.000 HD 
ENDROOT
BRANCH   5  13
HETATM   13  C   UNL     1      -9.790   7.306  72.572  1.00  0.00    -0.195 C  
BRANCH  13  14
HETATM   14  C   UNL     1     -11.293   7.433  72.779  1.00  0.00    -0.356 C  
BRANCH  14  15
HETATM   15  C   UNL     1     -12.053   6.545  71.796  1.00  0.00    -0.393 C  
BRANCH  15  16
HETATM   16  C   UNL     1     -11.072   5.812  70.886  1.00  0.00    -0.267 C  
BRANCH  16  17
HETATM   17  C   UNL     1     -11.277   6.200  69.426  1.00  0.00    -0.466 C  
BRANCH  17  18
HETATM   18  C   UNL     1      -9.937   6.333  68.708  1.00  0.00    -0.173 C  
HETATM   19  O   UNL     1      -8.910   6.357  66.564  1.00  0.00    -0.126 OA 
HETATM   20  C   UNL     1     -10.093   6.239  67.210  1.00  0.00    -0.163 C  
HETATM   21  O   UNL     1     -11.147   6.074  66.615  1.00  0.00    -0.263 OA 
ENDBRANCH  17  18
ENDBRANCH  16  17
ENDBRANCH  15  16
ENDBRANCH  14  15
ENDBRANCH  13  14
ENDBRANCH   5  13
BRANCH   6  22
HETATM   22  C   UNL     1     -10.281  10.299  66.961  1.00  0.00    -0.228 C  
HETATM   23  F   UNL     1      -9.121  10.023  66.289  1.00  0.00    -0.152 F  
HETATM   24  F   UNL     1     -11.025   9.159  66.898  1.00  0.00    -0.266 F  
BRANCH  22  25
HETATM   25  C   UNL     1     -11.008  11.421  66.230  1.00  0.00    -0.303 C  
BRANCH  25  26
HETATM   26  C   UNL     1     -10.200  11.908  65.025  1.00  0.00    -0.316 C  
BRANCH  26  27
HETATM   27  C   UNL     1     -10.918  11.588  63.716  1.00  0.00    -0.485 C  
HETATM   28  C   UNL     1     -12.392  11.944  63.795  1.00  0.00    -0.541 C  
ENDBRANCH  26  27
ENDBRANCH  25  26
ENDBRANCH  22  25
ENDBRANCH   6  22
TORSDOF 10
ENDMDL
MODEL      149
REMARK 921   NORMALIZED FREE ENERGY PREDICTED BY IDOCK:   -4.50 KCAL/MOL
REMARK 922        TOTAL FREE ENERGY PREDICTED BY IDOCK:   -8.91 KCAL/MOL
REMARK 923 INTER-LIGAND FREE ENERGY PREDICTED BY IDOCK:   -7.28 KCAL/MOL
REMARK 924 INTRA-LIGAND FREE ENERGY PREDICTED BY IDOCK:   -1.63 KCAL/MOL
REMARK 927      BINDING AFFINITY PREDICTED BY RF-SCORE:    0.00 PKD
ROOT
HETATM    1  C   UNL     1      -8.185  13.588  67.411  1.00  0.00    -0.181 C  
HETATM    2  C   UNL     1      -7.266  14.092  68.508  1.00  0.00    -0.110 C  
HETATM    3  C   UNL     1      -7.573  15.567  68.476  1.00  0.00    -0.127 C  
HETATM    4  O   UNL     1      -6.825  16.404  68.964  1.00  0.00    -0.171 OA 
HETATM    5  C   UNL     1      -8.880  15.887  67.754  1.00  0.00    -0.176 C  
HETATM    6  C   UNL     1      -9.542  11.768  66.645  1.00  0.00    -0.205 C  
HETATM    7  C   UNL     1      -9.412  14.474  67.528  1.00  0.00    -0.203 C  
HETATM    8  C   UNL     1     -10.276  14.231  66.304  1.00  0.00    -0.307 C  
HETATM    9  O   UNL     1      -8.597  12.251  67.622  1.00  0.00    -0.151 OA 
HETATM   10  C   UNL     1     -10.702  12.761  66.338  1.00  0.00    -0.282 C  
HETATM   11  O   UNL     1      -8.813  11.490  65.443  1.00  0.00    -0.390 OA 
HETATM   12  H   UNL     1      -8.105  10.884  65.631  1.00  0.00     0.000 HD 
ENDROOT
BRANCH   5  13
HETATM   13  C   UNL     1      -9.890  16.676  68.588  1.00  0.00    -0.252 C  
BRANCH  13  14
HETATM   14  C   UNL     1     -10.821  17.556  67.765  1.00  0.00    -0.251 C  
BRANCH  14  15
HETATM   15  C   UNL     1     -10.214  17.856  66.396  1.00  0.00    -0.372 C  
BRANCH  15  16
HETATM   16  C   UNL     1     -10.434  19.321  66.034  1.00  0.00    -0.573 C  
BRANCH  16  17
HETATM   17  C   UNL     1      -9.650  20.243  66.961  1.00  0.00    -0.572 C  
BRANCH  17  18
HETATM   18  C   UNL     1      -8.149  20.088  66.737  1.00  0.00    -0.356 C  
HETATM   19  O   UNL     1      -6.092  19.601  67.826  1.00  0.00    -0.200 OA 
HETATM   20  C   UNL     1      -7.425  19.743  68.016  1.00  0.00    -0.294 C  
HETATM   21  O   UNL     1      -7.946  19.603  69.111  1.00  0.00    -0.313 OA 
ENDBRANCH  17  18
ENDBRANCH  16  17
ENDBRANCH  15  16
ENDBRANCH  14  15
ENDBRANCH  13  14
ENDBRANCH   5  13
BRANCH   6  22
HETATM   22  C   UNL     1     -10.173  10.455  67.212  1.00  0.00    -0.211 C  
HETATM   23  F   UNL     1      -9.652  10.209  68.453  1.00  0.00    -0.137 F  
HETATM   24  F   UNL     1     -11.511  10.635  67.401  1.00  0.00    -0.373 F  
BRANCH  22  25
HETATM   25  C   UNL     1      -9.945   9.226  66.340  1.00  0.00    -0.356 C  
BRANCH  25  26
HETATM   26  C   UNL     1     -10.462   7.960  67.026  1.00  0.00    -0.419 C  
BRANCH  26  27
HETATM   27  C   UNL     1      -9.701   6.726  66.551  1.00  0.00    -0.183 C  
HETATM   28  C   UNL     1      -8.557   7.105  65.627  1.00  0.00    -0.119 C  
ENDBRANCH  26  27
ENDBRANCH  25  26
ENDBRANCH  22  25
ENDBRANCH   6  22
TORSDOF 10
ENDMDL
MODEL      150
REMARK 921   NORMALIZED FREE ENERGY PREDICTED BY IDOCK:   -4.50 KCAL/MOL
REMARK 922        TOTAL FREE ENERGY PREDICTED BY IDOCK:   -8.90 KCAL/MOL
REMARK 923 INTER-LIGAND FREE ENERGY PREDICTED BY IDOCK:   -6.54 KCAL/MOL
REMARK 924 INTRA-LIGAND FREE ENERGY PREDICTED BY IDOCK:   -2.36 KCAL/MOL
REMARK 927      BINDING AFFINITY PREDICTED BY RF-SCORE:    0.00 PKD
ROOT
HETATM    1  C   UNL     1     -11.090  11.274  66.601  1.00  0.00    -0.235 C  
HETATM    2  C   UNL     1     -10.603  10.542  67.837  1.00  0.00    -0.271 C  
HETATM    3  C   UNL     1      -9.979   9.320  67.212  1.00  0.00    -0.207 C  
HETATM    4  O   UNL     1      -9.753   8.299  67.850  1.00  0.00    -0.152 OA 
HETATM    5  C   UNL     1      -9.698   9.492  65.721  1.00  0.00    -0.357 C  
HETATM    6  C   UNL     1     -11.506  13.410  65.599  1.00  0.00    -0.316 C  
HETATM    7  C   UNL     1     -10.030  10.973  65.556  1.00  0.00    -0.308 C  
HETATM    8  C   UNL     1     -10.562  11.433  64.212  1.00  0.00    -0.416 C  
HETATM    9  O   UNL     1     -11.131  12.676  66.782  1.00  0.00    -0.258 OA 
HETATM   10  C   UNL     1     -10.772  12.946  64.305  1.00  0.00    -0.430 C  
HETATM   11  O   UNL     1     -12.921  13.261  65.431  1.00  0.00    -0.588 OA 
HETATM   12  H   UNL     1     -13.368  13.544  66.220  1.00  0.00     0.000 HD 
ENDROOT
BRANCH   5  13
HETATM   13  C   UNL     1      -8.242   9.256  65.317  1.00  0.00    -0.136 C  
BRANCH  13  14
HETATM   14  C   UNL     1      -7.411  10.528  65.222  1.00  0.00    -0.059 C  
BRANCH  14  15
HETATM   15  C   UNL     1      -6.563  10.717  66.478  1.00  0.00    -0.108 C  
BRANCH  15  16
HETATM   16  C   UNL     1      -6.660  12.160  66.963  1.00  0.00    -0.081 C  
BRANCH  16  17
HETATM   17  C   UNL     1      -7.397  12.248  68.294  1.00  0.00    -0.108 C  
BRANCH  17  18
HETATM   18  C   UNL     1      -6.451  11.964  69.457  1.00  0.00    -0.113 C  
HETATM   19  O   UNL     1      -5.941  10.397  71.171  1.00  0.00    -0.281 OA 
HETATM   20  C   UNL     1      -6.777  10.658  70.139  1.00  0.00    -0.140 C  
HETATM   21  O   UNL     1      -7.682   9.901  69.826  1.00  0.00    -0.119 OA 
ENDBRANCH  17  18
ENDBRANCH  16  17
ENDBRANCH  15  16
ENDBRANCH  14  15
ENDBRANCH  13  14
ENDBRANCH   5  13
BRANCH   6  22
HETATM   22  C   UNL     1     -11.144  14.911  65.842  1.00  0.00    -0.338 C  
HETATM   23  F   UNL     1     -11.840  15.686  64.955  1.00  0.00    -0.241 F  
HETATM   24  F   UNL     1     -11.574  15.290  67.080  1.00  0.00    -0.323 F  
BRANCH  22  25
HETATM   25  C   UNL     1      -9.661  15.228  65.701  1.00  0.00    -0.313 C  
BRANCH  25  26
HETATM   26  C   UNL     1      -9.016  15.466  67.068  1.00  0.00    -0.253 C  
BRANCH  26  27
HETATM   27  C   UNL     1      -7.935  16.540  66.986  1.00  0.00    -0.239 C  
HETATM   28  C   UNL     1      -6.786  16.240  67.933  1.00  0.00    -0.152 C  
ENDBRANCH  26  27
ENDBRANCH  25  26
ENDBRANCH  22  25
ENDBRANCH   6  22
TORSDOF 10
ENDMDL
MODEL      151
REMARK 921   NORMALIZED FREE ENERGY PREDICTED BY IDOCK:   -4.49 KCAL/MOL
REMARK 922        TOTAL FREE ENERGY PREDICTED BY IDOCK:   -8.89 KCAL/MOL
REMARK 923 INTER-LIGAND FREE ENERGY PREDICTED BY IDOCK:   -6.81 KCAL/MOL
REMARK 924 INTRA-LIGAND FREE ENERGY PREDICTED BY IDOCK:   -2.08 KCAL/MOL
REMARK 927      BINDING AFFINITY PREDICTED BY RF-SCORE:    0.00 PKD
ROOT
HETATM    1  C   UNL     1      -9.526  16.888  67.702  1.00  0.00    -0.241 C  
HETATM    2  C   UNL     1      -8.623  17.726  66.817  1.00  0.00    -0.272 C  
HETATM    3  C   UNL     1      -7.475  17.991  67.758  1.00  0.00    -0.211 C  
HETATM    4  O   UNL     1      -6.674  18.899  67.576  1.00  0.00    -0.199 OA 
HETATM    5  C   UNL     1      -7.452  17.037  68.951  1.00  0.00    -0.237 C  
HETATM    6  C   UNL     1     -11.131  15.111  67.776  1.00  0.00    -0.313 C  
HETATM    7  C   UNL     1      -8.561  16.071  68.541  1.00  0.00    -0.190 C  
HETATM    8  C   UNL     1      -9.358  15.403  69.645  1.00  0.00    -0.208 C  
HETATM    9  O   UNL     1     -10.324  15.984  66.962  1.00  0.00    -0.281 OA 
HETATM   10  C   UNL     1     -10.365  14.468  68.970  1.00  0.00    -0.227 C  
HETATM   11  O   UNL     1     -12.235  15.881  68.270  1.00  0.00    -0.313 OA 
HETATM   12  H   UNL     1     -12.702  16.274  67.541  1.00  0.00     0.000 HD 
ENDROOT
BRANCH   5  13
HETATM   13  C   UNL     1      -6.145  16.260  69.116  1.00  0.00    -0.154 C  
BRANCH  13  14
HETATM   14  C   UNL     1      -5.937  15.167  68.078  1.00  0.00    -0.159 C  
BRANCH  14  15
HETATM   15  C   UNL     1      -6.146  13.786  68.695  1.00  0.00    -0.088 C  
BRANCH  15  16
HETATM   16  C   UNL     1      -6.525  12.780  67.613  1.00  0.00    -0.152 C  
BRANCH  16  17
HETATM   17  C   UNL     1      -7.982  12.351  67.744  1.00  0.00    -0.156 C  
BRANCH  17  18
HETATM   18  C   UNL     1      -8.089  11.006  68.457  1.00  0.00    -0.140 C  
HETATM   19  O   UNL     1      -9.167   8.888  68.397  1.00  0.00    -0.140 OA 
HETATM   20  C   UNL     1      -9.068  10.084  67.772  1.00  0.00    -0.131 C  
HETATM   21  O   UNL     1      -9.714  10.353  66.772  1.00  0.00    -0.170 OA 
ENDBRANCH  17  18
ENDBRANCH  16  17
ENDBRANCH  15  16
ENDBRANCH  14  15
ENDBRANCH  13  14
ENDBRANCH   5  13
BRANCH   6  22
HETATM   22  C   UNL     1     -11.646  13.955  66.859  1.00  0.00    -0.378 C  
HETATM   23  F   UNL     1     -11.621  12.783  67.563  1.00  0.00    -0.307 F  
HETATM   24  F   UNL     1     -12.956  14.169  66.544  1.00  0.00    -0.347 F  
BRANCH  22  25
HETATM   25  C   UNL     1     -10.841  13.768  65.579  1.00  0.00    -0.299 C  
BRANCH  25  26
HETATM   26  C   UNL     1     -11.761  13.645  64.362  1.00  0.00    -0.444 C  
BRANCH  26  27
HETATM   27  C   UNL     1     -11.915  12.189  63.933  1.00  0.00    -0.581 C  
HETATM   28  C   UNL     1     -10.615  11.639  63.372  1.00  0.00    -0.472 C  
ENDBRANCH  26  27
ENDBRANCH  25  26
ENDBRANCH  22  25
ENDBRANCH   6  22
TORSDOF 10
ENDMDL
MODEL      152
REMARK 921   NORMALIZED FREE ENERGY PREDICTED BY IDOCK:   -4.49 KCAL/MOL
REMARK 922        TOTAL FREE ENERGY PREDICTED BY IDOCK:   -8.89 KCAL/MOL
REMARK 923 INTER-LIGAND FREE ENERGY PREDICTED BY IDOCK:   -7.11 KCAL/MOL
REMARK 924 INTRA-LIGAND FREE ENERGY PREDICTED BY IDOCK:   -1.78 KCAL/MOL
REMARK 927      BINDING AFFINITY PREDICTED BY RF-SCORE:    0.00 PKD
ROOT
HETATM    1  C   UNL     1     -11.821  12.955  69.338  1.00  0.00    -0.312 C  
HETATM    2  C   UNL     1     -12.104  13.577  70.692  1.00  0.00    -0.386 C  
HETATM    3  C   UNL     1     -12.902  12.478  71.345  1.00  0.00    -0.260 C  
HETATM    4  O   UNL     1     -13.615  12.676  72.320  1.00  0.00    -0.547 OA 
HETATM    5  C   UNL     1     -12.742  11.130  70.644  1.00  0.00    -0.350 C  
HETATM    6  C   UNL     1     -10.270  12.788  67.519  1.00  0.00    -0.216 C  
HETATM    7  C   UNL     1     -11.643  11.478  69.644  1.00  0.00    -0.403 C  
HETATM    8  C   UNL     1     -11.627  10.731  68.324  1.00  0.00    -0.297 C  
HETATM    9  O   UNL     1     -10.615  13.424  68.766  1.00  0.00    -0.245 OA 
HETATM   10  C   UNL     1     -10.417  11.238  67.534  1.00  0.00    -0.234 C  
HETATM   11  O   UNL     1     -11.117  13.343  66.505  1.00  0.00    -0.291 OA 
HETATM   12  H   UNL     1     -11.028  14.289  66.495  1.00  0.00     0.000 HD 
ENDROOT
BRANCH   5  13
HETATM   13  C   UNL     1     -12.256   9.997  71.550  1.00  0.00    -0.496 C  
BRANCH  13  14
HETATM   14  C   UNL     1     -13.197   8.802  71.606  1.00  0.00    -0.399 C  
BRANCH  14  15
HETATM   15  C   UNL     1     -12.439   7.503  71.344  1.00  0.00    -0.382 C  
BRANCH  15  16
HETATM   16  C   UNL     1     -11.086   7.805  70.707  1.00  0.00    -0.265 C  
BRANCH  16  17
HETATM   17  C   UNL     1     -10.891   7.010  69.421  1.00  0.00    -0.253 C  
BRANCH  17  18
HETATM   18  C   UNL     1      -9.511   7.273  68.826  1.00  0.00    -0.142 C  
HETATM   19  O   UNL     1      -8.367   7.827  66.817  1.00  0.00    -0.119 OA 
HETATM   20  C   UNL     1      -9.587   7.591  67.353  1.00  0.00    -0.149 C  
HETATM   21  O   UNL     1     -10.610   7.636  66.689  1.00  0.00    -0.274 OA 
ENDBRANCH  17  18
ENDBRANCH  16  17
ENDBRANCH  15  16
ENDBRANCH  14  15
ENDBRANCH  13  14
ENDBRANCH   5  13
BRANCH   6  22
HETATM   22  C   UNL     1      -8.774  13.125  67.217  1.00  0.00    -0.210 C  
HETATM   23  F   UNL     1      -8.253  12.151  66.409  1.00  0.00    -0.126 F  
HETATM   24  F   UNL     1      -8.700  14.281  66.498  1.00  0.00    -0.236 F  
BRANCH  22  25
HETATM   25  C   UNL     1      -7.898  13.243  68.458  1.00  0.00    -0.110 C  
BRANCH  25  26
HETATM   26  C   UNL     1      -7.767  14.700  68.904  1.00  0.00    -0.141 C  
BRANCH  26  27
HETATM   27  C   UNL     1      -6.595  14.879  69.865  1.00  0.00    -0.175 C  
HETATM   28  C   UNL     1      -6.137  13.547  70.431  1.00  0.00    -0.092 C  
ENDBRANCH  26  27
ENDBRANCH  25  26
ENDBRANCH  22  25
ENDBRANCH   6  22
TORSDOF 10
ENDMDL
MODEL      153
REMARK 921   NORMALIZED FREE ENERGY PREDICTED BY IDOCK:   -4.46 KCAL/MOL
REMARK 922        TOTAL FREE ENERGY PREDICTED BY IDOCK:   -8.84 KCAL/MOL
REMARK 923 INTER-LIGAND FREE ENERGY PREDICTED BY IDOCK:   -7.47 KCAL/MOL
REMARK 924 INTRA-LIGAND FREE ENERGY PREDICTED BY IDOCK:   -1.38 KCAL/MOL
REMARK 927      BINDING AFFINITY PREDICTED BY RF-SCORE:    0.00 PKD
ROOT
HETATM    1  C   UNL     1      -9.651  11.146  69.317  1.00  0.00     0.091 C  
HETATM    2  C   UNL     1      -8.735   9.962  69.074  1.00  0.00    -0.151 C  
HETATM    3  C   UNL     1      -9.191   9.025  70.163  1.00  0.00    -0.192 C  
HETATM    4  O   UNL     1      -8.508   8.085  70.549  1.00  0.00    -0.121 OA 
HETATM    5  C   UNL     1     -10.557   9.399  70.735  1.00  0.00    -0.371 C  
HETATM    6  C   UNL     1     -10.853  12.960  68.314  1.00  0.00    -0.242 C  
HETATM    7  C   UNL     1     -10.954  10.513  69.770  1.00  0.00    -0.350 C  
HETATM    8  C   UNL     1     -11.847  11.620  70.299  1.00  0.00    -0.414 C  
HETATM    9  O   UNL     1      -9.916  11.879  68.137  1.00  0.00    -0.185 OA 
HETATM   10  C   UNL     1     -12.121  12.573  69.132  1.00  0.00    -0.187 C  
HETATM   11  O   UNL     1     -10.160  14.026  68.974  1.00  0.00    -0.386 OA 
HETATM   12  H   UNL     1      -9.386  14.262  68.475  1.00  0.00     0.000 HD 
ENDROOT
BRANCH   5  13
HETATM   13  C   UNL     1     -11.600   8.281  70.668  1.00  0.00    -0.199 C  
BRANCH  13  14
HETATM   14  C   UNL     1     -11.926   7.656  72.017  1.00  0.00    -0.341 C  
BRANCH  14  15
HETATM   15  C   UNL     1     -11.277   6.280  72.148  1.00  0.00    -0.326 C  
BRANCH  15  16
HETATM   16  C   UNL     1     -10.911   5.740  70.770  1.00  0.00    -0.330 C  
BRANCH  16  17
HETATM   17  C   UNL     1      -9.889   4.613  70.871  1.00  0.00    -0.272 C  
BRANCH  17  18
HETATM   18  C   UNL     1      -8.780   4.793  69.839  1.00  0.00    -0.113 C  
HETATM   19  O   UNL     1      -7.931   3.964  67.779  1.00  0.00    -0.087 OA 
HETATM   20  C   UNL     1      -8.910   3.810  68.700  1.00  0.00    -0.111 C  
HETATM   21  O   UNL     1      -9.781   2.961  68.592  1.00  0.00    -0.085 OA 
ENDBRANCH  17  18
ENDBRANCH  16  17
ENDBRANCH  15  16
ENDBRANCH  14  15
ENDBRANCH  13  14
ENDBRANCH   5  13
BRANCH   6  22
HETATM   22  C   UNL     1     -11.321  13.415  66.894  1.00  0.00    -0.323 C  
HETATM   23  F   UNL     1     -12.349  14.308  67.028  1.00  0.00    -0.442 F  
HETATM   24  F   UNL     1     -10.315  14.100  66.279  1.00  0.00    -0.269 F  
BRANCH  22  25
HETATM   25  C   UNL     1     -11.784  12.277  65.994  1.00  0.00    -0.451 C  
BRANCH  25  26
HETATM   26  C   UNL     1     -12.556  12.809  64.785  1.00  0.00    -0.518 C  
BRANCH  26  27
HETATM   27  C   UNL     1     -11.706  12.750  63.519  1.00  0.00    -0.597 C  
HETATM   28  C   UNL     1     -10.601  11.716  63.644  1.00  0.00    -0.493 C  
ENDBRANCH  26  27
ENDBRANCH  25  26
ENDBRANCH  22  25
ENDBRANCH   6  22
TORSDOF 10
ENDMDL
MODEL      154
REMARK 921   NORMALIZED FREE ENERGY PREDICTED BY IDOCK:   -4.45 KCAL/MOL
REMARK 922        TOTAL FREE ENERGY PREDICTED BY IDOCK:   -8.82 KCAL/MOL
REMARK 923 INTER-LIGAND FREE ENERGY PREDICTED BY IDOCK:   -7.80 KCAL/MOL
REMARK 924 INTRA-LIGAND FREE ENERGY PREDICTED BY IDOCK:   -1.02 KCAL/MOL
REMARK 927      BINDING AFFINITY PREDICTED BY RF-SCORE:    0.00 PKD
ROOT
HETATM    1  C   UNL     1     -10.770  10.987  64.693  1.00  0.00    -0.248 C  
HETATM    2  C   UNL     1     -10.831  11.896  63.480  1.00  0.00    -0.502 C  
HETATM    3  C   UNL     1     -11.908  12.861  63.905  1.00  0.00    -0.473 C  
HETATM    4  O   UNL     1     -12.514  13.563  63.106  1.00  0.00    -0.759 OA 
HETATM    5  C   UNL     1     -12.170  12.834  65.410  1.00  0.00    -0.532 C  
HETATM    6  C   UNL     1      -9.371   9.616  66.072  1.00  0.00    -0.207 C  
HETATM    7  C   UNL     1     -11.035  11.919  65.862  1.00  0.00    -0.354 C  
HETATM    8  C   UNL     1     -11.265  11.063  67.093  1.00  0.00    -0.290 C  
HETATM    9  O   UNL     1      -9.489  10.416  64.879  1.00  0.00    -0.217 OA 
HETATM   10  C   UNL     1      -9.973  10.281  67.345  1.00  0.00    -0.230 C  
HETATM   11  O   UNL     1     -10.032   8.369  65.820  1.00  0.00    -0.427 OA 
HETATM   12  H   UNL     1      -9.664   7.963  65.044  1.00  0.00     0.000 HD 
ENDROOT
BRANCH   5  13
HETATM   13  C   UNL     1     -12.028  14.190  66.103  1.00  0.00    -0.437 C  
BRANCH  13  14
HETATM   14  C   UNL     1     -11.069  15.145  65.406  1.00  0.00    -0.371 C  
BRANCH  14  15
HETATM   15  C   UNL     1      -9.704  15.138  66.092  1.00  0.00    -0.338 C  
BRANCH  15  16
HETATM   16  C   UNL     1      -9.683  16.156  67.228  1.00  0.00    -0.233 C  
BRANCH  16  17
HETATM   17  C   UNL     1      -8.530  17.140  67.067  1.00  0.00    -0.233 C  
BRANCH  17  18
HETATM   18  C   UNL     1      -8.817  18.437  67.818  1.00  0.00    -0.289 C  
HETATM   19  O   UNL     1      -9.260  20.755  67.532  1.00  0.00    -0.325 OA 
HETATM   20  C   UNL     1      -9.004  19.601  66.875  1.00  0.00    -0.331 C  
HETATM   21  O   UNL     1      -8.935  19.545  65.657  1.00  0.00    -0.322 OA 
ENDBRANCH  17  18
ENDBRANCH  16  17
ENDBRANCH  15  16
ENDBRANCH  14  15
ENDBRANCH  13  14
ENDBRANCH   5  13
BRANCH   6  22
HETATM   22  C   UNL     1      -7.847   9.378  66.330  1.00  0.00    -0.100 C  
HETATM   23  F   UNL     1      -7.518   9.894  67.554  1.00  0.00    -0.088 F  
HETATM   24  F   UNL     1      -7.601   8.040  66.414  1.00  0.00    -0.084 F  
BRANCH  22  25
HETATM   25  C   UNL     1      -6.932   9.998  65.282  1.00  0.00    -0.132 C  
BRANCH  25  26
HETATM   26  C   UNL     1      -5.805   9.038  64.897  1.00  0.00    -0.063 C  
BRANCH  26  27
HETATM   27  C   UNL     1      -5.466   9.153  63.414  1.00  0.00    -0.067 C  
HETATM   28  C   UNL     1      -5.824  10.525  62.871  1.00  0.00    -0.145 C  
ENDBRANCH  26  27
ENDBRANCH  25  26
ENDBRANCH  22  25
ENDBRANCH   6  22
TORSDOF 10
ENDMDL
MODEL      155
REMARK 921   NORMALIZED FREE ENERGY PREDICTED BY IDOCK:   -4.45 KCAL/MOL
REMARK 922        TOTAL FREE ENERGY PREDICTED BY IDOCK:   -8.82 KCAL/MOL
REMARK 923 INTER-LIGAND FREE ENERGY PREDICTED BY IDOCK:   -7.40 KCAL/MOL
REMARK 924 INTRA-LIGAND FREE ENERGY PREDICTED BY IDOCK:   -1.42 KCAL/MOL
REMARK 927      BINDING AFFINITY PREDICTED BY RF-SCORE:    0.00 PKD
ROOT
HETATM    1  C   UNL     1      -8.948   9.398  65.565  1.00  0.00    -0.204 C  
HETATM    2  C   UNL     1      -8.473   8.283  64.653  1.00  0.00    -0.069 C  
HETATM    3  C   UNL     1      -8.459   7.121  65.613  1.00  0.00    -0.134 C  
HETATM    4  O   UNL     1      -7.829   6.095  65.392  1.00  0.00    -0.094 OA 
HETATM    5  C   UNL     1      -9.277   7.383  66.876  1.00  0.00    -0.183 C  
HETATM    6  C   UNL     1     -10.196  11.438  65.717  1.00  0.00    -0.248 C  
HETATM    7  C   UNL     1      -9.928   8.713  66.501  1.00  0.00    -0.353 C  
HETATM    8  C   UNL     1     -10.252   9.681  67.623  1.00  0.00    -0.267 C  
HETATM    9  O   UNL     1      -9.654  10.406  64.868  1.00  0.00    -0.238 OA 
HETATM   10  C   UNL     1     -10.923  10.900  66.985  1.00  0.00    -0.310 C  
HETATM   11  O   UNL     1      -9.110  12.288  66.107  1.00  0.00    -0.367 OA 
HETATM   12  H   UNL     1      -8.666  12.616  65.334  1.00  0.00     0.000 HD 
ENDROOT
BRANCH   5  13
HETATM   13  C   UNL     1     -10.370   6.349  67.150  1.00  0.00    -0.293 C  
BRANCH  13  14
HETATM   14  C   UNL     1      -9.892   5.136  67.937  1.00  0.00    -0.199 C  
BRANCH  14  15
HETATM   15  C   UNL     1     -10.008   5.386  69.439  1.00  0.00    -0.280 C  
BRANCH  15  16
HETATM   16  C   UNL     1     -11.274   6.180  69.743  1.00  0.00    -0.494 C  
BRANCH  16  17
HETATM   17  C   UNL     1     -11.060   7.136  70.911  1.00  0.00    -0.290 C  
BRANCH  17  18
HETATM   18  C   UNL     1      -9.845   6.721  71.735  1.00  0.00    -0.170 C  
HETATM   19  O   UNL     1      -9.159   5.470  73.637  1.00  0.00    -0.125 OA 
HETATM   20  C   UNL     1     -10.231   5.845  72.901  1.00  0.00    -0.191 C  
HETATM   21  O   UNL     1     -11.368   5.496  73.181  1.00  0.00    -0.286 OA 
ENDBRANCH  17  18
ENDBRANCH  16  17
ENDBRANCH  15  16
ENDBRANCH  14  15
ENDBRANCH  13  14
ENDBRANCH   5  13
BRANCH   6  22
HETATM   22  C   UNL     1     -11.237  12.243  64.873  1.00  0.00    -0.319 C  
HETATM   23  F   UNL     1     -10.588  13.245  64.204  1.00  0.00    -0.387 F  
HETATM   24  F   UNL     1     -11.766  11.437  63.909  1.00  0.00    -0.438 F  
BRANCH  22  25
HETATM   25  C   UNL     1     -12.362  12.860  65.693  1.00  0.00    -0.482 C  
BRANCH  25  26
HETATM   26  C   UNL     1     -12.086  14.336  65.986  1.00  0.00    -0.423 C  
BRANCH  26  27
HETATM   27  C   UNL     1     -11.339  14.505  67.306  1.00  0.00    -0.363 C  
HETATM   28  C   UNL     1     -11.324  15.958  67.749  1.00  0.00    -0.199 C  
ENDBRANCH  26  27
ENDBRANCH  25  26
ENDBRANCH  22  25
ENDBRANCH   6  22
TORSDOF 10
ENDMDL
MODEL      156
REMARK 921   NORMALIZED FREE ENERGY PREDICTED BY IDOCK:   -4.44 KCAL/MOL
REMARK 922        TOTAL FREE ENERGY PREDICTED BY IDOCK:   -8.82 KCAL/MOL
REMARK 923 INTER-LIGAND FREE ENERGY PREDICTED BY IDOCK:   -7.01 KCAL/MOL
REMARK 924 INTRA-LIGAND FREE ENERGY PREDICTED BY IDOCK:   -1.81 KCAL/MOL
REMARK 927      BINDING AFFINITY PREDICTED BY RF-SCORE:    0.00 PKD
ROOT
HETATM    1  C   UNL     1     -11.817  12.105  69.575  1.00  0.00    -0.321 C  
HETATM    2  C   UNL     1     -11.689  10.946  70.544  1.00  0.00    -0.441 C  
HETATM    3  C   UNL     1     -11.277   9.839  69.607  1.00  0.00    -0.178 C  
HETATM    4  O   UNL     1     -11.381   8.656  69.902  1.00  0.00    -0.119 OA 
HETATM    5  C   UNL     1     -10.756  10.358  68.268  1.00  0.00    -0.275 C  
HETATM    6  C   UNL     1     -11.590  14.471  69.275  1.00  0.00    -0.302 C  
HETATM    7  C   UNL     1     -10.716  11.856  68.560  1.00  0.00    -0.254 C  
HETATM    8  C   UNL     1     -10.933  12.808  67.399  1.00  0.00    -0.285 C  
HETATM    9  O   UNL     1     -11.563  13.355  70.187  1.00  0.00    -0.220 OA 
HETATM   10  C   UNL     1     -10.805  14.229  67.952  1.00  0.00    -0.260 C  
HETATM   11  O   UNL     1     -12.963  14.751  68.978  1.00  0.00    -0.084 OA 
HETATM   12  H   UNL     1     -13.442  14.899  69.786  1.00  0.00     0.000 HD 
ENDROOT
BRANCH   5  13
HETATM   13  C   UNL     1      -9.349   9.879  67.906  1.00  0.00    -0.149 C  
BRANCH  13  14
HETATM   14  C   UNL     1      -8.384   9.843  69.082  1.00  0.00    -0.145 C  
BRANCH  14  15
HETATM   15  C   UNL     1      -7.234  10.824  68.870  1.00  0.00    -0.088 C  
BRANCH  15  16
HETATM   16  C   UNL     1      -7.297  11.410  67.463  1.00  0.00    -0.112 C  
BRANCH  16  17
HETATM   17  C   UNL     1      -6.645  12.787  67.407  1.00  0.00    -0.140 C  
BRANCH  17  18
HETATM   18  C   UNL     1      -7.468  13.809  68.185  1.00  0.00    -0.124 C  
HETATM   19  O   UNL     1      -7.739  16.135  68.595  1.00  0.00    -0.164 OA 
HETATM   20  C   UNL     1      -7.013  15.221  67.910  1.00  0.00    -0.146 C  
HETATM   21  O   UNL     1      -6.099  15.540  67.166  1.00  0.00    -0.319 OA 
ENDBRANCH  17  18
ENDBRANCH  16  17
ENDBRANCH  15  16
ENDBRANCH  14  15
ENDBRANCH  13  14
ENDBRANCH   5  13
BRANCH   6  22
HETATM   22  C   UNL     1     -10.935  15.690  70.004  1.00  0.00    -0.327 C  
HETATM   23  F   UNL     1      -9.715  15.312  70.495  1.00  0.00    -0.138 F  
HETATM   24  F   UNL     1     -10.680  16.679  69.102  1.00  0.00    -0.273 F  
BRANCH  22  25
HETATM   25  C   UNL     1     -11.765  16.250  71.152  1.00  0.00    -0.353 C  
BRANCH  25  26
HETATM   26  C   UNL     1     -11.546  15.445  72.435  1.00  0.00    -0.545 C  
BRANCH  26  27
HETATM   27  C   UNL     1     -12.864  15.209  73.168  1.00  0.00    -0.606 C  
HETATM   28  C   UNL     1     -13.730  14.201  72.435  1.00  0.00    -0.645 C  
ENDBRANCH  26  27
ENDBRANCH  25  26
ENDBRANCH  22  25
ENDBRANCH   6  22
TORSDOF 10
ENDMDL
MODEL      157
REMARK 921   NORMALIZED FREE ENERGY PREDICTED BY IDOCK:   -4.43 KCAL/MOL
REMARK 922        TOTAL FREE ENERGY PREDICTED BY IDOCK:   -8.80 KCAL/MOL
REMARK 923 INTER-LIGAND FREE ENERGY PREDICTED BY IDOCK:   -7.33 KCAL/MOL
REMARK 924 INTRA-LIGAND FREE ENERGY PREDICTED BY IDOCK:   -1.47 KCAL/MOL
REMARK 927      BINDING AFFINITY PREDICTED BY RF-SCORE:    0.00 PKD
ROOT
HETATM    1  C   UNL     1      -9.416  10.323  69.073  1.00  0.00    -0.200 C  
HETATM    2  C   UNL     1      -8.559   9.143  68.655  1.00  0.00    -0.128 C  
HETATM    3  C   UNL     1      -8.995   8.108  69.660  1.00  0.00    -0.154 C  
HETATM    4  O   UNL     1      -8.331   7.110  69.906  1.00  0.00    -0.131 OA 
HETATM    5  C   UNL     1     -10.317   8.461  70.341  1.00  0.00    -0.219 C  
HETATM    6  C   UNL     1     -10.596  12.273  68.337  1.00  0.00    -0.235 C  
HETATM    7  C   UNL     1     -10.718   9.687  69.525  1.00  0.00    -0.252 C  
HETATM    8  C   UNL     1     -11.541  10.757  70.216  1.00  0.00    -0.427 C  
HETATM    9  O   UNL     1      -9.711  11.188  67.994  1.00  0.00    -0.167 OA 
HETATM   10  C   UNL     1     -11.835  11.841  69.175  1.00  0.00    -0.389 C  
HETATM   11  O   UNL     1      -9.830  13.238  69.069  1.00  0.00    -0.418 OA 
HETATM   12  H   UNL     1      -9.074  13.502  68.557  1.00  0.00     0.000 HD 
ENDROOT
BRANCH   5  13
HETATM   13  C   UNL     1     -11.403   7.392  70.211  1.00  0.00    -0.244 C  
BRANCH  13  14
HETATM   14  C   UNL     1     -12.294   7.260  71.439  1.00  0.00    -0.403 C  
BRANCH  14  15
HETATM   15  C   UNL     1     -11.899   6.039  72.265  1.00  0.00    -0.305 C  
BRANCH  15  16
HETATM   16  C   UNL     1     -10.683   6.361  73.128  1.00  0.00    -0.294 C  
BRANCH  16  17
HETATM   17  C   UNL     1      -9.564   5.348  72.908  1.00  0.00    -0.158 C  
BRANCH  17  18
HETATM   18  C   UNL     1     -10.002   4.262  71.930  1.00  0.00    -0.255 C  
HETATM   19  O   UNL     1      -9.209   2.708  70.315  1.00  0.00    -0.108 OA 
HETATM   20  C   UNL     1      -8.829   3.674  71.184  1.00  0.00    -0.082 C  
HETATM   21  O   UNL     1      -7.663   4.008  71.320  1.00  0.00    -0.063 OA 
ENDBRANCH  17  18
ENDBRANCH  16  17
ENDBRANCH  15  16
ENDBRANCH  14  15
ENDBRANCH  13  14
ENDBRANCH   5  13
BRANCH   6  22
HETATM   22  C   UNL     1     -11.116  12.896  67.000  1.00  0.00    -0.275 C  
HETATM   23  F   UNL     1     -12.483  12.856  66.993  1.00  0.00    -0.312 F  
HETATM   24  F   UNL     1     -10.784  14.218  66.952  1.00  0.00    -0.279 F  
BRANCH  22  25
HETATM   25  C   UNL     1     -10.605  12.199  65.746  1.00  0.00    -0.295 C  
BRANCH  25  26
HETATM   26  C   UNL     1     -10.512  13.176  64.572  1.00  0.00    -0.425 C  
BRANCH  26  27
HETATM   27  C   UNL     1     -11.888  13.443  63.968  1.00  0.00    -0.498 C  
HETATM   28  C   UNL     1     -12.544  12.156  63.499  1.00  0.00    -0.621 C  
ENDBRANCH  26  27
ENDBRANCH  25  26
ENDBRANCH  22  25
ENDBRANCH   6  22
TORSDOF 10
ENDMDL
MODEL      158
REMARK 921   NORMALIZED FREE ENERGY PREDICTED BY IDOCK:   -4.43 KCAL/MOL
REMARK 922        TOTAL FREE ENERGY PREDICTED BY IDOCK:   -8.79 KCAL/MOL
REMARK 923 INTER-LIGAND FREE ENERGY PREDICTED BY IDOCK:   -6.94 KCAL/MOL
REMARK 924 INTRA-LIGAND FREE ENERGY PREDICTED BY IDOCK:   -1.85 KCAL/MOL
REMARK 927      BINDING AFFINITY PREDICTED BY RF-SCORE:    0.00 PKD
ROOT
HETATM    1  C   UNL     1     -11.032   7.049  73.147  1.00  0.00    -0.281 C  
HETATM    2  C   UNL     1      -9.772   7.021  73.991  1.00  0.00    -0.332 C  
HETATM    3  C   UNL     1      -9.220   5.667  73.628  1.00  0.00    -0.130 C  
HETATM    4  O   UNL     1      -8.389   5.090  74.318  1.00  0.00    -0.105 OA 
HETATM    5  C   UNL     1      -9.828   5.102  72.346  1.00  0.00    -0.208 C  
HETATM    6  C   UNL     1     -12.552   8.420  71.902  1.00  0.00    -0.349 C  
HETATM    7  C   UNL     1     -10.641   6.308  71.882  1.00  0.00    -0.258 C  
HETATM    8  C   UNL     1     -11.907   6.044  71.089  1.00  0.00     0.028 C  
HETATM    9  O   UNL     1     -11.408   8.362  72.778  1.00  0.00    -0.346 OA 
HETATM   10  C   UNL     1     -12.499   7.406  70.720  1.00  0.00    -0.130 C  
HETATM   11  O   UNL     1     -13.717   8.172  72.699  1.00  0.00    -0.555 OA 
HETATM   12  H   UNL     1     -13.749   8.790  73.420  1.00  0.00     0.000 HD 
ENDROOT
BRANCH   5  13
HETATM   13  C   UNL     1      -8.808   4.737  71.266  1.00  0.00    -0.153 C  
BRANCH  13  14
HETATM   14  C   UNL     1      -9.398   4.629  69.867  1.00  0.00    -0.214 C  
BRANCH  14  15
HETATM   15  C   UNL     1      -8.558   5.414  68.862  1.00  0.00    -0.099 C  
BRANCH  15  16
HETATM   16  C   UNL     1      -9.354   6.598  68.325  1.00  0.00    -0.119 C  
BRANCH  16  17
HETATM   17  C   UNL     1      -8.685   7.922  68.679  1.00  0.00    -0.128 C  
BRANCH  17  18
HETATM   18  C   UNL     1      -8.111   7.877  70.092  1.00  0.00    -0.116 C  
HETATM   19  O   UNL     1      -7.292   9.228  71.868  1.00  0.00    -0.327 OA 
HETATM   20  C   UNL     1      -7.800   9.258  70.614  1.00  0.00    -0.158 C  
HETATM   21  O   UNL     1      -7.971  10.302  70.005  1.00  0.00    -0.148 OA 
ENDBRANCH  17  18
ENDBRANCH  16  17
ENDBRANCH  15  16
ENDBRANCH  14  15
ENDBRANCH  13  14
ENDBRANCH   5  13
BRANCH   6  22
HETATM   22  C   UNL     1     -12.608   9.860  71.296  1.00  0.00    -0.381 C  
HETATM   23  F   UNL     1     -13.772  10.001  70.591  1.00  0.00    -0.396 F  
HETATM   24  F   UNL     1     -12.671  10.778  72.302  1.00  0.00    -0.439 F  
BRANCH  22  25
HETATM   25  C   UNL     1     -11.441  10.196  70.375  1.00  0.00    -0.400 C  
BRANCH  25  26
HETATM   26  C   UNL     1     -11.760  11.411  69.502  1.00  0.00    -0.417 C  
BRANCH  26  27
HETATM   27  C   UNL     1     -11.458  11.128  68.033  1.00  0.00    -0.366 C  
HETATM   28  C   UNL     1     -11.690  12.360  67.176  1.00  0.00    -0.415 C  
ENDBRANCH  26  27
ENDBRANCH  25  26
ENDBRANCH  22  25
ENDBRANCH   6  22
TORSDOF 10
ENDMDL
MODEL      159
REMARK 921   NORMALIZED FREE ENERGY PREDICTED BY IDOCK:   -4.41 KCAL/MOL
REMARK 922        TOTAL FREE ENERGY PREDICTED BY IDOCK:   -8.76 KCAL/MOL
REMARK 923 INTER-LIGAND FREE ENERGY PREDICTED BY IDOCK:   -7.44 KCAL/MOL
REMARK 924 INTRA-LIGAND FREE ENERGY PREDICTED BY IDOCK:   -1.32 KCAL/MOL
REMARK 927      BINDING AFFINITY PREDICTED BY RF-SCORE:    0.00 PKD
ROOT
HETATM    1  C   UNL     1      -8.756   9.161  68.374  1.00  0.00    -0.129 C  
HETATM    2  C   UNL     1      -8.252  10.380  69.123  1.00  0.00    -0.157 C  
HETATM    3  C   UNL     1      -8.739  11.486  68.222  1.00  0.00    -0.162 C  
HETATM    4  O   UNL     1      -8.277  12.618  68.263  1.00  0.00    -0.159 OA 
HETATM    5  C   UNL     1      -9.829  11.027  67.254  1.00  0.00    -0.204 C  
HETATM    6  C   UNL     1      -9.587   6.922  68.564  1.00  0.00    -0.131 C  
HETATM    7  C   UNL     1     -10.078   9.617  67.782  1.00  0.00    -0.232 C  
HETATM    8  C   UNL     1     -10.530   8.561  66.791  1.00  0.00    -0.308 C  
HETATM    9  O   UNL     1      -9.023   8.069  69.232  1.00  0.00    -0.147 OA 
HETATM   10  C   UNL     1     -10.743   7.266  67.579  1.00  0.00    -0.326 C  
HETATM   11  O   UNL     1      -8.525   6.272  67.855  1.00  0.00    -0.117 OA 
HETATM   12  H   UNL     1      -7.820   6.062  68.456  1.00  0.00     0.000 HD 
ENDROOT
BRANCH   5  13
HETATM   13  C   UNL     1     -11.128  11.831  67.334  1.00  0.00    -0.338 C  
BRANCH  13  14
HETATM   14  C   UNL     1     -11.215  12.970  66.327  1.00  0.00    -0.332 C  
BRANCH  14  15
HETATM   15  C   UNL     1     -11.891  14.190  66.948  1.00  0.00    -0.458 C  
BRANCH  15  16
HETATM   16  C   UNL     1     -10.909  14.932  67.848  1.00  0.00    -0.276 C  
BRANCH  16  17
HETATM   17  C   UNL     1     -11.104  16.442  67.754  1.00  0.00    -0.199 C  
BRANCH  17  18
HETATM   18  C   UNL     1     -10.129  17.052  66.752  1.00  0.00    -0.300 C  
HETATM   19  O   UNL     1      -9.350  19.110  65.850  1.00  0.00    -0.433 OA 
HETATM   20  C   UNL     1     -10.213  18.559  66.736  1.00  0.00    -0.393 C  
HETATM   21  O   UNL     1     -10.962  19.235  67.423  1.00  0.00    -0.484 OA 
ENDBRANCH  17  18
ENDBRANCH  16  17
ENDBRANCH  15  16
ENDBRANCH  14  15
ENDBRANCH  13  14
ENDBRANCH   5  13
BRANCH   6  22
HETATM   22  C   UNL     1     -10.162   5.973  69.665  1.00  0.00    -0.208 C  
HETATM   23  F   UNL     1     -11.510   5.837  69.475  1.00  0.00    -0.442 F  
HETATM   24  F   UNL     1      -9.639   4.724  69.512  1.00  0.00    -0.170 F  
BRANCH  22  25
HETATM   25  C   UNL     1      -9.921   6.452  71.091  1.00  0.00    -0.203 C  
BRANCH  25  26
HETATM   26  C   UNL     1     -11.211   6.405  71.913  1.00  0.00    -0.325 C  
BRANCH  26  27
HETATM   27  C   UNL     1     -11.568   7.786  72.456  1.00  0.00    -0.422 C  
HETATM   28  C   UNL     1     -11.274   8.873  71.437  1.00  0.00    -0.382 C  
ENDBRANCH  26  27
ENDBRANCH  25  26
ENDBRANCH  22  25
ENDBRANCH   6  22
TORSDOF 10
ENDMDL
MODEL      160
REMARK 921   NORMALIZED FREE ENERGY PREDICTED BY IDOCK:   -4.40 KCAL/MOL
REMARK 922        TOTAL FREE ENERGY PREDICTED BY IDOCK:   -8.74 KCAL/MOL
REMARK 923 INTER-LIGAND FREE ENERGY PREDICTED BY IDOCK:   -7.30 KCAL/MOL
REMARK 924 INTRA-LIGAND FREE ENERGY PREDICTED BY IDOCK:   -1.44 KCAL/MOL
REMARK 927      BINDING AFFINITY PREDICTED BY RF-SCORE:    0.00 PKD
ROOT
HETATM    1  C   UNL     1     -11.102  14.486  65.772  1.00  0.00    -0.324 C  
HETATM    2  C   UNL     1     -12.568  14.186  65.525  1.00  0.00    -0.501 C  
HETATM    3  C   UNL     1     -12.503  12.715  65.201  1.00  0.00    -0.463 C  
HETATM    4  O   UNL     1     -13.408  12.132  64.618  1.00  0.00    -0.608 OA 
HETATM    5  C   UNL     1     -11.196  12.065  65.648  1.00  0.00    -0.377 C  
HETATM    6  C   UNL     1      -9.531  15.808  67.007  1.00  0.00    -0.223 C  
HETATM    7  C   UNL     1     -10.575  13.222  66.428  1.00  0.00    -0.288 C  
HETATM    8  C   UNL     1      -9.061  13.316  66.466  1.00  0.00    -0.130 C  
HETATM    9  O   UNL     1     -10.912  15.553  66.681  1.00  0.00    -0.312 OA 
HETATM   10  C   UNL     1      -8.708  14.526  67.334  1.00  0.00    -0.210 C  
HETATM   11  O   UNL     1      -8.944  16.486  65.889  1.00  0.00    -0.461 OA 
HETATM   12  H   UNL     1      -9.445  17.268  65.689  1.00  0.00     0.000 HD 
ENDROOT
BRANCH   5  13
HETATM   13  C   UNL     1     -11.369  10.866  66.582  1.00  0.00     0.079 C  
BRANCH  13  14
HETATM   14  C   UNL     1     -10.473   9.683  66.245  1.00  0.00    -0.149 C  
BRANCH  14  15
HETATM   15  C   UNL     1     -10.213   8.829  67.485  1.00  0.00    -0.309 C  
BRANCH  15  16
HETATM   16  C   UNL     1     -10.599   9.601  68.742  1.00  0.00    -0.242 C  
BRANCH  16  17
HETATM   17  C   UNL     1      -9.519   9.489  69.813  1.00  0.00    -0.228 C  
BRANCH  17  18
HETATM   18  C   UNL     1      -8.171   9.957  69.273  1.00  0.00    -0.138 C  
HETATM   19  O   UNL     1      -5.957   9.246  68.776  1.00  0.00    -0.043 OA 
HETATM   20  C   UNL     1      -7.156   8.840  69.255  1.00  0.00    -0.062 C  
HETATM   21  O   UNL     1      -7.357   7.693  69.624  1.00  0.00    -0.084 OA 
ENDBRANCH  17  18
ENDBRANCH  16  17
ENDBRANCH  15  16
ENDBRANCH  14  15
ENDBRANCH  13  14
ENDBRANCH   5  13
BRANCH   6  22
HETATM   22  C   UNL     1      -9.507  16.728  68.270  1.00  0.00    -0.240 C  
HETATM   23  F   UNL     1     -10.718  16.648  68.902  1.00  0.00    -0.263 F  
HETATM   24  F   UNL     1      -8.592  16.256  69.164  1.00  0.00    -0.225 F  
BRANCH  22  25
HETATM   25  C   UNL     1      -9.214  18.193  67.971  1.00  0.00    -0.285 C  
BRANCH  25  26
HETATM   26  C   UNL     1     -10.509  18.987  67.783  1.00  0.00    -0.499 C  
BRANCH  26  27
HETATM   27  C   UNL     1     -10.269  20.242  66.949  1.00  0.00    -0.504 C  
HETATM   28  C   UNL     1      -9.212  20.004  65.885  1.00  0.00    -0.210 C  
ENDBRANCH  26  27
ENDBRANCH  25  26
ENDBRANCH  22  25
ENDBRANCH   6  22
TORSDOF 10
ENDMDL
MODEL      161
REMARK 921   NORMALIZED FREE ENERGY PREDICTED BY IDOCK:   -4.39 KCAL/MOL
REMARK 922        TOTAL FREE ENERGY PREDICTED BY IDOCK:   -8.73 KCAL/MOL
REMARK 923 INTER-LIGAND FREE ENERGY PREDICTED BY IDOCK:   -6.78 KCAL/MOL
REMARK 924 INTRA-LIGAND FREE ENERGY PREDICTED BY IDOCK:   -1.95 KCAL/MOL
REMARK 927      BINDING AFFINITY PREDICTED BY RF-SCORE:    0.00 PKD
ROOT
HETATM    1  C   UNL     1     -10.783  16.359  66.976  1.00  0.00    -0.217 C  
HETATM    2  C   UNL     1     -10.429  17.603  66.184  1.00  0.00    -0.295 C  
HETATM    3  C   UNL     1      -9.498  18.294  67.146  1.00  0.00    -0.268 C  
HETATM    4  O   UNL     1      -9.231  19.486  67.060  1.00  0.00    -0.309 OA 
HETATM    5  C   UNL     1      -8.965  17.361  68.231  1.00  0.00    -0.268 C  
HETATM    6  C   UNL     1     -11.351  14.034  66.865  1.00  0.00    -0.329 C  
HETATM    7  C   UNL     1      -9.505  16.026  67.724  1.00  0.00    -0.217 C  
HETATM    8  C   UNL     1      -9.834  14.961  68.752  1.00  0.00    -0.225 C  
HETATM    9  O   UNL     1     -11.095  15.257  66.146  1.00  0.00    -0.336 OA 
HETATM   10  C   UNL     1     -10.312  13.726  67.984  1.00  0.00    -0.246 C  
HETATM   11  O   UNL     1     -12.660  14.138  67.438  1.00  0.00    -0.502 OA 
HETATM   12  H   UNL     1     -13.295  14.326  66.755  1.00  0.00     0.000 HD 
ENDROOT
BRANCH   5  13
HETATM   13  C   UNL     1      -7.440  17.288  68.313  1.00  0.00    -0.224 C  
BRANCH  13  14
HETATM   14  C   UNL     1      -6.921  16.316  69.363  1.00  0.00    -0.212 C  
BRANCH  14  15
HETATM   15  C   UNL     1      -5.695  15.565  68.848  1.00  0.00    -0.102 C  
BRANCH  15  16
HETATM   16  C   UNL     1      -6.120  14.490  67.853  1.00  0.00    -0.161 C  
BRANCH  16  17
HETATM   17  C   UNL     1      -6.659  13.256  68.568  1.00  0.00    -0.089 C  
BRANCH  17  18
HETATM   18  C   UNL     1      -6.562  12.025  67.672  1.00  0.00    -0.107 C  
HETATM   19  O   UNL     1      -6.856   9.666  67.622  1.00  0.00    -0.079 OA 
HETATM   20  C   UNL     1      -6.938  10.763  68.410  1.00  0.00    -0.070 C  
HETATM   21  O   UNL     1      -7.277  10.701  69.581  1.00  0.00    -0.129 OA 
ENDBRANCH  17  18
ENDBRANCH  16  17
ENDBRANCH  15  16
ENDBRANCH  14  15
ENDBRANCH  13  14
ENDBRANCH   5  13
BRANCH   6  22
HETATM   22  C   UNL     1     -11.304  12.862  65.832  1.00  0.00    -0.312 C  
HETATM   23  F   UNL     1     -12.570  12.623  65.371  1.00  0.00    -0.516 F  
HETATM   24  F   UNL     1     -10.579  13.242  64.741  1.00  0.00    -0.304 F  
BRANCH  22  25
HETATM   25  C   UNL     1     -10.738  11.561  66.388  1.00  0.00    -0.320 C  
BRANCH  25  26
HETATM   26  C   UNL     1      -9.755  10.923  65.405  1.00  0.00    -0.287 C  
BRANCH  26  27
HETATM   27  C   UNL     1      -9.694   9.409  65.592  1.00  0.00    -0.336 C  
HETATM   28  C   UNL     1     -10.340   8.989  66.900  1.00  0.00    -0.324 C  
ENDBRANCH  26  27
ENDBRANCH  25  26
ENDBRANCH  22  25
ENDBRANCH   6  22
TORSDOF 10
ENDMDL
MODEL      162
REMARK 921   NORMALIZED FREE ENERGY PREDICTED BY IDOCK:   -4.39 KCAL/MOL
REMARK 922        TOTAL FREE ENERGY PREDICTED BY IDOCK:   -8.73 KCAL/MOL
REMARK 923 INTER-LIGAND FREE ENERGY PREDICTED BY IDOCK:   -6.81 KCAL/MOL
REMARK 924 INTRA-LIGAND FREE ENERGY PREDICTED BY IDOCK:   -1.92 KCAL/MOL
REMARK 927      BINDING AFFINITY PREDICTED BY RF-SCORE:    0.00 PKD
ROOT
HETATM    1  C   UNL     1      -6.667  15.590  68.196  1.00  0.00    -0.127 C  
HETATM    2  C   UNL     1      -6.276  16.614  69.245  1.00  0.00    -0.194 C  
HETATM    3  C   UNL     1      -7.013  17.828  68.740  1.00  0.00    -0.257 C  
HETATM    4  O   UNL     1      -6.723  18.965  69.091  1.00  0.00    -0.286 OA 
HETATM    5  C   UNL     1      -8.115  17.482  67.741  1.00  0.00    -0.221 C  
HETATM    6  C   UNL     1      -7.129  13.280  67.758  1.00  0.00    -0.149 C  
HETATM    7  C   UNL     1      -8.095  15.959  67.839  1.00  0.00    -0.149 C  
HETATM    8  C   UNL     1      -8.483  15.166  66.605  1.00  0.00    -0.230 C  
HETATM    9  O   UNL     1      -6.678  14.270  68.704  1.00  0.00    -0.082 OA 
HETATM   10  C   UNL     1      -8.418  13.684  66.983  1.00  0.00    -0.141 C  
HETATM   11  O   UNL     1      -6.060  13.052  66.832  1.00  0.00    -0.443 OA 
HETATM   12  H   UNL     1      -5.273  12.805  67.305  1.00  0.00     0.000 HD 
ENDROOT
BRANCH   5  13
HETATM   13  C   UNL     1      -9.504  17.993  68.125  1.00  0.00    -0.292 C  
BRANCH  13  14
HETATM   14  C   UNL     1     -10.201  17.154  69.187  1.00  0.00    -0.284 C  
BRANCH  14  15
HETATM   15  C   UNL     1     -11.370  16.378  68.584  1.00  0.00    -0.289 C  
BRANCH  15  16
HETATM   16  C   UNL     1     -11.327  14.924  69.044  1.00  0.00    -0.310 C  
BRANCH  16  17
HETATM   17  C   UNL     1     -11.321  14.825  70.565  1.00  0.00    -0.242 C  
BRANCH  17  18
HETATM   18  C   UNL     1     -12.742  14.896  71.118  1.00  0.00    -0.411 C  
HETATM   19  O   UNL     1     -14.088  15.875  72.815  1.00  0.00    -0.567 OA 
HETATM   20  C   UNL     1     -12.831  15.805  72.320  1.00  0.00    -0.447 C  
HETATM   21  O   UNL     1     -11.899  16.418  72.816  1.00  0.00    -0.534 OA 
ENDBRANCH  17  18
ENDBRANCH  16  17
ENDBRANCH  15  16
ENDBRANCH  14  15
ENDBRANCH  13  14
ENDBRANCH   5  13
BRANCH   6  22
HETATM   22  C   UNL     1      -7.441  11.973  68.557  1.00  0.00    -0.117 C  
HETATM   23  F   UNL     1      -6.706  10.945  68.033  1.00  0.00    -0.061 F  
HETATM   24  F   UNL     1      -7.016  12.112  69.845  1.00  0.00    -0.003 F  
BRANCH  22  25
HETATM   25  C   UNL     1      -8.910  11.571  68.548  1.00  0.00    -0.139 C  
BRANCH  25  26
HETATM   26  C   UNL     1      -9.117  10.255  67.796  1.00  0.00    -0.138 C  
BRANCH  26  27
HETATM   27  C   UNL     1     -10.599   9.905  67.695  1.00  0.00    -0.325 C  
HETATM   28  C   UNL     1     -11.457  10.926  68.420  1.00  0.00    -0.374 C  
ENDBRANCH  26  27
ENDBRANCH  25  26
ENDBRANCH  22  25
ENDBRANCH   6  22
TORSDOF 10
ENDMDL
MODEL      163
REMARK 921   NORMALIZED FREE ENERGY PREDICTED BY IDOCK:   -4.38 KCAL/MOL
REMARK 922        TOTAL FREE ENERGY PREDICTED BY IDOCK:   -8.72 KCAL/MOL
REMARK 923 INTER-LIGAND FREE ENERGY PREDICTED BY IDOCK:   -7.05 KCAL/MOL
REMARK 924 INTRA-LIGAND FREE ENERGY PREDICTED BY IDOCK:   -1.67 KCAL/MOL
REMARK 927      BINDING AFFINITY PREDICTED BY RF-SCORE:    0.00 PKD
ROOT
HETATM    1  C   UNL     1      -8.424   6.854  66.332  1.00  0.00    -0.130 C  
HETATM    2  C   UNL     1      -9.111   5.638  65.741  1.00  0.00    -0.139 C  
HETATM    3  C   UNL     1      -9.586   4.946  66.993  1.00  0.00    -0.159 C  
HETATM    4  O   UNL     1      -9.901   3.763  67.010  1.00  0.00    -0.179 OA 
HETATM    5  C   UNL     1      -9.597   5.866  68.212  1.00  0.00    -0.134 C  
HETATM    6  C   UNL     1      -7.880   9.167  66.024  1.00  0.00    -0.102 C  
HETATM    7  C   UNL     1      -9.272   7.199  67.543  1.00  0.00    -0.131 C  
HETATM    8  C   UNL     1      -8.517   8.233  68.358  1.00  0.00    -0.129 C  
HETATM    9  O   UNL     1      -8.446   7.967  65.460  1.00  0.00    -0.140 OA 
HETATM   10  C   UNL     1      -8.358   9.473  67.475  1.00  0.00    -0.125 C  
HETATM   11  O   UNL     1      -6.455   9.019  66.007  1.00  0.00    -0.063 OA 
HETATM   12  H   UNL     1      -6.163   8.832  65.122  1.00  0.00     0.000 HD 
ENDROOT
BRANCH   5  13
HETATM   13  C   UNL     1     -10.952   5.973  68.914  1.00  0.00    -0.395 C  
BRANCH  13  14
HETATM   14  C   UNL     1     -10.887   5.763  70.421  1.00  0.00    -0.360 C  
BRANCH  14  15
HETATM   15  C   UNL     1     -11.678   6.844  71.153  1.00  0.00    -0.381 C  
BRANCH  15  16
HETATM   16  C   UNL     1     -10.845   8.117  71.267  1.00  0.00    -0.278 C  
BRANCH  16  17
HETATM   17  C   UNL     1     -11.722   9.328  71.562  1.00  0.00    -0.450 C  
BRANCH  17  18
HETATM   18  C   UNL     1     -11.477  10.436  70.542  1.00  0.00    -0.431 C  
HETATM   19  O   UNL     1     -12.108  12.644  69.927  1.00  0.00    -0.304 OA 
HETATM   20  C   UNL     1     -12.320  11.655  70.826  1.00  0.00    -0.358 C  
HETATM   21  O   UNL     1     -13.113  11.770  71.747  1.00  0.00    -0.463 OA 
ENDBRANCH  17  18
ENDBRANCH  16  17
ENDBRANCH  15  16
ENDBRANCH  14  15
ENDBRANCH  13  14
ENDBRANCH   5  13
BRANCH   6  22
HETATM   22  C   UNL     1      -8.311  10.363  65.115  1.00  0.00    -0.165 C  
HETATM   23  F   UNL     1      -8.531  11.462  65.900  1.00  0.00    -0.169 F  
HETATM   24  F   UNL     1      -7.282  10.702  64.287  1.00  0.00    -0.076 F  
BRANCH  22  25
HETATM   25  C   UNL     1      -9.563  10.100  64.288  1.00  0.00    -0.354 C  
BRANCH  25  26
HETATM   26  C   UNL     1     -10.655  11.125  64.601  1.00  0.00    -0.386 C  
BRANCH  26  27
HETATM   27  C   UNL     1     -10.853  12.091  63.436  1.00  0.00    -0.471 C  
HETATM   28  C   UNL     1     -11.916  13.128  63.755  1.00  0.00    -0.572 C  
ENDBRANCH  26  27
ENDBRANCH  25  26
ENDBRANCH  22  25
ENDBRANCH   6  22
TORSDOF 10
ENDMDL
MODEL      164
REMARK 921   NORMALIZED FREE ENERGY PREDICTED BY IDOCK:   -4.38 KCAL/MOL
REMARK 922        TOTAL FREE ENERGY PREDICTED BY IDOCK:   -8.71 KCAL/MOL
REMARK 923 INTER-LIGAND FREE ENERGY PREDICTED BY IDOCK:   -6.75 KCAL/MOL
REMARK 924 INTRA-LIGAND FREE ENERGY PREDICTED BY IDOCK:   -1.96 KCAL/MOL
REMARK 927      BINDING AFFINITY PREDICTED BY RF-SCORE:    0.00 PKD
ROOT
HETATM    1  C   UNL     1      -8.155  12.590  67.297  1.00  0.00    -0.179 C  
HETATM    2  C   UNL     1      -7.437  13.058  68.549  1.00  0.00    -0.123 C  
HETATM    3  C   UNL     1      -8.126  14.376  68.792  1.00  0.00    -0.127 C  
HETATM    4  O   UNL     1      -7.644  15.247  69.504  1.00  0.00    -0.211 OA 
HETATM    5  C   UNL     1      -9.449  14.503  68.039  1.00  0.00    -0.209 C  
HETATM    6  C   UNL     1      -8.953  10.699  66.061  1.00  0.00    -0.172 C  
HETATM    7  C   UNL     1      -9.577  13.087  67.484  1.00  0.00    -0.204 C  
HETATM    8  C   UNL     1     -10.307  12.907  66.166  1.00  0.00    -0.286 C  
HETATM    9  O   UNL     1      -8.202  11.180  67.194  1.00  0.00    -0.128 OA 
HETATM   10  C   UNL     1     -10.326  11.407  65.863  1.00  0.00    -0.299 C  
HETATM   11  O   UNL     1      -8.140  10.886  64.896  1.00  0.00    -0.363 OA 
HETATM   12  H   UNL     1      -7.303  10.454  65.017  1.00  0.00     0.000 HD 
ENDROOT
BRANCH   5  13
HETATM   13  C   UNL     1     -10.658  14.807  68.925  1.00  0.00    -0.250 C  
BRANCH  13  14
HETATM   14  C   UNL     1     -11.390  16.090  68.556  1.00  0.00    -0.382 C  
BRANCH  14  15
HETATM   15  C   UNL     1     -10.480  17.025  67.763  1.00  0.00    -0.349 C  
BRANCH  15  16
HETATM   16  C   UNL     1     -10.047  18.199  68.635  1.00  0.00    -0.406 C  
BRANCH  16  17
HETATM   17  C   UNL     1      -8.533  18.374  68.614  1.00  0.00    -0.318 C  
BRANCH  17  18
HETATM   18  C   UNL     1      -7.971  18.067  67.229  1.00  0.00    -0.221 C  
HETATM   19  O   UNL     1      -7.194  19.063  65.215  1.00  0.00    -0.466 OA 
HETATM   20  C   UNL     1      -7.694  19.327  66.445  1.00  0.00    -0.282 C  
HETATM   21  O   UNL     1      -7.889  20.465  66.840  1.00  0.00    -0.314 OA 
ENDBRANCH  17  18
ENDBRANCH  16  17
ENDBRANCH  15  16
ENDBRANCH  14  15
ENDBRANCH  13  14
ENDBRANCH   5  13
BRANCH   6  22
HETATM   22  C   UNL     1      -9.228   9.177  66.291  1.00  0.00    -0.194 C  
HETATM   23  F   UNL     1     -10.575   8.953  66.223  1.00  0.00    -0.295 F  
HETATM   24  F   UNL     1      -8.681   8.455  65.272  1.00  0.00    -0.169 F  
BRANCH  22  25
HETATM   25  C   UNL     1      -8.715   8.644  67.623  1.00  0.00    -0.136 C  
BRANCH  25  26
HETATM   26  C   UNL     1      -9.851   8.029  68.443  1.00  0.00    -0.184 C  
BRANCH  26  27
HETATM   27  C   UNL     1     -10.267   8.952  69.586  1.00  0.00    -0.209 C  
HETATM   28  C   UNL     1      -9.075   9.705  70.148  1.00  0.00    -0.280 C  
ENDBRANCH  26  27
ENDBRANCH  25  26
ENDBRANCH  22  25
ENDBRANCH   6  22
TORSDOF 10
ENDMDL
MODEL      165
REMARK 921   NORMALIZED FREE ENERGY PREDICTED BY IDOCK:   -4.38 KCAL/MOL
REMARK 922        TOTAL FREE ENERGY PREDICTED BY IDOCK:   -8.71 KCAL/MOL
REMARK 923 INTER-LIGAND FREE ENERGY PREDICTED BY IDOCK:   -6.64 KCAL/MOL
REMARK 924 INTRA-LIGAND FREE ENERGY PREDICTED BY IDOCK:   -2.07 KCAL/MOL
REMARK 927      BINDING AFFINITY PREDICTED BY RF-SCORE:    0.00 PKD
ROOT
HETATM    1  C   UNL     1     -12.061  11.839  69.888  1.00  0.00    -0.287 C  
HETATM    2  C   UNL     1     -12.334  10.959  71.094  1.00  0.00    -0.479 C  
HETATM    3  C   UNL     1     -11.902   9.616  70.565  1.00  0.00    -0.215 C  
HETATM    4  O   UNL     1     -12.253   8.563  71.082  1.00  0.00    -0.292 OA 
HETATM    5  C   UNL     1     -11.022   9.722  69.321  1.00  0.00    -0.222 C  
HETATM    6  C   UNL     1     -11.407  14.016  69.133  1.00  0.00    -0.281 C  
HETATM    7  C   UNL     1     -10.815  11.233  69.268  1.00  0.00    -0.259 C  
HETATM    8  C   UNL     1     -10.617  11.872  67.907  1.00  0.00    -0.229 C  
HETATM    9  O   UNL     1     -11.757  13.173  70.248  1.00  0.00    -0.250 OA 
HETATM   10  C   UNL     1     -10.395  13.369  68.140  1.00  0.00    -0.249 C  
HETATM   11  O   UNL     1     -12.619  14.342  68.442  1.00  0.00    -0.521 OA 
HETATM   12  H   UNL     1     -13.236  14.737  69.047  1.00  0.00     0.000 HD 
ENDROOT
BRANCH   5  13
HETATM   13  C   UNL     1      -9.663   9.032  69.444  1.00  0.00    -0.169 C  
BRANCH  13  14
HETATM   14  C   UNL     1      -8.848   9.477  70.651  1.00  0.00    -0.208 C  
BRANCH  14  15
HETATM   15  C   UNL     1      -7.391   9.718  70.262  1.00  0.00    -0.165 C  
BRANCH  15  16
HETATM   16  C   UNL     1      -7.319  10.427  68.914  1.00  0.00    -0.094 C  
BRANCH  16  17
HETATM   17  C   UNL     1      -6.440  11.671  68.989  1.00  0.00    -0.082 C  
BRANCH  17  18
HETATM   18  C   UNL     1      -5.921  11.881  70.409  1.00  0.00    -0.115 C  
HETATM   19  O   UNL     1      -5.471  13.536  72.056  1.00  0.00    -0.333 OA 
HETATM   20  C   UNL     1      -5.929  13.340  70.797  1.00  0.00    -0.049 C  
HETATM   21  O   UNL     1      -6.295  14.261  70.086  1.00  0.00    -0.152 OA 
ENDBRANCH  17  18
ENDBRANCH  16  17
ENDBRANCH  15  16
ENDBRANCH  14  15
ENDBRANCH  13  14
ENDBRANCH   5  13
BRANCH   6  22
HETATM   22  C   UNL     1     -10.748  15.311  69.711  1.00  0.00    -0.283 C  
HETATM   23  F   UNL     1     -11.494  16.395  69.335  1.00  0.00    -0.306 F  
HETATM   24  F   UNL     1     -10.799  15.281  71.073  1.00  0.00    -0.346 F  
BRANCH  22  25
HETATM   25  C   UNL     1      -9.310  15.535  69.261  1.00  0.00    -0.266 C  
BRANCH  25  26
HETATM   26  C   UNL     1      -9.095  16.977  68.798  1.00  0.00    -0.252 C  
BRANCH  26  27
HETATM   27  C   UNL     1      -7.947  17.069  67.797  1.00  0.00    -0.192 C  
HETATM   28  C   UNL     1      -8.245  16.270  66.541  1.00  0.00    -0.344 C  
ENDBRANCH  26  27
ENDBRANCH  25  26
ENDBRANCH  22  25
ENDBRANCH   6  22
TORSDOF 10
ENDMDL
MODEL      166
REMARK 921   NORMALIZED FREE ENERGY PREDICTED BY IDOCK:   -4.37 KCAL/MOL
REMARK 922        TOTAL FREE ENERGY PREDICTED BY IDOCK:   -8.71 KCAL/MOL
REMARK 923 INTER-LIGAND FREE ENERGY PREDICTED BY IDOCK:   -7.59 KCAL/MOL
REMARK 924 INTRA-LIGAND FREE ENERGY PREDICTED BY IDOCK:   -1.11 KCAL/MOL
REMARK 927      BINDING AFFINITY PREDICTED BY RF-SCORE:    0.00 PKD
ROOT
HETATM    1  C   UNL     1     -10.639  14.314  65.897  1.00  0.00    -0.302 C  
HETATM    2  C   UNL     1     -11.707  14.033  64.857  1.00  0.00    -0.385 C  
HETATM    3  C   UNL     1     -11.178  12.761  64.247  1.00  0.00    -0.364 C  
HETATM    4  O   UNL     1     -11.545  12.356  63.151  1.00  0.00    -0.392 OA 
HETATM    5  C   UNL     1     -10.133  12.072  65.122  1.00  0.00    -0.295 C  
HETATM    6  C   UNL     1     -10.173  15.234  68.059  1.00  0.00    -0.230 C  
HETATM    7  C   UNL     1     -10.225  12.935  66.378  1.00  0.00    -0.273 C  
HETATM    8  C   UNL     1      -8.973  13.095  67.219  1.00  0.00    -0.216 C  
HETATM    9  O   UNL     1     -11.141  15.026  67.012  1.00  0.00    -0.324 OA 
HETATM   10  C   UNL     1      -9.347  13.964  68.422  1.00  0.00    -0.201 C  
HETATM   11  O   UNL     1      -9.291  16.277  67.628  1.00  0.00    -0.216 OA 
HETATM   12  H   UNL     1      -9.794  17.052  67.407  1.00  0.00     0.000 HD 
ENDROOT
BRANCH   5  13
HETATM   13  C   UNL     1     -10.462  10.623  65.483  1.00  0.00    -0.246 C  
BRANCH  13  14
HETATM   14  C   UNL     1      -9.394   9.621  65.065  1.00  0.00    -0.319 C  
BRANCH  14  15
HETATM   15  C   UNL     1      -9.206   8.551  66.138  1.00  0.00    -0.269 C  
BRANCH  15  16
HETATM   16  C   UNL     1      -8.117   7.570  65.714  1.00  0.00    -0.127 C  
BRANCH  16  17
HETATM   17  C   UNL     1      -8.714   6.245  65.254  1.00  0.00    -0.007 C  
BRANCH  17  18
HETATM   18  C   UNL     1      -8.525   5.167  66.317  1.00  0.00    -0.114 C  
HETATM   19  O   UNL     1      -9.627   3.984  68.059  1.00  0.00    -0.170 OA 
HETATM   20  C   UNL     1      -9.786   4.940  67.115  1.00  0.00    -0.175 C  
HETATM   21  O   UNL     1     -10.841   5.533  66.957  1.00  0.00    -0.249 OA 
ENDBRANCH  17  18
ENDBRANCH  16  17
ENDBRANCH  15  16
ENDBRANCH  14  15
ENDBRANCH  13  14
ENDBRANCH   5  13
BRANCH   6  22
HETATM   22  C   UNL     1     -10.954  15.679  69.339  1.00  0.00    -0.283 C  
HETATM   23  F   UNL     1     -10.136  15.547  70.427  1.00  0.00    -0.311 F  
HETATM   24  F   UNL     1     -11.247  17.008  69.256  1.00  0.00    -0.217 F  
BRANCH  22  25
HETATM   25  C   UNL     1     -12.233  14.892  69.596  1.00  0.00    -0.299 C  
BRANCH  25  26
HETATM   26  C   UNL     1     -12.313  14.433  71.053  1.00  0.00    -0.427 C  
BRANCH  26  27
HETATM   27  C   UNL     1     -13.154  15.394  71.888  1.00  0.00    -0.515 C  
HETATM   28  C   UNL     1     -12.851  15.249  73.369  1.00  0.00    -0.667 C  
ENDBRANCH  26  27
ENDBRANCH  25  26
ENDBRANCH  22  25
ENDBRANCH   6  22
TORSDOF 10
ENDMDL
MODEL      167
REMARK 921   NORMALIZED FREE ENERGY PREDICTED BY IDOCK:   -4.33 KCAL/MOL
REMARK 922        TOTAL FREE ENERGY PREDICTED BY IDOCK:   -8.64 KCAL/MOL
REMARK 923 INTER-LIGAND FREE ENERGY PREDICTED BY IDOCK:   -7.29 KCAL/MOL
REMARK 924 INTRA-LIGAND FREE ENERGY PREDICTED BY IDOCK:   -1.35 KCAL/MOL
REMARK 927      BINDING AFFINITY PREDICTED BY RF-SCORE:    0.00 PKD
ROOT
HETATM    1  C   UNL     1     -11.333   9.628  71.096  1.00  0.00    -0.386 C  
HETATM    2  C   UNL     1     -12.658  10.169  71.597  1.00  0.00    -0.533 C  
HETATM    3  C   UNL     1     -12.567  11.603  71.142  1.00  0.00    -0.335 C  
HETATM    4  O   UNL     1     -13.268  12.488  71.616  1.00  0.00    -0.399 OA 
HETATM    5  C   UNL     1     -11.503  11.819  70.069  1.00  0.00    -0.234 C  
HETATM    6  C   UNL     1     -10.171   7.717  70.236  1.00  0.00    -0.199 C  
HETATM    7  C   UNL     1     -11.104  10.372  69.792  1.00  0.00    -0.352 C  
HETATM    8  C   UNL     1      -9.679  10.103  69.349  1.00  0.00    -0.247 C  
HETATM    9  O   UNL     1     -11.388   8.246  70.799  1.00  0.00    -0.268 OA 
HETATM   10  C   UNL     1      -9.559   8.597  69.105  1.00  0.00    -0.163 C  
HETATM   11  O   UNL     1      -9.227   7.581  71.306  1.00  0.00    -0.148 OA 
HETATM   12  H   UNL     1      -9.600   7.044  71.996  1.00  0.00     0.000 HD 
ENDROOT
BRANCH   5  13
HETATM   13  C   UNL     1     -12.022  12.453  68.777  1.00  0.00    -0.276 C  
BRANCH  13  14
HETATM   14  C   UNL     1     -11.270  13.707  68.355  1.00  0.00    -0.306 C  
BRANCH  14  15
HETATM   15  C   UNL     1      -9.993  13.344  67.599  1.00  0.00    -0.229 C  
BRANCH  15  16
HETATM   16  C   UNL     1      -8.950  14.443  67.774  1.00  0.00    -0.192 C  
BRANCH  16  17
HETATM   17  C   UNL     1      -9.196  15.242  69.049  1.00  0.00    -0.223 C  
BRANCH  17  18
HETATM   18  C   UNL     1      -8.744  16.689  68.878  1.00  0.00    -0.238 C  
HETATM   19  O   UNL     1      -9.479  18.861  68.250  1.00  0.00    -0.316 OA 
HETATM   20  C   UNL     1      -9.870  17.575  68.403  1.00  0.00    -0.325 C  
HETATM   21  O   UNL     1     -11.012  17.209  68.171  1.00  0.00    -0.361 OA 
ENDBRANCH  17  18
ENDBRANCH  16  17
ENDBRANCH  15  16
ENDBRANCH  14  15
ENDBRANCH  13  14
ENDBRANCH   5  13
BRANCH   6  22
HETATM   22  C   UNL     1     -10.504   6.317  69.627  1.00  0.00    -0.238 C  
HETATM   23  F   UNL     1     -11.825   6.287  69.276  1.00  0.00    -0.445 F  
HETATM   24  F   UNL     1      -9.809   6.146  68.466  1.00  0.00    -0.128 F  
BRANCH  22  25
HETATM   25  C   UNL     1     -10.225   5.147  70.562  1.00  0.00    -0.330 C  
BRANCH  25  26
HETATM   26  C   UNL     1      -9.095   4.268  70.023  1.00  0.00    -0.175 C  
BRANCH  26  27
HETATM   27  C   UNL     1      -9.639   3.158  69.128  1.00  0.00    -0.081 C  
HETATM   28  C   UNL     1      -8.878   3.086  67.816  1.00  0.00    -0.161 C  
ENDBRANCH  26  27
ENDBRANCH  25  26
ENDBRANCH  22  25
ENDBRANCH   6  22
TORSDOF 10
ENDMDL
MODEL      168
REMARK 921   NORMALIZED FREE ENERGY PREDICTED BY IDOCK:   -4.33 KCAL/MOL
REMARK 922        TOTAL FREE ENERGY PREDICTED BY IDOCK:   -8.64 KCAL/MOL
REMARK 923 INTER-LIGAND FREE ENERGY PREDICTED BY IDOCK:   -6.48 KCAL/MOL
REMARK 924 INTRA-LIGAND FREE ENERGY PREDICTED BY IDOCK:   -2.15 KCAL/MOL
REMARK 927      BINDING AFFINITY PREDICTED BY RF-SCORE:    0.00 PKD
ROOT
HETATM    1  C   UNL     1     -11.282   5.481  71.923  1.00  0.00    -0.119 C  
HETATM    2  C   UNL     1     -10.706   4.702  73.090  1.00  0.00    -0.309 C  
HETATM    3  C   UNL     1      -9.961   3.613  72.361  1.00  0.00    -0.166 C  
HETATM    4  O   UNL     1      -9.621   2.572  72.907  1.00  0.00    -0.091 OA 
HETATM    5  C   UNL     1      -9.717   3.943  70.890  1.00  0.00    -0.253 C  
HETATM    6  C   UNL     1     -11.935   7.639  71.112  1.00  0.00    -0.297 C  
HETATM    7  C   UNL     1     -10.207   5.388  70.855  1.00  0.00    -0.303 C  
HETATM    8  C   UNL     1     -10.800   5.902  69.557  1.00  0.00    -0.442 C  
HETATM    9  O   UNL     1     -11.470   6.850  72.225  1.00  0.00    -0.263 OA 
HETATM   10  C   UNL     1     -11.170   7.370  69.781  1.00  0.00    -0.110 C  
HETATM   11  O   UNL     1     -13.328   7.354  70.934  1.00  0.00    -0.609 OA 
HETATM   12  H   UNL     1     -13.794   7.517  71.746  1.00  0.00     0.000 HD 
ENDROOT
BRANCH   5  13
HETATM   13  C   UNL     1      -8.248   3.900  70.465  1.00  0.00    -0.071 C  
BRANCH  13  14
HETATM   14  C   UNL     1      -7.342   4.820  71.272  1.00  0.00    -0.068 C  
BRANCH  14  15
HETATM   15  C   UNL     1      -6.375   5.567  70.357  1.00  0.00    -0.027 C  
BRANCH  15  16
HETATM   16  C   UNL     1      -7.030   6.839  69.829  1.00  0.00    -0.063 C  
BRANCH  16  17
HETATM   17  C   UNL     1      -6.684   7.071  68.362  1.00  0.00    -0.064 C  
BRANCH  17  18
HETATM   18  C   UNL     1      -7.917   6.892  67.480  1.00  0.00    -0.112 C  
HETATM   19  O   UNL     1      -9.707   8.055  66.434  1.00  0.00    -0.221 OA 
HETATM   20  C   UNL     1      -8.613   8.205  67.217  1.00  0.00    -0.124 C  
HETATM   21  O   UNL     1      -8.262   9.292  67.646  1.00  0.00    -0.114 OA 
ENDBRANCH  17  18
ENDBRANCH  16  17
ENDBRANCH  15  16
ENDBRANCH  14  15
ENDBRANCH  13  14
ENDBRANCH   5  13
BRANCH   6  22
HETATM   22  C   UNL     1     -11.734   9.144  71.484  1.00  0.00    -0.363 C  
HETATM   23  F   UNL     1     -12.822   9.576  72.192  1.00  0.00    -0.408 F  
HETATM   24  F   UNL     1     -10.670   9.268  72.328  1.00  0.00    -0.371 F  
BRANCH  22  25
HETATM   25  C   UNL     1     -11.540  10.064  70.285  1.00  0.00    -0.354 C  
BRANCH  25  26
HETATM   26  C   UNL     1     -12.089  11.463  70.570  1.00  0.00    -0.487 C  
BRANCH  26  27
HETATM   27  C   UNL     1     -11.968  12.362  69.343  1.00  0.00    -0.319 C  
HETATM   28  C   UNL     1     -11.717  11.549  68.086  1.00  0.00    -0.357 C  
ENDBRANCH  26  27
ENDBRANCH  25  26
ENDBRANCH  22  25
ENDBRANCH   6  22
TORSDOF 10
ENDMDL
MODEL      169
REMARK 921   NORMALIZED FREE ENERGY PREDICTED BY IDOCK:   -4.31 KCAL/MOL
REMARK 922        TOTAL FREE ENERGY PREDICTED BY IDOCK:   -8.61 KCAL/MOL
REMARK 923 INTER-LIGAND FREE ENERGY PREDICTED BY IDOCK:   -7.24 KCAL/MOL
REMARK 924 INTRA-LIGAND FREE ENERGY PREDICTED BY IDOCK:   -1.37 KCAL/MOL
REMARK 927      BINDING AFFINITY PREDICTED BY RF-SCORE:    0.00 PKD
ROOT
HETATM    1  C   UNL     1     -10.044  14.853  66.440  1.00  0.00    -0.284 C  
HETATM    2  C   UNL     1     -10.161  15.179  64.963  1.00  0.00    -0.332 C  
HETATM    3  C   UNL     1     -10.718  16.578  65.027  1.00  0.00    -0.209 C  
HETATM    4  O   UNL     1     -11.276  17.106  64.074  1.00  0.00    -0.667 OA 
HETATM    5  C   UNL     1     -10.536  17.228  66.397  1.00  0.00    -0.179 C  
HETATM    6  C   UNL     1      -8.809  13.664  68.114  1.00  0.00    -0.189 C  
HETATM    7  C   UNL     1      -9.662  16.177  67.077  1.00  0.00    -0.236 C  
HETATM    8  C   UNL     1      -9.787  16.019  68.581  1.00  0.00    -0.218 C  
HETATM    9  O   UNL     1      -9.006  13.930  66.711  1.00  0.00    -0.237 OA 
HETATM   10  C   UNL     1      -8.787  14.942  69.005  1.00  0.00    -0.179 C  
HETATM   11  O   UNL     1      -9.867  12.797  68.540  1.00  0.00    -0.300 OA 
HETATM   12  H   UNL     1      -9.881  12.017  67.996  1.00  0.00     0.000 HD 
ENDROOT
BRANCH   5  13
HETATM   13  C   UNL     1      -9.789  18.562  66.373  1.00  0.00    -0.376 C  
BRANCH  13  14
HETATM   14  C   UNL     1      -9.745  19.273  67.718  1.00  0.00    -0.409 C  
BRANCH  14  15
HETATM   15  C   UNL     1      -8.432  20.034  67.886  1.00  0.00    -0.301 C  
BRANCH  15  16
HETATM   16  C   UNL     1      -7.256  19.064  67.847  1.00  0.00    -0.261 C  
BRANCH  16  17
HETATM   17  C   UNL     1      -6.776  18.720  69.253  1.00  0.00    -0.288 C  
BRANCH  17  18
HETATM   18  C   UNL     1      -6.356  19.979  70.006  1.00  0.00    -0.381 C  
HETATM   19  O   UNL     1      -5.165  20.763  71.908  1.00  0.00    -0.536 OA 
HETATM   20  C   UNL     1      -5.543  19.652  71.235  1.00  0.00    -0.281 C  
HETATM   21  O   UNL     1      -5.246  18.529  71.610  1.00  0.00    -0.493 OA 
ENDBRANCH  17  18
ENDBRANCH  16  17
ENDBRANCH  15  16
ENDBRANCH  14  15
ENDBRANCH  13  14
ENDBRANCH   5  13
BRANCH   6  22
HETATM   22  C   UNL     1      -7.428  12.948  68.267  1.00  0.00    -0.125 C  
HETATM   23  F   UNL     1      -6.632  13.285  67.207  1.00  0.00    -0.171 F  
HETATM   24  F   UNL     1      -6.788  13.421  69.374  1.00  0.00    -0.111 F  
BRANCH  22  25
HETATM   25  C   UNL     1      -7.516  11.429  68.343  1.00  0.00    -0.111 C  
BRANCH  25  26
HETATM   26  C   UNL     1      -7.405  10.801  66.952  1.00  0.00    -0.119 C  
BRANCH  26  27
HETATM   27  C   UNL     1      -7.432   9.278  67.032  1.00  0.00    -0.091 C  
HETATM   28  C   UNL     1      -8.802   8.731  66.670  1.00  0.00    -0.153 C  
ENDBRANCH  26  27
ENDBRANCH  25  26
ENDBRANCH  22  25
ENDBRANCH   6  22
TORSDOF 10
ENDMDL
MODEL      170
REMARK 921   NORMALIZED FREE ENERGY PREDICTED BY IDOCK:   -4.31 KCAL/MOL
REMARK 922        TOTAL FREE ENERGY PREDICTED BY IDOCK:   -8.61 KCAL/MOL
REMARK 923 INTER-LIGAND FREE ENERGY PREDICTED BY IDOCK:   -7.25 KCAL/MOL
REMARK 924 INTRA-LIGAND FREE ENERGY PREDICTED BY IDOCK:   -1.36 KCAL/MOL
REMARK 927      BINDING AFFINITY PREDICTED BY RF-SCORE:    0.00 PKD
ROOT
HETATM    1  C   UNL     1     -10.829  13.054  68.677  1.00  0.00    -0.259 C  
HETATM    2  C   UNL     1     -12.030  13.917  69.013  1.00  0.00    -0.402 C  
HETATM    3  C   UNL     1     -11.349  15.141  69.571  1.00  0.00    -0.285 C  
HETATM    4  O   UNL     1     -11.936  15.958  70.269  1.00  0.00    -0.353 OA 
HETATM    5  C   UNL     1      -9.871  15.221  69.197  1.00  0.00    -0.239 C  
HETATM    6  C   UNL     1      -9.933  11.397  67.196  1.00  0.00    -0.192 C  
HETATM    7  C   UNL     1      -9.779  14.051  68.221  1.00  0.00    -0.225 C  
HETATM    8  C   UNL     1      -8.455  13.316  68.122  1.00  0.00    -0.173 C  
HETATM    9  O   UNL     1     -11.080  12.171  67.600  1.00  0.00    -0.238 OA 
HETATM   10  C   UNL     1      -8.623  12.228  67.058  1.00  0.00    -0.191 C  
HETATM   11  O   UNL     1      -9.748  10.362  68.170  1.00  0.00    -0.148 OA 
HETATM   12  H   UNL     1     -10.547   9.855  68.255  1.00  0.00     0.000 HD 
ENDROOT
BRANCH   5  13
HETATM   13  C   UNL     1      -9.466  16.508  68.477  1.00  0.00    -0.235 C  
BRANCH  13  14
HETATM   14  C   UNL     1     -10.422  16.925  67.368  1.00  0.00    -0.310 C  
BRANCH  14  15
HETATM   15  C   UNL     1     -10.746  18.414  67.462  1.00  0.00    -0.399 C  
BRANCH  15  16
HETATM   16  C   UNL     1     -10.301  19.129  66.191  1.00  0.00    -0.561 C  
BRANCH  16  17
HETATM   17  C   UNL     1      -9.322  20.256  66.504  1.00  0.00    -0.426 C  
BRANCH  17  18
HETATM   18  C   UNL     1      -8.066  19.710  67.178  1.00  0.00    -0.315 C  
HETATM   19  O   UNL     1      -5.834  18.998  66.775  1.00  0.00    -0.159 OA 
HETATM   20  C   UNL     1      -6.952  19.481  66.185  1.00  0.00    -0.245 C  
HETATM   21  O   UNL     1      -7.018  19.691  64.984  1.00  0.00    -0.385 OA 
ENDBRANCH  17  18
ENDBRANCH  16  17
ENDBRANCH  15  16
ENDBRANCH  14  15
ENDBRANCH  13  14
ENDBRANCH   5  13
BRANCH   6  22
HETATM   22  C   UNL     1     -10.255  10.774  65.799  1.00  0.00    -0.257 C  
HETATM   23  F   UNL     1     -10.638   9.472  65.970  1.00  0.00    -0.254 F  
HETATM   24  F   UNL     1     -11.332  11.407  65.252  1.00  0.00    -0.304 F  
BRANCH  22  25
HETATM   25  C   UNL     1      -9.092  10.811  64.816  1.00  0.00    -0.222 C  
BRANCH  25  26
HETATM   26  C   UNL     1      -9.145   9.622  63.854  1.00  0.00    -0.229 C  
BRANCH  26  27
HETATM   27  C   UNL     1      -8.045   8.611  64.166  1.00  0.00    -0.162 C  
HETATM   28  C   UNL     1      -6.707   9.299  64.373  1.00  0.00    -0.086 C  
ENDBRANCH  26  27
ENDBRANCH  25  26
ENDBRANCH  22  25
ENDBRANCH   6  22
TORSDOF 10
ENDMDL
MODEL      171
REMARK 921   NORMALIZED FREE ENERGY PREDICTED BY IDOCK:   -4.30 KCAL/MOL
REMARK 922        TOTAL FREE ENERGY PREDICTED BY IDOCK:   -8.59 KCAL/MOL
REMARK 923 INTER-LIGAND FREE ENERGY PREDICTED BY IDOCK:   -6.80 KCAL/MOL
REMARK 924 INTRA-LIGAND FREE ENERGY PREDICTED BY IDOCK:   -1.79 KCAL/MOL
REMARK 927      BINDING AFFINITY PREDICTED BY RF-SCORE:    0.00 PKD
ROOT
HETATM    1  C   UNL     1     -11.263  10.967  67.025  1.00  0.00    -0.181 C  
HETATM    2  C   UNL     1     -11.328  12.052  65.967  1.00  0.00    -0.398 C  
HETATM    3  C   UNL     1     -11.820  13.217  66.787  1.00  0.00    -0.394 C  
HETATM    4  O   UNL     1     -12.328  14.209  66.281  1.00  0.00    -0.456 OA 
HETATM    5  C   UNL     1     -11.641  13.003  68.289  1.00  0.00    -0.375 C  
HETATM    6  C   UNL     1     -10.128   8.994  67.772  1.00  0.00    -0.208 C  
HETATM    7  C   UNL     1     -10.836  11.706  68.280  1.00  0.00    -0.260 C  
HETATM    8  C   UNL     1     -11.005  10.761  69.454  1.00  0.00    -0.305 C  
HETATM    9  O   UNL     1     -10.278   9.993  66.743  1.00  0.00    -0.217 OA 
HETATM   10  C   UNL     1     -10.068   9.575  69.216  1.00  0.00    -0.203 C  
HETATM   11  O   UNL     1     -11.237   8.092  67.660  1.00  0.00    -0.379 OA 
HETATM   12  H   UNL     1     -11.274   7.738  66.779  1.00  0.00     0.000 HD 
ENDROOT
BRANCH   5  13
HETATM   13  C   UNL     1     -10.832  14.093  68.994  1.00  0.00    -0.273 C  
BRANCH  13  14
HETATM   14  C   UNL     1     -11.659  15.292  69.437  1.00  0.00    -0.347 C  
BRANCH  14  15
HETATM   15  C   UNL     1     -11.149  16.573  68.783  1.00  0.00    -0.309 C  
BRANCH  15  16
HETATM   16  C   UNL     1      -9.873  16.289  67.997  1.00  0.00    -0.236 C  
BRANCH  16  17
HETATM   17  C   UNL     1      -9.358  17.547  67.306  1.00  0.00    -0.244 C  
BRANCH  17  18
HETATM   18  C   UNL     1      -8.956  18.603  68.331  1.00  0.00    -0.356 C  
HETATM   19  O   UNL     1      -7.090  19.657  69.360  1.00  0.00    -0.357 OA 
HETATM   20  C   UNL     1      -7.456  18.721  68.454  1.00  0.00    -0.298 C  
HETATM   21  O   UNL     1      -6.639  18.065  67.828  1.00  0.00    -0.182 OA 
ENDBRANCH  17  18
ENDBRANCH  16  17
ENDBRANCH  15  16
ENDBRANCH  14  15
ENDBRANCH  13  14
ENDBRANCH   5  13
BRANCH   6  22
HETATM   22  C   UNL     1      -8.787   8.238  67.503  1.00  0.00    -0.135 C  
HETATM   23  F   UNL     1      -7.970   8.379  68.591  1.00  0.00    -0.110 F  
HETATM   24  F   UNL     1      -9.029   6.901  67.393  1.00  0.00    -0.118 F  
BRANCH  22  25
HETATM   25  C   UNL     1      -8.035   8.721  66.269  1.00  0.00    -0.106 C  
BRANCH  25  26
HETATM   26  C   UNL     1      -6.705   9.373  66.654  1.00  0.00    -0.072 C  
BRANCH  26  27
HETATM   27  C   UNL     1      -6.661  10.834  66.213  1.00  0.00    -0.132 C  
HETATM   28  C   UNL     1      -7.394  11.729  67.196  1.00  0.00    -0.146 C  
ENDBRANCH  26  27
ENDBRANCH  25  26
ENDBRANCH  22  25
ENDBRANCH   6  22
TORSDOF 10
ENDMDL
MODEL      172
REMARK 921   NORMALIZED FREE ENERGY PREDICTED BY IDOCK:   -4.29 KCAL/MOL
REMARK 922        TOTAL FREE ENERGY PREDICTED BY IDOCK:   -8.58 KCAL/MOL
REMARK 923 INTER-LIGAND FREE ENERGY PREDICTED BY IDOCK:   -7.04 KCAL/MOL
REMARK 924 INTRA-LIGAND FREE ENERGY PREDICTED BY IDOCK:   -1.54 KCAL/MOL
REMARK 927      BINDING AFFINITY PREDICTED BY RF-SCORE:    0.00 PKD
ROOT
HETATM    1  C   UNL     1     -11.017  13.502  69.408  1.00  0.00    -0.050 C  
HETATM    2  C   UNL     1     -12.384  14.047  69.776  1.00  0.00    -0.344 C  
HETATM    3  C   UNL     1     -12.014  15.421  70.274  1.00  0.00    -0.355 C  
HETATM    4  O   UNL     1     -12.763  16.087  70.977  1.00  0.00    -0.375 OA 
HETATM    5  C   UNL     1     -10.618  15.857  69.834  1.00  0.00    -0.327 C  
HETATM    6  C   UNL     1      -9.786  12.074  67.930  1.00  0.00    -0.194 C  
HETATM    7  C   UNL     1     -10.269  14.715  68.883  1.00  0.00    -0.241 C  
HETATM    8  C   UNL     1      -8.808  14.333  68.743  1.00  0.00    -0.094 C  
HETATM    9  O   UNL     1     -11.076  12.548  68.365  1.00  0.00    -0.228 OA 
HETATM   10  C   UNL     1      -8.734  13.203  67.714  1.00  0.00    -0.188 C  
HETATM   11  O   UNL     1      -9.310  11.153  68.919  1.00  0.00    -0.277 OA 
HETATM   12  H   UNL     1      -9.951  10.464  69.050  1.00  0.00     0.000 HD 
ENDROOT
BRANCH   5  13
HETATM   13  C   UNL     1     -10.579  17.179  69.066  1.00  0.00    -0.282 C  
BRANCH  13  14
HETATM   14  C   UNL     1     -10.860  17.041  67.576  1.00  0.00    -0.203 C  
BRANCH  14  15
HETATM   15  C   UNL     1     -10.030  18.039  66.773  1.00  0.00    -0.346 C  
BRANCH  15  16
HETATM   16  C   UNL     1      -8.577  18.007  67.238  1.00  0.00    -0.240 C  
BRANCH  16  17
HETATM   17  C   UNL     1      -7.949  19.396  67.186  1.00  0.00    -0.286 C  
BRANCH  17  18
HETATM   18  C   UNL     1      -7.578  19.875  68.586  1.00  0.00    -0.251 C  
HETATM   19  O   UNL     1      -5.749  20.486  69.976  1.00  0.00    -0.323 OA 
HETATM   20  C   UNL     1      -6.087  20.060  68.737  1.00  0.00    -0.280 C  
HETATM   21  O   UNL     1      -5.255  19.855  67.868  1.00  0.00    -0.174 OA 
ENDBRANCH  17  18
ENDBRANCH  16  17
ENDBRANCH  15  16
ENDBRANCH  14  15
ENDBRANCH  13  14
ENDBRANCH   5  13
BRANCH   6  22
HETATM   22  C   UNL     1      -9.990  11.342  66.563  1.00  0.00    -0.211 C  
HETATM   23  F   UNL     1     -11.308  11.001  66.434  1.00  0.00    -0.277 F  
HETATM   24  F   UNL     1      -9.730  12.204  65.539  1.00  0.00    -0.237 F  
BRANCH  22  25
HETATM   25  C   UNL     1      -9.146  10.085  66.396  1.00  0.00    -0.176 C  
BRANCH  25  26
HETATM   26  C   UNL     1     -10.028   8.856  66.168  1.00  0.00    -0.290 C  
BRANCH  26  27
HETATM   27  C   UNL     1     -10.179   8.041  67.449  1.00  0.00    -0.330 C  
HETATM   28  C   UNL     1     -10.885   6.723  67.185  1.00  0.00    -0.462 C  
ENDBRANCH  26  27
ENDBRANCH  25  26
ENDBRANCH  22  25
ENDBRANCH   6  22
TORSDOF 10
ENDMDL
MODEL      173
REMARK 921   NORMALIZED FREE ENERGY PREDICTED BY IDOCK:   -4.29 KCAL/MOL
REMARK 922        TOTAL FREE ENERGY PREDICTED BY IDOCK:   -8.57 KCAL/MOL
REMARK 923 INTER-LIGAND FREE ENERGY PREDICTED BY IDOCK:   -7.60 KCAL/MOL
REMARK 924 INTRA-LIGAND FREE ENERGY PREDICTED BY IDOCK:   -0.97 KCAL/MOL
REMARK 927      BINDING AFFINITY PREDICTED BY RF-SCORE:    0.00 PKD
ROOT
HETATM    1  C   UNL     1      -8.995   8.930  68.580  1.00  0.00    -0.134 C  
HETATM    2  C   UNL     1      -8.600  10.249  69.215  1.00  0.00    -0.175 C  
HETATM    3  C   UNL     1      -8.883  11.203  68.083  1.00  0.00    -0.148 C  
HETATM    4  O   UNL     1      -8.403  12.328  68.038  1.00  0.00    -0.148 OA 
HETATM    5  C   UNL     1      -9.790  10.602  67.012  1.00  0.00    -0.222 C  
HETATM    6  C   UNL     1      -9.911   6.748  68.951  1.00  0.00    -0.145 C  
HETATM    7  C   UNL     1     -10.173   9.290  67.692  1.00  0.00    -0.285 C  
HETATM    8  C   UNL     1     -10.468   8.094  66.806  1.00  0.00    -0.316 C  
HETATM    9  O   UNL     1      -9.445   7.983  69.529  1.00  0.00    -0.159 OA 
HETATM   10  C   UNL     1     -10.858   6.936  67.728  1.00  0.00    -0.312 C  
HETATM   11  O   UNL     1      -8.757   5.995  68.556  1.00  0.00    -0.111 OA 
HETATM   12  H   UNL     1      -8.179   5.880  69.302  1.00  0.00     0.000 HD 
ENDROOT
BRANCH   5  13
HETATM   13  C   UNL     1     -11.058  11.409  66.728  1.00  0.00    -0.343 C  
BRANCH  13  14
HETATM   14  C   UNL     1     -10.837  12.615  65.825  1.00  0.00    -0.304 C  
BRANCH  14  15
HETATM   15  C   UNL     1     -11.574  13.838  66.365  1.00  0.00    -0.380 C  
BRANCH  15  16
HETATM   16  C   UNL     1     -10.766  14.484  67.487  1.00  0.00    -0.276 C  
BRANCH  16  17
HETATM   17  C   UNL     1     -11.312  14.093  68.856  1.00  0.00    -0.308 C  
BRANCH  17  18
HETATM   18  C   UNL     1     -12.256  15.166  69.389  1.00  0.00    -0.237 C  
HETATM   19  O   UNL     1     -13.731  15.701  71.175  1.00  0.00    -0.591 OA 
HETATM   20  C   UNL     1     -12.893  14.754  70.694  1.00  0.00    -0.343 C  
HETATM   21  O   UNL     1     -12.702  13.696  71.273  1.00  0.00    -0.342 OA 
ENDBRANCH  17  18
ENDBRANCH  16  17
ENDBRANCH  15  16
ENDBRANCH  14  15
ENDBRANCH  13  14
ENDBRANCH   5  13
BRANCH   6  22
HETATM   22  C   UNL     1     -10.705   5.980  70.058  1.00  0.00    -0.311 C  
HETATM   23  F   UNL     1     -12.044   6.178  69.863  1.00  0.00    -0.357 F  
HETATM   24  F   UNL     1     -10.505   4.639  69.917  1.00  0.00    -0.317 F  
BRANCH  22  25
HETATM   25  C   UNL     1     -10.356   6.399  71.480  1.00  0.00    -0.239 C  
BRANCH  25  26
HETATM   26  C   UNL     1     -11.617   6.722  72.284  1.00  0.00    -0.311 C  
BRANCH  26  27
HETATM   27  C   UNL     1     -11.581   8.153  72.814  1.00  0.00    -0.371 C  
HETATM   28  C   UNL     1     -10.803   9.066  71.883  1.00  0.00    -0.413 C  
ENDBRANCH  26  27
ENDBRANCH  25  26
ENDBRANCH  22  25
ENDBRANCH   6  22
TORSDOF 10
ENDMDL
MODEL      174
REMARK 921   NORMALIZED FREE ENERGY PREDICTED BY IDOCK:   -4.28 KCAL/MOL
REMARK 922        TOTAL FREE ENERGY PREDICTED BY IDOCK:   -8.56 KCAL/MOL
REMARK 923 INTER-LIGAND FREE ENERGY PREDICTED BY IDOCK:   -5.50 KCAL/MOL
REMARK 924 INTRA-LIGAND FREE ENERGY PREDICTED BY IDOCK:   -3.06 KCAL/MOL
REMARK 927      BINDING AFFINITY PREDICTED BY RF-SCORE:    0.00 PKD
ROOT
HETATM    1  C   UNL     1     -10.856   8.611  68.831  1.00  0.00     0.008 C  
HETATM    2  C   UNL     1     -10.575  10.014  69.334  1.00  0.00    -0.256 C  
HETATM    3  C   UNL     1     -11.461  10.060  70.552  1.00  0.00    -0.330 C  
HETATM    4  O   UNL     1     -11.802  11.111  71.078  1.00  0.00    -0.250 OA 
HETATM    5  C   UNL     1     -11.898   8.673  71.021  1.00  0.00    -0.303 C  
HETATM    6  C   UNL     1      -9.959   6.691  67.713  1.00  0.00    -0.132 C  
HETATM    7  C   UNL     1     -11.049   7.800  70.100  1.00  0.00    -0.216 C  
HETATM    8  C   UNL     1     -11.603   6.445  69.703  1.00  0.00    -0.351 C  
HETATM    9  O   UNL     1      -9.760   8.057  68.130  1.00  0.00    -0.153 OA 
HETATM   10  C   UNL     1     -10.549   5.769  68.822  1.00  0.00    -0.321 C  
HETATM   11  O   UNL     1     -10.839   6.711  66.582  1.00  0.00    -0.515 OA 
HETATM   12  H   UNL     1     -10.479   7.273  65.906  1.00  0.00     0.000 HD 
ENDROOT
BRANCH   5  13
HETATM   13  C   UNL     1     -11.550   8.356  72.476  1.00  0.00    -0.426 C  
BRANCH  13  14
HETATM   14  C   UNL     1     -10.073   8.074  72.713  1.00  0.00    -0.378 C  
BRANCH  14  15
HETATM   15  C   UNL     1      -9.892   6.963  73.744  1.00  0.00    -0.313 C  
BRANCH  15  16
HETATM   16  C   UNL     1     -10.811   5.790  73.418  1.00  0.00    -0.295 C  
BRANCH  16  17
HETATM   17  C   UNL     1     -10.034   4.480  73.352  1.00  0.00    -0.185 C  
BRANCH  17  18
HETATM   18  C   UNL     1     -10.156   3.846  71.970  1.00  0.00    -0.220 C  
HETATM   19  O   UNL     1      -9.021   2.495  70.377  1.00  0.00    -0.076 OA 
HETATM   20  C   UNL     1      -8.921   3.061  71.602  1.00  0.00    -0.088 C  
HETATM   21  O   UNL     1      -7.927   2.934  72.300  1.00  0.00    -0.054 OA 
ENDBRANCH  17  18
ENDBRANCH  16  17
ENDBRANCH  15  16
ENDBRANCH  14  15
ENDBRANCH  13  14
ENDBRANCH   5  13
BRANCH   6  22
HETATM   22  C   UNL     1      -8.564   6.115  67.304  1.00  0.00    -0.103 C  
HETATM   23  F   UNL     1      -8.546   4.771  67.558  1.00  0.00    -0.104 F  
HETATM   24  F   UNL     1      -8.395   6.240  65.957  1.00  0.00    -0.114 F  
BRANCH  22  25
HETATM   25  C   UNL     1      -7.387   6.759  68.025  1.00  0.00    -0.097 C  
BRANCH  25  26
HETATM   26  C   UNL     1      -7.018   5.976  69.286  1.00  0.00    -0.064 C  
BRANCH  26  27
HETATM   27  C   UNL     1      -7.544   6.670  70.540  1.00  0.00    -0.099 C  
HETATM   28  C   UNL     1      -6.753   6.262  71.770  1.00  0.00    -0.063 C  
ENDBRANCH  26  27
ENDBRANCH  25  26
ENDBRANCH  22  25
ENDBRANCH   6  22
TORSDOF 10
ENDMDL
MODEL      175
REMARK 921   NORMALIZED FREE ENERGY PREDICTED BY IDOCK:   -4.26 KCAL/MOL
REMARK 922        TOTAL FREE ENERGY PREDICTED BY IDOCK:   -8.52 KCAL/MOL
REMARK 923 INTER-LIGAND FREE ENERGY PREDICTED BY IDOCK:   -7.17 KCAL/MOL
REMARK 924 INTRA-LIGAND FREE ENERGY PREDICTED BY IDOCK:   -1.35 KCAL/MOL
REMARK 927      BINDING AFFINITY PREDICTED BY RF-SCORE:    0.00 PKD
ROOT
HETATM    1  C   UNL     1     -10.669   8.425  68.119  1.00  0.00    -0.034 C  
HETATM    2  C   UNL     1      -9.963   8.323  66.780  1.00  0.00    -0.355 C  
HETATM    3  C   UNL     1      -9.873   9.778  66.398  1.00  0.00    -0.235 C  
HETATM    4  O   UNL     1      -9.674  10.143  65.247  1.00  0.00    -0.256 OA 
HETATM    5  C   UNL     1     -10.087  10.718  67.583  1.00  0.00    -0.205 C  
HETATM    6  C   UNL     1     -10.922   7.472  70.303  1.00  0.00    -0.250 C  
HETATM    7  C   UNL     1     -10.122   9.705  68.724  1.00  0.00    -0.193 C  
HETATM    8  C   UNL     1     -10.965  10.039  69.940  1.00  0.00    -0.339 C  
HETATM    9  O   UNL     1     -10.337   7.361  68.990  1.00  0.00    -0.201 OA 
HETATM   10  C   UNL     1     -10.794   8.890  70.936  1.00  0.00    -0.308 C  
HETATM   11  O   UNL     1     -12.306   7.118  70.189  1.00  0.00    -0.565 OA 
HETATM   12  H   UNL     1     -12.384   6.253  69.802  1.00  0.00     0.000 HD 
ENDROOT
BRANCH   5  13
HETATM   13  C   UNL     1      -8.945  11.706  67.823  1.00  0.00    -0.170 C  
BRANCH  13  14
HETATM   14  C   UNL     1      -9.406  13.099  68.232  1.00  0.00    -0.201 C  
BRANCH  14  15
HETATM   15  C   UNL     1     -10.926  13.150  68.360  1.00  0.00    -0.287 C  
BRANCH  15  16
HETATM   16  C   UNL     1     -11.336  14.296  69.280  1.00  0.00    -0.322 C  
BRANCH  16  17
HETATM   17  C   UNL     1     -12.452  13.871  70.228  1.00  0.00    -0.380 C  
BRANCH  17  18
HETATM   18  C   UNL     1     -12.223  14.442  71.625  1.00  0.00    -0.385 C  
HETATM   19  O   UNL     1     -13.128  15.904  73.266  1.00  0.00    -0.510 OA 
HETATM   20  C   UNL     1     -13.322  15.394  72.028  1.00  0.00    -0.450 C  
HETATM   21  O   UNL     1     -14.287  15.694  71.343  1.00  0.00    -0.524 OA 
ENDBRANCH  17  18
ENDBRANCH  16  17
ENDBRANCH  15  16
ENDBRANCH  14  15
ENDBRANCH  13  14
ENDBRANCH   5  13
BRANCH   6  22
HETATM   22  C   UNL     1     -10.179   6.462  71.236  1.00  0.00    -0.200 C  
HETATM   23  F   UNL     1     -10.443   6.783  72.540  1.00  0.00    -0.193 F  
HETATM   24  F   UNL     1     -10.689   5.211  71.053  1.00  0.00    -0.298 F  
BRANCH  22  25
HETATM   25  C   UNL     1      -8.669   6.427  71.043  1.00  0.00    -0.135 C  
BRANCH  25  26
HETATM   26  C   UNL     1      -7.988   7.553  71.824  1.00  0.00    -0.094 C  
BRANCH  26  27
HETATM   27  C   UNL     1      -6.684   7.978  71.153  1.00  0.00    -0.042 C  
HETATM   28  C   UNL     1      -6.605   7.464  69.727  1.00  0.00    -0.039 C  
ENDBRANCH  26  27
ENDBRANCH  25  26
ENDBRANCH  22  25
ENDBRANCH   6  22
TORSDOF 10
ENDMDL
MODEL      176
REMARK 921   NORMALIZED FREE ENERGY PREDICTED BY IDOCK:   -4.25 KCAL/MOL
REMARK 922        TOTAL FREE ENERGY PREDICTED BY IDOCK:   -8.50 KCAL/MOL
REMARK 923 INTER-LIGAND FREE ENERGY PREDICTED BY IDOCK:   -7.53 KCAL/MOL
REMARK 924 INTRA-LIGAND FREE ENERGY PREDICTED BY IDOCK:   -0.97 KCAL/MOL
REMARK 927      BINDING AFFINITY PREDICTED BY RF-SCORE:    0.00 PKD
ROOT
HETATM    1  C   UNL     1     -11.881  12.643  67.372  1.00  0.00    -0.328 C  
HETATM    2  C   UNL     1     -11.682  12.376  68.851  1.00  0.00    -0.372 C  
HETATM    3  C   UNL     1     -11.403  10.895  68.835  1.00  0.00    -0.288 C  
HETATM    4  O   UNL     1     -11.508  10.196  69.834  1.00  0.00    -0.253 OA 
HETATM    5  C   UNL     1     -11.014  10.379  67.451  1.00  0.00    -0.335 C  
HETATM    6  C   UNL     1     -11.622  14.227  65.592  1.00  0.00    -0.346 C  
HETATM    7  C   UNL     1     -10.902  11.701  66.695  1.00  0.00    -0.327 C  
HETATM    8  C   UNL     1     -11.216  11.695  65.211  1.00  0.00    -0.263 C  
HETATM    9  O   UNL     1     -11.529  13.964  67.006  1.00  0.00    -0.315 OA 
HETATM   10  C   UNL     1     -10.991  13.119  64.697  1.00  0.00    -0.374 C  
HETATM   11  O   UNL     1     -13.012  14.372  65.273  1.00  0.00    -0.608 OA 
HETATM   12  H   UNL     1     -13.397  15.048  65.819  1.00  0.00     0.000 HD 
ENDROOT
BRANCH   5  13
HETATM   13  C   UNL     1      -9.668   9.655  67.398  1.00  0.00    -0.198 C  
BRANCH  13  14
HETATM   14  C   UNL     1      -9.582   8.584  66.319  1.00  0.00    -0.306 C  
BRANCH  14  15
HETATM   15  C   UNL     1     -10.287   7.306  66.766  1.00  0.00    -0.311 C  
BRANCH  15  16
HETATM   16  C   UNL     1      -9.261   6.217  67.063  1.00  0.00    -0.130 C  
BRANCH  16  17
HETATM   17  C   UNL     1      -9.837   4.829  66.808  1.00  0.00    -0.227 C  
BRANCH  17  18
HETATM   18  C   UNL     1      -9.528   3.892  67.971  1.00  0.00    -0.221 C  
HETATM   19  O   UNL     1      -9.005   1.641  68.529  1.00  0.00    -0.088 OA 
HETATM   20  C   UNL     1      -9.282   2.479  67.503  1.00  0.00    -0.168 C  
HETATM   21  O   UNL     1      -9.322   2.099  66.343  1.00  0.00    -0.030 OA 
ENDBRANCH  17  18
ENDBRANCH  16  17
ENDBRANCH  15  16
ENDBRANCH  14  15
ENDBRANCH  13  14
ENDBRANCH   5  13
BRANCH   6  22
HETATM   22  C   UNL     1     -10.860  15.562  65.310  1.00  0.00    -0.411 C  
HETATM   23  F   UNL     1      -9.596  15.270  64.877  1.00  0.00    -0.200 F  
HETATM   24  F   UNL     1     -11.461  16.223  64.280  1.00  0.00    -0.527 F  
BRANCH  22  25
HETATM   25  C   UNL     1     -10.757  16.489  66.515  1.00  0.00    -0.144 C  
BRANCH  25  26
HETATM   26  C   UNL     1      -9.298  16.828  66.826  1.00  0.00    -0.263 C  
BRANCH  26  27
HETATM   27  C   UNL     1      -8.902  18.169  66.213  1.00  0.00    -0.196 C  
HETATM   28  C   UNL     1      -7.393  18.329  66.165  1.00  0.00    -0.298 C  
ENDBRANCH  26  27
ENDBRANCH  25  26
ENDBRANCH  22  25
ENDBRANCH   6  22
TORSDOF 10
ENDMDL
MODEL      177
REMARK 921   NORMALIZED FREE ENERGY PREDICTED BY IDOCK:   -4.24 KCAL/MOL
REMARK 922        TOTAL FREE ENERGY PREDICTED BY IDOCK:   -8.50 KCAL/MOL
REMARK 923 INTER-LIGAND FREE ENERGY PREDICTED BY IDOCK:   -6.81 KCAL/MOL
REMARK 924 INTRA-LIGAND FREE ENERGY PREDICTED BY IDOCK:   -1.69 KCAL/MOL
REMARK 927      BINDING AFFINITY PREDICTED BY RF-SCORE:    0.00 PKD
ROOT
HETATM    1  C   UNL     1     -11.083  16.609  68.174  1.00  0.00    -0.285 C  
HETATM    2  C   UNL     1     -11.118  15.542  69.252  1.00  0.00    -0.285 C  
HETATM    3  C   UNL     1     -11.349  14.307  68.419  1.00  0.00    -0.283 C  
HETATM    4  O   UNL     1     -11.770  13.262  68.897  1.00  0.00    -0.285 OA 
HETATM    5  C   UNL     1     -11.032  14.521  66.940  1.00  0.00    -0.316 C  
HETATM    6  C   UNL     1     -10.153  18.710  67.496  1.00  0.00    -0.360 C  
HETATM    7  C   UNL     1     -10.418  15.917  66.997  1.00  0.00    -0.306 C  
HETATM    8  C   UNL     1     -10.582  16.811  65.783  1.00  0.00    -0.259 C  
HETATM    9  O   UNL     1     -10.280  17.716  68.533  1.00  0.00    -0.345 OA 
HETATM   10  C   UNL     1      -9.849  18.121  66.086  1.00  0.00    -0.255 C  
HETATM   11  O   UNL     1     -11.380  19.449  67.456  1.00  0.00    -0.169 OA 
HETATM   12  H   UNL     1     -11.565  19.808  68.316  1.00  0.00     0.000 HD 
ENDROOT
BRANCH   5  13
HETATM   13  C   UNL     1     -10.006  13.544  66.364  1.00  0.00    -0.296 C  
BRANCH  13  14
HETATM   14  C   UNL     1      -8.564  13.877  66.721  1.00  0.00    -0.066 C  
BRANCH  14  15
HETATM   15  C   UNL     1      -7.827  12.634  67.215  1.00  0.00    -0.155 C  
BRANCH  15  16
HETATM   16  C   UNL     1      -8.161  12.373  68.680  1.00  0.00    -0.002 C  
BRANCH  16  17
HETATM   17  C   UNL     1      -8.703  10.962  68.881  1.00  0.00    -0.144 C  
BRANCH  17  18
HETATM   18  C   UNL     1      -8.620  10.161  67.586  1.00  0.00    -0.118 C  
HETATM   19  O   UNL     1      -9.920   9.023  65.953  1.00  0.00    -0.276 OA 
HETATM   20  C   UNL     1      -9.985   9.734  67.103  1.00  0.00    -0.198 C  
HETATM   21  O   UNL     1     -11.043   9.979  67.660  1.00  0.00    -0.285 OA 
ENDBRANCH  17  18
ENDBRANCH  16  17
ENDBRANCH  15  16
ENDBRANCH  14  15
ENDBRANCH  13  14
ENDBRANCH   5  13
BRANCH   6  22
HETATM   22  C   UNL     1      -8.967  19.650  67.888  1.00  0.00    -0.324 C  
HETATM   23  F   UNL     1      -9.198  20.896  67.373  1.00  0.00    -0.505 F  
HETATM   24  F   UNL     1      -8.937  19.809  69.241  1.00  0.00    -0.340 F  
BRANCH  22  25
HETATM   25  C   UNL     1      -7.604  19.172  67.403  1.00  0.00    -0.256 C  
BRANCH  25  26
HETATM   26  C   UNL     1      -7.178  17.894  68.129  1.00  0.00    -0.231 C  
BRANCH  26  27
HETATM   27  C   UNL     1      -6.332  18.215  69.358  1.00  0.00    -0.249 C  
HETATM   28  C   UNL     1      -5.377  19.364  69.085  1.00  0.00    -0.214 C  
ENDBRANCH  26  27
ENDBRANCH  25  26
ENDBRANCH  22  25
ENDBRANCH   6  22
TORSDOF 10
ENDMDL
MODEL      178
REMARK 921   NORMALIZED FREE ENERGY PREDICTED BY IDOCK:   -4.24 KCAL/MOL
REMARK 922        TOTAL FREE ENERGY PREDICTED BY IDOCK:   -8.49 KCAL/MOL
REMARK 923 INTER-LIGAND FREE ENERGY PREDICTED BY IDOCK:   -6.49 KCAL/MOL
REMARK 924 INTRA-LIGAND FREE ENERGY PREDICTED BY IDOCK:   -2.00 KCAL/MOL
REMARK 927      BINDING AFFINITY PREDICTED BY RF-SCORE:    0.00 PKD
ROOT
HETATM    1  C   UNL     1     -10.767   5.297  70.609  1.00  0.00    -0.131 C  
HETATM    2  C   UNL     1      -9.888   4.226  71.225  1.00  0.00    -0.257 C  
HETATM    3  C   UNL     1      -9.356   3.551  69.987  1.00  0.00    -0.175 C  
HETATM    4  O   UNL     1      -8.869   2.428  70.009  1.00  0.00    -0.064 OA 
HETATM    5  C   UNL     1      -9.523   4.401  68.729  1.00  0.00    -0.227 C  
HETATM    6  C   UNL     1     -11.640   7.517  70.837  1.00  0.00    -0.286 C  
HETATM    7  C   UNL     1     -10.021   5.703  69.351  1.00  0.00    -0.261 C  
HETATM    8  C   UNL     1     -10.948   6.573  68.523  1.00  0.00    -0.360 C  
HETATM    9  O   UNL     1     -10.882   6.443  71.430  1.00  0.00    -0.236 OA 
HETATM   10  C   UNL     1     -11.260   7.818  69.356  1.00  0.00     0.151 C  
HETATM   11  O   UNL     1     -13.025   7.161  70.917  1.00  0.00    -0.578 OA 
HETATM   12  H   UNL     1     -13.257   6.977  71.821  1.00  0.00     0.000 HD 
ENDROOT
BRANCH   5  13
HETATM   13  C   UNL     1      -8.224   4.672  67.969  1.00  0.00    -0.091 C  
BRANCH  13  14
HETATM   14  C   UNL     1      -7.448   5.879  68.477  1.00  0.00    -0.086 C  
BRANCH  14  15
HETATM   15  C   UNL     1      -7.188   6.872  67.347  1.00  0.00    -0.090 C  
BRANCH  15  16
HETATM   16  C   UNL     1      -7.225   8.299  67.883  1.00  0.00    -0.095 C  
BRANCH  16  17
HETATM   17  C   UNL     1      -8.512   9.009  67.478  1.00  0.00    -0.116 C  
BRANCH  17  18
HETATM   18  C   UNL     1      -8.844   8.735  66.015  1.00  0.00    -0.210 C  
HETATM   19  O   UNL     1      -9.362   9.778  63.942  1.00  0.00    -0.261 OA 
HETATM   20  C   UNL     1      -9.069  10.012  65.242  1.00  0.00    -0.200 C  
HETATM   21  O   UNL     1      -9.004  11.140  65.703  1.00  0.00    -0.200 OA 
ENDBRANCH  17  18
ENDBRANCH  16  17
ENDBRANCH  15  16
ENDBRANCH  14  15
ENDBRANCH  13  14
ENDBRANCH   5  13
BRANCH   6  22
HETATM   22  C   UNL     1     -11.362   8.807  71.675  1.00  0.00    -0.320 C  
HETATM   23  F   UNL     1     -12.324   8.926  72.640  1.00  0.00    -0.431 F  
HETATM   24  F   UNL     1     -10.182   8.674  72.343  1.00  0.00    -0.352 F  
BRANCH  22  25
HETATM   25  C   UNL     1     -11.339  10.091  70.855  1.00  0.00    -0.439 C  
BRANCH  25  26
HETATM   26  C   UNL     1     -12.564  10.958  71.154  1.00  0.00    -0.532 C  
BRANCH  26  27
HETATM   27  C   UNL     1     -12.445  12.327  70.491  1.00  0.00    -0.272 C  
HETATM   28  C   UNL     1     -11.642  12.249  69.204  1.00  0.00    -0.373 C  
ENDBRANCH  26  27
ENDBRANCH  25  26
ENDBRANCH  22  25
ENDBRANCH   6  22
TORSDOF 10
ENDMDL
MODEL      179
REMARK 921   NORMALIZED FREE ENERGY PREDICTED BY IDOCK:   -4.22 KCAL/MOL
REMARK 922        TOTAL FREE ENERGY PREDICTED BY IDOCK:   -8.46 KCAL/MOL
REMARK 923 INTER-LIGAND FREE ENERGY PREDICTED BY IDOCK:   -6.89 KCAL/MOL
REMARK 924 INTRA-LIGAND FREE ENERGY PREDICTED BY IDOCK:   -1.57 KCAL/MOL
REMARK 927      BINDING AFFINITY PREDICTED BY RF-SCORE:    0.00 PKD
ROOT
HETATM    1  C   UNL     1     -11.453   9.546  70.557  1.00  0.00    -0.276 C  
HETATM    2  C   UNL     1     -11.962   9.178  71.938  1.00  0.00    -0.443 C  
HETATM    3  C   UNL     1     -10.943   8.147  72.349  1.00  0.00    -0.345 C  
HETATM    4  O   UNL     1     -11.147   7.346  73.252  1.00  0.00    -0.365 OA 
HETATM    5  C   UNL     1      -9.671   8.199  71.504  1.00  0.00    -0.230 C  
HETATM    6  C   UNL     1     -11.236  11.285  68.924  1.00  0.00    -0.253 C  
HETATM    7  C   UNL     1      -9.943   9.461  70.690  1.00  0.00    -0.349 C  
HETATM    8  C   UNL     1      -9.350   9.544  69.296  1.00  0.00    -0.171 C  
HETATM    9  O   UNL     1     -11.779  10.873  70.194  1.00  0.00    -0.288 OA 
HETATM   10  C   UNL     1      -9.737  10.910  68.724  1.00  0.00    -0.196 C  
HETATM   11  O   UNL     1     -12.028  10.673  67.898  1.00  0.00    -0.737 OA 
HETATM   12  H   UNL     1     -12.942  10.901  68.020  1.00  0.00     0.000 HD 
ENDROOT
BRANCH   5  13
HETATM   13  C   UNL     1      -8.383   8.386  72.307  1.00  0.00    -0.218 C  
BRANCH  13  14
HETATM   14  C   UNL     1      -7.318   7.336  72.025  1.00  0.00    -0.079 C  
BRANCH  14  15
HETATM   15  C   UNL     1      -7.926   5.935  72.019  1.00  0.00    -0.107 C  
BRANCH  15  16
HETATM   16  C   UNL     1      -7.619   5.236  70.699  1.00  0.00    -0.076 C  
BRANCH  16  17
HETATM   17  C   UNL     1      -8.875   5.088  69.846  1.00  0.00    -0.130 C  
BRANCH  17  18
HETATM   18  C   UNL     1      -8.750   5.894  68.556  1.00  0.00    -0.112 C  
HETATM   19  O   UNL     1      -9.161   5.832  66.216  1.00  0.00    -0.152 OA 
HETATM   20  C   UNL     1      -9.266   5.125  67.364  1.00  0.00    -0.116 C  
HETATM   21  O   UNL     1      -9.728   3.995  67.395  1.00  0.00    -0.193 OA 
ENDBRANCH  17  18
ENDBRANCH  16  17
ENDBRANCH  15  16
ENDBRANCH  14  15
ENDBRANCH  13  14
ENDBRANCH   5  13
BRANCH   6  22
HETATM   22  C   UNL     1     -11.355  12.842  68.843  1.00  0.00    -0.296 C  
HETATM   23  F   UNL     1     -12.423  13.165  68.052  1.00  0.00    -0.243 F  
HETATM   24  F   UNL     1     -11.645  13.343  70.078  1.00  0.00    -0.328 F  
BRANCH  22  25
HETATM   25  C   UNL     1     -10.116  13.535  68.291  1.00  0.00    -0.247 C  
BRANCH  25  26
HETATM   26  C   UNL     1     -10.287  15.056  68.298  1.00  0.00    -0.236 C  
BRANCH  26  27
HETATM   27  C   UNL     1     -10.891  15.548  66.986  1.00  0.00    -0.314 C  
HETATM   28  C   UNL     1      -9.879  15.486  65.856  1.00  0.00    -0.385 C  
ENDBRANCH  26  27
ENDBRANCH  25  26
ENDBRANCH  22  25
ENDBRANCH   6  22
TORSDOF 10
ENDMDL
MODEL      180
REMARK 921   NORMALIZED FREE ENERGY PREDICTED BY IDOCK:   -4.22 KCAL/MOL
REMARK 922        TOTAL FREE ENERGY PREDICTED BY IDOCK:   -8.46 KCAL/MOL
REMARK 923 INTER-LIGAND FREE ENERGY PREDICTED BY IDOCK:   -7.29 KCAL/MOL
REMARK 924 INTRA-LIGAND FREE ENERGY PREDICTED BY IDOCK:   -1.17 KCAL/MOL
REMARK 927      BINDING AFFINITY PREDICTED BY RF-SCORE:    0.00 PKD
ROOT
HETATM    1  C   UNL     1      -9.710   7.946  71.248  1.00  0.00    -0.157 C  
HETATM    2  C   UNL     1      -8.489   8.754  70.852  1.00  0.00    -0.209 C  
HETATM    3  C   UNL     1      -7.813   7.797  69.905  1.00  0.00    -0.105 C  
HETATM    4  O   UNL     1      -6.631   7.898  69.601  1.00  0.00    -0.037 OA 
HETATM    5  C   UNL     1      -8.747   6.695  69.406  1.00  0.00    -0.135 C  
HETATM    6  C   UNL     1     -12.018   8.028  71.886  1.00  0.00    -0.314 C  
HETATM    7  C   UNL     1     -10.071   7.187  69.984  1.00  0.00    -0.194 C  
HETATM    8  C   UNL     1     -11.112   6.145  70.351  1.00  0.00    -0.420 C  
HETATM    9  O   UNL     1     -10.814   8.762  71.590  1.00  0.00    -0.276 OA 
HETATM   10  C   UNL     1     -12.342   6.899  70.862  1.00  0.00    -0.365 C  
HETATM   11  O   UNL     1     -11.866   7.463  73.195  1.00  0.00    -0.548 OA 
HETATM   12  H   UNL     1     -11.669   8.152  73.820  1.00  0.00     0.000 HD 
ENDROOT
BRANCH   5  13
HETATM   13  C   UNL     1      -8.865   6.604  67.884  1.00  0.00    -0.115 C  
BRANCH  13  14
HETATM   14  C   UNL     1      -8.347   7.832  67.147  1.00  0.00    -0.118 C  
BRANCH  14  15
HETATM   15  C   UNL     1      -9.498   8.606  66.509  1.00  0.00    -0.278 C  
BRANCH  15  16
HETATM   16  C   UNL     1      -9.127   9.022  65.090  1.00  0.00    -0.203 C  
BRANCH  16  17
HETATM   17  C   UNL     1      -8.957  10.533  64.982  1.00  0.00    -0.223 C  
BRANCH  17  18
HETATM   18  C   UNL     1     -10.199  11.256  65.496  1.00  0.00    -0.312 C  
HETATM   19  O   UNL     1     -12.178  12.381  64.814  1.00  0.00    -0.429 OA 
HETATM   20  C   UNL     1     -11.074  11.740  64.366  1.00  0.00    -0.334 C  
HETATM   21  O   UNL     1     -10.842  11.593  63.177  1.00  0.00    -0.313 OA 
ENDBRANCH  17  18
ENDBRANCH  16  17
ENDBRANCH  15  16
ENDBRANCH  14  15
ENDBRANCH  13  14
ENDBRANCH   5  13
BRANCH   6  22
HETATM   22  C   UNL     1     -13.206   9.044  71.870  1.00  0.00    -0.405 C  
HETATM   23  F   UNL     1     -14.011   8.771  70.798  1.00  0.00    -0.130 F  
HETATM   24  F   UNL     1     -13.983   8.857  72.974  1.00  0.00    -0.423 F  
BRANCH  22  25
HETATM   25  C   UNL     1     -12.777  10.504  71.793  1.00  0.00    -0.508 C  
BRANCH  25  26
HETATM   26  C   UNL     1     -13.029  11.080  70.398  1.00  0.00    -0.123 C  
BRANCH  26  27
HETATM   27  C   UNL     1     -11.717  11.361  69.672  1.00  0.00    -0.415 C  
HETATM   28  C   UNL     1     -11.922  11.433  68.170  1.00  0.00    -0.201 C  
ENDBRANCH  26  27
ENDBRANCH  25  26
ENDBRANCH  22  25
ENDBRANCH   6  22
TORSDOF 10
ENDMDL
MODEL      181
REMARK 921   NORMALIZED FREE ENERGY PREDICTED BY IDOCK:   -4.21 KCAL/MOL
REMARK 922        TOTAL FREE ENERGY PREDICTED BY IDOCK:   -8.44 KCAL/MOL
REMARK 923 INTER-LIGAND FREE ENERGY PREDICTED BY IDOCK:   -7.25 KCAL/MOL
REMARK 924 INTRA-LIGAND FREE ENERGY PREDICTED BY IDOCK:   -1.19 KCAL/MOL
REMARK 927      BINDING AFFINITY PREDICTED BY RF-SCORE:    0.00 PKD
ROOT
HETATM    1  C   UNL     1     -11.206  11.539  66.706  1.00  0.00    -0.285 C  
HETATM    2  C   UNL     1     -10.876  11.171  68.140  1.00  0.00    -0.266 C  
HETATM    3  C   UNL     1     -10.007   9.958  67.926  1.00  0.00    -0.160 C  
HETATM    4  O   UNL     1      -9.786   9.144  68.813  1.00  0.00    -0.159 OA 
HETATM    5  C   UNL     1      -9.474   9.853  66.499  1.00  0.00    -0.230 C  
HETATM    6  C   UNL     1     -11.675  13.323  65.177  1.00  0.00    -0.330 C  
HETATM    7  C   UNL     1      -9.941  11.195  65.940  1.00  0.00    -0.285 C  
HETATM    8  C   UNL     1     -10.262  11.271  64.459  1.00  0.00    -0.370 C  
HETATM    9  O   UNL     1     -11.444  12.924  66.543  1.00  0.00    -0.307 OA 
HETATM   10  C   UNL     1     -10.662  12.718  64.159  1.00  0.00    -0.441 C  
HETATM   11  O   UNL     1     -13.006  12.922  64.830  1.00  0.00    -0.754 OA 
HETATM   12  H   UNL     1     -13.624  13.291  65.451  1.00  0.00     0.000 HD 
ENDROOT
BRANCH   5  13
HETATM   13  C   UNL     1      -7.951   9.769  66.394  1.00  0.00    -0.109 C  
BRANCH  13  14
HETATM   14  C   UNL     1      -7.440   9.474  64.991  1.00  0.00    -0.110 C  
BRANCH  14  15
HETATM   15  C   UNL     1      -8.258   8.361  64.339  1.00  0.00    -0.141 C  
BRANCH  15  16
HETATM   16  C   UNL     1      -7.538   7.025  64.491  1.00  0.00    -0.107 C  
BRANCH  16  17
HETATM   17  C   UNL     1      -8.453   5.969  65.100  1.00  0.00    -0.112 C  
BRANCH  17  18
HETATM   18  C   UNL     1      -9.216   6.537  66.293  1.00  0.00    -0.160 C  
HETATM   19  O   UNL     1     -11.154   6.247  67.639  1.00  0.00    -0.341 OA 
HETATM   20  C   UNL     1     -10.472   5.751  66.581  1.00  0.00    -0.268 C  
HETATM   21  O   UNL     1     -10.860   4.779  65.953  1.00  0.00    -0.304 OA 
ENDBRANCH  17  18
ENDBRANCH  16  17
ENDBRANCH  15  16
ENDBRANCH  14  15
ENDBRANCH  13  14
ENDBRANCH   5  13
BRANCH   6  22
HETATM   22  C   UNL     1     -11.545  14.880  65.113  1.00  0.00    -0.330 C  
HETATM   23  F   UNL     1     -10.454  15.204  64.354  1.00  0.00    -0.297 F  
HETATM   24  F   UNL     1     -12.620  15.402  64.458  1.00  0.00    -0.295 F  
BRANCH  22  25
HETATM   25  C   UNL     1     -11.404  15.551  66.474  1.00  0.00    -0.017 C  
BRANCH  25  26
HETATM   26  C   UNL     1     -10.193  16.486  66.504  1.00  0.00    -0.305 C  
BRANCH  26  27
HETATM   27  C   UNL     1     -10.518  17.784  67.238  1.00  0.00    -0.356 C  
HETATM   28  C   UNL     1      -9.866  18.977  66.563  1.00  0.00    -0.415 C  
ENDBRANCH  26  27
ENDBRANCH  25  26
ENDBRANCH  22  25
ENDBRANCH   6  22
TORSDOF 10
ENDMDL
MODEL      182
REMARK 921   NORMALIZED FREE ENERGY PREDICTED BY IDOCK:   -4.19 KCAL/MOL
REMARK 922        TOTAL FREE ENERGY PREDICTED BY IDOCK:   -8.41 KCAL/MOL
REMARK 923 INTER-LIGAND FREE ENERGY PREDICTED BY IDOCK:   -6.46 KCAL/MOL
REMARK 924 INTRA-LIGAND FREE ENERGY PREDICTED BY IDOCK:   -1.95 KCAL/MOL
REMARK 927      BINDING AFFINITY PREDICTED BY RF-SCORE:    0.00 PKD
ROOT
HETATM    1  C   UNL     1     -10.139   7.828  66.507  1.00  0.00    -0.154 C  
HETATM    2  C   UNL     1     -10.871   6.796  67.345  1.00  0.00    -0.417 C  
HETATM    3  C   UNL     1      -9.747   5.845  67.665  1.00  0.00    -0.115 C  
HETATM    4  O   UNL     1      -9.945   4.697  68.042  1.00  0.00    -0.135 OA 
HETATM    5  C   UNL     1      -8.366   6.458  67.438  1.00  0.00    -0.112 C  
HETATM    6  C   UNL     1     -10.002  10.137  65.882  1.00  0.00    -0.267 C  
HETATM    7  C   UNL     1      -8.761   7.902  67.141  1.00  0.00    -0.133 C  
HETATM    8  C   UNL     1      -7.868   8.703  66.212  1.00  0.00    -0.102 C  
HETATM    9  O   UNL     1     -10.723   9.113  66.596  1.00  0.00    -0.145 OA 
HETATM   10  C   UNL     1      -8.462  10.110  66.117  1.00  0.00    -0.134 C  
HETATM   11  O   UNL     1     -10.281   9.965  64.487  1.00  0.00    -0.378 OA 
HETATM   12  H   UNL     1     -11.220   9.982  64.344  1.00  0.00     0.000 HD 
ENDROOT
BRANCH   5  13
HETATM   13  C   UNL     1      -7.450   6.429  68.662  1.00  0.00    -0.088 C  
BRANCH  13  14
HETATM   14  C   UNL     1      -8.066   7.041  69.913  1.00  0.00    -0.125 C  
BRANCH  14  15
HETATM   15  C   UNL     1      -7.247   8.238  70.390  1.00  0.00    -0.044 C  
BRANCH  15  16
HETATM   16  C   UNL     1      -8.172   9.392  70.762  1.00  0.00    -0.173 C  
BRANCH  16  17
HETATM   17  C   UNL     1      -9.423   8.890  71.476  1.00  0.00    -0.347 C  
BRANCH  17  18
HETATM   18  C   UNL     1     -10.673   9.559  70.913  1.00  0.00    -0.403 C  
HETATM   19  O   UNL     1     -13.041   9.653  71.099  1.00  0.00    -0.348 OA 
HETATM   20  C   UNL     1     -11.927   9.064  71.592  1.00  0.00    -0.356 C  
HETATM   21  O   UNL     1     -11.970   8.230  72.482  1.00  0.00    -0.387 OA 
ENDBRANCH  17  18
ENDBRANCH  16  17
ENDBRANCH  15  16
ENDBRANCH  14  15
ENDBRANCH  13  14
ENDBRANCH   5  13
BRANCH   6  22
HETATM   22  C   UNL     1     -10.538  11.520  66.375  1.00  0.00    -0.259 C  
HETATM   23  F   UNL     1     -11.670  11.320  67.117  1.00  0.00    -0.340 F  
HETATM   24  F   UNL     1      -9.634  12.084  67.225  1.00  0.00    -0.177 F  
BRANCH  22  25
HETATM   25  C   UNL     1     -10.861  12.500  65.254  1.00  0.00    -0.321 C  
BRANCH  25  26
HETATM   26  C   UNL     1     -10.216  13.863  65.512  1.00  0.00    -0.348 C  
BRANCH  26  27
HETATM   27  C   UNL     1     -11.242  14.870  66.024  1.00  0.00    -0.327 C  
HETATM   28  C   UNL     1     -11.054  15.144  67.505  1.00  0.00    -0.319 C  
ENDBRANCH  26  27
ENDBRANCH  25  26
ENDBRANCH  22  25
ENDBRANCH   6  22
TORSDOF 10
ENDMDL
MODEL      183
REMARK 921   NORMALIZED FREE ENERGY PREDICTED BY IDOCK:   -4.18 KCAL/MOL
REMARK 922        TOTAL FREE ENERGY PREDICTED BY IDOCK:   -8.40 KCAL/MOL
REMARK 923 INTER-LIGAND FREE ENERGY PREDICTED BY IDOCK:   -7.08 KCAL/MOL
REMARK 924 INTRA-LIGAND FREE ENERGY PREDICTED BY IDOCK:   -1.32 KCAL/MOL
REMARK 927      BINDING AFFINITY PREDICTED BY RF-SCORE:    0.00 PKD
ROOT
HETATM    1  C   UNL     1      -9.853   8.533  71.011  1.00  0.00    -0.195 C  
HETATM    2  C   UNL     1      -8.608   9.280  70.572  1.00  0.00    -0.271 C  
HETATM    3  C   UNL     1      -8.007   8.286  69.612  1.00  0.00    -0.111 C  
HETATM    4  O   UNL     1      -6.832   8.330  69.272  1.00  0.00    -0.049 OA 
HETATM    5  C   UNL     1      -9.006   7.226  69.151  1.00  0.00    -0.135 C  
HETATM    6  C   UNL     1     -12.134   8.727  71.719  1.00  0.00    -0.350 C  
HETATM    7  C   UNL     1     -10.288   7.783  69.765  1.00  0.00    -0.221 C  
HETATM    8  C   UNL     1     -11.364   6.794  70.172  1.00  0.00    -0.404 C  
HETATM    9  O   UNL     1     -10.906   9.402  71.380  1.00  0.00    -0.336 OA 
HETATM   10  C   UNL     1     -12.541   7.608  70.715  1.00  0.00     0.021 C  
HETATM   11  O   UNL     1     -11.968   8.164  73.027  1.00  0.00    -0.609 OA 
HETATM   12  H   UNL     1     -11.719   8.847  73.640  1.00  0.00     0.000 HD 
ENDROOT
BRANCH   5  13
HETATM   13  C   UNL     1      -9.176   7.131  67.634  1.00  0.00    -0.127 C  
BRANCH  13  14
HETATM   14  C   UNL     1      -8.871   8.426  66.893  1.00  0.00    -0.157 C  
BRANCH  14  15
HETATM   15  C   UNL     1     -10.161   9.129  66.477  1.00  0.00    -0.322 C  
BRANCH  15  16
HETATM   16  C   UNL     1      -9.846  10.297  65.548  1.00  0.00    -0.347 C  
BRANCH  16  17
HETATM   17  C   UNL     1     -10.794  11.466  65.788  1.00  0.00    -0.290 C  
BRANCH  17  18
HETATM   18  C   UNL     1     -10.088  12.590  66.542  1.00  0.00    -0.250 C  
HETATM   19  O   UNL     1      -9.982  13.721  68.630  1.00  0.00    -0.225 OA 
HETATM   20  C   UNL     1     -10.604  12.728  67.954  1.00  0.00    -0.221 C  
HETATM   21  O   UNL     1     -11.480  12.044  68.459  1.00  0.00    -0.244 OA 
ENDBRANCH  17  18
ENDBRANCH  16  17
ENDBRANCH  15  16
ENDBRANCH  14  15
ENDBRANCH  13  14
ENDBRANCH   5  13
BRANCH   6  22
HETATM   22  C   UNL     1     -13.272   9.798  71.732  1.00  0.00    -0.436 C  
HETATM   23  F   UNL     1     -13.739   9.965  70.457  1.00  0.00    -0.325 F  
HETATM   24  F   UNL     1     -14.330   9.333  72.455  1.00  0.00    -0.440 F  
BRANCH  22  25
HETATM   25  C   UNL     1     -12.846  11.157  72.273  1.00  0.00     0.178 C  
BRANCH  25  26
HETATM   26  C   UNL     1     -13.284  12.285  71.337  1.00  0.00    -0.179 C  
BRANCH  26  27
HETATM   27  C   UNL     1     -14.055  13.362  72.095  1.00  0.00    -0.441 C  
HETATM   28  C   UNL     1     -13.113  14.353  72.755  1.00  0.00    -0.595 C  
ENDBRANCH  26  27
ENDBRANCH  25  26
ENDBRANCH  22  25
ENDBRANCH   6  22
TORSDOF 10
ENDMDL
MODEL      184
REMARK 921   NORMALIZED FREE ENERGY PREDICTED BY IDOCK:   -4.18 KCAL/MOL
REMARK 922        TOTAL FREE ENERGY PREDICTED BY IDOCK:   -8.40 KCAL/MOL
REMARK 923 INTER-LIGAND FREE ENERGY PREDICTED BY IDOCK:   -6.47 KCAL/MOL
REMARK 924 INTRA-LIGAND FREE ENERGY PREDICTED BY IDOCK:   -1.93 KCAL/MOL
REMARK 927      BINDING AFFINITY PREDICTED BY RF-SCORE:    0.00 PKD
ROOT
HETATM    1  C   UNL     1     -11.935  12.166  67.249  1.00  0.00    -0.087 C  
HETATM    2  C   UNL     1     -11.433  12.283  65.822  1.00  0.00    -0.417 C  
HETATM    3  C   UNL     1     -11.568  13.767  65.597  1.00  0.00    -0.330 C  
HETATM    4  O   UNL     1     -11.588  14.261  64.477  1.00  0.00    -0.387 OA 
HETATM    5  C   UNL     1     -11.706  14.555  66.898  1.00  0.00    -0.399 C  
HETATM    6  C   UNL     1     -11.744  10.988  69.326  1.00  0.00    -0.326 C  
HETATM    7  C   UNL     1     -11.451  13.443  67.912  1.00  0.00    -0.350 C  
HETATM    8  C   UNL     1     -12.133  13.550  69.263  1.00  0.00    -0.335 C  
HETATM    9  O   UNL     1     -11.356  11.077  67.941  1.00  0.00    -0.294 OA 
HETATM   10  C   UNL     1     -11.683  12.344  70.091  1.00  0.00    -0.266 C  
HETATM   11  O   UNL     1     -13.079  10.470  69.366  1.00  0.00    -0.462 OA 
HETATM   12  H   UNL     1     -13.116   9.643  68.900  1.00  0.00     0.000 HD 
ENDROOT
BRANCH   5  13
HETATM   13  C   UNL     1     -10.660  15.656  67.086  1.00  0.00    -0.308 C  
BRANCH  13  14
HETATM   14  C   UNL     1      -9.223  15.182  66.919  1.00  0.00    -0.259 C  
BRANCH  14  15
HETATM   15  C   UNL     1      -8.453  15.313  68.230  1.00  0.00    -0.154 C  
BRANCH  15  16
HETATM   16  C   UNL     1      -8.019  13.937  68.723  1.00  0.00    -0.059 C  
BRANCH  16  17
HETATM   17  C   UNL     1      -6.795  13.438  67.963  1.00  0.00    -0.132 C  
BRANCH  17  18
HETATM   18  C   UNL     1      -6.501  11.981  68.307  1.00  0.00    -0.053 C  
HETATM   19  O   UNL     1      -6.924   9.736  67.648  1.00  0.00    -0.084 OA 
HETATM   20  C   UNL     1      -7.181  11.031  67.351  1.00  0.00    -0.103 C  
HETATM   21  O   UNL     1      -7.889  11.357  66.411  1.00  0.00    -0.145 OA 
ENDBRANCH  17  18
ENDBRANCH  16  17
ENDBRANCH  15  16
ENDBRANCH  14  15
ENDBRANCH  13  14
ENDBRANCH   5  13
BRANCH   6  22
HETATM   22  C   UNL     1     -10.758   9.998  70.028  1.00  0.00    -0.299 C  
HETATM   23  F   UNL     1      -9.485  10.486  69.920  1.00  0.00    -0.184 F  
HETATM   24  F   UNL     1     -11.026   9.956  71.364  1.00  0.00    -0.411 F  
BRANCH  22  25
HETATM   25  C   UNL     1     -10.784   8.584  69.461  1.00  0.00    -0.181 C  
BRANCH  25  26
HETATM   26  C   UNL     1      -9.783   7.681  70.186  1.00  0.00    -0.179 C  
BRANCH  26  27
HETATM   27  C   UNL     1      -8.670   7.227  69.246  1.00  0.00    -0.137 C  
HETATM   28  C   UNL     1      -9.189   7.029  67.832  1.00  0.00    -0.125 C  
ENDBRANCH  26  27
ENDBRANCH  25  26
ENDBRANCH  22  25
ENDBRANCH   6  22
TORSDOF 10
ENDMDL
MODEL      185
REMARK 921   NORMALIZED FREE ENERGY PREDICTED BY IDOCK:   -4.18 KCAL/MOL
REMARK 922        TOTAL FREE ENERGY PREDICTED BY IDOCK:   -8.40 KCAL/MOL
REMARK 923 INTER-LIGAND FREE ENERGY PREDICTED BY IDOCK:   -6.59 KCAL/MOL
REMARK 924 INTRA-LIGAND FREE ENERGY PREDICTED BY IDOCK:   -1.81 KCAL/MOL
REMARK 927      BINDING AFFINITY PREDICTED BY RF-SCORE:    0.00 PKD
ROOT
HETATM    1  C   UNL     1     -10.490  11.495  66.770  1.00  0.00    -0.239 C  
HETATM    2  C   UNL     1     -10.591  12.935  67.234  1.00  0.00    -0.243 C  
HETATM    3  C   UNL     1     -11.632  12.809  68.318  1.00  0.00    -0.334 C  
HETATM    4  O   UNL     1     -12.261  13.771  68.738  1.00  0.00    -0.350 OA 
HETATM    5  C   UNL     1     -11.824  11.370  68.792  1.00  0.00    -0.388 C  
HETATM    6  C   UNL     1      -9.052   9.796  65.882  1.00  0.00    -0.168 C  
HETATM    7  C   UNL     1     -10.685  10.686  68.040  1.00  0.00    -0.275 C  
HETATM    8  C   UNL     1     -10.872   9.235  67.640  1.00  0.00    -0.188 C  
HETATM    9  O   UNL     1      -9.211  11.180  66.252  1.00  0.00    -0.182 OA 
HETATM   10  C   UNL     1      -9.584   8.789  66.945  1.00  0.00    -0.249 C  
HETATM   11  O   UNL     1      -9.744   9.600  64.642  1.00  0.00    -0.429 OA 
HETATM   12  H   UNL     1      -9.420  10.215  63.994  1.00  0.00     0.000 HD 
ENDROOT
BRANCH   5  13
HETATM   13  C   UNL     1     -11.628  11.165  70.295  1.00  0.00    -0.388 C  
BRANCH  13  14
HETATM   14  C   UNL     1     -12.926  11.111  71.088  1.00  0.00    -0.393 C  
BRANCH  14  15
HETATM   15  C   UNL     1     -12.985   9.849  71.946  1.00  0.00    -0.545 C  
BRANCH  15  16
HETATM   16  C   UNL     1     -12.136   8.748  71.318  1.00  0.00    -0.344 C  
BRANCH  16  17
HETATM   17  C   UNL     1     -11.189   8.129  72.340  1.00  0.00    -0.452 C  
BRANCH  17  18
HETATM   18  C   UNL     1     -10.013   7.449  71.646  1.00  0.00    -0.193 C  
HETATM   19  O   UNL     1      -7.641   7.282  71.621  1.00  0.00    -0.084 OA 
HETATM   20  C   UNL     1      -8.690   7.883  72.230  1.00  0.00    -0.147 C  
HETATM   21  O   UNL     1      -8.545   8.682  73.141  1.00  0.00    -0.393 OA 
ENDBRANCH  17  18
ENDBRANCH  16  17
ENDBRANCH  15  16
ENDBRANCH  14  15
ENDBRANCH  13  14
ENDBRANCH   5  13
BRANCH   6  22
HETATM   22  C   UNL     1      -7.522   9.532  65.694  1.00  0.00    -0.094 C  
HETATM   23  F   UNL     1      -6.939  10.652  65.168  1.00  0.00    -0.128 F  
HETATM   24  F   UNL     1      -6.938   9.348  66.912  1.00  0.00    -0.077 F  
BRANCH  22  25
HETATM   25  C   UNL     1      -7.199   8.348  64.792  1.00  0.00    -0.082 C  
BRANCH  25  26
HETATM   26  C   UNL     1      -6.354   7.308  65.530  1.00  0.00    -0.038 C  
BRANCH  26  27
HETATM   27  C   UNL     1      -7.173   6.060  65.849  1.00  0.00    -0.075 C  
HETATM   28  C   UNL     1      -8.368   5.933  64.921  1.00  0.00    -0.115 C  
ENDBRANCH  26  27
ENDBRANCH  25  26
ENDBRANCH  22  25
ENDBRANCH   6  22
TORSDOF 10
ENDMDL
MODEL      186
REMARK 921   NORMALIZED FREE ENERGY PREDICTED BY IDOCK:   -4.17 KCAL/MOL
REMARK 922        TOTAL FREE ENERGY PREDICTED BY IDOCK:   -8.39 KCAL/MOL
REMARK 923 INTER-LIGAND FREE ENERGY PREDICTED BY IDOCK:   -7.28 KCAL/MOL
REMARK 924 INTRA-LIGAND FREE ENERGY PREDICTED BY IDOCK:   -1.11 KCAL/MOL
REMARK 927      BINDING AFFINITY PREDICTED BY RF-SCORE:    0.00 PKD
ROOT
HETATM    1  C   UNL     1     -11.139   9.031  71.306  1.00  0.00    -0.312 C  
HETATM    2  C   UNL     1     -12.481   9.548  71.789  1.00  0.00    -0.484 C  
HETATM    3  C   UNL     1     -12.525  10.893  71.110  1.00  0.00    -0.405 C  
HETATM    4  O   UNL     1     -13.273  11.790  71.477  1.00  0.00    -0.361 OA 
HETATM    5  C   UNL     1     -11.528  11.011  69.959  1.00  0.00    -0.398 C  
HETATM    6  C   UNL     1      -9.865   7.097  70.694  1.00  0.00    -0.182 C  
HETATM    7  C   UNL     1     -11.027   9.570  69.891  1.00  0.00    -0.263 C  
HETATM    8  C   UNL     1      -9.604   9.338  69.418  1.00  0.00    -0.170 C  
HETATM    9  O   UNL     1     -11.096   7.619  71.232  1.00  0.00    -0.241 OA 
HETATM   10  C   UNL     1      -9.375   7.825  69.407  1.00  0.00    -0.152 C  
HETATM   11  O   UNL     1      -8.868   7.202  71.718  1.00  0.00    -0.125 OA 
HETATM   12  H   UNL     1      -9.167   6.758  72.503  1.00  0.00     0.000 HD 
ENDROOT
BRANCH   5  13
HETATM   13  C   UNL     1     -12.152  11.390  68.615  1.00  0.00    -0.214 C  
BRANCH  13  14
HETATM   14  C   UNL     1     -11.818  12.801  68.152  1.00  0.00    -0.372 C  
BRANCH  14  15
HETATM   15  C   UNL     1     -10.442  13.226  68.658  1.00  0.00    -0.242 C  
BRANCH  15  16
HETATM   16  C   UNL     1     -10.467  14.692  69.078  1.00  0.00    -0.248 C  
BRANCH  16  17
HETATM   17  C   UNL     1     -11.891  15.166  69.346  1.00  0.00    -0.357 C  
BRANCH  17  18
HETATM   18  C   UNL     1     -12.367  14.703  70.719  1.00  0.00    -0.398 C  
HETATM   19  O   UNL     1     -12.533  15.342  73.003  1.00  0.00    -0.354 OA 
HETATM   20  C   UNL     1     -12.112  15.744  71.781  1.00  0.00    -0.464 C  
HETATM   21  O   UNL     1     -11.588  16.831  71.597  1.00  0.00    -0.206 OA 
ENDBRANCH  17  18
ENDBRANCH  16  17
ENDBRANCH  15  16
ENDBRANCH  14  15
ENDBRANCH  13  14
ENDBRANCH   5  13
BRANCH   6  22
HETATM   22  C   UNL     1     -10.110   5.596  70.331  1.00  0.00    -0.219 C  
HETATM   23  F   UNL     1     -11.267   5.496  69.607  1.00  0.00    -0.403 F  
HETATM   24  F   UNL     1      -9.119   5.157  69.504  1.00  0.00    -0.109 F  
BRANCH  22  25
HETATM   25  C   UNL     1     -10.213   4.670  71.536  1.00  0.00    -0.224 C  
BRANCH  25  26
HETATM   26  C   UNL     1      -9.259   3.481  71.401  1.00  0.00    -0.195 C  
BRANCH  26  27
HETATM   27  C   UNL     1      -8.063   3.626  72.337  1.00  0.00    -0.073 C  
HETATM   28  C   UNL     1      -8.408   4.478  73.546  1.00  0.00    -0.102 C  
ENDBRANCH  26  27
ENDBRANCH  25  26
ENDBRANCH  22  25
ENDBRANCH   6  22
TORSDOF 10
ENDMDL
MODEL      187
REMARK 921   NORMALIZED FREE ENERGY PREDICTED BY IDOCK:   -4.17 KCAL/MOL
REMARK 922        TOTAL FREE ENERGY PREDICTED BY IDOCK:   -8.38 KCAL/MOL
REMARK 923 INTER-LIGAND FREE ENERGY PREDICTED BY IDOCK:   -6.94 KCAL/MOL
REMARK 924 INTRA-LIGAND FREE ENERGY PREDICTED BY IDOCK:   -1.44 KCAL/MOL
REMARK 927      BINDING AFFINITY PREDICTED BY RF-SCORE:    0.00 PKD
ROOT
HETATM    1  C   UNL     1     -10.688  13.015  68.485  1.00  0.00    -0.255 C  
HETATM    2  C   UNL     1     -11.906  13.915  68.574  1.00  0.00    -0.401 C  
HETATM    3  C   UNL     1     -11.294  15.160  69.164  1.00  0.00    -0.298 C  
HETATM    4  O   UNL     1     -11.965  16.025  69.711  1.00  0.00    -0.297 OA 
HETATM    5  C   UNL     1      -9.773  15.195  69.031  1.00  0.00    -0.234 C  
HETATM    6  C   UNL     1      -9.606  11.260  67.265  1.00  0.00    -0.173 C  
HETATM    7  C   UNL     1      -9.554  13.967  68.150  1.00  0.00    -0.220 C  
HETATM    8  C   UNL     1      -8.250  13.208  68.308  1.00  0.00    -0.154 C  
HETATM    9  O   UNL     1     -10.784  12.074  67.434  1.00  0.00    -0.217 OA 
HETATM   10  C   UNL     1      -8.271  12.062  67.294  1.00  0.00    -0.173 C  
HETATM   11  O   UNL     1      -9.605  10.283  68.313  1.00  0.00    -0.139 OA 
HETATM   12  H   UNL     1     -10.419   9.793  68.296  1.00  0.00     0.000 HD 
ENDROOT
BRANCH   5  13
HETATM   13  C   UNL     1      -9.227  16.431  68.314  1.00  0.00    -0.207 C  
BRANCH  13  14
HETATM   14  C   UNL     1      -8.811  16.179  66.872  1.00  0.00    -0.246 C  
BRANCH  14  15
HETATM   15  C   UNL     1      -7.756  17.189  66.427  1.00  0.00    -0.345 C  
BRANCH  15  16
HETATM   16  C   UNL     1      -7.307  18.035  67.615  1.00  0.00    -0.211 C  
BRANCH  16  17
HETATM   17  C   UNL     1      -7.541  19.519  67.357  1.00  0.00    -0.283 C  
BRANCH  17  18
HETATM   18  C   UNL     1      -8.558  19.721  66.238  1.00  0.00    -0.397 C  
HETATM   19  O   UNL     1     -10.864  20.086  65.791  1.00  0.00    -0.375 OA 
HETATM   20  C   UNL     1      -9.956  19.905  66.777  1.00  0.00    -0.444 C  
HETATM   21  O   UNL     1     -10.267  19.895  67.957  1.00  0.00    -0.422 OA 
ENDBRANCH  17  18
ENDBRANCH  16  17
ENDBRANCH  15  16
ENDBRANCH  14  15
ENDBRANCH  13  14
ENDBRANCH   5  13
BRANCH   6  22
HETATM   22  C   UNL     1      -9.714  10.559  65.872  1.00  0.00    -0.217 C  
HETATM   23  F   UNL     1     -10.839  11.008  65.234  1.00  0.00    -0.330 F  
HETATM   24  F   UNL     1      -8.667  10.939  65.086  1.00  0.00    -0.188 F  
BRANCH  22  25
HETATM   25  C   UNL     1      -9.772   9.038  65.941  1.00  0.00    -0.306 C  
BRANCH  25  26
HETATM   26  C   UNL     1      -8.478   8.414  65.414  1.00  0.00    -0.193 C  
BRANCH  26  27
HETATM   27  C   UNL     1      -7.683   7.761  66.541  1.00  0.00    -0.097 C  
HETATM   28  C   UNL     1      -8.549   6.810  67.348  1.00  0.00    -0.120 C  
ENDBRANCH  26  27
ENDBRANCH  25  26
ENDBRANCH  22  25
ENDBRANCH   6  22
TORSDOF 10
ENDMDL
MODEL      188
REMARK 921   NORMALIZED FREE ENERGY PREDICTED BY IDOCK:   -4.16 KCAL/MOL
REMARK 922        TOTAL FREE ENERGY PREDICTED BY IDOCK:   -8.37 KCAL/MOL
REMARK 923 INTER-LIGAND FREE ENERGY PREDICTED BY IDOCK:   -6.59 KCAL/MOL
REMARK 924 INTRA-LIGAND FREE ENERGY PREDICTED BY IDOCK:   -1.77 KCAL/MOL
REMARK 927      BINDING AFFINITY PREDICTED BY RF-SCORE:    0.00 PKD
ROOT
HETATM    1  C   UNL     1      -8.352   6.994  67.900  1.00  0.00    -0.118 C  
HETATM    2  C   UNL     1      -8.584   5.770  67.035  1.00  0.00    -0.110 C  
HETATM    3  C   UNL     1      -8.487   4.674  68.065  1.00  0.00    -0.102 C  
HETATM    4  O   UNL     1      -8.283   3.506  67.764  1.00  0.00    -0.083 OA 
HETATM    5  C   UNL     1      -8.637   5.189  69.496  1.00  0.00    -0.099 C  
HETATM    6  C   UNL     1      -8.867   9.310  68.234  1.00  0.00    -0.129 C  
HETATM    7  C   UNL     1      -9.018   6.641  69.218  1.00  0.00    -0.135 C  
HETATM    8  C   UNL     1      -8.608   7.686  70.238  1.00  0.00    -0.143 C  
HETATM    9  O   UNL     1      -8.993   8.148  67.390  1.00  0.00    -0.135 OA 
HETATM   10  C   UNL     1      -9.141   9.033  69.742  1.00  0.00    -0.163 C  
HETATM   11  O   UNL     1      -7.537   9.818  68.070  1.00  0.00    -0.082 OA 
HETATM   12  H   UNL     1      -7.370   9.988  67.150  1.00  0.00     0.000 HD 
ENDROOT
BRANCH   5  13
HETATM   13  C   UNL     1      -9.755   4.521  70.297  1.00  0.00    -0.287 C  
BRANCH  13  14
HETATM   14  C   UNL     1      -9.492   4.456  71.795  1.00  0.00    -0.206 C  
BRANCH  14  15
HETATM   15  C   UNL     1     -10.733   4.869  72.582  1.00  0.00    -0.274 C  
BRANCH  15  16
HETATM   16  C   UNL     1     -10.788   6.387  72.715  1.00  0.00    -0.278 C  
BRANCH  16  17
HETATM   17  C   UNL     1     -12.016   6.960  72.016  1.00  0.00    -0.342 C  
BRANCH  17  18
HETATM   18  C   UNL     1     -11.979   8.486  72.019  1.00  0.00    -0.427 C  
HETATM   19  O   UNL     1     -13.343  10.433  72.013  1.00  0.00    -0.433 OA 
HETATM   20  C   UNL     1     -13.366   9.080  72.009  1.00  0.00    -0.438 C  
HETATM   21  O   UNL     1     -14.409   8.445  71.994  1.00  0.00    -0.433 OA 
ENDBRANCH  17  18
ENDBRANCH  16  17
ENDBRANCH  15  16
ENDBRANCH  14  15
ENDBRANCH  13  14
ENDBRANCH   5  13
BRANCH   6  22
HETATM   22  C   UNL     1      -9.913  10.363  67.743  1.00  0.00    -0.175 C  
HETATM   23  F   UNL     1     -11.054   9.712  67.361  1.00  0.00    -0.350 F  
HETATM   24  F   UNL     1     -10.276  11.167  68.782  1.00  0.00    -0.178 F  
BRANCH  22  25
HETATM   25  C   UNL     1      -9.435  11.223  66.579  1.00  0.00    -0.213 C  
BRANCH  25  26
HETATM   26  C   UNL     1     -10.278  10.973  65.327  1.00  0.00    -0.344 C  
BRANCH  26  27
HETATM   27  C   UNL     1     -10.301  12.203  64.424  1.00  0.00    -0.348 C  
HETATM   28  C   UNL     1     -11.556  12.236  63.569  1.00  0.00    -0.570 C  
ENDBRANCH  26  27
ENDBRANCH  25  26
ENDBRANCH  22  25
ENDBRANCH   6  22
TORSDOF 10
ENDMDL
MODEL      189
REMARK 921   NORMALIZED FREE ENERGY PREDICTED BY IDOCK:   -4.15 KCAL/MOL
REMARK 922        TOTAL FREE ENERGY PREDICTED BY IDOCK:   -8.35 KCAL/MOL
REMARK 923 INTER-LIGAND FREE ENERGY PREDICTED BY IDOCK:   -6.64 KCAL/MOL
REMARK 924 INTRA-LIGAND FREE ENERGY PREDICTED BY IDOCK:   -1.71 KCAL/MOL
REMARK 927      BINDING AFFINITY PREDICTED BY RF-SCORE:    0.00 PKD
ROOT
HETATM    1  C   UNL     1     -10.183  15.384  66.389  1.00  0.00    -0.286 C  
HETATM    2  C   UNL     1      -9.271  16.474  65.859  1.00  0.00    -0.209 C  
HETATM    3  C   UNL     1      -8.220  16.511  66.939  1.00  0.00    -0.215 C  
HETATM    4  O   UNL     1      -7.469  17.466  67.091  1.00  0.00    -0.178 OA 
HETATM    5  C   UNL     1      -8.225  15.262  67.816  1.00  0.00    -0.157 C  
HETATM    6  C   UNL     1     -11.667  13.592  65.818  1.00  0.00    -0.345 C  
HETATM    7  C   UNL     1      -9.233  14.404  67.054  1.00  0.00    -0.246 C  
HETATM    8  C   UNL     1     -10.067  13.419  67.850  1.00  0.00    -0.238 C  
HETATM    9  O   UNL     1     -10.859  14.693  65.356  1.00  0.00    -0.314 OA 
HETATM   10  C   UNL     1     -10.954  12.671  66.852  1.00  0.00    -0.297 C  
HETATM   11  O   UNL     1     -12.854  14.145  66.401  1.00  0.00    -0.490 OA 
HETATM   12  H   UNL     1     -13.289  14.707  65.770  1.00  0.00     0.000 HD 
ENDROOT
BRANCH   5  13
HETATM   13  C   UNL     1      -6.886  14.525  67.881  1.00  0.00    -0.177 C  
BRANCH  13  14
HETATM   14  C   UNL     1      -6.853  13.385  68.889  1.00  0.00    -0.111 C  
BRANCH  14  15
HETATM   15  C   UNL     1      -6.240  12.131  68.270  1.00  0.00    -0.052 C  
BRANCH  15  16
HETATM   16  C   UNL     1      -7.342  11.176  67.822  1.00  0.00    -0.093 C  
BRANCH  16  17
HETATM   17  C   UNL     1      -7.431   9.964  68.742  1.00  0.00    -0.079 C  
BRANCH  17  18
HETATM   18  C   UNL     1      -7.929   8.740  67.979  1.00  0.00    -0.106 C  
HETATM   19  O   UNL     1      -9.212   6.749  68.184  1.00  0.00    -0.124 OA 
HETATM   20  C   UNL     1      -8.764   7.837  68.853  1.00  0.00    -0.135 C  
HETATM   21  O   UNL     1      -9.023   8.030  70.030  1.00  0.00    -0.142 OA 
ENDBRANCH  17  18
ENDBRANCH  16  17
ENDBRANCH  15  16
ENDBRANCH  14  15
ENDBRANCH  13  14
ENDBRANCH   5  13
BRANCH   6  22
HETATM   22  C   UNL     1     -12.032  12.721  64.572  1.00  0.00    -0.393 C  
HETATM   23  F   UNL     1     -13.338  12.327  64.672  1.00  0.00    -0.425 F  
HETATM   24  F   UNL     1     -11.960  13.483  63.444  1.00  0.00    -0.499 F  
BRANCH  22  25
HETATM   25  C   UNL     1     -11.164  11.480  64.402  1.00  0.00    -0.327 C  
BRANCH  25  26
HETATM   26  C   UNL     1     -10.217  11.629  63.209  1.00  0.00    -0.445 C  
BRANCH  26  27
HETATM   27  C   UNL     1      -9.290  10.423  63.088  1.00  0.00    -0.340 C  
HETATM   28  C   UNL     1      -8.762   9.995  64.446  1.00  0.00    -0.217 C  
ENDBRANCH  26  27
ENDBRANCH  25  26
ENDBRANCH  22  25
ENDBRANCH   6  22
TORSDOF 10
ENDMDL
MODEL      190
REMARK 921   NORMALIZED FREE ENERGY PREDICTED BY IDOCK:   -4.13 KCAL/MOL
REMARK 922        TOTAL FREE ENERGY PREDICTED BY IDOCK:   -8.32 KCAL/MOL
REMARK 923 INTER-LIGAND FREE ENERGY PREDICTED BY IDOCK:   -6.13 KCAL/MOL
REMARK 924 INTRA-LIGAND FREE ENERGY PREDICTED BY IDOCK:   -2.19 KCAL/MOL
REMARK 927      BINDING AFFINITY PREDICTED BY RF-SCORE:    0.00 PKD
ROOT
HETATM    1  C   UNL     1      -9.656   8.361  67.598  1.00  0.00    -0.153 C  
HETATM    2  C   UNL     1      -9.372   8.410  66.109  1.00  0.00    -0.267 C  
HETATM    3  C   UNL     1      -9.698   9.850  65.807  1.00  0.00    -0.266 C  
HETATM    4  O   UNL     1      -9.927  10.248  64.672  1.00  0.00    -0.336 OA 
HETATM    5  C   UNL     1      -9.739  10.725  67.059  1.00  0.00    -0.205 C  
HETATM    6  C   UNL     1      -9.051   7.379  69.698  1.00  0.00    -0.140 C  
HETATM    7  C   UNL     1      -9.227   9.729  68.097  1.00  0.00    -0.132 C  
HETATM    8  C   UNL     1      -9.722   9.878  69.523  1.00  0.00    -0.238 C  
HETATM    9  O   UNL     1      -8.871   7.393  68.268  1.00  0.00    -0.128 OA 
HETATM   10  C   UNL     1      -9.033   8.792  70.354  1.00  0.00    -0.188 C  
HETATM   11  O   UNL     1     -10.304   6.738  69.968  1.00  0.00    -0.191 OA 
HETATM   12  H   UNL     1     -10.315   5.876  69.568  1.00  0.00     0.000 HD 
ENDROOT
BRANCH   5  13
HETATM   13  C   UNL     1      -8.804  11.934  67.019  1.00  0.00    -0.190 C  
BRANCH  13  14
HETATM   14  C   UNL     1      -9.212  13.065  67.954  1.00  0.00    -0.208 C  
BRANCH  14  15
HETATM   15  C   UNL     1     -10.163  14.031  67.253  1.00  0.00    -0.260 C  
BRANCH  15  16
HETATM   16  C   UNL     1     -11.588  13.820  67.755  1.00  0.00    -0.381 C  
BRANCH  16  17
HETATM   17  C   UNL     1     -12.592  13.875  66.608  1.00  0.00    -0.177 C  
BRANCH  17  18
HETATM   18  C   UNL     1     -12.153  12.971  65.460  1.00  0.00    -0.501 C  
HETATM   19  O   UNL     1     -11.870  12.875  63.102  1.00  0.00    -0.506 OA 
HETATM   20  C   UNL     1     -12.259  13.669  64.126  1.00  0.00    -0.399 C  
HETATM   21  O   UNL     1     -12.648  14.813  63.953  1.00  0.00    -0.834 OA 
ENDBRANCH  17  18
ENDBRANCH  16  17
ENDBRANCH  15  16
ENDBRANCH  14  15
ENDBRANCH  13  14
ENDBRANCH   5  13
BRANCH   6  22
HETATM   22  C   UNL     1      -7.876   6.551  70.313  1.00  0.00    -0.107 C  
HETATM   23  F   UNL     1      -8.368   5.752  71.308  1.00  0.00    -0.118 F  
HETATM   24  F   UNL     1      -7.373   5.703  69.371  1.00  0.00    -0.063 F  
BRANCH  22  25
HETATM   25  C   UNL     1      -6.748   7.399  70.887  1.00  0.00    -0.044 C  
BRANCH  25  26
HETATM   26  C   UNL     1      -5.561   7.462  69.923  1.00  0.00    -0.023 C  
BRANCH  26  27
HETATM   27  C   UNL     1      -5.631   8.709  69.045  1.00  0.00    -0.039 C  
HETATM   28  C   UNL     1      -5.643   8.345  67.571  1.00  0.00    -0.039 C  
ENDBRANCH  26  27
ENDBRANCH  25  26
ENDBRANCH  22  25
ENDBRANCH   6  22
TORSDOF 10
ENDMDL
MODEL      191
REMARK 921   NORMALIZED FREE ENERGY PREDICTED BY IDOCK:   -4.13 KCAL/MOL
REMARK 922        TOTAL FREE ENERGY PREDICTED BY IDOCK:   -8.31 KCAL/MOL
REMARK 923 INTER-LIGAND FREE ENERGY PREDICTED BY IDOCK:   -7.62 KCAL/MOL
REMARK 924 INTRA-LIGAND FREE ENERGY PREDICTED BY IDOCK:   -0.70 KCAL/MOL
REMARK 927      BINDING AFFINITY PREDICTED BY RF-SCORE:    0.00 PKD
ROOT
HETATM    1  C   UNL     1     -11.229  16.358  68.712  1.00  0.00    -0.313 C  
HETATM    2  C   UNL     1     -11.364  16.026  70.185  1.00  0.00    -0.369 C  
HETATM    3  C   UNL     1     -11.946  14.638  70.109  1.00  0.00    -0.313 C  
HETATM    4  O   UNL     1     -12.521  14.114  71.054  1.00  0.00    -0.323 OA 
HETATM    5  C   UNL     1     -11.766  13.993  68.736  1.00  0.00    -0.388 C  
HETATM    6  C   UNL     1      -9.960  17.534  67.054  1.00  0.00    -0.311 C  
HETATM    7  C   UNL     1     -10.868  15.031  68.069  1.00  0.00    -0.270 C  
HETATM    8  C   UNL     1     -10.978  15.200  66.565  1.00  0.00    -0.318 C  
HETATM    9  O   UNL     1     -10.173  17.263  68.454  1.00  0.00    -0.313 OA 
HETATM   10  C   UNL     1      -9.954  16.261  66.155  1.00  0.00    -0.355 C  
HETATM   11  O   UNL     1     -10.998  18.423  66.625  1.00  0.00    -0.150 OA 
HETATM   12  H   UNL     1     -11.002  19.199  67.173  1.00  0.00     0.000 HD 
ENDROOT
BRANCH   5  13
HETATM   13  C   UNL     1     -11.044  12.644  68.758  1.00  0.00    -0.307 C  
BRANCH  13  14
HETATM   14  C   UNL     1     -11.758  11.546  67.982  1.00  0.00    -0.343 C  
BRANCH  14  15
HETATM   15  C   UNL     1     -10.999  11.208  66.701  1.00  0.00    -0.289 C  
BRANCH  15  16
HETATM   16  C   UNL     1     -10.405   9.806  66.798  1.00  0.00    -0.289 C  
BRANCH  16  17
HETATM   17  C   UNL     1      -9.145   9.798  67.656  1.00  0.00    -0.140 C  
BRANCH  17  18
HETATM   18  C   UNL     1      -9.499   9.693  69.137  1.00  0.00    -0.172 C  
HETATM   19  O   UNL     1      -9.448   8.240  71.018  1.00  0.00    -0.151 OA 
HETATM   20  C   UNL     1      -9.139   8.342  69.704  1.00  0.00    -0.154 C  
HETATM   21  O   UNL     1      -8.630   7.424  69.081  1.00  0.00    -0.135 OA 
ENDBRANCH  17  18
ENDBRANCH  16  17
ENDBRANCH  15  16
ENDBRANCH  14  15
ENDBRANCH  13  14
ENDBRANCH   5  13
BRANCH   6  22
HETATM   22  C   UNL     1      -8.564  18.224  66.915  1.00  0.00    -0.263 C  
HETATM   23  F   UNL     1      -7.820  17.542  65.991  1.00  0.00    -0.294 F  
HETATM   24  F   UNL     1      -8.724  19.480  66.408  1.00  0.00    -0.299 F  
BRANCH  22  25
HETATM   25  C   UNL     1      -7.772  18.299  68.214  1.00  0.00    -0.303 C  
BRANCH  25  26
HETATM   26  C   UNL     1      -7.603  19.748  68.674  1.00  0.00    -0.319 C  
BRANCH  26  27
HETATM   27  C   UNL     1      -6.211  20.274  68.334  1.00  0.00    -0.329 C  
HETATM   28  C   UNL     1      -5.492  20.774  69.575  1.00  0.00    -0.408 C  
ENDBRANCH  26  27
ENDBRANCH  25  26
ENDBRANCH  22  25
ENDBRANCH   6  22
TORSDOF 10
ENDMDL
MODEL      192
REMARK 921   NORMALIZED FREE ENERGY PREDICTED BY IDOCK:   -4.13 KCAL/MOL
REMARK 922        TOTAL FREE ENERGY PREDICTED BY IDOCK:   -8.31 KCAL/MOL
REMARK 923 INTER-LIGAND FREE ENERGY PREDICTED BY IDOCK:   -6.92 KCAL/MOL
REMARK 924 INTRA-LIGAND FREE ENERGY PREDICTED BY IDOCK:   -1.39 KCAL/MOL
REMARK 927      BINDING AFFINITY PREDICTED BY RF-SCORE:    0.00 PKD
ROOT
HETATM    1  C   UNL     1      -6.603  16.609  68.140  1.00  0.00    -0.143 C  
HETATM    2  C   UNL     1      -5.679  15.749  67.300  1.00  0.00     0.061 C  
HETATM    3  C   UNL     1      -6.268  14.383  67.543  1.00  0.00     0.033 C  
HETATM    4  O   UNL     1      -5.645  13.351  67.327  1.00  0.00    -0.354 OA 
HETATM    5  C   UNL     1      -7.686  14.439  68.106  1.00  0.00    -0.131 C  
HETATM    6  C   UNL     1      -7.660  18.747  68.363  1.00  0.00    -0.301 C  
HETATM    7  C   UNL     1      -7.957  15.938  67.998  1.00  0.00    -0.141 C  
HETATM    8  C   UNL     1      -8.892  16.562  69.017  1.00  0.00    -0.223 C  
HETATM    9  O   UNL     1      -6.722  17.927  67.639  1.00  0.00    -0.180 OA 
HETATM   10  C   UNL     1      -9.018  18.045  68.662  1.00  0.00    -0.278 C  
HETATM   11  O   UNL     1      -7.035  19.134  69.593  1.00  0.00    -0.220 OA 
HETATM   12  H   UNL     1      -6.207  19.562  69.411  1.00  0.00     0.000 HD 
ENDROOT
BRANCH   5  13
HETATM   13  C   UNL     1      -8.727  13.680  67.281  1.00  0.00    -0.223 C  
BRANCH  13  14
HETATM   14  C   UNL     1      -8.697  12.171  67.482  1.00  0.00    -0.173 C  
BRANCH  14  15
HETATM   15  C   UNL     1      -9.869  11.716  68.349  1.00  0.00    -0.202 C  
BRANCH  15  16
HETATM   16  C   UNL     1     -11.036  12.689  68.206  1.00  0.00    -0.275 C  
BRANCH  16  17
HETATM   17  C   UNL     1     -11.783  12.854  69.524  1.00  0.00    -0.387 C  
BRANCH  17  18
HETATM   18  C   UNL     1     -11.998  11.502  70.198  1.00  0.00    -0.452 C  
HETATM   19  O   UNL     1     -12.985  10.437  72.081  1.00  0.00    -0.429 OA 
HETATM   20  C   UNL     1     -12.788  11.632  71.477  1.00  0.00    -0.364 C  
HETATM   21  O   UNL     1     -13.214  12.677  71.944  1.00  0.00    -0.450 OA 
ENDBRANCH  17  18
ENDBRANCH  16  17
ENDBRANCH  15  16
ENDBRANCH  14  15
ENDBRANCH  13  14
ENDBRANCH   5  13
BRANCH   6  22
HETATM   22  C   UNL     1      -7.956  20.008  67.487  1.00  0.00    -0.307 C  
HETATM   23  F   UNL     1      -7.270  21.076  67.999  1.00  0.00    -0.275 F  
HETATM   24  F   UNL     1      -7.461  19.819  66.231  1.00  0.00    -0.239 F  
BRANCH  22  25
HETATM   25  C   UNL     1      -9.432  20.377  67.401  1.00  0.00    -0.561 C  
BRANCH  25  26
HETATM   26  C   UNL     1      -9.969  20.171  65.984  1.00  0.00    -0.487 C  
BRANCH  26  27
HETATM   27  C   UNL     1     -11.035  19.078  65.953  1.00  0.00    -0.084 C  
HETATM   28  C   UNL     1     -10.433  17.730  65.601  1.00  0.00    -0.132 C  
ENDBRANCH  26  27
ENDBRANCH  25  26
ENDBRANCH  22  25
ENDBRANCH   6  22
TORSDOF 10
ENDMDL
MODEL      193
REMARK 921   NORMALIZED FREE ENERGY PREDICTED BY IDOCK:   -4.12 KCAL/MOL
REMARK 922        TOTAL FREE ENERGY PREDICTED BY IDOCK:   -8.31 KCAL/MOL
REMARK 923 INTER-LIGAND FREE ENERGY PREDICTED BY IDOCK:   -6.90 KCAL/MOL
REMARK 924 INTRA-LIGAND FREE ENERGY PREDICTED BY IDOCK:   -1.41 KCAL/MOL
REMARK 927      BINDING AFFINITY PREDICTED BY RF-SCORE:    0.00 PKD
ROOT
HETATM    1  C   UNL     1      -9.194  11.822  68.528  1.00  0.00    -0.151 C  
HETATM    2  C   UNL     1      -7.851  11.171  68.259  1.00  0.00    -0.123 C  
HETATM    3  C   UNL     1      -7.880  10.042  69.258  1.00  0.00    -0.125 C  
HETATM    4  O   UNL     1      -6.867   9.459  69.620  1.00  0.00    -0.051 OA 
HETATM    5  C   UNL     1      -9.286   9.743  69.776  1.00  0.00    -0.248 C  
HETATM    6  C   UNL     1     -11.040  13.018  67.579  1.00  0.00    -0.268 C  
HETATM    7  C   UNL     1     -10.105  10.655  68.865  1.00  0.00    -0.215 C  
HETATM    8  C   UNL     1     -11.400  11.222  69.414  1.00  0.00    -0.360 C  
HETATM    9  O   UNL     1      -9.724  12.464  67.384  1.00  0.00    -0.189 OA 
HETATM   10  C   UNL     1     -12.033  12.058  68.298  1.00  0.00    -0.244 C  
HETATM   11  O   UNL     1     -10.891  14.221  68.344  1.00  0.00    -0.240 OA 
HETATM   12  H   UNL     1     -10.285  14.807  67.905  1.00  0.00     0.000 HD 
ENDROOT
BRANCH   5  13
HETATM   13  C   UNL     1      -9.740   8.296  69.579  1.00  0.00    -0.174 C  
BRANCH  13  14
HETATM   14  C   UNL     1     -10.332   8.014  68.205  1.00  0.00    -0.250 C  
BRANCH  14  15
HETATM   15  C   UNL     1     -11.030   6.656  68.184  1.00  0.00    -0.323 C  
BRANCH  15  16
HETATM   16  C   UNL     1     -11.212   6.139  69.607  1.00  0.00    -0.488 C  
BRANCH  16  17
HETATM   17  C   UNL     1     -10.409   4.863  69.839  1.00  0.00    -0.220 C  
BRANCH  17  18
HETATM   18  C   UNL     1      -9.749   4.396  68.545  1.00  0.00    -0.181 C  
HETATM   19  O   UNL     1      -7.649   4.039  67.489  1.00  0.00    -0.068 OA 
HETATM   20  C   UNL     1      -8.243   4.453  68.632  1.00  0.00    -0.080 C  
HETATM   21  O   UNL     1      -7.602   4.826  69.602  1.00  0.00    -0.055 OA 
ENDBRANCH  17  18
ENDBRANCH  16  17
ENDBRANCH  15  16
ENDBRANCH  14  15
ENDBRANCH  13  14
ENDBRANCH   5  13
BRANCH   6  22
HETATM   22  C   UNL     1     -11.627  13.345  66.167  1.00  0.00    -0.346 C  
HETATM   23  F   UNL     1     -12.174  12.207  65.639  1.00  0.00    -0.460 F  
HETATM   24  F   UNL     1     -12.659  14.227  66.293  1.00  0.00    -0.469 F  
BRANCH  22  25
HETATM   25  C   UNL     1     -10.606  13.895  65.179  1.00  0.00    -0.391 C  
BRANCH  25  26
HETATM   26  C   UNL     1     -10.789  15.401  64.979  1.00  0.00    -0.462 C  
BRANCH  26  27
HETATM   27  C   UNL     1      -9.830  16.194  65.864  1.00  0.00    -0.384 C  
HETATM   28  C   UNL     1     -10.387  17.569  66.185  1.00  0.00    -0.330 C  
ENDBRANCH  26  27
ENDBRANCH  25  26
ENDBRANCH  22  25
ENDBRANCH   6  22
TORSDOF 10
ENDMDL
MODEL      194
REMARK 921   NORMALIZED FREE ENERGY PREDICTED BY IDOCK:   -4.12 KCAL/MOL
REMARK 922        TOTAL FREE ENERGY PREDICTED BY IDOCK:   -8.31 KCAL/MOL
REMARK 923 INTER-LIGAND FREE ENERGY PREDICTED BY IDOCK:   -6.42 KCAL/MOL
REMARK 924 INTRA-LIGAND FREE ENERGY PREDICTED BY IDOCK:   -1.89 KCAL/MOL
REMARK 927      BINDING AFFINITY PREDICTED BY RF-SCORE:    0.00 PKD
ROOT
HETATM    1  C   UNL     1      -9.240  11.962  68.235  1.00  0.00    -0.187 C  
HETATM    2  C   UNL     1      -8.084  10.980  68.223  1.00  0.00    -0.128 C  
HETATM    3  C   UNL     1      -8.464  10.085  69.375  1.00  0.00    -0.170 C  
HETATM    4  O   UNL     1      -7.656   9.355  69.934  1.00  0.00    -0.082 OA 
HETATM    5  C   UNL     1      -9.933  10.218  69.771  1.00  0.00    -0.222 C  
HETATM    6  C   UNL     1     -10.658  13.368  66.911  1.00  0.00    -0.273 C  
HETATM    7  C   UNL     1     -10.433  11.118  68.644  1.00  0.00    -0.220 C  
HETATM    8  C   UNL     1     -11.583  12.059  68.949  1.00  0.00    -0.377 C  
HETATM    9  O   UNL     1      -9.510  12.497  66.954  1.00  0.00    -0.206 OA 
HETATM   10  C   UNL     1     -11.908  12.808  67.654  1.00  0.00    -0.396 C  
HETATM   11  O   UNL     1     -10.271  14.619  67.493  1.00  0.00    -0.226 OA 
HETATM   12  H   UNL     1      -9.509  14.961  67.040  1.00  0.00     0.000 HD 
ENDROOT
BRANCH   5  13
HETATM   13  C   UNL     1     -10.718   8.905  69.750  1.00  0.00    -0.230 C  
BRANCH  13  14
HETATM   14  C   UNL     1     -10.098   7.826  68.873  1.00  0.00    -0.201 C  
BRANCH  14  15
HETATM   15  C   UNL     1     -10.749   7.811  67.492  1.00  0.00    -0.265 C  
BRANCH  15  16
HETATM   16  C   UNL     1      -9.856   7.074  66.499  1.00  0.00    -0.175 C  
BRANCH  16  17
HETATM   17  C   UNL     1      -8.383   7.385  66.744  1.00  0.00    -0.122 C  
BRANCH  17  18
HETATM   18  C   UNL     1      -7.494   6.291  66.160  1.00  0.00    -0.085 C  
HETATM   19  O   UNL     1      -6.439   4.218  66.652  1.00  0.00    -0.036 OA 
HETATM   20  C   UNL     1      -7.226   5.194  67.161  1.00  0.00    -0.081 C  
HETATM   21  O   UNL     1      -7.649   5.159  68.306  1.00  0.00    -0.078 OA 
ENDBRANCH  17  18
ENDBRANCH  16  17
ENDBRANCH  15  16
ENDBRANCH  14  15
ENDBRANCH  13  14
ENDBRANCH   5  13
BRANCH   6  22
HETATM   22  C   UNL     1     -11.043  13.566  65.409  1.00  0.00    -0.293 C  
HETATM   23  F   UNL     1     -11.817  14.689  65.292  1.00  0.00    -0.346 F  
HETATM   24  F   UNL     1      -9.920  13.813  64.677  1.00  0.00    -0.386 F  
BRANCH  22  25
HETATM   25  C   UNL     1     -11.799  12.393  64.798  1.00  0.00    -0.442 C  
BRANCH  25  26
HETATM   26  C   UNL     1     -10.953  11.684  63.738  1.00  0.00    -0.495 C  
BRANCH  26  27
HETATM   27  C   UNL     1     -10.154  10.536  64.348  1.00  0.00    -0.395 C  
HETATM   28  C   UNL     1      -9.065  10.058  63.404  1.00  0.00    -0.301 C  
ENDBRANCH  26  27
ENDBRANCH  25  26
ENDBRANCH  22  25
ENDBRANCH   6  22
TORSDOF 10
ENDMDL
MODEL      195
REMARK 921   NORMALIZED FREE ENERGY PREDICTED BY IDOCK:   -4.12 KCAL/MOL
REMARK 922        TOTAL FREE ENERGY PREDICTED BY IDOCK:   -8.30 KCAL/MOL
REMARK 923 INTER-LIGAND FREE ENERGY PREDICTED BY IDOCK:   -7.44 KCAL/MOL
REMARK 924 INTRA-LIGAND FREE ENERGY PREDICTED BY IDOCK:   -0.86 KCAL/MOL
REMARK 927      BINDING AFFINITY PREDICTED BY RF-SCORE:    0.00 PKD
ROOT
HETATM    1  C   UNL     1     -10.450  10.004  65.820  1.00  0.00    -0.014 C  
HETATM    2  C   UNL     1      -9.999  10.626  64.512  1.00  0.00    -0.410 C  
HETATM    3  C   UNL     1     -10.782  11.914  64.528  1.00  0.00    -0.312 C  
HETATM    4  O   UNL     1     -10.979  12.575  63.516  1.00  0.00    -0.445 OA 
HETATM    5  C   UNL     1     -11.312  12.270  65.915  1.00  0.00    -0.406 C  
HETATM    6  C   UNL     1      -9.829   8.617  67.671  1.00  0.00    -0.180 C  
HETATM    7  C   UNL     1     -10.623  11.193  66.749  1.00  0.00    -0.311 C  
HETATM    8  C   UNL     1     -11.332  10.705  67.998  1.00  0.00    -0.350 C  
HETATM    9  O   UNL     1      -9.469   9.156  66.384  1.00  0.00    -0.189 OA 
HETATM   10  C   UNL     1     -10.418   9.669  68.658  1.00  0.00    -0.235 C  
HETATM   11  O   UNL     1     -10.787   7.575  67.448  1.00  0.00    -0.460 OA 
HETATM   12  H   UNL     1     -10.428   6.933  66.847  1.00  0.00     0.000 HD 
ENDROOT
BRANCH   5  13
HETATM   13  C   UNL     1     -10.885  13.648  66.423  1.00  0.00    -0.290 C  
BRANCH  13  14
HETATM   14  C   UNL     1     -11.810  14.232  67.483  1.00  0.00    -0.429 C  
BRANCH  14  15
HETATM   15  C   UNL     1     -11.237  14.013  68.882  1.00  0.00    -0.303 C  
BRANCH  15  16
HETATM   16  C   UNL     1     -11.366  15.290  69.706  1.00  0.00    -0.306 C  
BRANCH  16  17
HETATM   17  C   UNL     1     -12.781  15.458  70.248  1.00  0.00    -0.338 C  
BRANCH  17  18
HETATM   18  C   UNL     1     -12.755  15.785  71.738  1.00  0.00    -0.519 C  
HETATM   19  O   UNL     1     -12.799  14.819  73.910  1.00  0.00    -0.485 OA 
HETATM   20  C   UNL     1     -12.823  14.538  72.586  1.00  0.00    -0.410 C  
HETATM   21  O   UNL     1     -12.896  13.395  72.163  1.00  0.00    -0.281 OA 
ENDBRANCH  17  18
ENDBRANCH  16  17
ENDBRANCH  15  16
ENDBRANCH  14  15
ENDBRANCH  13  14
ENDBRANCH   5  13
BRANCH   6  22
HETATM   22  C   UNL     1      -8.531   8.030  68.316  1.00  0.00    -0.123 C  
HETATM   23  F   UNL     1      -8.715   6.695  68.550  1.00  0.00    -0.122 F  
HETATM   24  F   UNL     1      -7.502   8.111  67.426  1.00  0.00    -0.086 F  
BRANCH  22  25
HETATM   25  C   UNL     1      -8.126   8.699  69.623  1.00  0.00    -0.112 C  
BRANCH  25  26
HETATM   26  C   UNL     1      -7.369  10.003  69.363  1.00  0.00    -0.100 C  
BRANCH  26  27
HETATM   27  C   UNL     1      -6.239  10.195  70.371  1.00  0.00    -0.112 C  
HETATM   28  C   UNL     1      -5.464  11.471  70.095  1.00  0.00    -0.109 C  
ENDBRANCH  26  27
ENDBRANCH  25  26
ENDBRANCH  22  25
ENDBRANCH   6  22
TORSDOF 10
ENDMDL
MODEL      196
REMARK 921   NORMALIZED FREE ENERGY PREDICTED BY IDOCK:   -4.11 KCAL/MOL
REMARK 922        TOTAL FREE ENERGY PREDICTED BY IDOCK:   -8.29 KCAL/MOL
REMARK 923 INTER-LIGAND FREE ENERGY PREDICTED BY IDOCK:   -6.47 KCAL/MOL
REMARK 924 INTRA-LIGAND FREE ENERGY PREDICTED BY IDOCK:   -1.82 KCAL/MOL
REMARK 927      BINDING AFFINITY PREDICTED BY RF-SCORE:    0.00 PKD
ROOT
HETATM    1  C   UNL     1     -11.384  11.716  68.268  1.00  0.00    -0.285 C  
HETATM    2  C   UNL     1     -10.989  10.896  69.481  1.00  0.00    -0.306 C  
HETATM    3  C   UNL     1     -10.899   9.520  68.874  1.00  0.00    -0.150 C  
HETATM    4  O   UNL     1     -10.930   8.500  69.550  1.00  0.00    -0.173 OA 
HETATM    5  C   UNL     1     -10.798   9.548  67.350  1.00  0.00    -0.215 C  
HETATM    6  C   UNL     1     -11.218  13.840  67.173  1.00  0.00    -0.311 C  
HETATM    7  C   UNL     1     -10.646  11.050  67.121  1.00  0.00    -0.294 C  
HETATM    8  C   UNL     1     -11.187  11.625  65.826  1.00  0.00    -0.290 C  
HETATM    9  O   UNL     1     -10.936  13.055  68.348  1.00  0.00    -0.240 OA 
HETATM   10  C   UNL     1     -10.874  13.123  65.833  1.00  0.00    -0.288 C  
HETATM   11  O   UNL     1     -12.612  14.170  67.200  1.00  0.00    -0.533 OA 
HETATM   12  H   UNL     1     -12.822  14.607  68.017  1.00  0.00     0.000 HD 
ENDROOT
BRANCH   5  13
HETATM   13  C   UNL     1      -9.575   8.827  66.781  1.00  0.00    -0.267 C  
BRANCH  13  14
HETATM   14  C   UNL     1      -8.274   9.605  66.923  1.00  0.00    -0.113 C  
BRANCH  14  15
HETATM   15  C   UNL     1      -7.145   8.692  67.396  1.00  0.00    -0.080 C  
BRANCH  15  16
HETATM   16  C   UNL     1      -7.381   8.274  68.844  1.00  0.00    -0.090 C  
BRANCH  16  17
HETATM   17  C   UNL     1      -7.441   6.756  68.979  1.00  0.00    -0.096 C  
BRANCH  17  18
HETATM   18  C   UNL     1      -7.854   6.354  70.391  1.00  0.00    -0.107 C  
HETATM   19  O   UNL     1      -9.512   5.200  71.645  1.00  0.00    -0.144 OA 
HETATM   20  C   UNL     1      -9.139   5.562  70.395  1.00  0.00    -0.139 C  
HETATM   21  O   UNL     1      -9.794   5.268  69.408  1.00  0.00    -0.160 OA 
ENDBRANCH  17  18
ENDBRANCH  16  17
ENDBRANCH  15  16
ENDBRANCH  14  15
ENDBRANCH  13  14
ENDBRANCH   5  13
BRANCH   6  22
HETATM   22  C   UNL     1     -10.353  15.140  67.257  1.00  0.00    -0.261 C  
HETATM   23  F   UNL     1      -9.297  15.028  66.394  1.00  0.00    -0.248 F  
HETATM   24  F   UNL     1     -11.081  16.204  66.814  1.00  0.00    -0.276 F  
BRANCH  22  25
HETATM   25  C   UNL     1      -9.810  15.440  68.648  1.00  0.00    -0.208 C  
BRANCH  25  26
HETATM   26  C   UNL     1     -10.647  16.514  69.346  1.00  0.00    -0.329 C  
BRANCH  26  27
HETATM   27  C   UNL     1     -11.174  16.016  70.689  1.00  0.00    -0.395 C  
HETATM   28  C   UNL     1     -12.548  15.386  70.542  1.00  0.00    -0.471 C  
ENDBRANCH  26  27
ENDBRANCH  25  26
ENDBRANCH  22  25
ENDBRANCH   6  22
TORSDOF 10
ENDMDL
MODEL      197
REMARK 921   NORMALIZED FREE ENERGY PREDICTED BY IDOCK:   -4.09 KCAL/MOL
REMARK 922        TOTAL FREE ENERGY PREDICTED BY IDOCK:   -8.25 KCAL/MOL
REMARK 923 INTER-LIGAND FREE ENERGY PREDICTED BY IDOCK:   -6.62 KCAL/MOL
REMARK 924 INTRA-LIGAND FREE ENERGY PREDICTED BY IDOCK:   -1.63 KCAL/MOL
REMARK 927      BINDING AFFINITY PREDICTED BY RF-SCORE:    0.00 PKD
ROOT
HETATM    1  C   UNL     1     -12.234  11.742  70.384  1.00  0.00    -0.330 C  
HETATM    2  C   UNL     1     -12.107  10.719  71.496  1.00  0.00    -0.201 C  
HETATM    3  C   UNL     1     -11.919   9.455  70.696  1.00  0.00    -0.170 C  
HETATM    4  O   UNL     1     -12.105   8.343  71.172  1.00  0.00    -0.289 OA 
HETATM    5  C   UNL     1     -11.511   9.724  69.249  1.00  0.00     0.023 C  
HETATM    6  C   UNL     1     -11.811  14.004  69.716  1.00  0.00    -0.324 C  
HETATM    7  C   UNL     1     -11.290  11.233  69.309  1.00  0.00    -0.354 C  
HETATM    8  C   UNL     1     -11.547  12.036  68.048  1.00  0.00    -0.407 C  
HETATM    9  O   UNL     1     -11.787  13.026  70.775  1.00  0.00    -0.167 OA 
HETATM   10  C   UNL     1     -11.216  13.496  68.369  1.00  0.00    -0.309 C  
HETATM   11  O   UNL     1     -13.176  14.396  69.523  1.00  0.00     0.017 OA 
HETATM   12  H   UNL     1     -13.539  14.706  70.344  1.00  0.00     0.000 HD 
ENDROOT
BRANCH   5  13
HETATM   13  C   UNL     1     -10.212   9.042  68.819  1.00  0.00    -0.226 C  
BRANCH  13  14
HETATM   14  C   UNL     1      -9.013   9.979  68.749  1.00  0.00    -0.145 C  
BRANCH  14  15
HETATM   15  C   UNL     1      -8.448  10.032  67.332  1.00  0.00    -0.121 C  
BRANCH  15  16
HETATM   16  C   UNL     1      -9.348   9.252  66.379  1.00  0.00    -0.247 C  
BRANCH  16  17
HETATM   17  C   UNL     1      -9.279   9.817  64.965  1.00  0.00    -0.307 C  
BRANCH  17  18
HETATM   18  C   UNL     1     -10.049  11.131  64.869  1.00  0.00    -0.345 C  
HETATM   19  O   UNL     1     -10.969  12.702  63.340  1.00  0.00    -0.428 OA 
HETATM   20  C   UNL     1     -10.285  11.538  63.435  1.00  0.00    -0.420 C  
HETATM   21  O   UNL     1      -9.915  10.917  62.451  1.00  0.00    -0.049 OA 
ENDBRANCH  17  18
ENDBRANCH  16  17
ENDBRANCH  15  16
ENDBRANCH  14  15
ENDBRANCH  13  14
ENDBRANCH   5  13
BRANCH   6  22
HETATM   22  C   UNL     1     -10.958  15.227  70.185  1.00  0.00    -0.291 C  
HETATM   23  F   UNL     1      -9.882  14.773  70.897  1.00  0.00     0.413 F  
HETATM   24  F   UNL     1     -10.439  15.867  69.099  1.00  0.00    -0.191 F  
BRANCH  22  25
HETATM   25  C   UNL     1     -11.721  16.227  71.046  1.00  0.00    -0.317 C  
BRANCH  25  26
HETATM   26  C   UNL     1     -11.681  15.825  72.522  1.00  0.00    -0.566 C  
BRANCH  26  27
HETATM   27  C   UNL     1     -13.023  16.089  73.200  1.00  0.00    -0.627 C  
HETATM   28  C   UNL     1     -14.072  15.084  72.757  1.00  0.00    -0.235 C  
ENDBRANCH  26  27
ENDBRANCH  25  26
ENDBRANCH  22  25
ENDBRANCH   6  22
TORSDOF 10
ENDMDL
MODEL      198
REMARK 921   NORMALIZED FREE ENERGY PREDICTED BY IDOCK:   -4.08 KCAL/MOL
REMARK 922        TOTAL FREE ENERGY PREDICTED BY IDOCK:   -8.25 KCAL/MOL
REMARK 923 INTER-LIGAND FREE ENERGY PREDICTED BY IDOCK:   -7.31 KCAL/MOL
REMARK 924 INTRA-LIGAND FREE ENERGY PREDICTED BY IDOCK:   -0.93 KCAL/MOL
REMARK 927      BINDING AFFINITY PREDICTED BY RF-SCORE:    0.00 PKD
ROOT
HETATM    1  C   UNL     1     -10.768  10.594  69.467  1.00  0.00    -0.251 C  
HETATM    2  C   UNL     1     -12.070  10.794  70.218  1.00  0.00    -0.433 C  
HETATM    3  C   UNL     1     -12.166  12.298  70.220  1.00  0.00    -0.262 C  
HETATM    4  O   UNL     1     -12.886  12.909  70.999  1.00  0.00    -0.282 OA 
HETATM    5  C   UNL     1     -11.258  12.953  69.181  1.00  0.00    -0.293 C  
HETATM    6  C   UNL     1      -9.541   9.183  67.969  1.00  0.00    -0.147 C  
HETATM    7  C   UNL     1     -10.762  11.713  68.441  1.00  0.00    -0.248 C  
HETATM    8  C   UNL     1      -9.379  11.766  67.821  1.00  0.00    -0.181 C  
HETATM    9  O   UNL     1     -10.729   9.367  68.765  1.00  0.00    -0.220 OA 
HETATM   10  C   UNL     1      -9.149  10.427  67.117  1.00  0.00    -0.152 C  
HETATM   11  O   UNL     1      -8.471   8.853  68.864  1.00  0.00    -0.127 OA 
HETATM   12  H   UNL     1      -8.710   8.095  69.383  1.00  0.00     0.000 HD 
ENDROOT
BRANCH   5  13
HETATM   13  C   UNL     1     -11.981  13.871  68.194  1.00  0.00    -0.385 C  
BRANCH  13  14
HETATM   14  C   UNL     1     -11.113  14.993  67.641  1.00  0.00    -0.317 C  
BRANCH  14  15
HETATM   15  C   UNL     1     -11.206  16.236  68.524  1.00  0.00    -0.359 C  
BRANCH  15  16
HETATM   16  C   UNL     1     -10.078  17.205  68.186  1.00  0.00    -0.311 C  
BRANCH  16  17
HETATM   17  C   UNL     1     -10.622  18.580  67.815  1.00  0.00    -0.422 C  
BRANCH  17  18
HETATM   18  C   UNL     1      -9.582  19.664  68.082  1.00  0.00    -0.474 C  
HETATM   19  O   UNL     1      -7.828  20.919  67.082  1.00  0.00    -0.300 OA 
HETATM   20  C   UNL     1      -8.752  19.958  66.855  1.00  0.00    -0.340 C  
HETATM   21  O   UNL     1      -8.871  19.410  65.771  1.00  0.00    -0.393 OA 
ENDBRANCH  17  18
ENDBRANCH  16  17
ENDBRANCH  15  16
ENDBRANCH  14  15
ENDBRANCH  13  14
ENDBRANCH   5  13
BRANCH   6  22
HETATM   22  C   UNL     1      -9.811   7.996  66.988  1.00  0.00    -0.227 C  
HETATM   23  F   UNL     1     -11.155   7.740  66.959  1.00  0.00    -0.379 F  
HETATM   24  F   UNL     1      -9.477   8.366  65.719  1.00  0.00    -0.251 F  
BRANCH  22  25
HETATM   25  C   UNL     1      -9.081   6.708  67.350  1.00  0.00    -0.120 C  
BRANCH  25  26
HETATM   26  C   UNL     1      -9.818   5.485  66.801  1.00  0.00    -0.186 C  
BRANCH  26  27
HETATM   27  C   UNL     1      -8.846   4.503  66.152  1.00  0.00    -0.118 C  
HETATM   28  C   UNL     1      -8.205   5.099  64.911  1.00  0.00    -0.136 C  
ENDBRANCH  26  27
ENDBRANCH  25  26
ENDBRANCH  22  25
ENDBRANCH   6  22
TORSDOF 10
ENDMDL
MODEL      199
REMARK 921   NORMALIZED FREE ENERGY PREDICTED BY IDOCK:   -4.08 KCAL/MOL
REMARK 922        TOTAL FREE ENERGY PREDICTED BY IDOCK:   -8.24 KCAL/MOL
REMARK 923 INTER-LIGAND FREE ENERGY PREDICTED BY IDOCK:   -7.55 KCAL/MOL
REMARK 924 INTRA-LIGAND FREE ENERGY PREDICTED BY IDOCK:   -0.70 KCAL/MOL
REMARK 927      BINDING AFFINITY PREDICTED BY RF-SCORE:    0.00 PKD
ROOT
HETATM    1  C   UNL     1      -9.896  13.255  65.716  1.00  0.00    -0.197 C  
HETATM    2  C   UNL     1     -10.971  12.852  64.725  1.00  0.00    -0.344 C  
HETATM    3  C   UNL     1     -10.521  11.457  64.373  1.00  0.00    -0.330 C  
HETATM    4  O   UNL     1     -10.904  10.879  63.365  1.00  0.00    -0.170 OA 
HETATM    5  C   UNL     1      -9.530  10.881  65.382  1.00  0.00    -0.254 C  
HETATM    6  C   UNL     1      -9.390  14.532  67.679  1.00  0.00    -0.202 C  
HETATM    7  C   UNL     1      -9.577  11.967  66.454  1.00  0.00    -0.239 C  
HETATM    8  C   UNL     1      -8.325  12.203  67.276  1.00  0.00    -0.179 C  
HETATM    9  O   UNL     1     -10.360  14.193  66.669  1.00  0.00    -0.270 OA 
HETATM   10  C   UNL     1      -8.652  13.303  68.289  1.00  0.00    -0.169 C  
HETATM   11  O   UNL     1      -8.437  15.419  67.080  1.00  0.00    -0.195 OA 
HETATM   12  H   UNL     1      -8.887  16.169  66.708  1.00  0.00     0.000 HD 
ENDROOT
BRANCH   5  13
HETATM   13  C   UNL     1      -9.956   9.548  66.000  1.00  0.00    -0.348 C  
BRANCH  13  14
HETATM   14  C   UNL     1     -10.743   9.688  67.296  1.00  0.00    -0.284 C  
BRANCH  14  15
HETATM   15  C   UNL     1     -10.285   8.653  68.322  1.00  0.00    -0.237 C  
BRANCH  15  16
HETATM   16  C   UNL     1     -10.459   7.246  67.760  1.00  0.00    -0.292 C  
BRANCH  16  17
HETATM   17  C   UNL     1     -10.963   6.283  68.829  1.00  0.00    -0.424 C  
BRANCH  17  18
HETATM   18  C   UNL     1     -10.306   6.575  70.175  1.00  0.00    -0.241 C  
HETATM   19  O   UNL     1     -10.732   7.328  72.389  1.00  0.00    -0.222 OA 
HETATM   20  C   UNL     1     -11.306   7.067  71.192  1.00  0.00    -0.282 C  
HETATM   21  O   UNL     1     -12.500   7.228  70.992  1.00  0.00    -0.334 OA 
ENDBRANCH  17  18
ENDBRANCH  16  17
ENDBRANCH  15  16
ENDBRANCH  14  15
ENDBRANCH  13  14
ENDBRANCH   5  13
BRANCH   6  22
HETATM   22  C   UNL     1     -10.150  15.257  68.837  1.00  0.00    -0.225 C  
HETATM   23  F   UNL     1     -10.740  14.318  69.638  1.00  0.00    -0.234 F  
HETATM   24  F   UNL     1      -9.257  15.913  69.631  1.00  0.00    -0.252 F  
BRANCH  22  25
HETATM   25  C   UNL     1     -11.222  16.232  68.366  1.00  0.00    -0.349 C  
BRANCH  25  26
HETATM   26  C   UNL     1     -10.603  17.403  67.600  1.00  0.00    -0.350 C  
BRANCH  26  27
HETATM   27  C   UNL     1     -10.235  18.545  68.543  1.00  0.00    -0.389 C  
HETATM   28  C   UNL     1      -9.963  19.827  67.776  1.00  0.00    -0.535 C  
ENDBRANCH  26  27
ENDBRANCH  25  26
ENDBRANCH  22  25
ENDBRANCH   6  22
TORSDOF 10
ENDMDL
MODEL      200
REMARK 921   NORMALIZED FREE ENERGY PREDICTED BY IDOCK:   -4.08 KCAL/MOL
REMARK 922        TOTAL FREE ENERGY PREDICTED BY IDOCK:   -8.23 KCAL/MOL
REMARK 923 INTER-LIGAND FREE ENERGY PREDICTED BY IDOCK:   -6.96 KCAL/MOL
REMARK 924 INTRA-LIGAND FREE ENERGY PREDICTED BY IDOCK:   -1.27 KCAL/MOL
REMARK 927      BINDING AFFINITY PREDICTED BY RF-SCORE:    0.00 PKD
ROOT
HETATM    1  C   UNL     1     -11.263  10.967  67.025  1.00  0.00    -0.181 C  
HETATM    2  C   UNL     1     -11.328  12.052  65.967  1.00  0.00    -0.398 C  
HETATM    3  C   UNL     1     -11.820  13.217  66.787  1.00  0.00    -0.394 C  
HETATM    4  O   UNL     1     -12.328  14.209  66.281  1.00  0.00    -0.456 OA 
HETATM    5  C   UNL     1     -11.641  13.003  68.289  1.00  0.00    -0.375 C  
HETATM    6  C   UNL     1     -10.128   8.994  67.772  1.00  0.00    -0.208 C  
HETATM    7  C   UNL     1     -10.836  11.706  68.280  1.00  0.00    -0.260 C  
HETATM    8  C   UNL     1     -11.005  10.761  69.454  1.00  0.00    -0.305 C  
HETATM    9  O   UNL     1     -10.278   9.993  66.743  1.00  0.00    -0.217 OA 
HETATM   10  C   UNL     1     -10.068   9.575  69.216  1.00  0.00    -0.203 C  
HETATM   11  O   UNL     1     -11.237   8.092  67.660  1.00  0.00    -0.379 OA 
HETATM   12  H   UNL     1     -11.274   7.738  66.779  1.00  0.00     0.000 HD 
ENDROOT
BRANCH   5  13
HETATM   13  C   UNL     1     -10.832  14.093  68.994  1.00  0.00    -0.273 C  
BRANCH  13  14
HETATM   14  C   UNL     1     -11.659  15.292  69.437  1.00  0.00    -0.347 C  
BRANCH  14  15
HETATM   15  C   UNL     1     -11.149  16.573  68.783  1.00  0.00    -0.309 C  
BRANCH  15  16
HETATM   16  C   UNL     1      -9.873  16.289  67.997  1.00  0.00    -0.236 C  
BRANCH  16  17
HETATM   17  C   UNL     1      -9.358  17.547  67.306  1.00  0.00    -0.244 C  
BRANCH  17  18
HETATM   18  C   UNL     1      -8.956  18.603  68.331  1.00  0.00    -0.356 C  
HETATM   19  O   UNL     1      -7.090  19.657  69.360  1.00  0.00    -0.357 OA 
HETATM   20  C   UNL     1      -7.456  18.721  68.454  1.00  0.00    -0.298 C  
HETATM   21  O   UNL     1      -6.639  18.065  67.828  1.00  0.00    -0.182 OA 
ENDBRANCH  17  18
ENDBRANCH  16  17
ENDBRANCH  15  16
ENDBRANCH  14  15
ENDBRANCH  13  14
ENDBRANCH   5  13
BRANCH   6  22
HETATM   22  C   UNL     1      -8.787   8.238  67.503  1.00  0.00    -0.135 C  
HETATM   23  F   UNL     1      -8.978   7.339  66.490  1.00  0.00    -0.127 F  
HETATM   24  F   UNL     1      -7.850   9.117  67.046  1.00  0.00    -0.098 F  
BRANCH  22  25
HETATM   25  C   UNL     1      -8.236   7.494  68.713  1.00  0.00    -0.129 C  
BRANCH  25  26
HETATM   26  C   UNL     1      -8.250   5.981  68.482  1.00  0.00    -0.110 C  
BRANCH  26  27
HETATM   27  C   UNL     1      -9.131   5.275  69.508  1.00  0.00    -0.144 C  
HETATM   28  C   UNL     1     -10.598   5.356  69.124  1.00  0.00    -0.241 C  
ENDBRANCH  26  27
ENDBRANCH  25  26
ENDBRANCH  22  25
ENDBRANCH   6  22
TORSDOF 10
ENDMDL
MODEL      201
REMARK 921   NORMALIZED FREE ENERGY PREDICTED BY IDOCK:   -4.06 KCAL/MOL
REMARK 922        TOTAL FREE ENERGY PREDICTED BY IDOCK:   -8.22 KCAL/MOL
REMARK 923 INTER-LIGAND FREE ENERGY PREDICTED BY IDOCK:   -6.24 KCAL/MOL
REMARK 924 INTRA-LIGAND FREE ENERGY PREDICTED BY IDOCK:   -1.97 KCAL/MOL
REMARK 927      BINDING AFFINITY PREDICTED BY RF-SCORE:    0.00 PKD
ROOT
HETATM    1  C   UNL     1      -6.413  16.800  68.349  1.00  0.00    -0.144 C  
HETATM    2  C   UNL     1      -6.285  18.011  69.253  1.00  0.00    -0.244 C  
HETATM    3  C   UNL     1      -7.252  18.959  68.591  1.00  0.00    -0.302 C  
HETATM    4  O   UNL     1      -7.226  20.167  68.788  1.00  0.00    -0.245 OA 
HETATM    5  C   UNL     1      -8.222  18.254  67.645  1.00  0.00    -0.254 C  
HETATM    6  C   UNL     1      -6.350  14.408  68.222  1.00  0.00    -0.118 C  
HETATM    7  C   UNL     1      -7.876  16.798  67.945  1.00  0.00    -0.178 C  
HETATM    8  C   UNL     1      -8.046  15.787  66.827  1.00  0.00    -0.297 C  
HETATM    9  O   UNL     1      -6.153  15.587  69.028  1.00  0.00    -0.102 OA 
HETATM   10  C   UNL     1      -7.673  14.417  67.398  1.00  0.00    -0.207 C  
HETATM   11  O   UNL     1      -5.230  14.302  67.335  1.00  0.00    -0.328 OA 
HETATM   12  H   UNL     1      -4.423  14.296  67.837  1.00  0.00     0.000 HD 
ENDROOT
BRANCH   5  13
HETATM   13  C   UNL     1      -9.700  18.494  67.957  1.00  0.00    -0.354 C  
BRANCH  13  14
HETATM   14  C   UNL     1     -10.288  17.515  68.964  1.00  0.00    -0.303 C  
BRANCH  14  15
HETATM   15  C   UNL     1     -11.284  16.575  68.288  1.00  0.00    -0.265 C  
BRANCH  15  16
HETATM   16  C   UNL     1     -11.712  15.479  69.259  1.00  0.00    -0.380 C  
BRANCH  16  17
HETATM   17  C   UNL     1     -11.781  14.122  68.566  1.00  0.00    -0.380 C  
BRANCH  17  18
HETATM   18  C   UNL     1     -11.537  12.993  69.562  1.00  0.00    -0.342 C  
HETATM   19  O   UNL     1     -11.548  10.629  69.815  1.00  0.00    -0.261 OA 
HETATM   20  C   UNL     1     -11.764  11.637  68.939  1.00  0.00    -0.334 C  
HETATM   21  O   UNL     1     -12.105  11.436  67.784  1.00  0.00    -0.637 OA 
ENDBRANCH  17  18
ENDBRANCH  16  17
ENDBRANCH  15  16
ENDBRANCH  14  15
ENDBRANCH  13  14
ENDBRANCH   5  13
BRANCH   6  22
HETATM   22  C   UNL     1      -6.395  13.179  69.187  1.00  0.00    -0.104 C  
HETATM   23  F   UNL     1      -5.305  12.387  68.949  1.00  0.00    -0.055 F  
HETATM   24  F   UNL     1      -6.268  13.605  70.476  1.00  0.00    -0.160 F  
BRANCH  22  25
HETATM   25  C   UNL     1      -7.651  12.327  69.056  1.00  0.00     0.103 C  
BRANCH  25  26
HETATM   26  C   UNL     1      -7.305  10.837  69.031  1.00  0.00    -0.109 C  
BRANCH  26  27
HETATM   27  C   UNL     1      -8.415  10.026  68.367  1.00  0.00    -0.112 C  
HETATM   28  C   UNL     1      -8.783  10.601  67.012  1.00  0.00    -0.128 C  
ENDBRANCH  26  27
ENDBRANCH  25  26
ENDBRANCH  22  25
ENDBRANCH   6  22
TORSDOF 10
ENDMDL
MODEL      202
REMARK 921   NORMALIZED FREE ENERGY PREDICTED BY IDOCK:   -4.06 KCAL/MOL
REMARK 922        TOTAL FREE ENERGY PREDICTED BY IDOCK:   -8.21 KCAL/MOL
REMARK 923 INTER-LIGAND FREE ENERGY PREDICTED BY IDOCK:   -7.11 KCAL/MOL
REMARK 924 INTRA-LIGAND FREE ENERGY PREDICTED BY IDOCK:   -1.11 KCAL/MOL
REMARK 927      BINDING AFFINITY PREDICTED BY RF-SCORE:    0.00 PKD
ROOT
HETATM    1  C   UNL     1      -9.995   7.542  67.434  1.00  0.00    -0.187 C  
HETATM    2  C   UNL     1      -8.989   7.242  66.339  1.00  0.00    -0.184 C  
HETATM    3  C   UNL     1      -8.998   8.547  65.583  1.00  0.00    -0.160 C  
HETATM    4  O   UNL     1      -8.583   8.644  64.436  1.00  0.00    -0.144 OA 
HETATM    5  C   UNL     1      -9.600   9.696  66.390  1.00  0.00    -0.268 C  
HETATM    6  C   UNL     1     -10.627   7.135  69.708  1.00  0.00    -0.234 C  
HETATM    7  C   UNL     1      -9.771   9.011  67.744  1.00  0.00    -0.190 C  
HETATM    8  C   UNL     1     -10.909   9.476  68.632  1.00  0.00    -0.177 C  
HETATM    9  O   UNL     1      -9.743   6.810  68.617  1.00  0.00    -0.131 OA 
HETATM   10  C   UNL     1     -10.831   8.664  69.926  1.00  0.00    -0.210 C  
HETATM   11  O   UNL     1     -11.889   6.513  69.439  1.00  0.00    -0.636 OA 
HETATM   12  H   UNL     1     -11.765   5.580  69.306  1.00  0.00     0.000 HD 
ENDROOT
BRANCH   5  13
HETATM   13  C   UNL     1      -8.680  10.907  66.552  1.00  0.00    -0.165 C  
BRANCH  13  14
HETATM   14  C   UNL     1      -9.405  12.190  66.935  1.00  0.00    -0.203 C  
BRANCH  14  15
HETATM   15  C   UNL     1     -10.169  12.758  65.741  1.00  0.00    -0.302 C  
BRANCH  15  16
HETATM   16  C   UNL     1     -11.669  12.572  65.942  1.00  0.00    -0.480 C  
BRANCH  16  17
HETATM   17  C   UNL     1     -12.367  13.909  66.168  1.00  0.00    -0.504 C  
BRANCH  17  18
HETATM   18  C   UNL     1     -11.391  15.067  65.978  1.00  0.00    -0.270 C  
HETATM   19  O   UNL     1     -10.835  16.887  64.553  1.00  0.00    -0.849 OA 
HETATM   20  C   UNL     1     -11.695  15.857  64.728  1.00  0.00    -0.039 C  
HETATM   21  O   UNL     1     -12.599  15.620  63.942  1.00  0.00    -0.697 OA 
ENDBRANCH  17  18
ENDBRANCH  16  17
ENDBRANCH  15  16
ENDBRANCH  14  15
ENDBRANCH  13  14
ENDBRANCH   5  13
BRANCH   6  22
HETATM   22  C   UNL     1     -10.000   6.544  71.014  1.00  0.00    -0.183 C  
HETATM   23  F   UNL     1      -8.744   7.060  71.177  1.00  0.00    -0.132 F  
HETATM   24  F   UNL     1     -10.716   6.964  72.095  1.00  0.00    -0.214 F  
BRANCH  22  25
HETATM   25  C   UNL     1      -9.904   5.024  71.028  1.00  0.00    -0.266 C  
BRANCH  25  26
HETATM   26  C   UNL     1      -8.521   4.564  71.492  1.00  0.00    -0.116 C  
BRANCH  26  27
HETATM   27  C   UNL     1      -8.610   3.785  72.802  1.00  0.00    -0.097 C  
HETATM   28  C   UNL     1      -7.404   4.051  73.685  1.00  0.00    -0.070 C  
ENDBRANCH  26  27
ENDBRANCH  25  26
ENDBRANCH  22  25
ENDBRANCH   6  22
TORSDOF 10
ENDMDL
MODEL      203
REMARK 921   NORMALIZED FREE ENERGY PREDICTED BY IDOCK:   -4.05 KCAL/MOL
REMARK 922        TOTAL FREE ENERGY PREDICTED BY IDOCK:   -8.19 KCAL/MOL
REMARK 923 INTER-LIGAND FREE ENERGY PREDICTED BY IDOCK:   -7.06 KCAL/MOL
REMARK 924 INTRA-LIGAND FREE ENERGY PREDICTED BY IDOCK:   -1.13 KCAL/MOL
REMARK 927      BINDING AFFINITY PREDICTED BY RF-SCORE:    0.00 PKD
ROOT
HETATM    1  C   UNL     1     -10.253  14.103  65.586  1.00  0.00    -0.339 C  
HETATM    2  C   UNL     1     -11.333  13.604  64.646  1.00  0.00    -0.380 C  
HETATM    3  C   UNL     1     -10.943  12.154  64.514  1.00  0.00    -0.314 C  
HETATM    4  O   UNL     1     -11.341  11.448  63.597  1.00  0.00    -0.386 OA 
HETATM    5  C   UNL     1      -9.992  11.692  65.616  1.00  0.00    -0.274 C  
HETATM    6  C   UNL     1      -9.712  15.636  67.346  1.00  0.00    -0.222 C  
HETATM    7  C   UNL     1     -10.002  12.927  66.513  1.00  0.00    -0.259 C  
HETATM    8  C   UNL     1      -8.750  13.229  67.314  1.00  0.00    -0.214 C  
HETATM    9  O   UNL     1     -10.684  15.192  66.379  1.00  0.00    -0.305 OA 
HETATM   10  C   UNL     1      -9.038  14.481  68.145  1.00  0.00    -0.191 C  
HETATM   11  O   UNL     1      -8.712  16.381  66.639  1.00  0.00    -0.206 OA 
HETATM   12  H   UNL     1      -9.123  17.085  66.151  1.00  0.00     0.000 HD 
ENDROOT
BRANCH   5  13
HETATM   13  C   UNL     1     -10.486  10.486  66.417  1.00  0.00    -0.258 C  
BRANCH  13  14
HETATM   14  C   UNL     1      -9.918   9.154  65.948  1.00  0.00    -0.232 C  
BRANCH  14  15
HETATM   15  C   UNL     1      -9.534   8.279  67.138  1.00  0.00    -0.206 C  
BRANCH  15  16
HETATM   16  C   UNL     1      -9.598   6.806  66.749  1.00  0.00    -0.210 C  
BRANCH  16  17
HETATM   17  C   UNL     1      -8.214   6.260  66.419  1.00  0.00    -0.114 C  
BRANCH  17  18
HETATM   18  C   UNL     1      -8.167   5.731  64.988  1.00  0.00    -0.137 C  
HETATM   19  O   UNL     1      -7.488   6.262  62.773  1.00  0.00    -0.055 OA 
HETATM   20  C   UNL     1      -7.535   6.724  64.044  1.00  0.00    -0.098 C  
HETATM   21  O   UNL     1      -7.108   7.825  64.354  1.00  0.00    -0.065 OA 
ENDBRANCH  17  18
ENDBRANCH  16  17
ENDBRANCH  15  16
ENDBRANCH  14  15
ENDBRANCH  13  14
ENDBRANCH   5  13
BRANCH   6  22
HETATM   22  C   UNL     1     -10.452  16.558  68.369  1.00  0.00    -0.307 C  
HETATM   23  F   UNL     1      -9.552  17.005  69.297  1.00  0.00    -0.241 F  
HETATM   24  F   UNL     1     -10.910  17.673  67.731  1.00  0.00    -0.370 F  
BRANCH  22  25
HETATM   25  C   UNL     1     -11.604  15.882  69.099  1.00  0.00    -0.382 C  
BRANCH  25  26
HETATM   26  C   UNL     1     -11.374  15.884  70.612  1.00  0.00    -0.421 C  
BRANCH  26  27
HETATM   27  C   UNL     1     -12.315  14.908  71.313  1.00  0.00    -0.385 C  
HETATM   28  C   UNL     1     -12.731  15.426  72.679  1.00  0.00    -0.488 C  
ENDBRANCH  26  27
ENDBRANCH  25  26
ENDBRANCH  22  25
ENDBRANCH   6  22
TORSDOF 10
ENDMDL
MODEL      204
REMARK 921   NORMALIZED FREE ENERGY PREDICTED BY IDOCK:   -4.04 KCAL/MOL
REMARK 922        TOTAL FREE ENERGY PREDICTED BY IDOCK:   -8.17 KCAL/MOL
REMARK 923 INTER-LIGAND FREE ENERGY PREDICTED BY IDOCK:   -6.88 KCAL/MOL
REMARK 924 INTRA-LIGAND FREE ENERGY PREDICTED BY IDOCK:   -1.30 KCAL/MOL
REMARK 927      BINDING AFFINITY PREDICTED BY RF-SCORE:    0.00 PKD
ROOT
HETATM    1  C   UNL     1     -11.317  14.872  65.258  1.00  0.00    -0.358 C  
HETATM    2  C   UNL     1     -11.527  16.176  64.513  1.00  0.00    -0.233 C  
HETATM    3  C   UNL     1     -10.718  17.120  65.366  1.00  0.00    -0.088 C  
HETATM    4  O   UNL     1     -10.871  18.334  65.327  1.00  0.00    -0.629 OA 
HETATM    5  C   UNL     1      -9.733  16.397  66.282  1.00  0.00    -0.332 C  
HETATM    6  C   UNL     1     -11.112  12.492  65.066  1.00  0.00    -0.299 C  
HETATM    7  C   UNL     1      -9.891  14.968  65.769  1.00  0.00    -0.386 C  
HETATM    8  C   UNL     1      -9.675  13.835  66.754  1.00  0.00    -0.277 C  
HETATM    9  O   UNL     1     -11.394  13.744  64.408  1.00  0.00    -0.373 OA 
HETATM   10  C   UNL     1      -9.852  12.526  65.981  1.00  0.00    -0.266 C  
HETATM   11  O   UNL     1     -12.265  12.146  65.843  1.00  0.00    -0.604 OA 
HETATM   12  H   UNL     1     -13.034  12.125  65.284  1.00  0.00     0.000 HD 
ENDROOT
BRANCH   5  13
HETATM   13  C   UNL     1      -8.276  16.832  66.118  1.00  0.00    -0.300 C  
BRANCH  13  14
HETATM   14  C   UNL     1      -7.648  17.390  67.388  1.00  0.00    -0.209 C  
BRANCH  14  15
HETATM   15  C   UNL     1      -8.359  16.848  68.626  1.00  0.00    -0.261 C  
BRANCH  15  16
HETATM   16  C   UNL     1      -7.397  16.002  69.454  1.00  0.00    -0.212 C  
BRANCH  16  17
HETATM   17  C   UNL     1      -6.202  15.549  68.622  1.00  0.00    -0.096 C  
BRANCH  17  18
HETATM   18  C   UNL     1      -6.489  14.211  67.948  1.00  0.00    -0.174 C  
HETATM   19  O   UNL     1      -6.582  11.864  68.315  1.00  0.00    -0.050 OA 
HETATM   20  C   UNL     1      -6.328  13.055  68.905  1.00  0.00    -0.093 C  
HETATM   21  O   UNL     1      -6.006  13.146  70.079  1.00  0.00    -0.126 OA 
ENDBRANCH  17  18
ENDBRANCH  16  17
ENDBRANCH  15  16
ENDBRANCH  14  15
ENDBRANCH  13  14
ENDBRANCH   5  13
BRANCH   6  22
HETATM   22  C   UNL     1     -10.867  11.421  63.954  1.00  0.00    -0.393 C  
HETATM   23  F   UNL     1     -10.824  10.182  64.532  1.00  0.00    -0.033 F  
HETATM   24  F   UNL     1     -11.931  11.394  63.102  1.00  0.00    -0.449 F  
BRANCH  22  25
HETATM   25  C   UNL     1      -9.585  11.628  63.158  1.00  0.00    -0.348 C  
BRANCH  25  26
HETATM   26  C   UNL     1      -8.438  10.797  63.735  1.00  0.00     0.008 C  
BRANCH  26  27
HETATM   27  C   UNL     1      -8.190   9.544  62.899  1.00  0.00    -0.158 C  
HETATM   28  C   UNL     1      -7.540   8.449  63.726  1.00  0.00    -0.135 C  
ENDBRANCH  26  27
ENDBRANCH  25  26
ENDBRANCH  22  25
ENDBRANCH   6  22
TORSDOF 10
ENDMDL
MODEL      205
REMARK 921   NORMALIZED FREE ENERGY PREDICTED BY IDOCK:   -4.04 KCAL/MOL
REMARK 922        TOTAL FREE ENERGY PREDICTED BY IDOCK:   -8.17 KCAL/MOL
REMARK 923 INTER-LIGAND FREE ENERGY PREDICTED BY IDOCK:   -6.97 KCAL/MOL
REMARK 924 INTRA-LIGAND FREE ENERGY PREDICTED BY IDOCK:   -1.20 KCAL/MOL
REMARK 927      BINDING AFFINITY PREDICTED BY RF-SCORE:    0.00 PKD
ROOT
HETATM    1  C   UNL     1     -10.605  13.396  69.396  1.00  0.00     0.206 C  
HETATM    2  C   UNL     1     -12.057  13.833  69.413  1.00  0.00    -0.377 C  
HETATM    3  C   UNL     1     -11.939  15.176  70.088  1.00  0.00    -0.334 C  
HETATM    4  O   UNL     1     -12.897  15.737  70.604  1.00  0.00    -0.438 OA 
HETATM    5  C   UNL     1     -10.513  15.722  70.079  1.00  0.00    -0.313 C  
HETATM    6  C   UNL     1      -8.919  12.170  68.216  1.00  0.00    -0.186 C  
HETATM    7  C   UNL     1      -9.836  14.687  69.183  1.00  0.00    -0.130 C  
HETATM    8  C   UNL     1      -8.367  14.397  69.423  1.00  0.00     0.243 C  
HETATM    9  O   UNL     1     -10.310  12.535  68.313  1.00  0.00    -0.224 OA 
HETATM   10  C   UNL     1      -7.935  13.367  68.377  1.00  0.00    -0.139 C  
HETATM   11  O   UNL     1      -8.659  11.192  69.231  1.00  0.00    -0.375 OA 
HETATM   12  H   UNL     1      -9.259  10.461  69.133  1.00  0.00     0.000 HD 
ENDROOT
BRANCH   5  13
HETATM   13  C   UNL     1     -10.367  17.107  69.447  1.00  0.00    -0.195 C  
BRANCH  13  14
HETATM   14  C   UNL     1     -10.853  17.185  68.006  1.00  0.00    -0.317 C  
BRANCH  14  15
HETATM   15  C   UNL     1      -9.737  17.668  67.083  1.00  0.00    -0.291 C  
BRANCH  15  16
HETATM   16  C   UNL     1      -9.830  16.962  65.734  1.00  0.00    -0.166 C  
BRANCH  16  17
HETATM   17  C   UNL     1      -9.911  15.449  65.906  1.00  0.00    -0.374 C  
BRANCH  17  18
HETATM   18  C   UNL     1     -11.274  14.926  65.462  1.00  0.00    -0.348 C  
HETATM   19  O   UNL     1     -13.031  15.252  63.893  1.00  0.00    -0.494 OA 
HETATM   20  C   UNL     1     -11.822  15.710  64.295  1.00  0.00    -0.146 C  
HETATM   21  O   UNL     1     -11.270  16.655  63.753  1.00  0.00    -0.756 OA 
ENDBRANCH  17  18
ENDBRANCH  16  17
ENDBRANCH  15  16
ENDBRANCH  14  15
ENDBRANCH  13  14
ENDBRANCH   5  13
BRANCH   6  22
HETATM   22  C   UNL     1      -8.692  11.551  66.798  1.00  0.00    -0.178 C  
HETATM   23  F   UNL     1      -7.528  12.045  66.278  1.00  0.00     0.049 F  
HETATM   24  F   UNL     1      -8.506  10.205  66.910  1.00  0.00    -0.123 F  
BRANCH  22  25
HETATM   25  C   UNL     1      -9.819  11.827  65.810  1.00  0.00    -0.267 C  
BRANCH  25  26
HETATM   26  C   UNL     1     -10.111  10.595  64.950  1.00  0.00    -0.402 C  
BRANCH  26  27
HETATM   27  C   UNL     1     -10.367  10.986  63.497  1.00  0.00    -0.402 C  
HETATM   28  C   UNL     1     -11.514  11.974  63.385  1.00  0.00    -0.489 C  
ENDBRANCH  26  27
ENDBRANCH  25  26
ENDBRANCH  22  25
ENDBRANCH   6  22
TORSDOF 10
ENDMDL
MODEL      206
REMARK 921   NORMALIZED FREE ENERGY PREDICTED BY IDOCK:   -4.03 KCAL/MOL
REMARK 922        TOTAL FREE ENERGY PREDICTED BY IDOCK:   -8.16 KCAL/MOL
REMARK 923 INTER-LIGAND FREE ENERGY PREDICTED BY IDOCK:   -6.81 KCAL/MOL
REMARK 924 INTRA-LIGAND FREE ENERGY PREDICTED BY IDOCK:   -1.35 KCAL/MOL
REMARK 927      BINDING AFFINITY PREDICTED BY RF-SCORE:    0.00 PKD
ROOT
HETATM    1  C   UNL     1     -11.299  12.229  67.468  1.00  0.00    -0.325 C  
HETATM    2  C   UNL     1     -11.982  12.478  66.136  1.00  0.00    -0.432 C  
HETATM    3  C   UNL     1     -10.819  12.323  65.190  1.00  0.00    -0.301 C  
HETATM    4  O   UNL     1     -10.839  12.761  64.048  1.00  0.00    -0.376 OA 
HETATM    5  C   UNL     1      -9.631  11.601  65.823  1.00  0.00    -0.255 C  
HETATM    6  C   UNL     1     -11.541  11.353  69.685  1.00  0.00    -0.330 C  
HETATM    7  C   UNL     1     -10.252  11.176  67.150  1.00  0.00    -0.235 C  
HETATM    8  C   UNL     1      -9.336  11.057  68.354  1.00  0.00    -0.179 C  
HETATM    9  O   UNL     1     -12.177  11.684  68.434  1.00  0.00    -0.498 OA 
HETATM   10  C   UNL     1     -10.195  10.584  69.529  1.00  0.00    -0.230 C  
HETATM   11  O   UNL     1     -11.317  12.580  70.391  1.00  0.00    -0.414 OA 
HETATM   12  H   UNL     1     -12.137  13.049  70.487  1.00  0.00     0.000 HD 
ENDROOT
BRANCH   5  13
HETATM   13  C   UNL     1      -9.167  10.356  65.064  1.00  0.00    -0.256 C  
BRANCH  13  14
HETATM   14  C   UNL     1      -7.752   9.911  65.408  1.00  0.00    -0.130 C  
BRANCH  14  15
HETATM   15  C   UNL     1      -7.744   8.467  65.902  1.00  0.00    -0.086 C  
BRANCH  15  16
HETATM   16  C   UNL     1      -7.426   8.425  67.393  1.00  0.00    -0.093 C  
BRANCH  16  17
HETATM   17  C   UNL     1      -8.653   8.038  68.210  1.00  0.00    -0.130 C  
BRANCH  17  18
HETATM   18  C   UNL     1      -8.352   6.841  69.107  1.00  0.00    -0.125 C  
HETATM   19  O   UNL     1      -7.980   6.184  71.362  1.00  0.00    -0.110 OA 
HETATM   20  C   UNL     1      -8.246   7.241  70.558  1.00  0.00    -0.124 C  
HETATM   21  O   UNL     1      -8.375   8.374  70.993  1.00  0.00    -0.112 OA 
ENDBRANCH  17  18
ENDBRANCH  16  17
ENDBRANCH  15  16
ENDBRANCH  14  15
ENDBRANCH  13  14
ENDBRANCH   5  13
BRANCH   6  22
HETATM   22  C   UNL     1     -12.525  10.440  70.486  1.00  0.00    -0.317 C  
HETATM   23  F   UNL     1     -13.171  11.197  71.424  1.00  0.00    -0.456 F  
HETATM   24  F   UNL     1     -13.498   9.974  69.652  1.00  0.00     0.328 F  
BRANCH  22  25
HETATM   25  C   UNL     1     -11.855   9.266  71.189  1.00  0.00    -0.396 C  
BRANCH  25  26
HETATM   26  C   UNL     1     -12.871   8.453  71.994  1.00  0.00    -0.389 C  
BRANCH  26  27
HETATM   27  C   UNL     1     -13.027   7.046  71.424  1.00  0.00    -0.395 C  
HETATM   28  C   UNL     1     -11.762   6.595  70.716  1.00  0.00    -0.445 C  
ENDBRANCH  26  27
ENDBRANCH  25  26
ENDBRANCH  22  25
ENDBRANCH   6  22
TORSDOF 10
ENDMDL
MODEL      207
REMARK 921   NORMALIZED FREE ENERGY PREDICTED BY IDOCK:   -4.02 KCAL/MOL
REMARK 922        TOTAL FREE ENERGY PREDICTED BY IDOCK:   -8.15 KCAL/MOL
REMARK 923 INTER-LIGAND FREE ENERGY PREDICTED BY IDOCK:   -6.95 KCAL/MOL
REMARK 924 INTRA-LIGAND FREE ENERGY PREDICTED BY IDOCK:   -1.20 KCAL/MOL
REMARK 927      BINDING AFFINITY PREDICTED BY RF-SCORE:    0.00 PKD
ROOT
HETATM    1  C   UNL     1      -9.487  10.811  68.890  1.00  0.00    -0.181 C  
HETATM    2  C   UNL     1      -8.553   9.691  68.473  1.00  0.00    -0.119 C  
HETATM    3  C   UNL     1      -8.920   8.629  69.478  1.00  0.00    -0.145 C  
HETATM    4  O   UNL     1      -8.191   7.677  69.723  1.00  0.00    -0.126 OA 
HETATM    5  C   UNL     1     -10.262   8.893  70.157  1.00  0.00    -0.218 C  
HETATM    6  C   UNL     1     -10.794  12.678  68.152  1.00  0.00    -0.227 C  
HETATM    7  C   UNL     1     -10.745  10.089  69.340  1.00  0.00    -0.258 C  
HETATM    8  C   UNL     1     -11.637  11.103  70.031  1.00  0.00    -0.421 C  
HETATM    9  O   UNL     1      -9.839  11.654  67.810  1.00  0.00    -0.173 OA 
HETATM   10  C   UNL     1     -12.003  12.164  68.990  1.00  0.00    -0.302 C  
HETATM   11  O   UNL     1     -10.095  13.692  68.885  1.00  0.00    -0.387 OA 
HETATM   12  H   UNL     1      -9.358  14.006  68.373  1.00  0.00     0.000 HD 
ENDROOT
BRANCH   5  13
HETATM   13  C   UNL     1     -11.275   7.755  70.027  1.00  0.00    -0.126 C  
BRANCH  13  14
HETATM   14  C   UNL     1     -12.184   7.591  71.237  1.00  0.00    -0.357 C  
BRANCH  14  15
HETATM   15  C   UNL     1     -11.664   6.492  72.160  1.00  0.00    -0.353 C  
BRANCH  15  16
HETATM   16  C   UNL     1     -10.856   5.474  71.361  1.00  0.00    -0.256 C  
BRANCH  16  17
HETATM   17  C   UNL     1      -9.962   4.640  72.272  1.00  0.00    -0.235 C  
BRANCH  17  18
HETATM   18  C   UNL     1      -8.969   3.820  71.453  1.00  0.00    -0.161 C  
HETATM   19  O   UNL     1      -8.304   1.602  70.915  1.00  0.00    -0.048 OA 
HETATM   20  C   UNL     1      -9.180   2.337  71.639  1.00  0.00    -0.100 C  
HETATM   21  O   UNL     1     -10.027   1.825  72.352  1.00  0.00    -0.110 OA 
ENDBRANCH  17  18
ENDBRANCH  16  17
ENDBRANCH  15  16
ENDBRANCH  14  15
ENDBRANCH  13  14
ENDBRANCH   5  13
BRANCH   6  22
HETATM   22  C   UNL     1     -11.354  13.265  66.815  1.00  0.00    -0.327 C  
HETATM   23  F   UNL     1     -11.969  12.265  66.113  1.00  0.00    -0.441 F  
HETATM   24  F   UNL     1     -12.328  14.178  67.089  1.00  0.00    -0.441 F  
BRANCH  22  25
HETATM   25  C   UNL     1     -10.297  13.903  65.923  1.00  0.00    -0.318 C  
BRANCH  25  26
HETATM   26  C   UNL     1     -10.777  15.248  65.374  1.00  0.00    -0.407 C  
BRANCH  26  27
HETATM   27  C   UNL     1     -10.052  16.409  66.048  1.00  0.00    -0.373 C  
HETATM   28  C   UNL     1      -8.677  15.990  66.538  1.00  0.00    -0.338 C  
ENDBRANCH  26  27
ENDBRANCH  25  26
ENDBRANCH  22  25
ENDBRANCH   6  22
TORSDOF 10
ENDMDL
MODEL      208
REMARK 921   NORMALIZED FREE ENERGY PREDICTED BY IDOCK:   -4.02 KCAL/MOL
REMARK 922        TOTAL FREE ENERGY PREDICTED BY IDOCK:   -8.14 KCAL/MOL
REMARK 923 INTER-LIGAND FREE ENERGY PREDICTED BY IDOCK:   -6.99 KCAL/MOL
REMARK 924 INTRA-LIGAND FREE ENERGY PREDICTED BY IDOCK:   -1.15 KCAL/MOL
REMARK 927      BINDING AFFINITY PREDICTED BY RF-SCORE:    0.00 PKD
ROOT
HETATM    1  C   UNL     1     -11.249  11.281  67.216  1.00  0.00    -0.296 C  
HETATM    2  C   UNL     1     -11.157  10.021  68.055  1.00  0.00    -0.263 C  
HETATM    3  C   UNL     1     -10.484   9.085  67.083  1.00  0.00    -0.263 C  
HETATM    4  O   UNL     1     -10.510   7.869  67.219  1.00  0.00    -0.275 OA 
HETATM    5  C   UNL     1      -9.811   9.816  65.923  1.00  0.00    -0.352 C  
HETATM    6  C   UNL     1     -11.227  13.677  67.233  1.00  0.00    -0.309 C  
HETATM    7  C   UNL     1      -9.978  11.261  66.386  1.00  0.00    -0.252 C  
HETATM    8  C   UNL     1     -10.103  12.334  65.321  1.00  0.00    -0.295 C  
HETATM    9  O   UNL     1     -11.230  12.458  68.002  1.00  0.00    -0.233 OA 
HETATM   10  C   UNL     1     -10.218  13.677  66.047  1.00  0.00    -0.312 C  
HETATM   11  O   UNL     1     -12.557  13.875  66.736  1.00  0.00    -0.472 OA 
HETATM   12  H   UNL     1     -13.173  13.875  67.459  1.00  0.00     0.000 HD 
ENDROOT
BRANCH   5  13
HETATM   13  C   UNL     1      -8.322   9.510  65.758  1.00  0.00    -0.132 C  
BRANCH  13  14
HETATM   14  C   UNL     1      -7.882   9.333  64.311  1.00  0.00    -0.125 C  
BRANCH  14  15
HETATM   15  C   UNL     1      -8.127   7.901  63.841  1.00  0.00    -0.082 C  
BRANCH  15  16
HETATM   16  C   UNL     1      -7.058   6.973  64.407  1.00  0.00    -0.058 C  
BRANCH  16  17
HETATM   17  C   UNL     1      -7.678   5.858  65.241  1.00  0.00    -0.095 C  
BRANCH  17  18
HETATM   18  C   UNL     1      -8.541   4.948  64.372  1.00  0.00    -0.142 C  
HETATM   19  O   UNL     1     -10.443   3.521  64.395  1.00  0.00    -0.190 OA 
HETATM   20  C   UNL     1      -9.671   4.329  65.159  1.00  0.00    -0.194 C  
HETATM   21  O   UNL     1      -9.891   4.509  66.346  1.00  0.00    -0.189 OA 
ENDBRANCH  17  18
ENDBRANCH  16  17
ENDBRANCH  15  16
ENDBRANCH  14  15
ENDBRANCH  13  14
ENDBRANCH   5  13
BRANCH   6  22
HETATM   22  C   UNL     1     -10.832  14.841  68.199  1.00  0.00    -0.254 C  
HETATM   23  F   UNL     1      -9.495  15.097  68.063  1.00  0.00    -0.192 F  
HETATM   24  F   UNL     1     -11.468  15.986  67.820  1.00  0.00    -0.309 F  
BRANCH  22  25
HETATM   25  C   UNL     1     -11.123  14.561  69.667  1.00  0.00    -0.264 C  
BRANCH  25  26
HETATM   26  C   UNL     1     -11.465  15.850  70.417  1.00  0.00    -0.393 C  
BRANCH  26  27
HETATM   27  C   UNL     1     -12.665  15.650  71.338  1.00  0.00    -0.535 C  
HETATM   28  C   UNL     1     -12.226  15.299  72.749  1.00  0.00    -0.513 C  
ENDBRANCH  26  27
ENDBRANCH  25  26
ENDBRANCH  22  25
ENDBRANCH   6  22
TORSDOF 10
ENDMDL
MODEL      209
REMARK 921   NORMALIZED FREE ENERGY PREDICTED BY IDOCK:   -4.01 KCAL/MOL
REMARK 922        TOTAL FREE ENERGY PREDICTED BY IDOCK:   -8.13 KCAL/MOL
REMARK 923 INTER-LIGAND FREE ENERGY PREDICTED BY IDOCK:   -6.89 KCAL/MOL
REMARK 924 INTRA-LIGAND FREE ENERGY PREDICTED BY IDOCK:   -1.25 KCAL/MOL
REMARK 927      BINDING AFFINITY PREDICTED BY RF-SCORE:    0.00 PKD
ROOT
HETATM    1  C   UNL     1     -12.120  13.112  69.651  1.00  0.00    -0.255 C  
HETATM    2  C   UNL     1     -12.315  12.892  71.139  1.00  0.00    -0.262 C  
HETATM    3  C   UNL     1     -12.427  11.390  71.189  1.00  0.00    -0.360 C  
HETATM    4  O   UNL     1     -12.917  10.800  72.143  1.00  0.00    -0.424 OA 
HETATM    5  C   UNL     1     -11.898  10.712  69.927  1.00  0.00    -0.392 C  
HETATM    6  C   UNL     1     -11.092  14.473  67.968  1.00  0.00    -0.276 C  
HETATM    7  C   UNL     1     -11.294  11.917  69.210  1.00  0.00    -0.338 C  
HETATM    8  C   UNL     1     -11.276  11.901  67.693  1.00  0.00    -0.340 C  
HETATM    9  O   UNL     1     -11.372  14.279  69.369  1.00  0.00    -0.260 OA 
HETATM   10  C   UNL     1     -10.590  13.192  67.238  1.00  0.00    -0.250 C  
HETATM   11  O   UNL     1     -12.298  14.940  67.349  1.00  0.00    -0.437 OA 
HETATM   12  H   UNL     1     -12.604  15.721  67.794  1.00  0.00     0.000 HD 
ENDROOT
BRANCH   5  13
HETATM   13  C   UNL     1     -10.803   9.674  70.175  1.00  0.00    -0.325 C  
BRANCH  13  14
HETATM   14  C   UNL     1     -10.356   8.932  68.923  1.00  0.00    -0.229 C  
BRANCH  14  15
HETATM   15  C   UNL     1      -9.910   7.513  69.264  1.00  0.00    -0.170 C  
BRANCH  15  16
HETATM   16  C   UNL     1      -8.516   7.536  69.882  1.00  0.00    -0.138 C  
BRANCH  16  17
HETATM   17  C   UNL     1      -8.390   6.508  71.002  1.00  0.00    -0.126 C  
BRANCH  17  18
HETATM   18  C   UNL     1      -9.197   6.937  72.223  1.00  0.00    -0.144 C  
HETATM   19  O   UNL     1     -11.018   6.326  73.624  1.00  0.00    -0.184 OA 
HETATM   20  C   UNL     1     -10.298   5.954  72.540  1.00  0.00    -0.196 C  
HETATM   21  O   UNL     1     -10.542   4.936  71.913  1.00  0.00    -0.191 OA 
ENDBRANCH  17  18
ENDBRANCH  16  17
ENDBRANCH  15  16
ENDBRANCH  14  15
ENDBRANCH  13  14
ENDBRANCH   5  13
BRANCH   6  22
HETATM   22  C   UNL     1      -9.972  15.558  67.857  1.00  0.00    -0.218 C  
HETATM   23  F   UNL     1     -10.447  16.616  67.132  1.00  0.00    -0.299 F  
HETATM   24  F   UNL     1      -9.692  16.054  69.095  1.00  0.00    -0.199 F  
BRANCH  22  25
HETATM   25  C   UNL     1      -8.686  15.064  67.206  1.00  0.00    -0.221 C  
BRANCH  25  26
HETATM   26  C   UNL     1      -7.471  15.826  67.738  1.00  0.00    -0.162 C  
BRANCH  26  27
HETATM   27  C   UNL     1      -7.056  16.939  66.780  1.00  0.00    -0.273 C  
HETATM   28  C   UNL     1      -7.320  18.309  67.378  1.00  0.00    -0.218 C  
ENDBRANCH  26  27
ENDBRANCH  25  26
ENDBRANCH  22  25
ENDBRANCH   6  22
TORSDOF 10
ENDMDL
MODEL      210
REMARK 921   NORMALIZED FREE ENERGY PREDICTED BY IDOCK:   -4.01 KCAL/MOL
REMARK 922        TOTAL FREE ENERGY PREDICTED BY IDOCK:   -8.13 KCAL/MOL
REMARK 923 INTER-LIGAND FREE ENERGY PREDICTED BY IDOCK:   -7.22 KCAL/MOL
REMARK 924 INTRA-LIGAND FREE ENERGY PREDICTED BY IDOCK:   -0.91 KCAL/MOL
REMARK 927      BINDING AFFINITY PREDICTED BY RF-SCORE:    0.00 PKD
ROOT
HETATM    1  C   UNL     1      -9.838  11.935  65.255  1.00  0.00    -0.230 C  
HETATM    2  C   UNL     1     -10.320  11.078  64.100  1.00  0.00    -0.434 C  
HETATM    3  C   UNL     1      -9.293   9.975  64.121  1.00  0.00    -0.280 C  
HETATM    4  O   UNL     1      -9.099   9.240  63.161  1.00  0.00    -0.164 OA 
HETATM    5  C   UNL     1      -8.522   9.906  65.438  1.00  0.00    -0.155 C  
HETATM    6  C   UNL     1     -10.482  13.404  67.035  1.00  0.00    -0.257 C  
HETATM    7  C   UNL     1      -9.302  10.930  66.258  1.00  0.00    -0.203 C  
HETATM    8  C   UNL     1      -8.551  11.698  67.328  1.00  0.00    -0.154 C  
HETATM    9  O   UNL     1     -10.890  12.646  65.878  1.00  0.00    -0.263 OA 
HETATM   10  C   UNL     1      -9.563  12.617  68.017  1.00  0.00    -0.213 C  
HETATM   11  O   UNL     1      -9.798  14.572  66.565  1.00  0.00    -0.262 OA 
HETATM   12  H   UNL     1     -10.359  15.052  65.966  1.00  0.00     0.000 HD 
ENDROOT
BRANCH   5  13
HETATM   13  C   UNL     1      -8.584   8.548  66.139  1.00  0.00    -0.154 C  
BRANCH  13  14
HETATM   14  C   UNL     1      -8.202   8.592  67.612  1.00  0.00    -0.110 C  
BRANCH  14  15
HETATM   15  C   UNL     1      -9.376   8.166  68.489  1.00  0.00    -0.138 C  
BRANCH  15  16
HETATM   16  C   UNL     1      -9.262   8.809  69.867  1.00  0.00    -0.160 C  
BRANCH  16  17
HETATM   17  C   UNL     1      -9.520   7.793  70.975  1.00  0.00    -0.165 C  
BRANCH  17  18
HETATM   18  C   UNL     1      -8.543   7.990  72.129  1.00  0.00    -0.206 C  
HETATM   19  O   UNL     1      -8.357   8.000  74.500  1.00  0.00    -0.225 OA 
HETATM   20  C   UNL     1      -9.218   7.828  73.469  1.00  0.00    -0.290 C  
HETATM   21  O   UNL     1     -10.400   7.574  73.642  1.00  0.00    -0.344 OA 
ENDBRANCH  17  18
ENDBRANCH  16  17
ENDBRANCH  15  16
ENDBRANCH  14  15
ENDBRANCH  13  14
ENDBRANCH   5  13
BRANCH   6  22
HETATM   22  C   UNL     1     -11.776  13.810  67.812  1.00  0.00    -0.358 C  
HETATM   23  F   UNL     1     -12.660  14.379  66.937  1.00  0.00    -0.417 F  
HETATM   24  F   UNL     1     -12.394  12.692  68.288  1.00  0.00    -0.284 F  
BRANCH  22  25
HETATM   25  C   UNL     1     -11.537  14.784  68.959  1.00  0.00    -0.324 C  
BRANCH  25  26
HETATM   26  C   UNL     1     -12.195  14.289  70.248  1.00  0.00    -0.407 C  
BRANCH  26  27
HETATM   27  C   UNL     1     -13.128  15.347  70.831  1.00  0.00    -0.528 C  
HETATM   28  C   UNL     1     -13.020  15.404  72.345  1.00  0.00    -0.495 C  
ENDBRANCH  26  27
ENDBRANCH  25  26
ENDBRANCH  22  25
ENDBRANCH   6  22
TORSDOF 10
ENDMDL
MODEL      211
REMARK 921   NORMALIZED FREE ENERGY PREDICTED BY IDOCK:   -4.00 KCAL/MOL
REMARK 922        TOTAL FREE ENERGY PREDICTED BY IDOCK:   -8.11 KCAL/MOL
REMARK 923 INTER-LIGAND FREE ENERGY PREDICTED BY IDOCK:   -6.88 KCAL/MOL
REMARK 924 INTRA-LIGAND FREE ENERGY PREDICTED BY IDOCK:   -1.23 KCAL/MOL
REMARK 927      BINDING AFFINITY PREDICTED BY RF-SCORE:    0.00 PKD
ROOT
HETATM    1  C   UNL     1     -10.857  15.026  66.182  1.00  0.00    -0.329 C  
HETATM    2  C   UNL     1     -12.143  14.548  65.537  1.00  0.00    -0.299 C  
HETATM    3  C   UNL     1     -12.192  13.123  66.027  1.00  0.00    -0.414 C  
HETATM    4  O   UNL     1     -12.883  12.268  65.490  1.00  0.00    -0.288 OA 
HETATM    5  C   UNL     1     -11.276  12.875  67.224  1.00  0.00    -0.329 C  
HETATM    6  C   UNL     1      -9.693  16.890  67.137  1.00  0.00    -0.253 C  
HETATM    7  C   UNL     1     -10.828  14.305  67.518  1.00  0.00    -0.284 C  
HETATM    8  C   UNL     1      -9.451  14.504  68.122  1.00  0.00    -0.208 C  
HETATM    9  O   UNL     1     -10.865  16.416  66.444  1.00  0.00    -0.211 OA 
HETATM   10  C   UNL     1      -9.272  16.007  68.350  1.00  0.00    -0.196 C  
HETATM   11  O   UNL     1      -8.623  16.944  66.185  1.00  0.00    -0.381 OA 
HETATM   12  H   UNL     1      -8.880  17.483  65.446  1.00  0.00     0.000 HD 
ENDROOT
BRANCH   5  13
HETATM   13  C   UNL     1     -11.981  12.306  68.456  1.00  0.00    -0.272 C  
BRANCH  13  14
HETATM   14  C   UNL     1     -12.008  10.785  68.507  1.00  0.00    -0.057 C  
BRANCH  14  15
HETATM   15  C   UNL     1     -11.181  10.267  69.682  1.00  0.00    -0.322 C  
BRANCH  15  16
HETATM   16  C   UNL     1     -10.964   8.764  69.548  1.00  0.00    -0.080 C  
BRANCH  16  17
HETATM   17  C   UNL     1      -9.630   8.455  68.878  1.00  0.00    -0.153 C  
BRANCH  17  18
HETATM   18  C   UNL     1      -9.831   8.107  67.406  1.00  0.00    -0.242 C  
HETATM   19  O   UNL     1      -9.347   6.481  65.741  1.00  0.00    -0.014 OA 
HETATM   20  C   UNL     1      -9.172   6.798  67.045  1.00  0.00    -0.137 C  
HETATM   21  O   UNL     1      -8.545   6.084  67.811  1.00  0.00    -0.108 OA 
ENDBRANCH  17  18
ENDBRANCH  16  17
ENDBRANCH  15  16
ENDBRANCH  14  15
ENDBRANCH  13  14
ENDBRANCH   5  13
BRANCH   6  22
HETATM   22  C   UNL     1     -10.012  18.322  67.676  1.00  0.00    -0.338 C  
HETATM   23  F   UNL     1     -11.263  18.685  67.260  1.00  0.00    -0.405 F  
HETATM   24  F   UNL     1     -10.067  18.297  69.038  1.00  0.00    -0.364 F  
BRANCH  22  25
HETATM   25  C   UNL     1      -9.024  19.392  67.227  1.00  0.00    -0.351 C  
BRANCH  25  26
HETATM   26  C   UNL     1      -8.034  19.731  68.344  1.00  0.00    -0.315 C  
BRANCH  26  27
HETATM   27  C   UNL     1      -6.709  19.000  68.146  1.00  0.00    -0.256 C  
HETATM   28  C   UNL     1      -6.128  18.543  69.472  1.00  0.00    -0.277 C  
ENDBRANCH  26  27
ENDBRANCH  25  26
ENDBRANCH  22  25
ENDBRANCH   6  22
TORSDOF 10
ENDMDL
MODEL      212
REMARK 921   NORMALIZED FREE ENERGY PREDICTED BY IDOCK:   -4.00 KCAL/MOL
REMARK 922        TOTAL FREE ENERGY PREDICTED BY IDOCK:   -8.11 KCAL/MOL
REMARK 923 INTER-LIGAND FREE ENERGY PREDICTED BY IDOCK:   -6.71 KCAL/MOL
REMARK 924 INTRA-LIGAND FREE ENERGY PREDICTED BY IDOCK:   -1.39 KCAL/MOL
REMARK 927      BINDING AFFINITY PREDICTED BY RF-SCORE:    0.00 PKD
ROOT
HETATM    1  C   UNL     1      -6.578  17.467  67.704  1.00  0.00    -0.161 C  
HETATM    2  C   UNL     1      -6.502  18.842  68.340  1.00  0.00    -0.248 C  
HETATM    3  C   UNL     1      -7.500  19.597  67.498  1.00  0.00    -0.256 C  
HETATM    4  O   UNL     1      -7.521  20.819  67.443  1.00  0.00    -0.344 OA 
HETATM    5  C   UNL     1      -8.436  18.676  66.719  1.00  0.00    -0.292 C  
HETATM    6  C   UNL     1      -6.424  15.105  68.070  1.00  0.00    -0.144 C  
HETATM    7  C   UNL     1      -8.037  17.326  67.310  1.00  0.00    -0.210 C  
HETATM    8  C   UNL     1      -8.161  16.101  66.424  1.00  0.00    -0.336 C  
HETATM    9  O   UNL     1      -6.276  16.430  68.617  1.00  0.00    -0.125 OA 
HETATM   10  C   UNL     1      -7.740  14.893  67.264  1.00  0.00    -0.227 C  
HETATM   11  O   UNL     1      -5.294  14.861  67.222  1.00  0.00    -0.304 OA 
HETATM   12  H   UNL     1      -4.491  14.990  67.713  1.00  0.00     0.000 HD 
ENDROOT
BRANCH   5  13
HETATM   13  C   UNL     1      -9.924  18.917  66.977  1.00  0.00    -0.389 C  
BRANCH  13  14
HETATM   14  C   UNL     1     -10.381  18.534  68.378  1.00  0.00    -0.359 C  
BRANCH  14  15
HETATM   15  C   UNL     1     -11.036  17.156  68.377  1.00  0.00    -0.107 C  
BRANCH  15  16
HETATM   16  C   UNL     1     -10.779  16.451  69.704  1.00  0.00    -0.337 C  
BRANCH  16  17
HETATM   17  C   UNL     1     -11.928  15.517  70.067  1.00  0.00    -0.385 C  
BRANCH  17  18
HETATM   18  C   UNL     1     -11.902  15.179  71.555  1.00  0.00    -0.436 C  
HETATM   19  O   UNL     1     -13.277  14.646  73.420  1.00  0.00    -0.585 OA 
HETATM   20  C   UNL     1     -13.290  14.948  72.101  1.00  0.00    -0.375 C  
HETATM   21  O   UNL     1     -14.326  15.021  71.459  1.00  0.00    -0.477 OA 
ENDBRANCH  17  18
ENDBRANCH  16  17
ENDBRANCH  15  16
ENDBRANCH  14  15
ENDBRANCH  13  14
ENDBRANCH   5  13
BRANCH   6  22
HETATM   22  C   UNL     1      -6.428  14.099  69.267  1.00  0.00    -0.117 C  
HETATM   23  F   UNL     1      -5.136  13.824  69.622  1.00  0.00    -0.084 F  
HETATM   24  F   UNL     1      -6.994  14.689  70.358  1.00  0.00    -0.168 F  
BRANCH  22  25
HETATM   25  C   UNL     1      -7.139  12.784  68.975  1.00  0.00    -0.025 C  
BRANCH  25  26
HETATM   26  C   UNL     1      -6.299  11.590  69.431  1.00  0.00    -0.103 C  
BRANCH  26  27
HETATM   27  C   UNL     1      -6.254  10.505  68.358  1.00  0.00    -0.050 C  
HETATM   28  C   UNL     1      -5.831  11.075  67.016  1.00  0.00    -0.069 C  
ENDBRANCH  26  27
ENDBRANCH  25  26
ENDBRANCH  22  25
ENDBRANCH   6  22
TORSDOF 10
ENDMDL
MODEL      213
REMARK 921   NORMALIZED FREE ENERGY PREDICTED BY IDOCK:   -3.99 KCAL/MOL
REMARK 922        TOTAL FREE ENERGY PREDICTED BY IDOCK:   -8.09 KCAL/MOL
REMARK 923 INTER-LIGAND FREE ENERGY PREDICTED BY IDOCK:   -7.07 KCAL/MOL
REMARK 924 INTRA-LIGAND FREE ENERGY PREDICTED BY IDOCK:   -1.02 KCAL/MOL
REMARK 927      BINDING AFFINITY PREDICTED BY RF-SCORE:    0.00 PKD
ROOT
HETATM    1  C   UNL     1     -10.909   8.335  68.504  1.00  0.00     0.093 C  
HETATM    2  C   UNL     1     -10.005   7.892  67.369  1.00  0.00    -0.261 C  
HETATM    3  C   UNL     1      -9.884   9.175  66.588  1.00  0.00    -0.240 C  
HETATM    4  O   UNL     1      -9.517   9.201  65.421  1.00  0.00    -0.241 OA 
HETATM    5  C   UNL     1     -10.294  10.404  67.397  1.00  0.00    -0.275 C  
HETATM    6  C   UNL     1     -11.475   8.046  70.814  1.00  0.00    -0.263 C  
HETATM    7  C   UNL     1     -10.484   9.768  68.772  1.00  0.00    -0.240 C  
HETATM    8  C   UNL     1     -11.509  10.388  69.702  1.00  0.00    -0.326 C  
HETATM    9  O   UNL     1     -10.694   7.594  69.689  1.00  0.00    -0.242 OA 
HETATM   10  C   UNL     1     -11.471   9.592  71.009  1.00  0.00    -0.420 C  
HETATM   11  O   UNL     1     -12.818   7.587  70.617  1.00  0.00    -0.555 OA 
HETATM   12  H   UNL     1     -12.821   6.644  70.498  1.00  0.00     0.000 HD 
ENDROOT
BRANCH   5  13
HETATM   13  C   UNL     1      -9.220  11.490  67.491  1.00  0.00    -0.166 C  
BRANCH  13  14
HETATM   14  C   UNL     1      -9.396  12.624  66.490  1.00  0.00    -0.228 C  
BRANCH  14  15
HETATM   15  C   UNL     1     -10.427  13.633  66.990  1.00  0.00    -0.270 C  
BRANCH  15  16
HETATM   16  C   UNL     1     -11.115  14.309  65.809  1.00  0.00    -0.310 C  
BRANCH  16  17
HETATM   17  C   UNL     1     -10.330  15.527  65.335  1.00  0.00    -0.422 C  
BRANCH  17  18
HETATM   18  C   UNL     1     -10.462  16.677  66.330  1.00  0.00    -0.272 C  
HETATM   19  O   UNL     1      -9.268  18.441  67.386  1.00  0.00    -0.268 OA 
HETATM   20  C   UNL     1      -9.159  17.418  66.506  1.00  0.00    -0.266 C  
HETATM   21  O   UNL     1      -8.110  17.152  65.942  1.00  0.00    -0.516 OA 
ENDBRANCH  17  18
ENDBRANCH  16  17
ENDBRANCH  15  16
ENDBRANCH  14  15
ENDBRANCH  13  14
ENDBRANCH   5  13
BRANCH   6  22
HETATM   22  C   UNL     1     -10.866   7.399  72.100  1.00  0.00    -0.235 C  
HETATM   23  F   UNL     1     -10.865   8.326  73.106  1.00  0.00    -0.389 F  
HETATM   24  F   UNL     1     -11.672   6.388  72.530  1.00  0.00    -0.302 F  
BRANCH  22  25
HETATM   25  C   UNL     1      -9.446   6.876  71.923  1.00  0.00    -0.146 C  
BRANCH  25  26
HETATM   26  C   UNL     1      -8.995   6.081  73.150  1.00  0.00    -0.130 C  
BRANCH  26  27
HETATM   27  C   UNL     1      -7.813   5.176  72.816  1.00  0.00    -0.098 C  
HETATM   28  C   UNL     1      -7.956   3.815  73.474  1.00  0.00    -0.087 C  
ENDBRANCH  26  27
ENDBRANCH  25  26
ENDBRANCH  22  25
ENDBRANCH   6  22
TORSDOF 10
ENDMDL
MODEL      214
REMARK 921   NORMALIZED FREE ENERGY PREDICTED BY IDOCK:   -3.98 KCAL/MOL
REMARK 922        TOTAL FREE ENERGY PREDICTED BY IDOCK:   -8.08 KCAL/MOL
REMARK 923 INTER-LIGAND FREE ENERGY PREDICTED BY IDOCK:   -6.28 KCAL/MOL
REMARK 924 INTRA-LIGAND FREE ENERGY PREDICTED BY IDOCK:   -1.80 KCAL/MOL
REMARK 927      BINDING AFFINITY PREDICTED BY RF-SCORE:    0.00 PKD
ROOT
HETATM    1  C   UNL     1      -9.688   7.837  71.229  1.00  0.00    -0.157 C  
HETATM    2  C   UNL     1      -8.429   8.519  70.725  1.00  0.00    -0.166 C  
HETATM    3  C   UNL     1      -7.873   7.449  69.821  1.00  0.00    -0.116 C  
HETATM    4  O   UNL     1      -6.703   7.437  69.461  1.00  0.00    -0.039 OA 
HETATM    5  C   UNL     1      -8.909   6.393  69.441  1.00  0.00    -0.132 C  
HETATM    6  C   UNL     1     -11.950   8.142  71.956  1.00  0.00    -0.340 C  
HETATM    7  C   UNL     1     -10.164   7.025  70.038  1.00  0.00    -0.206 C  
HETATM    8  C   UNL     1     -11.262   6.096  70.521  1.00  0.00    -0.403 C  
HETATM    9  O   UNL     1     -10.709   8.759  71.557  1.00  0.00    -0.250 OA 
HETATM   10  C   UNL     1     -12.406   6.976  71.029  1.00  0.00    -0.402 C  
HETATM   11  O   UNL     1     -11.779   7.658  73.294  1.00  0.00    -0.649 OA 
HETATM   12  H   UNL     1     -11.501   8.369  73.859  1.00  0.00     0.000 HD 
ENDROOT
BRANCH   5  13
HETATM   13  C   UNL     1      -9.106   6.209  67.936  1.00  0.00    -0.117 C  
BRANCH  13  14
HETATM   14  C   UNL     1      -8.554   7.351  67.094  1.00  0.00    -0.118 C  
BRANCH  14  15
HETATM   15  C   UNL     1      -9.663   8.326  66.708  1.00  0.00    -0.307 C  
BRANCH  15  16
HETATM   16  C   UNL     1      -9.334   8.997  65.379  1.00  0.00    -0.213 C  
BRANCH  16  17
HETATM   17  C   UNL     1      -8.957  10.461  65.576  1.00  0.00    -0.199 C  
BRANCH  17  18
HETATM   18  C   UNL     1      -7.516  10.712  65.145  1.00  0.00     0.041 C  
HETATM   19  O   UNL     1      -5.297  10.985  65.954  1.00  0.00    -0.128 OA 
HETATM   20  C   UNL     1      -6.579  10.764  66.327  1.00  0.00    -0.132 C  
HETATM   21  O   UNL     1      -6.903  10.630  67.496  1.00  0.00    -0.076 OA 
ENDBRANCH  17  18
ENDBRANCH  16  17
ENDBRANCH  15  16
ENDBRANCH  14  15
ENDBRANCH  13  14
ENDBRANCH   5  13
BRANCH   6  22
HETATM   22  C   UNL     1     -13.057   9.246  71.918  1.00  0.00    -0.415 C  
HETATM   23  F   UNL     1     -13.877   9.016  70.846  1.00  0.00    -0.271 F  
HETATM   24  F   UNL     1     -13.851   9.136  73.021  1.00  0.00    -0.444 F  
BRANCH  22  25
HETATM   25  C   UNL     1     -12.519  10.667  71.819  1.00  0.00    -0.321 C  
BRANCH  25  26
HETATM   26  C   UNL     1     -12.960  11.335  70.515  1.00  0.00    -0.056 C  
BRANCH  26  27
HETATM   27  C   UNL     1     -11.771  11.578  69.591  1.00  0.00    -0.419 C  
HETATM   28  C   UNL     1     -11.496  10.367  68.716  1.00  0.00    -0.240 C  
ENDBRANCH  26  27
ENDBRANCH  25  26
ENDBRANCH  22  25
ENDBRANCH   6  22
TORSDOF 10
ENDMDL
MODEL      215
REMARK 921   NORMALIZED FREE ENERGY PREDICTED BY IDOCK:   -3.96 KCAL/MOL
REMARK 922        TOTAL FREE ENERGY PREDICTED BY IDOCK:   -8.05 KCAL/MOL
REMARK 923 INTER-LIGAND FREE ENERGY PREDICTED BY IDOCK:   -6.48 KCAL/MOL
REMARK 924 INTRA-LIGAND FREE ENERGY PREDICTED BY IDOCK:   -1.56 KCAL/MOL
REMARK 927      BINDING AFFINITY PREDICTED BY RF-SCORE:    0.00 PKD
ROOT
HETATM    1  C   UNL     1     -12.404  12.483  69.856  1.00  0.00    -0.050 C  
HETATM    2  C   UNL     1     -12.668  12.257  71.332  1.00  0.00    -0.351 C  
HETATM    3  C   UNL     1     -12.902  10.768  71.352  1.00  0.00    -0.452 C  
HETATM    4  O   UNL     1     -13.471  10.206  72.278  1.00  0.00    -0.398 OA 
HETATM    5  C   UNL     1     -12.386  10.069  70.096  1.00  0.00    -0.068 C  
HETATM    6  C   UNL     1     -11.213  13.781  68.232  1.00  0.00    -0.273 C  
HETATM    7  C   UNL     1     -11.662  11.232  69.421  1.00  0.00    -0.409 C  
HETATM    8  C   UNL     1     -11.593  11.237  67.906  1.00  0.00    -0.330 C  
HETATM    9  O   UNL     1     -11.556  13.590  69.619  1.00  0.00    -0.283 OA 
HETATM   10  C   UNL     1     -10.790  12.474  67.497  1.00  0.00    -0.264 C  
HETATM   11  O   UNL     1     -12.355  14.353  67.582  1.00  0.00    -0.619 OA 
HETATM   12  H   UNL     1     -12.613  15.150  68.030  1.00  0.00     0.000 HD 
ENDROOT
BRANCH   5  13
HETATM   13  C   UNL     1     -11.387   8.942  70.362  1.00  0.00    -0.229 C  
BRANCH  13  14
HETATM   14  C   UNL     1     -10.253   9.327  71.302  1.00  0.00    -0.383 C  
BRANCH  14  15
HETATM   15  C   UNL     1      -8.927   8.745  70.819  1.00  0.00    -0.231 C  
BRANCH  15  16
HETATM   16  C   UNL     1      -8.604   7.468  71.587  1.00  0.00    -0.125 C  
BRANCH  16  17
HETATM   17  C   UNL     1      -8.246   6.328  70.639  1.00  0.00    -0.125 C  
BRANCH  17  18
HETATM   18  C   UNL     1      -8.789   6.598  69.239  1.00  0.00    -0.133 C  
HETATM   19  O   UNL     1      -8.245   6.511  66.926  1.00  0.00    -0.111 OA 
HETATM   20  C   UNL     1      -7.771   6.276  68.172  1.00  0.00    -0.104 C  
HETATM   21  O   UNL     1      -6.642   5.856  68.371  1.00  0.00    -0.047 OA 
ENDBRANCH  17  18
ENDBRANCH  16  17
ENDBRANCH  15  16
ENDBRANCH  14  15
ENDBRANCH  13  14
ENDBRANCH   5  13
BRANCH   6  22
HETATM   22  C   UNL     1     -10.006  14.773  68.178  1.00  0.00    -0.221 C  
HETATM   23  F   UNL     1     -10.477  16.033  67.930  1.00  0.00    -0.259 F  
HETATM   24  F   UNL     1      -9.410  14.836  69.402  1.00  0.00    -0.178 F  
BRANCH  22  25
HETATM   25  C   UNL     1      -8.962  14.430  67.122  1.00  0.00    -0.245 C  
BRANCH  25  26
HETATM   26  C   UNL     1      -7.545  14.625  67.665  1.00  0.00    -0.198 C  
BRANCH  26  27
HETATM   27  C   UNL     1      -7.001  16.004  67.303  1.00  0.00    -0.240 C  
HETATM   28  C   UNL     1      -6.721  16.830  68.545  1.00  0.00    -0.161 C  
ENDBRANCH  26  27
ENDBRANCH  25  26
ENDBRANCH  22  25
ENDBRANCH   6  22
TORSDOF 10
ENDMDL
MODEL      216
REMARK 921   NORMALIZED FREE ENERGY PREDICTED BY IDOCK:   -3.96 KCAL/MOL
REMARK 922        TOTAL FREE ENERGY PREDICTED BY IDOCK:   -8.04 KCAL/MOL
REMARK 923 INTER-LIGAND FREE ENERGY PREDICTED BY IDOCK:   -5.93 KCAL/MOL
REMARK 924 INTRA-LIGAND FREE ENERGY PREDICTED BY IDOCK:   -2.11 KCAL/MOL
REMARK 927      BINDING AFFINITY PREDICTED BY RF-SCORE:    0.00 PKD
ROOT
HETATM    1  C   UNL     1     -10.645   8.197  67.895  1.00  0.00    -0.147 C  
HETATM    2  C   UNL     1     -10.133   9.624  67.935  1.00  0.00    -0.222 C  
HETATM    3  C   UNL     1     -10.714  10.095  69.244  1.00  0.00    -0.231 C  
HETATM    4  O   UNL     1     -10.831  11.281  69.522  1.00  0.00    -0.226 OA 
HETATM    5  C   UNL     1     -11.156   8.944  70.146  1.00  0.00    -0.217 C  
HETATM    6  C   UNL     1     -10.200   5.952  67.185  1.00  0.00    -0.203 C  
HETATM    7  C   UNL     1     -10.619   7.758  69.348  1.00  0.00    -0.211 C  
HETATM    8  C   UNL     1     -11.367   6.442  69.448  1.00  0.00    -0.443 C  
HETATM    9  O   UNL     1      -9.790   7.334  67.170  1.00  0.00    -0.158 OA 
HETATM   10  C   UNL     1     -10.605   5.426  68.594  1.00  0.00    -0.167 C  
HETATM   11  O   UNL     1     -11.307   5.822  66.284  1.00  0.00    -0.733 OA 
HETATM   12  H   UNL     1     -11.060   6.144  65.425  1.00  0.00     0.000 HD 
ENDROOT
BRANCH   5  13
HETATM   13  C   UNL     1     -10.518   8.945  71.536  1.00  0.00    -0.393 C  
BRANCH  13  14
HETATM   14  C   UNL     1     -11.351   8.245  72.601  1.00  0.00    -0.421 C  
BRANCH  14  15
HETATM   15  C   UNL     1     -10.506   7.233  73.372  1.00  0.00    -0.423 C  
BRANCH  15  16
HETATM   16  C   UNL     1      -9.101   7.167  72.783  1.00  0.00    -0.163 C  
BRANCH  16  17
HETATM   17  C   UNL     1      -8.462   5.805  73.027  1.00  0.00    -0.118 C  
BRANCH  17  18
HETATM   18  C   UNL     1      -8.638   4.898  71.813  1.00  0.00    -0.132 C  
HETATM   19  O   UNL     1      -9.723   2.931  71.036  1.00  0.00    -0.157 OA 
HETATM   20  C   UNL     1      -9.559   3.739  72.108  1.00  0.00    -0.148 C  
HETATM   21  O   UNL     1     -10.108   3.524  73.177  1.00  0.00    -0.130 OA 
ENDBRANCH  17  18
ENDBRANCH  16  17
ENDBRANCH  15  16
ENDBRANCH  14  15
ENDBRANCH  13  14
ENDBRANCH   5  13
BRANCH   6  22
HETATM   22  C   UNL     1      -8.991   5.097  66.683  1.00  0.00    -0.115 C  
HETATM   23  F   UNL     1      -8.501   5.652  65.532  1.00  0.00    -0.122 F  
HETATM   24  F   UNL     1      -7.975   5.166  67.589  1.00  0.00    -0.095 F  
BRANCH  22  25
HETATM   25  C   UNL     1      -9.329   3.637  66.410  1.00  0.00    -0.194 C  
BRANCH  25  26
HETATM   26  C   UNL     1      -8.060   2.800  66.239  1.00  0.00    -0.083 C  
BRANCH  26  27
HETATM   27  C   UNL     1      -7.954   1.734  67.325  1.00  0.00    -0.065 C  
HETATM   28  C   UNL     1      -9.294   1.496  67.998  1.00  0.00    -0.213 C  
ENDBRANCH  26  27
ENDBRANCH  25  26
ENDBRANCH  22  25
ENDBRANCH   6  22
TORSDOF 10
ENDMDL
MODEL      217
REMARK 921   NORMALIZED FREE ENERGY PREDICTED BY IDOCK:   -3.95 KCAL/MOL
REMARK 922        TOTAL FREE ENERGY PREDICTED BY IDOCK:   -8.04 KCAL/MOL
REMARK 923 INTER-LIGAND FREE ENERGY PREDICTED BY IDOCK:   -6.14 KCAL/MOL
REMARK 924 INTRA-LIGAND FREE ENERGY PREDICTED BY IDOCK:   -1.90 KCAL/MOL
REMARK 927      BINDING AFFINITY PREDICTED BY RF-SCORE:    0.00 PKD
ROOT
HETATM    1  C   UNL     1     -11.464   7.312  71.088  1.00  0.00    -0.283 C  
HETATM    2  C   UNL     1     -12.398   6.388  71.845  1.00  0.00    -0.279 C  
HETATM    3  C   UNL     1     -11.420   5.668  72.737  1.00  0.00    -0.274 C  
HETATM    4  O   UNL     1     -11.687   4.604  73.281  1.00  0.00    -0.290 OA 
HETATM    5  C   UNL     1     -10.079   6.390  72.854  1.00  0.00    -0.198 C  
HETATM    6  C   UNL     1     -11.219   9.447  70.028  1.00  0.00    -0.190 C  
HETATM    7  C   UNL     1     -10.408   7.684  72.114  1.00  0.00    -0.270 C  
HETATM    8  C   UNL     1      -9.279   8.386  71.383  1.00  0.00    -0.242 C  
HETATM    9  O   UNL     1     -12.100   8.506  70.674  1.00  0.00    -0.141 OA 
HETATM   10  C   UNL     1      -9.865   9.660  70.769  1.00  0.00    -0.224 C  
HETATM   11  O   UNL     1     -10.973   8.965  68.701  1.00  0.00    -0.438 OA 
HETATM   12  H   UNL     1     -11.799   8.835  68.250  1.00  0.00     0.000 HD 
ENDROOT
BRANCH   5  13
HETATM   13  C   UNL     1      -9.659   6.723  74.286  1.00  0.00    -0.305 C  
BRANCH  13  14
HETATM   14  C   UNL     1      -8.158   6.646  74.526  1.00  0.00    -0.140 C  
BRANCH  14  15
HETATM   15  C   UNL     1      -7.514   5.611  73.606  1.00  0.00    -0.091 C  
BRANCH  15  16
HETATM   16  C   UNL     1      -6.388   6.253  72.802  1.00  0.00    -0.059 C  
BRANCH  16  17
HETATM   17  C   UNL     1      -6.427   5.811  71.344  1.00  0.00    -0.045 C  
BRANCH  17  18
HETATM   18  C   UNL     1      -7.527   4.776  71.122  1.00  0.00    -0.072 C  
HETATM   19  O   UNL     1      -9.348   4.193  69.709  1.00  0.00    -0.131 OA 
HETATM   20  C   UNL     1      -8.371   5.107  69.915  1.00  0.00    -0.093 C  
HETATM   21  O   UNL     1      -8.221   6.076  69.188  1.00  0.00    -0.109 OA 
ENDBRANCH  17  18
ENDBRANCH  16  17
ENDBRANCH  15  16
ENDBRANCH  14  15
ENDBRANCH  13  14
ENDBRANCH   5  13
BRANCH   6  22
HETATM   22  C   UNL     1     -11.958  10.824  69.976  1.00  0.00    -0.347 C  
HETATM   23  F   UNL     1     -13.281  10.608  69.702  1.00  0.00    -0.121 F  
HETATM   24  F   UNL     1     -11.926  11.408  71.207  1.00  0.00    -0.353 F  
BRANCH  22  25
HETATM   25  C   UNL     1     -11.401  11.793  68.940  1.00  0.00    -0.326 C  
BRANCH  25  26
HETATM   26  C   UNL     1     -11.862  13.224  69.220  1.00  0.00    -0.383 C  
BRANCH  26  27
HETATM   27  C   UNL     1     -12.019  14.016  67.925  1.00  0.00    -0.387 C  
HETATM   28  C   UNL     1     -11.294  15.347  68.001  1.00  0.00    -0.345 C  
ENDBRANCH  26  27
ENDBRANCH  25  26
ENDBRANCH  22  25
ENDBRANCH   6  22
TORSDOF 10
ENDMDL
MODEL      218
REMARK 921   NORMALIZED FREE ENERGY PREDICTED BY IDOCK:   -3.92 KCAL/MOL
REMARK 922        TOTAL FREE ENERGY PREDICTED BY IDOCK:   -7.99 KCAL/MOL
REMARK 923 INTER-LIGAND FREE ENERGY PREDICTED BY IDOCK:   -6.79 KCAL/MOL
REMARK 924 INTRA-LIGAND FREE ENERGY PREDICTED BY IDOCK:   -1.20 KCAL/MOL
REMARK 927      BINDING AFFINITY PREDICTED BY RF-SCORE:    0.00 PKD
ROOT
HETATM    1  C   UNL     1     -10.431   9.193  70.536  1.00  0.00    -0.236 C  
HETATM    2  C   UNL     1     -11.889   9.321  70.932  1.00  0.00    -0.346 C  
HETATM    3  C   UNL     1     -12.102  10.802  70.747  1.00  0.00    -0.372 C  
HETATM    4  O   UNL     1     -13.037  11.400  71.264  1.00  0.00    -0.342 OA 
HETATM    5  C   UNL     1     -11.021  11.455  69.888  1.00  0.00    -0.030 C  
HETATM    6  C   UNL     1      -8.766   7.792  69.533  1.00  0.00    -0.135 C  
HETATM    7  C   UNL     1     -10.262  10.214  69.425  1.00  0.00    -0.246 C  
HETATM    8  C   UNL     1      -8.778  10.356  69.148  1.00  0.00    -0.173 C  
HETATM    9  O   UNL     1     -10.124   7.920  70.001  1.00  0.00    -0.193 OA 
HETATM   10  C   UNL     1      -8.277   8.991  68.668  1.00  0.00    -0.118 C  
HETATM   11  O   UNL     1      -7.926   7.653  70.685  1.00  0.00    -0.096 OA 
HETATM   12  H   UNL     1      -8.224   6.921  71.213  1.00  0.00     0.000 HD 
ENDROOT
BRANCH   5  13
HETATM   13  C   UNL     1     -11.550  12.206  68.665  1.00  0.00    -0.372 C  
BRANCH  13  14
HETATM   14  C   UNL     1     -11.946  13.648  68.946  1.00  0.00    -0.392 C  
BRANCH  14  15
HETATM   15  C   UNL     1     -12.139  14.421  67.643  1.00  0.00    -0.312 C  
BRANCH  15  16
HETATM   16  C   UNL     1     -10.982  14.139  66.690  1.00  0.00    -0.303 C  
BRANCH  16  17
HETATM   17  C   UNL     1     -11.356  14.475  65.251  1.00  0.00    -0.353 C  
BRANCH  17  18
HETATM   18  C   UNL     1     -11.059  13.299  64.325  1.00  0.00    -0.414 C  
HETATM   19  O   UNL     1     -12.004  11.351  63.342  1.00  0.00    -0.231 OA 
HETATM   20  C   UNL     1     -12.258  12.396  64.163  1.00  0.00    -0.468 C  
HETATM   21  O   UNL     1     -13.344  12.557  64.697  1.00  0.00    -0.804 OA 
ENDBRANCH  17  18
ENDBRANCH  16  17
ENDBRANCH  15  16
ENDBRANCH  14  15
ENDBRANCH  13  14
ENDBRANCH   5  13
BRANCH   6  22
HETATM   22  C   UNL     1      -8.693   6.503  68.651  1.00  0.00    -0.123 C  
HETATM   23  F   UNL     1      -9.422   6.702  67.511  1.00  0.00    -0.126 F  
HETATM   24  F   UNL     1      -7.409   6.304  68.238  1.00  0.00    -0.077 F  
BRANCH  22  25
HETATM   25  C   UNL     1      -9.205   5.244  69.339  1.00  0.00    -0.152 C  
BRANCH  25  26
HETATM   26  C   UNL     1      -9.902   4.316  68.343  1.00  0.00    -0.104 C  
BRANCH  26  27
HETATM   27  C   UNL     1      -9.115   3.022  68.154  1.00  0.00    -0.219 C  
HETATM   28  C   UNL     1      -7.722   3.131  68.749  1.00  0.00    -0.051 C  
ENDBRANCH  26  27
ENDBRANCH  25  26
ENDBRANCH  22  25
ENDBRANCH   6  22
TORSDOF 10
ENDMDL
MODEL      219
REMARK 921   NORMALIZED FREE ENERGY PREDICTED BY IDOCK:   -3.92 KCAL/MOL
REMARK 922        TOTAL FREE ENERGY PREDICTED BY IDOCK:   -7.98 KCAL/MOL
REMARK 923 INTER-LIGAND FREE ENERGY PREDICTED BY IDOCK:   -6.58 KCAL/MOL
REMARK 924 INTRA-LIGAND FREE ENERGY PREDICTED BY IDOCK:   -1.41 KCAL/MOL
REMARK 927      BINDING AFFINITY PREDICTED BY RF-SCORE:    0.00 PKD
ROOT
HETATM    1  C   UNL     1      -9.422  11.698  64.699  1.00  0.00    -0.046 C  
HETATM    2  C   UNL     1      -9.924  10.719  63.655  1.00  0.00    -0.405 C  
HETATM    3  C   UNL     1      -8.860   9.654  63.734  1.00  0.00    -0.231 C  
HETATM    4  O   UNL     1      -8.682   8.836  62.841  1.00  0.00    -0.158 OA 
HETATM    5  C   UNL     1      -8.031   9.736  65.015  1.00  0.00    -0.131 C  
HETATM    6  C   UNL     1     -10.039  13.312  66.359  1.00  0.00    -0.290 C  
HETATM    7  C   UNL     1      -8.810  10.811  65.768  1.00  0.00    -0.201 C  
HETATM    8  C   UNL     1      -8.040  11.702  66.724  1.00  0.00    -0.150 C  
HETATM    9  O   UNL     1     -10.470  12.434  65.300  1.00  0.00    -0.272 OA 
HETATM   10  C   UNL     1      -9.053  12.653  67.368  1.00  0.00    -0.191 C  
HETATM   11  O   UNL     1      -9.417  14.449  65.748  1.00  0.00    -0.504 OA 
HETATM   12  H   UNL     1     -10.018  14.852  65.133  1.00  0.00     0.000 HD 
ENDROOT
BRANCH   5  13
HETATM   13  C   UNL     1      -8.016   8.451  65.845  1.00  0.00    -0.099 C  
BRANCH  13  14
HETATM   14  C   UNL     1      -9.383   8.038  66.372  1.00  0.00    -0.259 C  
BRANCH  14  15
HETATM   15  C   UNL     1      -9.489   6.517  66.469  1.00  0.00    -0.190 C  
BRANCH  15  16
HETATM   16  C   UNL     1     -10.001   6.114  67.848  1.00  0.00    -0.149 C  
BRANCH  16  17
HETATM   17  C   UNL     1      -9.630   7.154  68.901  1.00  0.00    -0.142 C  
BRANCH  17  18
HETATM   18  C   UNL     1      -8.919   6.499  70.081  1.00  0.00    -0.155 C  
HETATM   19  O   UNL     1      -9.237   5.672  72.287  1.00  0.00    -0.145 OA 
HETATM   20  C   UNL     1      -9.860   6.254  71.236  1.00  0.00    -0.175 C  
HETATM   21  O   UNL     1     -11.047   6.537  71.256  1.00  0.00    -0.250 OA 
ENDBRANCH  17  18
ENDBRANCH  16  17
ENDBRANCH  15  16
ENDBRANCH  14  15
ENDBRANCH  13  14
ENDBRANCH   5  13
BRANCH   6  22
HETATM   22  C   UNL     1     -11.312  13.753  67.152  1.00  0.00    -0.324 C  
HETATM   23  F   UNL     1     -11.538  15.084  66.928  1.00  0.00    -0.349 F  
HETATM   24  F   UNL     1     -12.405  13.105  66.660  1.00  0.00    -0.420 F  
BRANCH  22  25
HETATM   25  C   UNL     1     -11.221  13.525  68.656  1.00  0.00    -0.311 C  
BRANCH  25  26
HETATM   26  C   UNL     1     -12.074  12.329  69.084  1.00  0.00    -0.214 C  
BRANCH  26  27
HETATM   27  C   UNL     1     -12.292  12.322  70.595  1.00  0.00    -0.375 C  
HETATM   28  C   UNL     1     -12.863  10.995  71.063  1.00  0.00    -0.442 C  
ENDBRANCH  26  27
ENDBRANCH  25  26
ENDBRANCH  22  25
ENDBRANCH   6  22
TORSDOF 10
ENDMDL
MODEL      220
REMARK 921   NORMALIZED FREE ENERGY PREDICTED BY IDOCK:   -3.90 KCAL/MOL
REMARK 922        TOTAL FREE ENERGY PREDICTED BY IDOCK:   -7.96 KCAL/MOL
REMARK 923 INTER-LIGAND FREE ENERGY PREDICTED BY IDOCK:   -5.85 KCAL/MOL
REMARK 924 INTRA-LIGAND FREE ENERGY PREDICTED BY IDOCK:   -2.11 KCAL/MOL
REMARK 927      BINDING AFFINITY PREDICTED BY RF-SCORE:    0.00 PKD
ROOT
HETATM    1  C   UNL     1     -10.761   8.372  68.184  1.00  0.00    -0.034 C  
HETATM    2  C   UNL     1     -10.406   9.838  68.341  1.00  0.00    -0.230 C  
HETATM    3  C   UNL     1     -11.109  10.162  69.634  1.00  0.00    -0.263 C  
HETATM    4  O   UNL     1     -11.367  11.310  69.971  1.00  0.00    -0.269 OA 
HETATM    5  C   UNL     1     -11.480   8.916  70.436  1.00  0.00    -0.182 C  
HETATM    6  C   UNL     1     -10.041   6.234  67.376  1.00  0.00    -0.156 C  
HETATM    7  C   UNL     1     -10.775   7.845  69.608  1.00  0.00    -0.218 C  
HETATM    8  C   UNL     1     -11.384   6.456  69.583  1.00  0.00    -0.479 C  
HETATM    9  O   UNL     1      -9.779   7.649  67.468  1.00  0.00    -0.143 OA 
HETATM   10  C   UNL     1     -10.470   5.580  68.723  1.00  0.00    -0.261 C  
HETATM   11  O   UNL     1     -11.073   6.051  66.399  1.00  0.00    -0.713 OA 
HETATM   12  H   UNL     1     -10.811   6.450  65.578  1.00  0.00     0.000 HD 
ENDROOT
BRANCH   5  13
HETATM   13  C   UNL     1     -10.929   8.893  71.863  1.00  0.00    -0.439 C  
BRANCH  13  14
HETATM   14  C   UNL     1      -9.443   8.573  71.948  1.00  0.00    -0.350 C  
BRANCH  14  15
HETATM   15  C   UNL     1      -9.116   7.864  73.261  1.00  0.00    -0.341 C  
BRANCH  15  16
HETATM   16  C   UNL     1      -8.231   6.651  72.995  1.00  0.00    -0.116 C  
BRANCH  16  17
HETATM   17  C   UNL     1      -8.909   5.668  72.048  1.00  0.00    -0.138 C  
BRANCH  17  18
HETATM   18  C   UNL     1      -9.291   4.386  72.780  1.00  0.00    -0.151 C  
HETATM   19  O   UNL     1     -11.099   3.238  73.813  1.00  0.00    -0.221 OA 
HETATM   20  C   UNL     1     -10.751   4.373  73.163  1.00  0.00    -0.220 C  
HETATM   21  O   UNL     1     -11.552   5.265  72.934  1.00  0.00    -0.310 OA 
ENDBRANCH  17  18
ENDBRANCH  16  17
ENDBRANCH  15  16
ENDBRANCH  14  15
ENDBRANCH  13  14
ENDBRANCH   5  13
BRANCH   6  22
HETATM   22  C   UNL     1      -8.721   5.541  66.906  1.00  0.00    -0.112 C  
HETATM   23  F   UNL     1      -7.749   5.751  67.845  1.00  0.00    -0.090 F  
HETATM   24  F   UNL     1      -8.905   4.191  66.860  1.00  0.00    -0.109 F  
BRANCH  22  25
HETATM   25  C   UNL     1      -8.205   6.029  65.558  1.00  0.00    -0.142 C  
BRANCH  25  26
HETATM   26  C   UNL     1      -6.826   6.678  65.699  1.00  0.00    -0.048 C  
BRANCH  26  27
HETATM   27  C   UNL     1      -6.888   8.173  65.398  1.00  0.00    -0.062 C  
HETATM   28  C   UNL     1      -5.720   8.911  66.027  1.00  0.00    -0.050 C  
ENDBRANCH  26  27
ENDBRANCH  25  26
ENDBRANCH  22  25
ENDBRANCH   6  22
TORSDOF 10
ENDMDL
MODEL      221
REMARK 921   NORMALIZED FREE ENERGY PREDICTED BY IDOCK:   -3.89 KCAL/MOL
REMARK 922        TOTAL FREE ENERGY PREDICTED BY IDOCK:   -7.95 KCAL/MOL
REMARK 923 INTER-LIGAND FREE ENERGY PREDICTED BY IDOCK:   -5.77 KCAL/MOL
REMARK 924 INTRA-LIGAND FREE ENERGY PREDICTED BY IDOCK:   -2.18 KCAL/MOL
REMARK 927      BINDING AFFINITY PREDICTED BY RF-SCORE:    0.00 PKD
ROOT
HETATM    1  C   UNL     1     -11.345   9.931  69.833  1.00  0.00    -0.222 C  
HETATM    2  C   UNL     1     -11.357   9.767  71.341  1.00  0.00    -0.407 C  
HETATM    3  C   UNL     1     -10.962   8.319  71.470  1.00  0.00    -0.254 C  
HETATM    4  O   UNL     1     -11.164   7.671  72.488  1.00  0.00    -0.293 OA 
HETATM    5  C   UNL     1     -10.324   7.762  70.199  1.00  0.00    -0.218 C  
HETATM    6  C   UNL     1     -10.941  11.428  68.007  1.00  0.00    -0.237 C  
HETATM    7  C   UNL     1     -10.202   9.043  69.378  1.00  0.00    -0.206 C  
HETATM    8  C   UNL     1     -10.280   8.925  67.868  1.00  0.00    -0.274 C  
HETATM    9  O   UNL     1     -11.047  11.255  69.434  1.00  0.00    -0.243 OA 
HETATM   10  C   UNL     1     -10.093  10.332  67.296  1.00  0.00    -0.249 C  
HETATM   11  O   UNL     1     -12.272  11.430  67.474  1.00  0.00    -0.412 OA 
HETATM   12  H   UNL     1     -12.789  12.099  67.907  1.00  0.00     0.000 HD 
ENDROOT
BRANCH   5  13
HETATM   13  C   UNL     1      -8.932   7.159  70.398  1.00  0.00    -0.155 C  
BRANCH  13  14
HETATM   14  C   UNL     1      -7.934   8.105  71.050  1.00  0.00    -0.096 C  
BRANCH  14  15
HETATM   15  C   UNL     1      -6.581   8.035  70.345  1.00  0.00    -0.037 C  
BRANCH  15  16
HETATM   16  C   UNL     1      -6.774   7.664  68.878  1.00  0.00    -0.050 C  
BRANCH  16  17
HETATM   17  C   UNL     1      -6.632   8.884  67.975  1.00  0.00    -0.061 C  
BRANCH  17  18
HETATM   18  C   UNL     1      -5.736   8.573  66.780  1.00  0.00    -0.044 C  
HETATM   19  O   UNL     1      -5.749   8.100  64.450  1.00  0.00    -0.050 OA 
HETATM   20  C   UNL     1      -6.536   8.375  65.516  1.00  0.00    -0.055 C  
HETATM   21  O   UNL     1      -7.752   8.444  65.428  1.00  0.00    -0.091 OA 
ENDBRANCH  17  18
ENDBRANCH  16  17
ENDBRANCH  15  16
ENDBRANCH  14  15
ENDBRANCH  13  14
ENDBRANCH   5  13
BRANCH   6  22
HETATM   22  C   UNL     1     -10.254  12.808  67.750  1.00  0.00    -0.223 C  
HETATM   23  F   UNL     1      -9.982  13.401  68.952  1.00  0.00    -0.198 F  
HETATM   24  F   UNL     1      -9.044  12.613  67.152  1.00  0.00    -0.180 F  
BRANCH  22  25
HETATM   25  C   UNL     1     -11.083  13.773  66.911  1.00  0.00    -0.311 C  
BRANCH  25  26
HETATM   26  C   UNL     1     -10.438  14.011  65.545  1.00  0.00    -0.339 C  
BRANCH  26  27
HETATM   27  C   UNL     1     -11.462  13.879  64.421  1.00  0.00    -0.376 C  
HETATM   28  C   UNL     1     -11.947  12.447  64.283  1.00  0.00    -0.489 C  
ENDBRANCH  26  27
ENDBRANCH  25  26
ENDBRANCH  22  25
ENDBRANCH   6  22
TORSDOF 10
ENDMDL
MODEL      222
REMARK 921   NORMALIZED FREE ENERGY PREDICTED BY IDOCK:   -3.88 KCAL/MOL
REMARK 922        TOTAL FREE ENERGY PREDICTED BY IDOCK:   -7.92 KCAL/MOL
REMARK 923 INTER-LIGAND FREE ENERGY PREDICTED BY IDOCK:   -6.72 KCAL/MOL
REMARK 924 INTRA-LIGAND FREE ENERGY PREDICTED BY IDOCK:   -1.21 KCAL/MOL
REMARK 927      BINDING AFFINITY PREDICTED BY RF-SCORE:    0.00 PKD
ROOT
HETATM    1  C   UNL     1      -9.814  12.390  65.004  1.00  0.00    -0.114 C  
HETATM    2  C   UNL     1     -10.302  11.684  63.753  1.00  0.00    -0.445 C  
HETATM    3  C   UNL     1      -9.495  10.413  63.814  1.00  0.00    -0.305 C  
HETATM    4  O   UNL     1      -9.323   9.697  62.836  1.00  0.00    -0.236 OA 
HETATM    5  C   UNL     1      -8.906  10.149  65.198  1.00  0.00    -0.207 C  
HETATM    6  C   UNL     1     -10.392  13.873  66.794  1.00  0.00    -0.272 C  
HETATM    7  C   UNL     1      -9.584  11.262  65.993  1.00  0.00    -0.245 C  
HETATM    8  C   UNL     1      -8.838  11.835  67.183  1.00  0.00    -0.173 C  
HETATM    9  O   UNL     1     -10.790  13.253  65.555  1.00  0.00    -0.279 OA 
HETATM   10  C   UNL     1      -9.746  12.892  67.817  1.00  0.00    -0.214 C  
HETATM   11  O   UNL     1      -9.464  14.917  66.474  1.00  0.00    -0.251 OA 
HETATM   12  H   UNL     1      -9.858  15.516  65.850  1.00  0.00     0.000 HD 
ENDROOT
BRANCH   5  13
HETATM   13  C   UNL     1      -9.286   8.796  65.802  1.00  0.00    -0.259 C  
BRANCH  13  14
HETATM   14  C   UNL     1      -8.236   8.219  66.741  1.00  0.00    -0.103 C  
BRANCH  14  15
HETATM   15  C   UNL     1      -7.218   7.384  65.967  1.00  0.00    -0.070 C  
BRANCH  15  16
HETATM   16  C   UNL     1      -7.930   6.513  64.937  1.00  0.00    -0.124 C  
BRANCH  16  17
HETATM   17  C   UNL     1      -8.119   5.090  65.451  1.00  0.00    -0.116 C  
BRANCH  17  18
HETATM   18  C   UNL     1      -9.533   4.594  65.161  1.00  0.00    -0.147 C  
HETATM   19  O   UNL     1     -10.841   3.331  63.630  1.00  0.00    -0.255 OA 
HETATM   20  C   UNL     1      -9.591   3.777  63.894  1.00  0.00    -0.157 C  
HETATM   21  O   UNL     1      -8.643   3.529  63.165  1.00  0.00    -0.088 OA 
ENDBRANCH  17  18
ENDBRANCH  16  17
ENDBRANCH  15  16
ENDBRANCH  14  15
ENDBRANCH  13  14
ENDBRANCH   5  13
BRANCH   6  22
HETATM   22  C   UNL     1     -11.676  14.475  67.453  1.00  0.00    -0.400 C  
HETATM   23  F   UNL     1     -11.669  15.832  67.284  1.00  0.00    -0.153 F  
HETATM   24  F   UNL     1     -12.782  14.026  66.794  1.00  0.00    -0.408 F  
BRANCH  22  25
HETATM   25  C   UNL     1     -11.814  14.174  68.940  1.00  0.00    -0.382 C  
BRANCH  25  26
HETATM   26  C   UNL     1     -11.731  15.455  69.772  1.00  0.00    -0.352 C  
BRANCH  26  27
HETATM   27  C   UNL     1     -12.841  15.506  70.818  1.00  0.00    -0.513 C  
HETATM   28  C   UNL     1     -12.301  15.222  72.209  1.00  0.00    -0.450 C  
ENDBRANCH  26  27
ENDBRANCH  25  26
ENDBRANCH  22  25
ENDBRANCH   6  22
TORSDOF 10
ENDMDL
MODEL      223
REMARK 921   NORMALIZED FREE ENERGY PREDICTED BY IDOCK:   -3.85 KCAL/MOL
REMARK 922        TOTAL FREE ENERGY PREDICTED BY IDOCK:   -7.87 KCAL/MOL
REMARK 923 INTER-LIGAND FREE ENERGY PREDICTED BY IDOCK:   -6.33 KCAL/MOL
REMARK 924 INTRA-LIGAND FREE ENERGY PREDICTED BY IDOCK:   -1.54 KCAL/MOL
REMARK 927      BINDING AFFINITY PREDICTED BY RF-SCORE:    0.00 PKD
ROOT
HETATM    1  C   UNL     1      -9.818   8.177  67.348  1.00  0.00    -0.184 C  
HETATM    2  C   UNL     1      -8.732   7.873  66.334  1.00  0.00    -0.170 C  
HETATM    3  C   UNL     1      -9.077   8.858  65.247  1.00  0.00    -0.136 C  
HETATM    4  O   UNL     1      -8.667   8.740  64.100  1.00  0.00    -0.127 OA 
HETATM    5  C   UNL     1     -10.003   9.974  65.728  1.00  0.00    -0.346 C  
HETATM    6  C   UNL     1     -10.389   8.266  69.673  1.00  0.00    -0.218 C  
HETATM    7  C   UNL     1     -10.023   9.677  67.226  1.00  0.00    -0.250 C  
HETATM    8  C   UNL     1     -11.276  10.038  68.001  1.00  0.00    -0.190 C  
HETATM    9  O   UNL     1      -9.413   7.906  68.676  1.00  0.00    -0.149 OA 
HETATM   10  C   UNL     1     -11.018   9.676  69.466  1.00  0.00    -0.233 C  
HETATM   11  O   UNL     1     -11.419   7.269  69.647  1.00  0.00    -0.483 OA 
HETATM   12  H   UNL     1     -11.035   6.409  69.773  1.00  0.00     0.000 HD 
ENDROOT
BRANCH   5  13
HETATM   13  C   UNL     1      -9.463  11.387  65.504  1.00  0.00    -0.251 C  
BRANCH  13  14
HETATM   14  C   UNL     1      -8.667  11.941  66.678  1.00  0.00    -0.185 C  
BRANCH  14  15
HETATM   15  C   UNL     1      -9.340  13.186  67.250  1.00  0.00    -0.225 C  
BRANCH  15  16
HETATM   16  C   UNL     1     -10.304  13.778  66.227  1.00  0.00    -0.294 C  
BRANCH  16  17
HETATM   17  C   UNL     1     -11.714  13.891  66.796  1.00  0.00    -0.423 C  
BRANCH  17  18
HETATM   18  C   UNL     1     -11.685  13.881  68.322  1.00  0.00    -0.396 C  
HETATM   19  O   UNL     1     -11.440  15.264  70.240  1.00  0.00    -0.253 OA 
HETATM   20  C   UNL     1     -11.466  15.263  68.887  1.00  0.00    -0.332 C  
HETATM   21  O   UNL     1     -11.322  16.283  68.232  1.00  0.00    -0.352 OA 
ENDBRANCH  17  18
ENDBRANCH  16  17
ENDBRANCH  15  16
ENDBRANCH  14  15
ENDBRANCH  13  14
ENDBRANCH   5  13
BRANCH   6  22
HETATM   22  C   UNL     1      -9.668   8.262  71.060  1.00  0.00    -0.163 C  
HETATM   23  F   UNL     1      -8.389   8.719  70.898  1.00  0.00    -0.108 F  
HETATM   24  F   UNL     1     -10.277   9.153  71.894  1.00  0.00    -0.383 F  
BRANCH  22  25
HETATM   25  C   UNL     1      -9.612   6.895  71.731  1.00  0.00    -0.162 C  
BRANCH  25  26
HETATM   26  C   UNL     1      -8.250   6.659  72.386  1.00  0.00    -0.103 C  
BRANCH  26  27
HETATM   27  C   UNL     1      -8.004   5.171  72.622  1.00  0.00    -0.102 C  
HETATM   28  C   UNL     1      -9.134   4.545  73.419  1.00  0.00    -0.116 C  
ENDBRANCH  26  27
ENDBRANCH  25  26
ENDBRANCH  22  25
ENDBRANCH   6  22
TORSDOF 10
ENDMDL
MODEL      224
REMARK 921   NORMALIZED FREE ENERGY PREDICTED BY IDOCK:   -3.85 KCAL/MOL
REMARK 922        TOTAL FREE ENERGY PREDICTED BY IDOCK:   -7.87 KCAL/MOL
REMARK 923 INTER-LIGAND FREE ENERGY PREDICTED BY IDOCK:   -6.19 KCAL/MOL
REMARK 924 INTRA-LIGAND FREE ENERGY PREDICTED BY IDOCK:   -1.68 KCAL/MOL
REMARK 927      BINDING AFFINITY PREDICTED BY RF-SCORE:    0.00 PKD
ROOT
HETATM    1  C   UNL     1      -7.898   8.412  67.754  1.00  0.00    -0.107 C  
HETATM    2  C   UNL     1      -6.752   9.299  68.202  1.00  0.00    -0.060 C  
HETATM    3  C   UNL     1      -6.821  10.394  67.169  1.00  0.00    -0.083 C  
HETATM    4  O   UNL     1      -5.883  11.148  66.947  1.00  0.00    -0.065 OA 
HETATM    5  C   UNL     1      -8.157  10.427  66.429  1.00  0.00    -0.129 C  
HETATM    6  C   UNL     1      -9.629   6.910  68.450  1.00  0.00    -0.126 C  
HETATM    7  C   UNL     1      -8.936   9.391  67.235  1.00  0.00    -0.143 C  
HETATM    8  C   UNL     1     -10.005   8.593  66.514  1.00  0.00    -0.353 C  
HETATM    9  O   UNL     1      -8.481   7.695  68.825  1.00  0.00    -0.128 OA 
HETATM   10  C   UNL     1     -10.650   7.667  67.549  1.00  0.00    -0.323 C  
HETATM   11  O   UNL     1      -9.149   5.747  67.763  1.00  0.00    -0.109 OA 
HETATM   12  H   UNL     1      -8.527   5.285  68.313  1.00  0.00     0.000 HD 
ENDROOT
BRANCH   5  13
HETATM   13  C   UNL     1      -8.887  11.770  66.497  1.00  0.00    -0.183 C  
BRANCH  13  14
HETATM   14  C   UNL     1      -9.377  12.138  67.891  1.00  0.00    -0.192 C  
BRANCH  14  15
HETATM   15  C   UNL     1     -10.872  12.453  67.873  1.00  0.00    -0.253 C  
BRANCH  15  16
HETATM   16  C   UNL     1     -11.469  12.087  66.518  1.00  0.00    -0.413 C  
BRANCH  16  17
HETATM   17  C   UNL     1     -12.209  13.269  65.903  1.00  0.00    -0.497 C  
BRANCH  17  18
HETATM   18  C   UNL     1     -11.767  14.580  66.547  1.00  0.00    -0.380 C  
HETATM   19  O   UNL     1     -10.524  16.572  66.174  1.00  0.00    -0.318 OA 
HETATM   20  C   UNL     1     -10.919  15.406  65.611  1.00  0.00    -0.326 C  
HETATM   21  O   UNL     1     -10.604  15.091  64.475  1.00  0.00    -0.255 OA 
ENDBRANCH  17  18
ENDBRANCH  16  17
ENDBRANCH  15  16
ENDBRANCH  14  15
ENDBRANCH  13  14
ENDBRANCH   5  13
BRANCH   6  22
HETATM   22  C   UNL     1     -10.367   6.496  69.765  1.00  0.00    -0.195 C  
HETATM   23  F   UNL     1     -11.295   7.452  70.074  1.00  0.00    -0.272 F  
HETATM   24  F   UNL     1     -11.073   5.350  69.552  1.00  0.00    -0.365 F  
BRANCH  22  25
HETATM   25  C   UNL     1      -9.446   6.309  70.964  1.00  0.00    -0.187 C  
BRANCH  25  26
HETATM   26  C   UNL     1     -10.251   6.090  72.247  1.00  0.00    -0.215 C  
BRANCH  26  27
HETATM   27  C   UNL     1      -9.958   4.720  72.854  1.00  0.00    -0.195 C  
HETATM   28  C   UNL     1     -10.953   4.378  73.948  1.00  0.00    -0.315 C  
ENDBRANCH  26  27
ENDBRANCH  25  26
ENDBRANCH  22  25
ENDBRANCH   6  22
TORSDOF 10
ENDMDL
MODEL      225
REMARK 921   NORMALIZED FREE ENERGY PREDICTED BY IDOCK:   -3.84 KCAL/MOL
REMARK 922        TOTAL FREE ENERGY PREDICTED BY IDOCK:   -7.87 KCAL/MOL
REMARK 923 INTER-LIGAND FREE ENERGY PREDICTED BY IDOCK:   -5.73 KCAL/MOL
REMARK 924 INTRA-LIGAND FREE ENERGY PREDICTED BY IDOCK:   -2.14 KCAL/MOL
REMARK 927      BINDING AFFINITY PREDICTED BY RF-SCORE:    0.00 PKD
ROOT
HETATM    1  C   UNL     1     -10.261   7.396  71.577  1.00  0.00    -0.192 C  
HETATM    2  C   UNL     1      -9.471   7.139  72.846  1.00  0.00    -0.183 C  
HETATM    3  C   UNL     1      -9.806   5.691  73.099  1.00  0.00    -0.167 C  
HETATM    4  O   UNL     1      -9.653   5.163  74.192  1.00  0.00    -0.128 OA 
HETATM    5  C   UNL     1     -10.376   4.990  71.867  1.00  0.00    -0.270 C  
HETATM    6  C   UNL     1     -10.353   8.607  69.512  1.00  0.00    -0.214 C  
HETATM    7  C   UNL     1     -10.173   6.083  70.820  1.00  0.00    -0.258 C  
HETATM    8  C   UNL     1     -11.156   6.147  69.667  1.00  0.00    -0.489 C  
HETATM    9  O   UNL     1      -9.677   8.398  70.768  1.00  0.00    -0.168 OA 
HETATM   10  C   UNL     1     -10.707   7.292  68.756  1.00  0.00    -0.168 C  
HETATM   11  O   UNL     1     -11.550   9.344  69.786  1.00  0.00    -0.444 OA 
HETATM   12  H   UNL     1     -11.334  10.147  70.247  1.00  0.00     0.000 HD 
ENDROOT
BRANCH   5  13
HETATM   13  C   UNL     1      -9.610   3.737  71.440  1.00  0.00    -0.236 C  
BRANCH  13  14
HETATM   14  C   UNL     1      -8.251   4.023  70.815  1.00  0.00    -0.076 C  
BRANCH  14  15
HETATM   15  C   UNL     1      -8.003   3.110  69.616  1.00  0.00    -0.058 C  
BRANCH  15  16
HETATM   16  C   UNL     1      -9.308   2.862  68.867  1.00  0.00    -0.226 C  
BRANCH  16  17
HETATM   17  C   UNL     1      -9.133   3.072  67.367  1.00  0.00    -0.208 C  
BRANCH  17  18
HETATM   18  C   UNL     1      -8.592   4.469  67.075  1.00  0.00    -0.104 C  
HETATM   19  O   UNL     1      -8.811   6.342  65.629  1.00  0.00    -0.141 OA 
HETATM   20  C   UNL     1      -9.284   5.103  65.894  1.00  0.00    -0.158 C  
HETATM   21  O   UNL     1     -10.169   4.586  65.229  1.00  0.00    -0.206 OA 
ENDBRANCH  17  18
ENDBRANCH  16  17
ENDBRANCH  15  16
ENDBRANCH  14  15
ENDBRANCH  13  14
ENDBRANCH   5  13
BRANCH   6  22
HETATM   22  C   UNL     1      -9.399   9.443  68.598  1.00  0.00    -0.142 C  
HETATM   23  F   UNL     1      -9.164  10.654  69.190  1.00  0.00    -0.172 F  
HETATM   24  F   UNL     1      -8.185   8.828  68.518  1.00  0.00    -0.111 F  
BRANCH  22  25
HETATM   25  C   UNL     1      -9.937   9.688  67.193  1.00  0.00    -0.249 C  
BRANCH  25  26
HETATM   26  C   UNL     1     -10.320  11.156  66.998  1.00  0.00    -0.263 C  
BRANCH  26  27
HETATM   27  C   UNL     1     -10.209  11.564  65.532  1.00  0.00    -0.303 C  
HETATM   28  C   UNL     1      -9.737  10.405  64.671  1.00  0.00    -0.392 C  
ENDBRANCH  26  27
ENDBRANCH  25  26
ENDBRANCH  22  25
ENDBRANCH   6  22
TORSDOF 10
ENDMDL
MODEL      226
REMARK 921   NORMALIZED FREE ENERGY PREDICTED BY IDOCK:   -3.84 KCAL/MOL
REMARK 922        TOTAL FREE ENERGY PREDICTED BY IDOCK:   -7.86 KCAL/MOL
REMARK 923 INTER-LIGAND FREE ENERGY PREDICTED BY IDOCK:   -6.47 KCAL/MOL
REMARK 924 INTRA-LIGAND FREE ENERGY PREDICTED BY IDOCK:   -1.39 KCAL/MOL
REMARK 927      BINDING AFFINITY PREDICTED BY RF-SCORE:    0.00 PKD
ROOT
HETATM    1  C   UNL     1     -10.813  16.771  68.782  1.00  0.00    -0.318 C  
HETATM    2  C   UNL     1     -11.078  17.162  67.341  1.00  0.00     0.071 C  
HETATM    3  C   UNL     1      -9.762  16.795  66.704  1.00  0.00    -0.269 C  
HETATM    4  O   UNL     1      -9.410  17.241  65.620  1.00  0.00    -0.506 OA 
HETATM    5  C   UNL     1      -8.928  15.849  67.566  1.00  0.00    -0.201 C  
HETATM    6  C   UNL     1     -11.768  15.935  70.815  1.00  0.00    -0.401 C  
HETATM    7  C   UNL     1      -9.934  15.538  68.671  1.00  0.00    -0.208 C  
HETATM    8  C   UNL     1      -9.392  15.231  70.054  1.00  0.00     0.165 C  
HETATM    9  O   UNL     1     -11.993  16.397  69.468  1.00  0.00    -0.028 OA 
HETATM   10  C   UNL     1     -10.593  14.921  70.950  1.00  0.00     0.280 C  
HETATM   11  O   UNL     1     -11.507  17.087  71.627  1.00  0.00    -0.359 OA 
HETATM   12  H   UNL     1     -12.223  17.706  71.544  1.00  0.00     0.000 HD 
ENDROOT
BRANCH   5  13
HETATM   13  C   UNL     1      -8.526  14.546  66.872  1.00  0.00    -0.179 C  
BRANCH  13  14
HETATM   14  C   UNL     1      -9.657  13.535  66.747  1.00  0.00    -0.268 C  
BRANCH  14  15
HETATM   15  C   UNL     1      -9.105  12.117  66.623  1.00  0.00    -0.206 C  
BRANCH  15  16
HETATM   16  C   UNL     1     -10.234  11.141  66.307  1.00  0.00    -0.286 C  
BRANCH  16  17
HETATM   17  C   UNL     1     -10.114   9.869  67.139  1.00  0.00    -0.270 C  
BRANCH  17  18
HETATM   18  C   UNL     1     -10.658  10.089  68.548  1.00  0.00    -0.245 C  
HETATM   19  O   UNL     1     -10.995   9.040  70.654  1.00  0.00    -0.234 OA 
HETATM   20  C   UNL     1     -10.516   8.853  69.402  1.00  0.00    -0.222 C  
HETATM   21  O   UNL     1     -10.036   7.791  69.040  1.00  0.00    -0.173 OA 
ENDBRANCH  17  18
ENDBRANCH  16  17
ENDBRANCH  15  16
ENDBRANCH  14  15
ENDBRANCH  13  14
ENDBRANCH   5  13
BRANCH   6  22
HETATM   22  C   UNL     1     -13.074  15.222  71.292  1.00  0.00    -0.468 C  
HETATM   23  F   UNL     1     -13.970  16.167  71.712  1.00  0.00    -0.259 F  
HETATM   24  F   UNL     1     -13.666  14.596  70.236  1.00  0.00    -0.073 F  
BRANCH  22  25
HETATM   25  C   UNL     1     -12.862  14.221  72.421  1.00  0.00    -0.431 C  
BRANCH  25  26
HETATM   26  C   UNL     1     -13.727  12.975  72.222  1.00  0.00    -0.608 C  
BRANCH  26  27
HETATM   27  C   UNL     1     -12.962  11.888  71.472  1.00  0.00    -0.427 C  
HETATM   28  C   UNL     1     -13.494  10.506  71.809  1.00  0.00    -0.345 C  
ENDBRANCH  26  27
ENDBRANCH  25  26
ENDBRANCH  22  25
ENDBRANCH   6  22
TORSDOF 10
ENDMDL
MODEL      227
REMARK 921   NORMALIZED FREE ENERGY PREDICTED BY IDOCK:   -3.84 KCAL/MOL
REMARK 922        TOTAL FREE ENERGY PREDICTED BY IDOCK:   -7.86 KCAL/MOL
REMARK 923 INTER-LIGAND FREE ENERGY PREDICTED BY IDOCK:   -5.64 KCAL/MOL
REMARK 924 INTRA-LIGAND FREE ENERGY PREDICTED BY IDOCK:   -2.22 KCAL/MOL
REMARK 927      BINDING AFFINITY PREDICTED BY RF-SCORE:    0.00 PKD
ROOT
HETATM    1  C   UNL     1     -11.350   5.504  72.458  1.00  0.00    -0.265 C  
HETATM    2  C   UNL     1     -10.874   5.095  73.838  1.00  0.00    -0.307 C  
HETATM    3  C   UNL     1     -10.088   3.852  73.508  1.00  0.00    -0.133 C  
HETATM    4  O   UNL     1      -9.802   3.013  74.352  1.00  0.00    -0.099 OA 
HETATM    5  C   UNL     1      -9.728   3.752  72.027  1.00  0.00    -0.236 C  
HETATM    6  C   UNL     1     -11.914   7.334  71.018  1.00  0.00    -0.327 C  
HETATM    7  C   UNL     1     -10.198   5.122  71.545  1.00  0.00    -0.274 C  
HETATM    8  C   UNL     1     -10.683   5.239  70.113  1.00  0.00    -0.217 C  
HETATM    9  O   UNL     1     -11.546   6.900  72.342  1.00  0.00    -0.270 OA 
HETATM   10  C   UNL     1     -11.053   6.706  69.882  1.00  0.00    -0.403 C  
HETATM   11  O   UNL     1     -13.293   6.995  70.822  1.00  0.00    -0.501 OA 
HETATM   12  H   UNL     1     -13.818   7.378  71.516  1.00  0.00     0.000 HD 
ENDROOT
BRANCH   5  13
HETATM   13  C   UNL     1      -8.232   3.606  71.746  1.00  0.00    -0.068 C  
BRANCH  13  14
HETATM   14  C   UNL     1      -7.490   4.931  71.636  1.00  0.00    -0.079 C  
BRANCH  14  15
HETATM   15  C   UNL     1      -6.440   4.874  70.529  1.00  0.00    -0.030 C  
BRANCH  15  16
HETATM   16  C   UNL     1      -6.965   5.561  69.272  1.00  0.00    -0.063 C  
BRANCH  16  17
HETATM   17  C   UNL     1      -7.621   4.561  68.327  1.00  0.00    -0.072 C  
BRANCH  17  18
HETATM   18  C   UNL     1      -8.310   5.280  67.172  1.00  0.00    -0.107 C  
HETATM   19  O   UNL     1      -9.284   4.958  65.027  1.00  0.00    -0.155 OA 
HETATM   20  C   UNL     1      -8.670   4.329  66.056  1.00  0.00    -0.114 C  
HETATM   21  O   UNL     1      -8.446   3.129  66.046  1.00  0.00    -0.101 OA 
ENDBRANCH  17  18
ENDBRANCH  16  17
ENDBRANCH  15  16
ENDBRANCH  14  15
ENDBRANCH  13  14
ENDBRANCH   5  13
BRANCH   6  22
HETATM   22  C   UNL     1     -11.725   8.885  70.961  1.00  0.00    -0.289 C  
HETATM   23  F   UNL     1     -12.954   9.485  71.007  1.00  0.00    -0.351 F  
HETATM   24  F   UNL     1     -11.066   9.306  72.078  1.00  0.00    -0.421 F  
BRANCH  22  25
HETATM   25  C   UNL     1     -10.991   9.380  69.721  1.00  0.00    -0.234 C  
BRANCH  25  26
HETATM   26  C   UNL     1      -9.600   9.907  70.078  1.00  0.00    -0.260 C  
BRANCH  26  27
HETATM   27  C   UNL     1      -8.779  10.187  68.823  1.00  0.00    -0.138 C  
HETATM   28  C   UNL     1      -8.373   8.898  68.131  1.00  0.00    -0.125 C  
ENDBRANCH  26  27
ENDBRANCH  25  26
ENDBRANCH  22  25
ENDBRANCH   6  22
TORSDOF 10
ENDMDL
MODEL      228
REMARK 921   NORMALIZED FREE ENERGY PREDICTED BY IDOCK:   -3.82 KCAL/MOL
REMARK 922        TOTAL FREE ENERGY PREDICTED BY IDOCK:   -7.84 KCAL/MOL
REMARK 923 INTER-LIGAND FREE ENERGY PREDICTED BY IDOCK:   -5.49 KCAL/MOL
REMARK 924 INTRA-LIGAND FREE ENERGY PREDICTED BY IDOCK:   -2.34 KCAL/MOL
REMARK 927      BINDING AFFINITY PREDICTED BY RF-SCORE:    0.00 PKD
ROOT
HETATM    1  C   UNL     1     -11.485   7.836  69.949  1.00  0.00     0.116 C  
HETATM    2  C   UNL     1     -11.742   9.025  70.856  1.00  0.00    -0.327 C  
HETATM    3  C   UNL     1     -12.107   8.325  72.140  1.00  0.00    -0.367 C  
HETATM    4  O   UNL     1     -12.708   8.887  73.046  1.00  0.00    -0.239 OA 
HETATM    5  C   UNL     1     -11.678   6.859  72.161  1.00  0.00    -0.327 C  
HETATM    6  C   UNL     1     -10.212   6.991  68.104  1.00  0.00    -0.181 C  
HETATM    7  C   UNL     1     -10.865   6.801  70.870  1.00  0.00    -0.289 C  
HETATM    8  C   UNL     1     -10.822   5.482  70.121  1.00  0.00    -0.299 C  
HETATM    9  O   UNL     1     -10.546   8.124  68.931  1.00  0.00    -0.212 OA 
HETATM   10  C   UNL     1      -9.920   5.686  68.902  1.00  0.00    -0.222 C  
HETATM   11  O   UNL     1     -11.310   6.774  67.208  1.00  0.00    -0.690 OA 
HETATM   12  H   UNL     1     -11.488   7.571  66.721  1.00  0.00     0.000 HD 
ENDROOT
BRANCH   5  13
HETATM   13  C   UNL     1     -10.778   6.478  73.338  1.00  0.00    -0.295 C  
BRANCH  13  14
HETATM   14  C   UNL     1      -9.678   7.489  73.630  1.00  0.00    -0.341 C  
BRANCH  14  15
HETATM   15  C   UNL     1      -8.300   6.865  73.420  1.00  0.00    -0.133 C  
BRANCH  15  16
HETATM   16  C   UNL     1      -7.381   7.852  72.707  1.00  0.00    -0.121 C  
BRANCH  16  17
HETATM   17  C   UNL     1      -8.171   8.782  71.792  1.00  0.00    -0.144 C  
BRANCH  17  18
HETATM   18  C   UNL     1      -7.536   8.845  70.406  1.00  0.00    -0.088 C  
HETATM   19  O   UNL     1      -6.024  10.080  69.049  1.00  0.00    -0.038 OA 
HETATM   20  C   UNL     1      -6.593  10.016  70.275  1.00  0.00    -0.127 C  
HETATM   21  O   UNL     1      -6.350  10.832  71.150  1.00  0.00    -0.313 OA 
ENDBRANCH  17  18
ENDBRANCH  16  17
ENDBRANCH  15  16
ENDBRANCH  14  15
ENDBRANCH  13  14
ENDBRANCH   5  13
BRANCH   6  22
HETATM   22  C   UNL     1      -8.923   7.360  67.300  1.00  0.00    -0.124 C  
HETATM   23  F   UNL     1      -9.236   7.445  65.971  1.00  0.00    -0.195 F  
HETATM   24  F   UNL     1      -8.499   8.605  67.660  1.00  0.00    -0.120 F  
BRANCH  22  25
HETATM   25  C   UNL     1      -7.779   6.367  67.465  1.00  0.00    -0.101 C  
BRANCH  25  26
HETATM   26  C   UNL     1      -7.432   5.700  66.132  1.00  0.00    -0.082 C  
BRANCH  26  27
HETATM   27  C   UNL     1      -8.035   4.301  66.044  1.00  0.00    -0.098 C  
HETATM   28  C   UNL     1      -8.940   4.165  64.832  1.00  0.00    -0.138 C  
ENDBRANCH  26  27
ENDBRANCH  25  26
ENDBRANCH  22  25
ENDBRANCH   6  22
TORSDOF 10
ENDMDL
MODEL      229
REMARK 921   NORMALIZED FREE ENERGY PREDICTED BY IDOCK:   -3.81 KCAL/MOL
REMARK 922        TOTAL FREE ENERGY PREDICTED BY IDOCK:   -7.81 KCAL/MOL
REMARK 923 INTER-LIGAND FREE ENERGY PREDICTED BY IDOCK:   -6.58 KCAL/MOL
REMARK 924 INTRA-LIGAND FREE ENERGY PREDICTED BY IDOCK:   -1.23 KCAL/MOL
REMARK 927      BINDING AFFINITY PREDICTED BY RF-SCORE:    0.00 PKD
ROOT
HETATM    1  C   UNL     1      -8.835   9.086  65.659  1.00  0.00    -0.185 C  
HETATM    2  C   UNL     1      -8.520   7.815  64.893  1.00  0.00    -0.019 C  
HETATM    3  C   UNL     1      -8.741   6.779  65.965  1.00  0.00    -0.146 C  
HETATM    4  O   UNL     1      -8.286   5.646  65.886  1.00  0.00    -0.118 OA 
HETATM    5  C   UNL     1      -9.553   7.309  67.146  1.00  0.00    -0.203 C  
HETATM    6  C   UNL     1      -9.724  11.308  65.530  1.00  0.00    -0.229 C  
HETATM    7  C   UNL     1      -9.953   8.678  66.601  1.00  0.00    -0.357 C  
HETATM    8  C   UNL     1     -10.153   9.804  67.598  1.00  0.00    -0.236 C  
HETATM    9  O   UNL     1      -9.331  10.114  64.823  1.00  0.00    -0.222 OA 
HETATM   10  C   UNL     1     -10.582  11.039  66.802  1.00  0.00    -0.317 C  
HETATM   11  O   UNL     1      -8.526  12.005  65.894  1.00  0.00    -0.378 OA 
HETATM   12  H   UNL     1      -8.002  12.169  65.118  1.00  0.00     0.000 HD 
ENDROOT
BRANCH   5  13
HETATM   13  C   UNL     1     -10.815   6.505  67.460  1.00  0.00    -0.433 C  
BRANCH  13  14
HETATM   14  C   UNL     1     -10.862   5.955  68.879  1.00  0.00    -0.373 C  
BRANCH  14  15
HETATM   15  C   UNL     1     -10.462   7.027  69.890  1.00  0.00    -0.234 C  
BRANCH  15  16
HETATM   16  C   UNL     1      -9.408   6.479  70.846  1.00  0.00    -0.165 C  
BRANCH  16  17
HETATM   17  C   UNL     1      -8.535   7.596  71.407  1.00  0.00    -0.121 C  
BRANCH  17  18
HETATM   18  C   UNL     1      -7.573   8.117  70.343  1.00  0.00    -0.076 C  
HETATM   19  O   UNL     1      -5.770   9.620  69.965  1.00  0.00    -0.038 OA 
HETATM   20  C   UNL     1      -6.628   9.153  70.902  1.00  0.00    -0.082 C  
HETATM   21  O   UNL     1      -6.612   9.549  72.056  1.00  0.00    -0.295 OA 
ENDBRANCH  17  18
ENDBRANCH  16  17
ENDBRANCH  15  16
ENDBRANCH  14  15
ENDBRANCH  13  14
ENDBRANCH   5  13
BRANCH   6  22
HETATM   22  C   UNL     1     -10.579  12.176  64.550  1.00  0.00    -0.310 C  
HETATM   23  F   UNL     1      -9.789  12.577  63.507  1.00  0.00    -0.375 F  
HETATM   24  F   UNL     1     -11.560  11.408  63.997  1.00  0.00    -0.422 F  
BRANCH  22  25
HETATM   25  C   UNL     1     -11.200  13.411  65.190  1.00  0.00    -0.321 C  
BRANCH  25  26
HETATM   26  C   UNL     1     -10.131  14.454  65.524  1.00  0.00    -0.382 C  
BRANCH  26  27
HETATM   27  C   UNL     1     -10.604  15.860  65.164  1.00  0.00    -0.421 C  
HETATM   28  C   UNL     1     -11.859  15.819  64.310  1.00  0.00    -0.120 C  
ENDBRANCH  26  27
ENDBRANCH  25  26
ENDBRANCH  22  25
ENDBRANCH   6  22
TORSDOF 10
ENDMDL
MODEL      230
REMARK 921   NORMALIZED FREE ENERGY PREDICTED BY IDOCK:   -3.80 KCAL/MOL
REMARK 922        TOTAL FREE ENERGY PREDICTED BY IDOCK:   -7.80 KCAL/MOL
REMARK 923 INTER-LIGAND FREE ENERGY PREDICTED BY IDOCK:   -5.45 KCAL/MOL
REMARK 924 INTRA-LIGAND FREE ENERGY PREDICTED BY IDOCK:   -2.35 KCAL/MOL
REMARK 927      BINDING AFFINITY PREDICTED BY RF-SCORE:    0.00 PKD
ROOT
HETATM    1  C   UNL     1     -11.561   8.259  69.955  1.00  0.00     0.197 C  
HETATM    2  C   UNL     1     -12.078   9.376  70.841  1.00  0.00    -0.327 C  
HETATM    3  C   UNL     1     -12.328   8.625  72.124  1.00  0.00    -0.386 C  
HETATM    4  O   UNL     1     -13.054   9.059  73.008  1.00  0.00    -0.295 OA 
HETATM    5  C   UNL     1     -11.610   7.278  72.173  1.00  0.00    -0.324 C  
HETATM    6  C   UNL     1     -10.094   7.679  68.152  1.00  0.00    -0.186 C  
HETATM    7  C   UNL     1     -10.768   7.377  70.903  1.00  0.00    -0.248 C  
HETATM    8  C   UNL     1     -10.438   6.090  70.172  1.00  0.00    -0.309 C  
HETATM    9  O   UNL     1     -10.673   8.725  68.957  1.00  0.00    -0.203 OA 
HETATM   10  C   UNL     1      -9.564   6.465  68.973  1.00  0.00    -0.136 C  
HETATM   11  O   UNL     1     -11.100   7.237  67.232  1.00  0.00    -0.554 OA 
HETATM   12  H   UNL     1     -11.424   7.977  66.732  1.00  0.00     0.000 HD 
ENDROOT
BRANCH   5  13
HETATM   13  C   UNL     1     -10.683   7.096  73.377  1.00  0.00    -0.410 C  
BRANCH  13  14
HETATM   14  C   UNL     1      -9.397   7.906  73.297  1.00  0.00    -0.351 C  
BRANCH  14  15
HETATM   15  C   UNL     1      -8.301   7.266  74.147  1.00  0.00    -0.210 C  
BRANCH  15  16
HETATM   16  C   UNL     1      -7.183   6.740  73.251  1.00  0.00    -0.075 C  
BRANCH  16  17
HETATM   17  C   UNL     1      -7.265   7.343  71.853  1.00  0.00    -0.067 C  
BRANCH  17  18
HETATM   18  C   UNL     1      -6.309   8.525  71.717  1.00  0.00    -0.067 C  
HETATM   19  O   UNL     1      -6.124  10.752  70.906  1.00  0.00    -0.320 OA 
HETATM   20  C   UNL     1      -6.964   9.698  71.029  1.00  0.00     0.036 C  
HETATM   21  O   UNL     1      -8.113   9.728  70.617  1.00  0.00    -0.264 OA 
ENDBRANCH  17  18
ENDBRANCH  16  17
ENDBRANCH  15  16
ENDBRANCH  14  15
ENDBRANCH  13  14
ENDBRANCH   5  13
BRANCH   6  22
HETATM   22  C   UNL     1      -8.886   8.297  67.376  1.00  0.00    -0.131 C  
HETATM   23  F   UNL     1      -8.899   9.655  67.541  1.00  0.00    -0.124 F  
HETATM   24  F   UNL     1      -7.717   7.867  67.932  1.00  0.00    -0.111 F  
BRANCH  22  25
HETATM   25  C   UNL     1      -8.880   7.992  65.883  1.00  0.00    -0.189 C  
BRANCH  25  26
HETATM   26  C   UNL     1      -8.456   9.217  65.072  1.00  0.00    -0.178 C  
BRANCH  26  27
HETATM   27  C   UNL     1      -6.949   9.221  64.828  1.00  0.00    -0.091 C  
HETATM   28  C   UNL     1      -6.274  10.361  65.569  1.00  0.00    -0.125 C  
ENDBRANCH  26  27
ENDBRANCH  25  26
ENDBRANCH  22  25
ENDBRANCH   6  22
TORSDOF 10
ENDMDL
MODEL      231
REMARK 921   NORMALIZED FREE ENERGY PREDICTED BY IDOCK:   -3.80 KCAL/MOL
REMARK 922        TOTAL FREE ENERGY PREDICTED BY IDOCK:   -7.80 KCAL/MOL
REMARK 923 INTER-LIGAND FREE ENERGY PREDICTED BY IDOCK:   -6.28 KCAL/MOL
REMARK 924 INTRA-LIGAND FREE ENERGY PREDICTED BY IDOCK:   -1.52 KCAL/MOL
REMARK 927      BINDING AFFINITY PREDICTED BY RF-SCORE:    0.00 PKD
ROOT
HETATM    1  C   UNL     1      -8.338   7.829  67.842  1.00  0.00    -0.123 C  
HETATM    2  C   UNL     1      -7.721   9.108  68.374  1.00  0.00    -0.094 C  
HETATM    3  C   UNL     1      -8.518  10.140  67.618  1.00  0.00    -0.118 C  
HETATM    4  O   UNL     1      -8.138  11.297  67.488  1.00  0.00    -0.118 OA 
HETATM    5  C   UNL     1      -9.806   9.577  67.022  1.00  0.00    -0.246 C  
HETATM    6  C   UNL     1      -8.929   5.560  68.335  1.00  0.00    -0.110 C  
HETATM    7  C   UNL     1      -9.801   8.183  67.644  1.00  0.00    -0.216 C  
HETATM    8  C   UNL     1     -10.448   7.057  66.860  1.00  0.00    -0.356 C  
HETATM    9  O   UNL     1      -8.274   6.767  68.774  1.00  0.00    -0.118 OA 
HETATM   10  C   UNL     1     -10.340   5.792  67.716  1.00  0.00    -0.266 C  
HETATM   11  O   UNL     1      -8.075   4.934  67.369  1.00  0.00    -0.105 OA 
HETATM   12  H   UNL     1      -7.215   4.792  67.747  1.00  0.00     0.000 HD 
ENDROOT
BRANCH   5  13
HETATM   13  C   UNL     1     -11.078  10.312  67.449  1.00  0.00    -0.261 C  
BRANCH  13  14
HETATM   14  C   UNL     1     -11.379  11.558  66.628  1.00  0.00    -0.285 C  
BRANCH  14  15
HETATM   15  C   UNL     1     -11.792  12.717  67.533  1.00  0.00    -0.402 C  
BRANCH  15  16
HETATM   16  C   UNL     1     -11.702  12.297  68.996  1.00  0.00    -0.376 C  
BRANCH  16  17
HETATM   17  C   UNL     1     -11.999  13.468  69.926  1.00  0.00    -0.416 C  
BRANCH  17  18
HETATM   18  C   UNL     1     -12.147  14.764  69.135  1.00  0.00    -0.278 C  
HETATM   19  O   UNL     1     -11.079  16.826  68.622  1.00  0.00    -0.326 OA 
HETATM   20  C   UNL     1     -10.957  15.674  69.322  1.00  0.00    -0.267 C  
HETATM   21  O   UNL     1      -9.983  15.433  70.017  1.00  0.00    -0.271 OA 
ENDBRANCH  17  18
ENDBRANCH  16  17
ENDBRANCH  15  16
ENDBRANCH  14  15
ENDBRANCH  13  14
ENDBRANCH   5  13
BRANCH   6  22
HETATM   22  C   UNL     1      -9.101   4.637  69.585  1.00  0.00    -0.109 C  
HETATM   23  F   UNL     1     -10.159   3.796  69.375  1.00  0.00    -0.194 F  
HETATM   24  F   UNL     1      -8.008   3.831  69.712  1.00  0.00    -0.051 F  
BRANCH  22  25
HETATM   25  C   UNL     1      -9.332   5.388  70.890  1.00  0.00    -0.196 C  
BRANCH  25  26
HETATM   26  C   UNL     1     -10.825   5.501  71.204  1.00  0.00    -0.243 C  
BRANCH  26  27
HETATM   27  C   UNL     1     -11.297   6.950  71.122  1.00  0.00    -0.332 C  
HETATM   28  C   UNL     1     -12.791   7.058  71.375  1.00  0.00    -0.407 C  
ENDBRANCH  26  27
ENDBRANCH  25  26
ENDBRANCH  22  25
ENDBRANCH   6  22
TORSDOF 10
ENDMDL
MODEL      232
REMARK 921   NORMALIZED FREE ENERGY PREDICTED BY IDOCK:   -3.80 KCAL/MOL
REMARK 922        TOTAL FREE ENERGY PREDICTED BY IDOCK:   -7.79 KCAL/MOL
REMARK 923 INTER-LIGAND FREE ENERGY PREDICTED BY IDOCK:   -6.28 KCAL/MOL
REMARK 924 INTRA-LIGAND FREE ENERGY PREDICTED BY IDOCK:   -1.50 KCAL/MOL
REMARK 927      BINDING AFFINITY PREDICTED BY RF-SCORE:    0.00 PKD
ROOT
HETATM    1  C   UNL     1      -9.872   7.936  70.370  1.00  0.00    -0.183 C  
HETATM    2  C   UNL     1     -10.905   7.184  71.189  1.00  0.00    -0.261 C  
HETATM    3  C   UNL     1     -11.596   8.327  71.887  1.00  0.00    -0.315 C  
HETATM    4  O   UNL     1     -12.275   8.168  72.893  1.00  0.00    -0.234 OA 
HETATM    5  C   UNL     1     -11.329   9.677  71.225  1.00  0.00    -0.458 C  
HETATM    6  C   UNL     1      -8.609   7.980  68.335  1.00  0.00    -0.127 C  
HETATM    7  C   UNL     1     -10.582   9.218  69.975  1.00  0.00    -0.256 C  
HETATM    8  C   UNL     1      -9.547  10.157  69.385  1.00  0.00    -0.249 C  
HETATM    9  O   UNL     1      -9.522   7.254  69.181  1.00  0.00    -0.149 OA 
HETATM   10  C   UNL     1      -8.985   9.479  68.133  1.00  0.00    -0.123 C  
HETATM   11  O   UNL     1      -7.307   7.885  68.926  1.00  0.00    -0.081 OA 
HETATM   12  H   UNL     1      -7.077   6.971  69.049  1.00  0.00     0.000 HD 
ENDROOT
BRANCH   5  13
HETATM   13  C   UNL     1     -12.587  10.440  70.807  1.00  0.00    -0.462 C  
BRANCH  13  14
HETATM   14  C   UNL     1     -13.033  11.497  71.807  1.00  0.00    -0.500 C  
BRANCH  14  15
HETATM   15  C   UNL     1     -12.978  12.890  71.183  1.00  0.00    -0.259 C  
BRANCH  15  16
HETATM   16  C   UNL     1     -12.251  12.836  69.844  1.00  0.00    -0.245 C  
BRANCH  16  17
HETATM   17  C   UNL     1     -12.119  14.226  69.230  1.00  0.00    -0.351 C  
BRANCH  17  18
HETATM   18  C   UNL     1     -10.863  14.320  68.368  1.00  0.00    -0.263 C  
HETATM   19  O   UNL     1     -10.089  14.512  66.129  1.00  0.00    -0.279 OA 
HETATM   20  C   UNL     1     -11.198  14.426  66.900  1.00  0.00    -0.334 C  
HETATM   21  O   UNL     1     -12.323  14.432  66.428  1.00  0.00    -0.409 OA 
ENDBRANCH  17  18
ENDBRANCH  16  17
ENDBRANCH  15  16
ENDBRANCH  14  15
ENDBRANCH  13  14
ENDBRANCH   5  13
BRANCH   6  22
HETATM   22  C   UNL     1      -8.618   7.291  66.932  1.00  0.00    -0.124 C  
HETATM   23  F   UNL     1      -7.938   6.107  67.013  1.00  0.00    -0.098 F  
HETATM   24  F   UNL     1      -9.896   6.961  66.593  1.00  0.00    -0.205 F  
BRANCH  22  25
HETATM   25  C   UNL     1      -7.999   8.129  65.820  1.00  0.00    -0.105 C  
BRANCH  25  26
HETATM   26  C   UNL     1      -6.535   7.746  65.591  1.00  0.00    -0.042 C  
BRANCH  26  27
HETATM   27  C   UNL     1      -5.629   8.973  65.650  1.00  0.00    -0.049 C  
HETATM   28  C   UNL     1      -6.270  10.165  64.963  1.00  0.00    -0.123 C  
ENDBRANCH  26  27
ENDBRANCH  25  26
ENDBRANCH  22  25
ENDBRANCH   6  22
TORSDOF 10
ENDMDL
MODEL      233
REMARK 921   NORMALIZED FREE ENERGY PREDICTED BY IDOCK:   -3.78 KCAL/MOL
REMARK 922        TOTAL FREE ENERGY PREDICTED BY IDOCK:   -7.76 KCAL/MOL
REMARK 923 INTER-LIGAND FREE ENERGY PREDICTED BY IDOCK:   -6.59 KCAL/MOL
REMARK 924 INTRA-LIGAND FREE ENERGY PREDICTED BY IDOCK:   -1.17 KCAL/MOL
REMARK 927      BINDING AFFINITY PREDICTED BY RF-SCORE:    0.00 PKD
ROOT
HETATM    1  C   UNL     1      -9.689  12.071  64.502  1.00  0.00    -0.076 C  
HETATM    2  C   UNL     1     -10.150  11.285  63.290  1.00  0.00    -0.428 C  
HETATM    3  C   UNL     1      -9.374  10.006  63.472  1.00  0.00    -0.256 C  
HETATM    4  O   UNL     1      -9.185   9.216  62.555  1.00  0.00    -0.127 OA 
HETATM    5  C   UNL     1      -8.838   9.833  64.892  1.00  0.00    -0.230 C  
HETATM    6  C   UNL     1     -10.294  13.694  66.158  1.00  0.00    -0.297 C  
HETATM    7  C   UNL     1      -9.518  11.014  65.579  1.00  0.00    -0.250 C  
HETATM    8  C   UNL     1      -8.800  11.659  66.750  1.00  0.00    -0.184 C  
HETATM    9  O   UNL     1     -10.663  12.992  64.954  1.00  0.00    -0.302 OA 
HETATM   10  C   UNL     1      -9.705  12.778  67.272  1.00  0.00    -0.206 C  
HETATM   11  O   UNL     1      -9.332  14.692  65.795  1.00  0.00    -0.506 OA 
HETATM   12  H   UNL     1      -9.691  15.251  65.116  1.00  0.00     0.000 HD 
ENDROOT
BRANCH   5  13
HETATM   13  C   UNL     1      -9.269   8.536  65.579  1.00  0.00    -0.109 C  
BRANCH  13  14
HETATM   14  C   UNL     1      -8.128   7.562  65.838  1.00  0.00    -0.127 C  
BRANCH  14  15
HETATM   15  C   UNL     1      -8.665   6.162  66.124  1.00  0.00    -0.149 C  
BRANCH  15  16
HETATM   16  C   UNL     1      -7.671   5.384  66.981  1.00  0.00    -0.100 C  
BRANCH  16  17
HETATM   17  C   UNL     1      -8.200   5.181  68.396  1.00  0.00    -0.090 C  
BRANCH  17  18
HETATM   18  C   UNL     1      -9.618   5.731  68.528  1.00  0.00    -0.150 C  
HETATM   19  O   UNL     1     -11.386   6.113  70.070  1.00  0.00    -0.392 OA 
HETATM   20  C   UNL     1     -10.130   5.626  69.943  1.00  0.00    -0.222 C  
HETATM   21  O   UNL     1      -9.513   5.159  70.888  1.00  0.00    -0.153 OA 
ENDBRANCH  17  18
ENDBRANCH  16  17
ENDBRANCH  15  16
ENDBRANCH  14  15
ENDBRANCH  13  14
ENDBRANCH   5  13
BRANCH   6  22
HETATM   22  C   UNL     1     -11.585  14.367  66.725  1.00  0.00    -0.385 C  
HETATM   23  F   UNL     1     -11.564  15.700  66.417  1.00  0.00    -0.134 F  
HETATM   24  F   UNL     1     -12.681  13.859  66.093  1.00  0.00    -0.469 F  
BRANCH  22  25
HETATM   25  C   UNL     1     -11.755  14.222  68.232  1.00  0.00    -0.377 C  
BRANCH  25  26
HETATM   26  C   UNL     1     -11.492  15.549  68.947  1.00  0.00    -0.362 C  
BRANCH  26  27
HETATM   27  C   UNL     1      -9.998  15.774  69.158  1.00  0.00    -0.241 C  
HETATM   28  C   UNL     1      -9.528  17.042  68.468  1.00  0.00    -0.269 C  
ENDBRANCH  26  27
ENDBRANCH  25  26
ENDBRANCH  22  25
ENDBRANCH   6  22
TORSDOF 10
ENDMDL
MODEL      234
REMARK 921   NORMALIZED FREE ENERGY PREDICTED BY IDOCK:   -3.77 KCAL/MOL
REMARK 922        TOTAL FREE ENERGY PREDICTED BY IDOCK:   -7.74 KCAL/MOL
REMARK 923 INTER-LIGAND FREE ENERGY PREDICTED BY IDOCK:   -5.60 KCAL/MOL
REMARK 924 INTRA-LIGAND FREE ENERGY PREDICTED BY IDOCK:   -2.15 KCAL/MOL
REMARK 927      BINDING AFFINITY PREDICTED BY RF-SCORE:    0.00 PKD
ROOT
HETATM    1  C   UNL     1      -9.224   6.556  69.956  1.00  0.00    -0.157 C  
HETATM    2  C   UNL     1     -10.124   5.414  70.389  1.00  0.00    -0.314 C  
HETATM    3  C   UNL     1     -10.963   6.099  71.437  1.00  0.00    -0.277 C  
HETATM    4  O   UNL     1     -11.597   5.478  72.280  1.00  0.00    -0.222 OA 
HETATM    5  C   UNL     1     -10.905   7.622  71.343  1.00  0.00    -0.250 C  
HETATM    6  C   UNL     1      -8.011   7.543  68.142  1.00  0.00    -0.123 C  
HETATM    7  C   UNL     1     -10.118   7.779  70.044  1.00  0.00    -0.201 C  
HETATM    8  C   UNL     1      -9.240   9.007  69.894  1.00  0.00    -0.181 C  
HETATM    9  O   UNL     1      -8.797   6.431  68.614  1.00  0.00    -0.121 OA 
HETATM   10  C   UNL     1      -8.604   8.938  68.503  1.00  0.00    -0.133 C  
HETATM   11  O   UNL     1      -6.700   7.415  68.706  1.00  0.00    -0.050 OA 
HETATM   12  H   UNL     1      -6.338   6.564  68.486  1.00  0.00     0.000 HD 
ENDROOT
BRANCH   5  13
HETATM   13  C   UNL     1     -12.267   8.302  71.191  1.00  0.00    -0.253 C  
BRANCH  13  14
HETATM   14  C   UNL     1     -12.599   9.283  72.307  1.00  0.00    -0.402 C  
BRANCH  14  15
HETATM   15  C   UNL     1     -12.717  10.704  71.762  1.00  0.00    -0.489 C  
BRANCH  15  16
HETATM   16  C   UNL     1     -12.876  10.672  70.245  1.00  0.00    -0.211 C  
BRANCH  16  17
HETATM   17  C   UNL     1     -12.008  11.732  69.576  1.00  0.00    -0.364 C  
BRANCH  17  18
HETATM   18  C   UNL     1     -11.619  11.302  68.165  1.00  0.00    -0.359 C  
HETATM   19  O   UNL     1     -10.294  11.893  66.281  1.00  0.00    -0.215 OA 
HETATM   20  C   UNL     1     -10.646  12.268  67.533  1.00  0.00    -0.218 C  
HETATM   21  O   UNL     1     -10.208  13.279  68.058  1.00  0.00    -0.227 OA 
ENDBRANCH  17  18
ENDBRANCH  16  17
ENDBRANCH  15  16
ENDBRANCH  14  15
ENDBRANCH  13  14
ENDBRANCH   5  13
BRANCH   6  22
HETATM   22  C   UNL     1      -7.941   7.442  66.583  1.00  0.00    -0.121 C  
HETATM   23  F   UNL     1      -6.963   6.550  66.239  1.00  0.00    -0.058 F  
HETATM   24  F   UNL     1      -9.105   6.917  66.106  1.00  0.00    -0.160 F  
BRANCH  22  25
HETATM   25  C   UNL     1      -7.657   8.765  65.883  1.00  0.00    -0.090 C  
BRANCH  25  26
HETATM   26  C   UNL     1      -8.449   8.881  64.580  1.00  0.00    -0.178 C  
BRANCH  26  27
HETATM   27  C   UNL     1      -7.671   8.288  63.408  1.00  0.00    -0.142 C  
HETATM   28  C   UNL     1      -6.182   8.552  63.545  1.00  0.00    -0.081 C  
ENDBRANCH  26  27
ENDBRANCH  25  26
ENDBRANCH  22  25
ENDBRANCH   6  22
TORSDOF 10
ENDMDL
MODEL      235
REMARK 921   NORMALIZED FREE ENERGY PREDICTED BY IDOCK:   -3.71 KCAL/MOL
REMARK 922        TOTAL FREE ENERGY PREDICTED BY IDOCK:   -7.66 KCAL/MOL
REMARK 923 INTER-LIGAND FREE ENERGY PREDICTED BY IDOCK:   -6.08 KCAL/MOL
REMARK 924 INTRA-LIGAND FREE ENERGY PREDICTED BY IDOCK:   -1.58 KCAL/MOL
REMARK 927      BINDING AFFINITY PREDICTED BY RF-SCORE:    0.00 PKD
ROOT
HETATM    1  C   UNL     1     -10.813  10.943  64.682  1.00  0.00    -0.083 C  
HETATM    2  C   UNL     1     -11.006  11.542  63.302  1.00  0.00    -0.308 C  
HETATM    3  C   UNL     1     -12.269  12.338  63.515  1.00  0.00    -0.568 C  
HETATM    4  O   UNL     1     -12.970  12.717  62.586  1.00  0.00     0.285 OA 
HETATM    5  C   UNL     1     -12.577  12.579  64.991  1.00  0.00    -0.424 C  
HETATM    6  C   UNL     1      -9.224  10.207  66.317  1.00  0.00    -0.157 C  
HETATM    7  C   UNL     1     -11.301  12.029  65.624  1.00  0.00    -0.381 C  
HETATM    8  C   UNL     1     -11.404  11.426  67.012  1.00  0.00    -0.309 C  
HETATM    9  O   UNL     1      -9.453  10.695  64.980  1.00  0.00    -0.206 OA 
HETATM   10  C   UNL     1      -9.994  10.993  67.420  1.00  0.00    -0.209 C  
HETATM   11  O   UNL     1      -9.615   8.828  66.344  1.00  0.00    -0.208 OA 
HETATM   12  H   UNL     1      -9.145   8.349  65.672  1.00  0.00     0.000 HD 
ENDROOT
BRANCH   5  13
HETATM   13  C   UNL     1     -12.733  14.052  65.374  1.00  0.00    -0.499 C  
BRANCH  13  14
HETATM   14  C   UNL     1     -12.076  15.019  64.400  1.00  0.00    -0.373 C  
BRANCH  14  15
HETATM   15  C   UNL     1     -10.666  15.381  64.863  1.00  0.00    -0.416 C  
BRANCH  15  16
HETATM   16  C   UNL     1     -10.726  16.483  65.915  1.00  0.00    -0.194 C  
BRANCH  16  17
HETATM   17  C   UNL     1      -9.702  16.250  67.019  1.00  0.00    -0.244 C  
BRANCH  17  18
HETATM   18  C   UNL     1     -10.307  16.542  68.389  1.00  0.00    -0.294 C  
HETATM   19  O   UNL     1     -11.528  15.578  70.187  1.00  0.00    -0.270 OA 
HETATM   20  C   UNL     1     -10.990  15.328  68.970  1.00  0.00    -0.254 C  
HETATM   21  O   UNL     1     -11.070  14.235  68.434  1.00  0.00    -0.239 OA 
ENDBRANCH  17  18
ENDBRANCH  16  17
ENDBRANCH  15  16
ENDBRANCH  14  15
ENDBRANCH  13  14
ENDBRANCH   5  13
BRANCH   6  22
HETATM   22  C   UNL     1      -7.695  10.342  66.612  1.00  0.00    -0.113 C  
HETATM   23  F   UNL     1      -7.192   9.109  66.927  1.00  0.00    -0.081 F  
HETATM   24  F   UNL     1      -7.042  10.728  65.479  1.00  0.00    -0.139 F  
BRANCH  22  25
HETATM   25  C   UNL     1      -7.360  11.304  67.745  1.00  0.00    -0.094 C  
BRANCH  25  26
HETATM   26  C   UNL     1      -6.166  12.189  67.380  1.00  0.00    -0.142 C  
BRANCH  26  27
HETATM   27  C   UNL     1      -6.338  13.601  67.934  1.00  0.00    -0.159 C  
HETATM   28  C   UNL     1      -7.249  13.610  69.148  1.00  0.00     0.005 C  
ENDBRANCH  26  27
ENDBRANCH  25  26
ENDBRANCH  22  25
ENDBRANCH   6  22
TORSDOF 10
ENDMDL
MODEL      236
REMARK 921   NORMALIZED FREE ENERGY PREDICTED BY IDOCK:   -3.71 KCAL/MOL
REMARK 922        TOTAL FREE ENERGY PREDICTED BY IDOCK:   -7.65 KCAL/MOL
REMARK 923 INTER-LIGAND FREE ENERGY PREDICTED BY IDOCK:   -6.25 KCAL/MOL
REMARK 924 INTRA-LIGAND FREE ENERGY PREDICTED BY IDOCK:   -1.40 KCAL/MOL
REMARK 927      BINDING AFFINITY PREDICTED BY RF-SCORE:    0.00 PKD
ROOT
HETATM    1  C   UNL     1      -7.642  13.726  68.527  1.00  0.00    -0.134 C  
HETATM    2  C   UNL     1      -6.176  13.410  68.298  1.00  0.00    -0.102 C  
HETATM    3  C   UNL     1      -6.221  11.905  68.226  1.00  0.00    -0.050 C  
HETATM    4  O   UNL     1      -5.225  11.211  68.380  1.00  0.00    -0.040 OA 
HETATM    5  C   UNL     1      -7.627  11.364  67.976  1.00  0.00    -0.110 C  
HETATM    6  C   UNL     1      -9.415  15.289  68.136  1.00  0.00    -0.203 C  
HETATM    7  C   UNL     1      -8.374  12.670  67.719  1.00  0.00    -0.172 C  
HETATM    8  C   UNL     1      -9.841  12.732  68.098  1.00  0.00    -0.226 C  
HETATM    9  O   UNL     1      -8.010  14.992  68.014  1.00  0.00    -0.120 OA 
HETATM   10  C   UNL     1     -10.351  14.120  67.704  1.00  0.00    -0.241 C  
HETATM   11  O   UNL     1      -9.667  15.627  69.506  1.00  0.00    -0.262 OA 
HETATM   12  H   UNL     1      -9.096  16.340  69.769  1.00  0.00     0.000 HD 
ENDROOT
BRANCH   5  13
HETATM   13  C   UNL     1      -7.751  10.464  66.746  1.00  0.00    -0.114 C  
BRANCH  13  14
HETATM   14  C   UNL     1      -8.744  10.967  65.707  1.00  0.00    -0.196 C  
BRANCH  14  15
HETATM   15  C   UNL     1      -9.819   9.917  65.432  1.00  0.00    -0.384 C  
BRANCH  15  16
HETATM   16  C   UNL     1     -10.512   9.523  66.732  1.00  0.00    -0.263 C  
BRANCH  16  17
HETATM   17  C   UNL     1     -10.422   8.021  66.974  1.00  0.00    -0.410 C  
BRANCH  17  18
HETATM   18  C   UNL     1     -10.155   7.725  68.446  1.00  0.00    -0.215 C  
HETATM   19  O   UNL     1      -8.466   7.090  69.995  1.00  0.00    -0.136 OA 
HETATM   20  C   UNL     1      -8.712   7.353  68.690  1.00  0.00    -0.128 C  
HETATM   21  O   UNL     1      -7.843   7.284  67.836  1.00  0.00    -0.113 OA 
ENDBRANCH  17  18
ENDBRANCH  16  17
ENDBRANCH  15  16
ENDBRANCH  14  15
ENDBRANCH  13  14
ENDBRANCH   5  13
BRANCH   6  22
HETATM   22  C   UNL     1      -9.720  16.513  67.212  1.00  0.00    -0.247 C  
HETATM   23  F   UNL     1      -9.566  16.134  65.906  1.00  0.00    -0.302 F  
HETATM   24  F   UNL     1     -11.029  16.869  67.341  1.00  0.00    -0.305 F  
BRANCH  22  25
HETATM   25  C   UNL     1      -8.836  17.726  67.471  1.00  0.00    -0.243 C  
BRANCH  25  26
HETATM   26  C   UNL     1      -9.620  18.841  68.166  1.00  0.00    -0.373 C  
BRANCH  26  27
HETATM   27  C   UNL     1      -9.669  20.099  67.304  1.00  0.00    -0.574 C  
HETATM   28  C   UNL     1     -10.442  19.859  66.020  1.00  0.00    -0.580 C  
ENDBRANCH  26  27
ENDBRANCH  25  26
ENDBRANCH  22  25
ENDBRANCH   6  22
TORSDOF 10
ENDMDL
MODEL      237
REMARK 921   NORMALIZED FREE ENERGY PREDICTED BY IDOCK:   -3.67 KCAL/MOL
REMARK 922        TOTAL FREE ENERGY PREDICTED BY IDOCK:   -7.58 KCAL/MOL
REMARK 923 INTER-LIGAND FREE ENERGY PREDICTED BY IDOCK:   -5.68 KCAL/MOL
REMARK 924 INTRA-LIGAND FREE ENERGY PREDICTED BY IDOCK:   -1.91 KCAL/MOL
REMARK 927      BINDING AFFINITY PREDICTED BY RF-SCORE:    0.00 PKD
ROOT
HETATM    1  C   UNL     1      -8.438   9.753  70.240  1.00  0.00    -0.126 C  
HETATM    2  C   UNL     1      -7.378   8.772  70.703  1.00  0.00    -0.072 C  
HETATM    3  C   UNL     1      -7.912   8.400  72.062  1.00  0.00    -0.135 C  
HETATM    4  O   UNL     1      -7.211   7.888  72.925  1.00  0.00    -0.078 OA 
HETATM    5  C   UNL     1      -9.386   8.759  72.240  1.00  0.00    -0.223 C  
HETATM    6  C   UNL     1      -9.634  10.638  68.362  1.00  0.00    -0.168 C  
HETATM    7  C   UNL     1      -9.727   9.197  70.818  1.00  0.00    -0.337 C  
HETATM    8  C   UNL     1     -10.805  10.250  70.642  1.00  0.00    -0.210 C  
HETATM    9  O   UNL     1      -8.574   9.781  68.833  1.00  0.00    -0.123 OA 
HETATM   10  C   UNL     1     -10.975  10.474  69.138  1.00  0.00    -0.286 C  
HETATM   11  O   UNL     1      -9.174  11.991  68.474  1.00  0.00    -0.279 OA 
HETATM   12  H   UNL     1      -8.356  12.091  68.000  1.00  0.00     0.000 HD 
ENDROOT
BRANCH   5  13
HETATM   13  C   UNL     1     -10.283   7.584  72.632  1.00  0.00    -0.297 C  
BRANCH  13  14
HETATM   14  C   UNL     1     -11.770   7.847  72.442  1.00  0.00    -0.423 C  
BRANCH  14  15
HETATM   15  C   UNL     1     -12.369   6.868  71.435  1.00  0.00    -0.421 C  
BRANCH  15  16
HETATM   16  C   UNL     1     -11.259   6.101  70.725  1.00  0.00    -0.373 C  
BRANCH  16  17
HETATM   17  C   UNL     1     -11.384   6.225  69.210  1.00  0.00    -0.411 C  
BRANCH  17  18
HETATM   18  C   UNL     1     -10.143   6.885  68.616  1.00  0.00    -0.164 C  
HETATM   19  O   UNL     1      -7.980   6.447  67.733  1.00  0.00    -0.111 OA 
HETATM   20  C   UNL     1      -9.084   5.870  68.262  1.00  0.00    -0.118 C  
HETATM   21  O   UNL     1      -9.175   4.664  68.422  1.00  0.00    -0.115 OA 
ENDBRANCH  17  18
ENDBRANCH  16  17
ENDBRANCH  15  16
ENDBRANCH  14  15
ENDBRANCH  13  14
ENDBRANCH   5  13
BRANCH   6  22
HETATM   22  C   UNL     1      -9.900  10.279  66.864  1.00  0.00    -0.197 C  
HETATM   23  F   UNL     1     -11.011   9.485  66.788  1.00  0.00    -0.226 F  
HETATM   24  F   UNL     1     -10.206  11.411  66.169  1.00  0.00    -0.241 F  
BRANCH  22  25
HETATM   25  C   UNL     1      -8.744   9.560  66.180  1.00  0.00    -0.162 C  
BRANCH  25  26
HETATM   26  C   UNL     1      -7.923  10.527  65.324  1.00  0.00    -0.112 C  
BRANCH  26  27
HETATM   27  C   UNL     1      -6.465  10.560  65.775  1.00  0.00    -0.124 C  
HETATM   28  C   UNL     1      -6.266  11.526  66.929  1.00  0.00    -0.143 C  
ENDBRANCH  26  27
ENDBRANCH  25  26
ENDBRANCH  22  25
ENDBRANCH   6  22
TORSDOF 10
ENDMDL
MODEL      238
REMARK 921   NORMALIZED FREE ENERGY PREDICTED BY IDOCK:   -3.65 KCAL/MOL
REMARK 922        TOTAL FREE ENERGY PREDICTED BY IDOCK:   -7.56 KCAL/MOL
REMARK 923 INTER-LIGAND FREE ENERGY PREDICTED BY IDOCK:   -5.29 KCAL/MOL
REMARK 924 INTRA-LIGAND FREE ENERGY PREDICTED BY IDOCK:   -2.28 KCAL/MOL
REMARK 927      BINDING AFFINITY PREDICTED BY RF-SCORE:    0.00 PKD
ROOT
HETATM    1  C   UNL     1      -9.067   9.031  67.851  1.00  0.00    -0.135 C  
HETATM    2  C   UNL     1      -9.497   9.165  66.402  1.00  0.00    -0.288 C  
HETATM    3  C   UNL     1      -8.541   8.209  65.736  1.00  0.00    -0.154 C  
HETATM    4  O   UNL     1      -8.308   8.244  64.534  1.00  0.00    -0.154 OA 
HETATM    5  C   UNL     1      -7.890   7.237  66.718  1.00  0.00    -0.113 C  
HETATM    6  C   UNL     1      -9.776   9.074  70.139  1.00  0.00    -0.188 C  
HETATM    7  C   UNL     1      -8.678   7.570  67.983  1.00  0.00    -0.121 C  
HETATM    8  C   UNL     1      -7.978   7.396  69.318  1.00  0.00    -0.118 C  
HETATM    9  O   UNL     1     -10.126   9.278  68.755  1.00  0.00    -0.182 OA 
HETATM   10  C   UNL     1      -8.991   7.755  70.407  1.00  0.00    -0.147 C  
HETATM   11  O   UNL     1      -8.988  10.197  70.553  1.00  0.00    -0.298 OA 
HETATM   12  H   UNL     1      -9.467  11.002  70.389  1.00  0.00     0.000 HD 
ENDROOT
BRANCH   5  13
HETATM   13  C   UNL     1      -8.089   5.760  66.376  1.00  0.00    -0.106 C  
BRANCH  13  14
HETATM   14  C   UNL     1      -9.491   5.240  66.666  1.00  0.00    -0.148 C  
BRANCH  14  15
HETATM   15  C   UNL     1      -9.436   3.824  67.235  1.00  0.00    -0.238 C  
BRANCH  15  16
HETATM   16  C   UNL     1      -8.245   3.683  68.177  1.00  0.00    -0.090 C  
BRANCH  16  17
HETATM   17  C   UNL     1      -8.651   3.018  69.488  1.00  0.00    -0.114 C  
BRANCH  17  18
HETATM   18  C   UNL     1      -9.344   4.016  70.410  1.00  0.00    -0.230 C  
HETATM   19  O   UNL     1      -9.166   5.132  72.501  1.00  0.00    -0.132 OA 
HETATM   20  C   UNL     1      -8.559   4.247  71.678  1.00  0.00    -0.108 C  
HETATM   21  O   UNL     1      -7.499   3.712  71.963  1.00  0.00    -0.053 OA 
ENDBRANCH  17  18
ENDBRANCH  16  17
ENDBRANCH  15  16
ENDBRANCH  14  15
ENDBRANCH  13  14
ENDBRANCH   5  13
BRANCH   6  22
HETATM   22  C   UNL     1     -11.106   9.015  70.957  1.00  0.00    -0.289 C  
HETATM   23  F   UNL     1     -11.444   7.705  71.163  1.00  0.00    -0.259 F  
HETATM   24  F   UNL     1     -10.904   9.543  72.198  1.00  0.00    -0.331 F  
BRANCH  22  25
HETATM   25  C   UNL     1     -12.282   9.719  70.291  1.00  0.00    -0.051 C  
BRANCH  25  26
HETATM   26  C   UNL     1     -12.716  10.946  71.094  1.00  0.00    -0.530 C  
BRANCH  26  27
HETATM   27  C   UNL     1     -12.185  12.232  70.466  1.00  0.00    -0.387 C  
HETATM   28  C   UNL     1     -11.981  12.071  68.970  1.00  0.00    -0.321 C  
ENDBRANCH  26  27
ENDBRANCH  25  26
ENDBRANCH  22  25
ENDBRANCH   6  22
TORSDOF 10
ENDMDL
MODEL      239
REMARK 921   NORMALIZED FREE ENERGY PREDICTED BY IDOCK:   -3.62 KCAL/MOL
REMARK 922        TOTAL FREE ENERGY PREDICTED BY IDOCK:   -7.51 KCAL/MOL
REMARK 923 INTER-LIGAND FREE ENERGY PREDICTED BY IDOCK:   -5.91 KCAL/MOL
REMARK 924 INTRA-LIGAND FREE ENERGY PREDICTED BY IDOCK:   -1.60 KCAL/MOL
REMARK 927      BINDING AFFINITY PREDICTED BY RF-SCORE:    0.00 PKD
ROOT
HETATM    1  C   UNL     1      -8.192   8.600  66.981  1.00  0.00    -0.106 C  
HETATM    2  C   UNL     1      -7.184   9.727  66.863  1.00  0.00    -0.090 C  
HETATM    3  C   UNL     1      -7.523  10.265  65.496  1.00  0.00    -0.149 C  
HETATM    4  O   UNL     1      -6.749  10.965  64.856  1.00  0.00     0.147 OA 
HETATM    5  C   UNL     1      -8.898   9.818  65.005  1.00  0.00    -0.224 C  
HETATM    6  C   UNL     1      -9.579   7.330  68.466  1.00  0.00    -0.140 C  
HETATM    7  C   UNL     1      -9.421   9.131  66.265  1.00  0.00    -0.299 C  
HETATM    8  C   UNL     1     -10.390   7.978  66.090  1.00  0.00     0.523 C  
HETATM    9  O   UNL     1      -8.557   8.336  68.322  1.00  0.00    -0.131 OA 
HETATM   10  C   UNL     1     -10.782   7.503  67.491  1.00  0.00    -0.296 C  
HETATM   11  O   UNL     1      -8.961   6.055  68.247  1.00  0.00    -0.115 OA 
HETATM   12  H   UNL     1      -8.227   5.949  68.842  1.00  0.00     0.000 HD 
ENDROOT
BRANCH   5  13
HETATM   13  C   UNL     1      -9.841  10.962  64.629  1.00  0.00    -0.350 C  
BRANCH  13  14
HETATM   14  C   UNL     1     -10.481  11.657  65.822  1.00  0.00    -0.308 C  
BRANCH  14  15
HETATM   15  C   UNL     1      -9.919  13.066  65.995  1.00  0.00    -0.277 C  
BRANCH  15  16
HETATM   16  C   UNL     1     -10.360  13.951  64.834  1.00  0.00    -0.430 C  
BRANCH  16  17
HETATM   17  C   UNL     1     -10.846  15.310  65.327  1.00  0.00    -0.417 C  
BRANCH  17  18
HETATM   18  C   UNL     1     -10.239  15.640  66.688  1.00  0.00    -0.283 C  
HETATM   19  O   UNL     1      -8.870  17.203  67.843  1.00  0.00    -0.219 OA 
HETATM   20  C   UNL     1      -9.411  16.901  66.640  1.00  0.00    -0.265 C  
HETATM   21  O   UNL     1      -9.226  17.591  65.650  1.00  0.00    -0.441 OA 
ENDBRANCH  17  18
ENDBRANCH  16  17
ENDBRANCH  15  16
ENDBRANCH  14  15
ENDBRANCH  13  14
ENDBRANCH   5  13
BRANCH   6  22
HETATM   22  C   UNL     1     -10.128   7.422  69.926  1.00  0.00    -0.195 C  
HETATM   23  F   UNL     1     -11.484   7.240  69.904  1.00  0.00    -0.262 F  
HETATM   24  F   UNL     1      -9.629   6.393  70.669  1.00  0.00    -0.167 F  
BRANCH  22  25
HETATM   25  C   UNL     1      -9.829   8.743  70.624  1.00  0.00    -0.237 C  
BRANCH  25  26
HETATM   26  C   UNL     1     -10.934   9.767  70.361  1.00  0.00    -0.371 C  
BRANCH  26  27
HETATM   27  C   UNL     1     -11.843   9.922  71.578  1.00  0.00    -0.445 C  
HETATM   28  C   UNL     1     -13.306   9.793  71.193  1.00  0.00    -0.360 C  
ENDBRANCH  26  27
ENDBRANCH  25  26
ENDBRANCH  22  25
ENDBRANCH   6  22
TORSDOF 10
ENDMDL
MODEL      240
REMARK 921   NORMALIZED FREE ENERGY PREDICTED BY IDOCK:   -3.61 KCAL/MOL
REMARK 922        TOTAL FREE ENERGY PREDICTED BY IDOCK:   -7.50 KCAL/MOL
REMARK 923 INTER-LIGAND FREE ENERGY PREDICTED BY IDOCK:   -7.02 KCAL/MOL
REMARK 924 INTRA-LIGAND FREE ENERGY PREDICTED BY IDOCK:   -0.47 KCAL/MOL
REMARK 927      BINDING AFFINITY PREDICTED BY RF-SCORE:    0.00 PKD
ROOT
HETATM    1  C   UNL     1     -10.807  13.501  68.615  1.00  0.00    -0.259 C  
HETATM    2  C   UNL     1     -11.944  14.359  69.135  1.00  0.00    -0.357 C  
HETATM    3  C   UNL     1     -11.180  15.537  69.684  1.00  0.00    -0.300 C  
HETATM    4  O   UNL     1     -11.668  16.318  70.490  1.00  0.00    -0.303 OA 
HETATM    5  C   UNL     1      -9.750  15.617  69.152  1.00  0.00    -0.249 C  
HETATM    6  C   UNL     1     -10.116  11.925  66.948  1.00  0.00    -0.207 C  
HETATM    7  C   UNL     1      -9.792  14.508  68.104  1.00  0.00    -0.223 C  
HETATM    8  C   UNL     1      -8.504  13.761  67.814  1.00  0.00    -0.181 C  
HETATM    9  O   UNL     1     -11.194  12.689  67.523  1.00  0.00    -0.258 OA 
HETATM   10  C   UNL     1      -8.812  12.743  66.713  1.00  0.00    -0.161 C  
HETATM   11  O   UNL     1      -9.846  10.830  67.832  1.00  0.00    -0.163 OA 
HETATM   12  H   UNL     1     -10.642  10.330  67.975  1.00  0.00     0.000 HD 
ENDROOT
BRANCH   5  13
HETATM   13  C   UNL     1      -9.401  16.940  68.469  1.00  0.00    -0.259 C  
BRANCH  13  14
HETATM   14  C   UNL     1      -9.065  18.068  69.436  1.00  0.00     0.412 C  
BRANCH  14  15
HETATM   15  C   UNL     1      -8.473  19.262  68.691  1.00  0.00    -0.403 C  
BRANCH  15  16
HETATM   16  C   UNL     1      -9.588  20.182  68.204  1.00  0.00    -0.377 C  
BRANCH  16  17
HETATM   17  C   UNL     1      -9.556  20.335  66.688  1.00  0.00    -0.522 C  
BRANCH  17  18
HETATM   18  C   UNL     1     -10.722  19.590  66.044  1.00  0.00    -0.529 C  
HETATM   19  O   UNL     1     -11.366  17.519  65.071  1.00  0.00    -0.354 OA 
HETATM   20  C   UNL     1     -10.337  18.187  65.642  1.00  0.00    -0.032 C  
HETATM   21  O   UNL     1      -9.237  17.682  65.795  1.00  0.00    -0.505 OA 
ENDBRANCH  17  18
ENDBRANCH  16  17
ENDBRANCH  15  16
ENDBRANCH  14  15
ENDBRANCH  13  14
ENDBRANCH   5  13
BRANCH   6  22
HETATM   22  C   UNL     1     -10.604  11.393  65.561  1.00  0.00    -0.271 C  
HETATM   23  F   UNL     1     -10.557  10.025  65.567  1.00  0.00    -0.280 F  
HETATM   24  F   UNL     1     -11.916  11.716  65.383  1.00  0.00    -0.260 F  
BRANCH  22  25
HETATM   25  C   UNL     1      -9.791  11.899  64.377  1.00  0.00    -0.203 C  
BRANCH  25  26
HETATM   26  C   UNL     1     -10.171  11.161  63.092  1.00  0.00    -0.347 C  
BRANCH  26  27
HETATM   27  C   UNL     1      -9.215  10.003  62.818  1.00  0.00    -0.313 C  
HETATM   28  C   UNL     1      -7.771  10.470  62.814  1.00  0.00    -0.118 C  
ENDBRANCH  26  27
ENDBRANCH  25  26
ENDBRANCH  22  25
ENDBRANCH   6  22
TORSDOF 10
ENDMDL
MODEL      241
REMARK 921   NORMALIZED FREE ENERGY PREDICTED BY IDOCK:   -3.60 KCAL/MOL
REMARK 922        TOTAL FREE ENERGY PREDICTED BY IDOCK:   -7.48 KCAL/MOL
REMARK 923 INTER-LIGAND FREE ENERGY PREDICTED BY IDOCK:   -5.57 KCAL/MOL
REMARK 924 INTRA-LIGAND FREE ENERGY PREDICTED BY IDOCK:   -1.92 KCAL/MOL
REMARK 927      BINDING AFFINITY PREDICTED BY RF-SCORE:    0.00 PKD
ROOT
HETATM    1  C   UNL     1     -10.723   8.478  68.028  1.00  0.00    -0.059 C  
HETATM    2  C   UNL     1     -10.390   9.953  68.142  1.00  0.00    -0.232 C  
HETATM    3  C   UNL     1     -11.068  10.296  69.444  1.00  0.00    -0.252 C  
HETATM    4  O   UNL     1     -11.338  11.447  69.761  1.00  0.00    -0.274 OA 
HETATM    5  C   UNL     1     -11.400   9.063  70.283  1.00  0.00    -0.202 C  
HETATM    6  C   UNL     1      -9.985   6.335  67.253  1.00  0.00    -0.146 C  
HETATM    7  C   UNL     1     -10.695   7.985  69.464  1.00  0.00    -0.185 C  
HETATM    8  C   UNL     1     -11.282   6.586  69.484  1.00  0.00    -0.434 C  
HETATM    9  O   UNL     1      -9.745   7.755  67.306  1.00  0.00    -0.149 OA 
HETATM   10  C   UNL     1     -10.373   5.705  68.624  1.00  0.00    -0.277 C  
HETATM   11  O   UNL     1     -11.036   6.111  66.304  1.00  0.00    -0.648 OA 
HETATM   12  H   UNL     1     -10.800   6.496  65.468  1.00  0.00     0.000 HD 
ENDROOT
BRANCH   5  13
HETATM   13  C   UNL     1     -10.816   9.082  71.696  1.00  0.00    -0.437 C  
BRANCH  13  14
HETATM   14  C   UNL     1     -11.406   8.030  72.626  1.00  0.00    -0.469 C  
BRANCH  14  15
HETATM   15  C   UNL     1     -10.309   7.351  73.442  1.00  0.00    -0.411 C  
BRANCH  15  16
HETATM   16  C   UNL     1      -8.953   7.969  73.114  1.00  0.00    -0.333 C  
BRANCH  16  17
HETATM   17  C   UNL     1      -7.831   6.946  73.256  1.00  0.00    -0.102 C  
BRANCH  17  18
HETATM   18  C   UNL     1      -7.092   6.767  71.933  1.00  0.00    -0.079 C  
HETATM   19  O   UNL     1      -6.849   5.328  70.056  1.00  0.00    -0.048 OA 
HETATM   20  C   UNL     1      -7.499   5.494  71.232  1.00  0.00    -0.097 C  
HETATM   21  O   UNL     1      -8.312   4.685  71.647  1.00  0.00    -0.101 OA 
ENDBRANCH  17  18
ENDBRANCH  16  17
ENDBRANCH  15  16
ENDBRANCH  14  15
ENDBRANCH  13  14
ENDBRANCH   5  13
BRANCH   6  22
HETATM   22  C   UNL     1      -8.665   5.652  66.768  1.00  0.00    -0.115 C  
HETATM   23  F   UNL     1      -7.602   6.435  67.125  1.00  0.00    -0.087 F  
HETATM   24  F   UNL     1      -8.492   4.471  67.426  1.00  0.00    -0.103 F  
BRANCH  22  25
HETATM   25  C   UNL     1      -8.603   5.409  65.265  1.00  0.00    -0.151 C  
BRANCH  25  26
HETATM   26  C   UNL     1      -7.804   6.508  64.562  1.00  0.00    -0.112 C  
BRANCH  26  27
HETATM   27  C   UNL     1      -6.448   5.988  64.093  1.00  0.00    -0.033 C  
HETATM   28  C   UNL     1      -6.370   4.475  64.201  1.00  0.00    -0.030 C  
ENDBRANCH  26  27
ENDBRANCH  25  26
ENDBRANCH  22  25
ENDBRANCH   6  22
TORSDOF 10
ENDMDL
MODEL      242
REMARK 921   NORMALIZED FREE ENERGY PREDICTED BY IDOCK:   -3.57 KCAL/MOL
REMARK 922        TOTAL FREE ENERGY PREDICTED BY IDOCK:   -7.43 KCAL/MOL
REMARK 923 INTER-LIGAND FREE ENERGY PREDICTED BY IDOCK:   -5.34 KCAL/MOL
REMARK 924 INTRA-LIGAND FREE ENERGY PREDICTED BY IDOCK:   -2.10 KCAL/MOL
REMARK 927      BINDING AFFINITY PREDICTED BY RF-SCORE:    0.00 PKD
ROOT
HETATM    1  C   UNL     1      -8.473   9.300  70.781  1.00  0.00    -0.195 C  
HETATM    2  C   UNL     1      -6.964   9.152  70.758  1.00  0.00    -0.097 C  
HETATM    3  C   UNL     1      -6.795   7.867  71.527  1.00  0.00    -0.052 C  
HETATM    4  O   UNL     1      -5.729   7.540  72.033  1.00  0.00    -0.036 OA 
HETATM    5  C   UNL     1      -8.087   7.058  71.623  1.00  0.00    -0.103 C  
HETATM    6  C   UNL     1     -10.405  10.086  69.602  1.00  0.00    -0.247 C  
HETATM    7  C   UNL     1      -8.982   7.872  70.692  1.00  0.00    -0.148 C  
HETATM    8  C   UNL     1     -10.470   7.892  70.982  1.00  0.00    -0.223 C  
HETATM    9  O   UNL     1      -8.967  10.003  69.658  1.00  0.00    -0.198 OA 
HETATM   10  C   UNL     1     -11.130   8.738  69.890  1.00  0.00    -0.129 C  
HETATM   11  O   UNL     1     -10.816  11.069  70.560  1.00  0.00    -0.324 OA 
HETATM   12  H   UNL     1     -10.374  11.892  70.385  1.00  0.00     0.000 HD 
ENDROOT
BRANCH   5  13
HETATM   13  C   UNL     1      -7.980   5.627  71.093  1.00  0.00    -0.112 C  
BRANCH  13  14
HETATM   14  C   UNL     1      -9.122   4.718  71.528  1.00  0.00    -0.172 C  
BRANCH  14  15
HETATM   15  C   UNL     1      -9.738   4.008  70.325  1.00  0.00    -0.263 C  
BRANCH  15  16
HETATM   16  C   UNL     1      -9.055   4.465  69.040  1.00  0.00    -0.180 C  
BRANCH  16  17
HETATM   17  C   UNL     1     -10.057   5.074  68.067  1.00  0.00    -0.169 C  
BRANCH  17  18
HETATM   18  C   UNL     1      -9.539   6.398  67.513  1.00  0.00    -0.129 C  
HETATM   19  O   UNL     1      -8.476   7.404  65.639  1.00  0.00    -0.136 OA 
HETATM   20  C   UNL     1      -8.937   6.234  66.139  1.00  0.00    -0.153 C  
HETATM   21  O   UNL     1      -8.856   5.184  65.521  1.00  0.00    -0.141 OA 
ENDBRANCH  17  18
ENDBRANCH  16  17
ENDBRANCH  15  16
ENDBRANCH  14  15
ENDBRANCH  13  14
ENDBRANCH   5  13
BRANCH   6  22
HETATM   22  C   UNL     1     -10.795  10.541  68.158  1.00  0.00    -0.253 C  
HETATM   23  F   UNL     1     -10.837   9.444  67.342  1.00  0.00    -0.334 F  
HETATM   24  F   UNL     1     -12.061  11.046  68.164  1.00  0.00    -0.320 F  
BRANCH  22  25
HETATM   25  C   UNL     1      -9.844  11.563  67.547  1.00  0.00    -0.203 C  
BRANCH  25  26
HETATM   26  C   UNL     1      -9.933  11.553  66.020  1.00  0.00    -0.258 C  
BRANCH  26  27
HETATM   27  C   UNL     1     -10.516  12.862  65.494  1.00  0.00    -0.305 C  
HETATM   28  C   UNL     1     -10.985  12.719  64.057  1.00  0.00    -0.454 C  
ENDBRANCH  26  27
ENDBRANCH  25  26
ENDBRANCH  22  25
ENDBRANCH   6  22
TORSDOF 10
ENDMDL
MODEL      243
REMARK 921   NORMALIZED FREE ENERGY PREDICTED BY IDOCK:   -3.57 KCAL/MOL
REMARK 922        TOTAL FREE ENERGY PREDICTED BY IDOCK:   -7.43 KCAL/MOL
REMARK 923 INTER-LIGAND FREE ENERGY PREDICTED BY IDOCK:   -6.13 KCAL/MOL
REMARK 924 INTRA-LIGAND FREE ENERGY PREDICTED BY IDOCK:   -1.30 KCAL/MOL
REMARK 927      BINDING AFFINITY PREDICTED BY RF-SCORE:    0.00 PKD
ROOT
HETATM    1  C   UNL     1      -8.451   9.066  68.789  1.00  0.00    -0.131 C  
HETATM    2  C   UNL     1      -7.392   8.080  68.333  1.00  0.00    -0.098 C  
HETATM    3  C   UNL     1      -7.738   6.883  69.181  1.00  0.00    -0.106 C  
HETATM    4  O   UNL     1      -6.948   5.971  69.383  1.00  0.00    -0.059 OA 
HETATM    5  C   UNL     1      -9.147   6.958  69.768  1.00  0.00    -0.144 C  
HETATM    6  C   UNL     1      -9.860  10.895  68.150  1.00  0.00    -0.175 C  
HETATM    7  C   UNL     1      -9.670   8.198  69.048  1.00  0.00    -0.163 C  
HETATM    8  C   UNL     1     -10.700   9.050  69.767  1.00  0.00    -0.233 C  
HETATM    9  O   UNL     1      -8.794   9.998  67.782  1.00  0.00    -0.125 OA 
HETATM   10  C   UNL     1     -11.078  10.192  68.820  1.00  0.00    -0.250 C  
HETATM   11  O   UNL     1      -9.312  11.870  69.047  1.00  0.00    -0.404 OA 
HETATM   12  H   UNL     1      -8.569  12.299  68.638  1.00  0.00     0.000 HD 
ENDROOT
BRANCH   5  13
HETATM   13  C   UNL     1     -10.041   5.765  69.427  1.00  0.00    -0.277 C  
BRANCH  13  14
HETATM   14  C   UNL     1      -9.905   4.593  70.390  1.00  0.00    -0.306 C  
BRANCH  14  15
HETATM   15  C   UNL     1      -9.231   3.405  69.706  1.00  0.00    -0.220 C  
BRANCH  15  16
HETATM   16  C   UNL     1      -9.563   3.400  68.217  1.00  0.00    -0.149 C  
BRANCH  16  17
HETATM   17  C   UNL     1      -8.298   3.339  67.369  1.00  0.00    -0.093 C  
BRANCH  17  18
HETATM   18  C   UNL     1      -8.487   2.401  66.181  1.00  0.00    -0.101 C  
HETATM   19  O   UNL     1      -9.432   2.234  64.006  1.00  0.00    -0.119 OA 
HETATM   20  C   UNL     1      -9.261   3.059  65.065  1.00  0.00    -0.149 C  
HETATM   21  O   UNL     1      -9.700   4.198  65.082  1.00  0.00    -0.174 OA 
ENDBRANCH  17  18
ENDBRANCH  16  17
ENDBRANCH  15  16
ENDBRANCH  14  15
ENDBRANCH  13  14
ENDBRANCH   5  13
BRANCH   6  22
HETATM   22  C   UNL     1     -10.366  11.587  66.843  1.00  0.00    -0.223 C  
HETATM   23  F   UNL     1      -9.505  12.597  66.512  1.00  0.00    -0.225 F  
HETATM   24  F   UNL     1     -10.314  10.702  65.807  1.00  0.00    -0.294 F  
BRANCH  22  25
HETATM   25  C   UNL     1     -11.772  12.165  66.946  1.00  0.00    -0.374 C  
BRANCH  25  26
HETATM   26  C   UNL     1     -12.018  13.212  65.859  1.00  0.00    -0.479 C  
BRANCH  26  27
HETATM   27  C   UNL     1     -12.767  12.610  64.673  1.00  0.00    -0.458 C  
HETATM   28  C   UNL     1     -11.842  12.393  63.489  1.00  0.00    -0.605 C  
ENDBRANCH  26  27
ENDBRANCH  25  26
ENDBRANCH  22  25
ENDBRANCH   6  22
TORSDOF 10
ENDMDL
MODEL      244
REMARK 921   NORMALIZED FREE ENERGY PREDICTED BY IDOCK:   -3.56 KCAL/MOL
REMARK 922        TOTAL FREE ENERGY PREDICTED BY IDOCK:   -7.42 KCAL/MOL
REMARK 923 INTER-LIGAND FREE ENERGY PREDICTED BY IDOCK:   -6.56 KCAL/MOL
REMARK 924 INTRA-LIGAND FREE ENERGY PREDICTED BY IDOCK:   -0.86 KCAL/MOL
REMARK 927      BINDING AFFINITY PREDICTED BY RF-SCORE:    0.00 PKD
ROOT
HETATM    1  C   UNL     1      -9.994  12.772  67.806  1.00  0.00    -0.219 C  
HETATM    2  C   UNL     1      -9.026  11.607  67.882  1.00  0.00    -0.170 C  
HETATM    3  C   UNL     1      -9.417  11.001  69.205  1.00  0.00     0.043 C  
HETATM    4  O   UNL     1      -8.683  10.240  69.821  1.00  0.00    -0.157 OA 
HETATM    5  C   UNL     1     -10.790  11.465  69.688  1.00  0.00    -0.107 C  
HETATM    6  C   UNL     1     -11.300  14.172  66.366  1.00  0.00    -0.338 C  
HETATM    7  C   UNL     1     -11.257  12.241  68.459  1.00  0.00    -0.316 C  
HETATM    8  C   UNL     1     -12.194  13.414  68.678  1.00  0.00    -0.143 C  
HETATM    9  O   UNL     1     -10.315  13.126  66.474  1.00  0.00    -0.273 OA 
HETATM   10  C   UNL     1     -12.534  13.982  67.298  1.00  0.00    -0.026 C  
HETATM   11  O   UNL     1     -10.648  15.410  66.674  1.00  0.00    -0.296 OA 
HETATM   12  H   UNL     1      -9.896  15.526  66.105  1.00  0.00     0.000 HD 
ENDROOT
BRANCH   5  13
HETATM   13  C   UNL     1     -11.778  10.333  69.973  1.00  0.00    -0.330 C  
BRANCH  13  14
HETATM   14  C   UNL     1     -11.210   9.217  70.839  1.00  0.00    -0.359 C  
BRANCH  14  15
HETATM   15  C   UNL     1     -12.223   8.086  70.999  1.00  0.00    -0.199 C  
BRANCH  15  16
HETATM   16  C   UNL     1     -11.647   6.784  70.451  1.00  0.00    -0.422 C  
BRANCH  16  17
HETATM   17  C   UNL     1     -10.964   7.006  69.105  1.00  0.00    -0.193 C  
BRANCH  17  18
HETATM   18  C   UNL     1     -10.155   5.777  68.701  1.00  0.00    -0.227 C  
HETATM   19  O   UNL     1      -7.955   4.879  68.611  1.00  0.00    -0.083 OA 
HETATM   20  C   UNL     1      -8.681   5.965  68.966  1.00  0.00    -0.114 C  
HETATM   21  O   UNL     1      -8.168   6.966  69.441  1.00  0.00    -0.127 OA 
ENDBRANCH  17  18
ENDBRANCH  16  17
ENDBRANCH  15  16
ENDBRANCH  14  15
ENDBRANCH  13  14
ENDBRANCH   5  13
BRANCH   6  22
HETATM   22  C   UNL     1     -11.813  14.184  64.889  1.00  0.00    -0.402 C  
HETATM   23  F   UNL     1     -12.783  15.140  64.763  1.00  0.00    -0.243 F  
HETATM   24  F   UNL     1     -10.804  14.568  64.057  1.00  0.00    -0.118 F  
BRANCH  22  25
HETATM   25  C   UNL     1     -12.383  12.852  64.415  1.00  0.00    -0.468 C  
BRANCH  25  26
HETATM   26  C   UNL     1     -11.461  12.193  63.388  1.00  0.00    -0.501 C  
BRANCH  26  27
HETATM   27  C   UNL     1     -10.608  11.103  64.033  1.00  0.00    -0.436 C  
HETATM   28  C   UNL     1      -9.377  10.801  63.198  1.00  0.00    -0.336 C  
ENDBRANCH  26  27
ENDBRANCH  25  26
ENDBRANCH  22  25
ENDBRANCH   6  22
TORSDOF 10
ENDMDL
MODEL      245
REMARK 921   NORMALIZED FREE ENERGY PREDICTED BY IDOCK:   -3.55 KCAL/MOL
REMARK 922        TOTAL FREE ENERGY PREDICTED BY IDOCK:   -7.40 KCAL/MOL
REMARK 923 INTER-LIGAND FREE ENERGY PREDICTED BY IDOCK:   -5.53 KCAL/MOL
REMARK 924 INTRA-LIGAND FREE ENERGY PREDICTED BY IDOCK:   -1.87 KCAL/MOL
REMARK 927      BINDING AFFINITY PREDICTED BY RF-SCORE:    0.00 PKD
ROOT
HETATM    1  C   UNL     1     -10.919   7.737  69.520  1.00  0.00    -0.084 C  
HETATM    2  C   UNL     1     -11.072   8.777  70.614  1.00  0.00    -0.285 C  
HETATM    3  C   UNL     1     -11.472   7.905  71.777  1.00  0.00    -0.269 C  
HETATM    4  O   UNL     1     -12.015   8.354  72.777  1.00  0.00    -0.367 OA 
HETATM    5  C   UNL     1     -11.154   6.428  71.549  1.00  0.00    -0.322 C  
HETATM    6  C   UNL     1      -9.739   7.114  67.530  1.00  0.00    -0.142 C  
HETATM    7  C   UNL     1     -10.367   6.522  70.245  1.00  0.00    -0.241 C  
HETATM    8  C   UNL     1     -10.435   5.344  69.291  1.00  0.00    -0.309 C  
HETATM    9  O   UNL     1      -9.975   8.117  68.538  1.00  0.00    -0.178 OA 
HETATM   10  C   UNL     1      -9.537   5.678  68.098  1.00  0.00    -0.135 C  
HETATM   11  O   UNL     1     -10.863   7.127  66.640  1.00  0.00    -0.516 OA 
HETATM   12  H   UNL     1     -10.986   8.003  66.293  1.00  0.00     0.000 HD 
ENDROOT
BRANCH   5  13
HETATM   13  C   UNL     1     -10.271   5.796  72.625  1.00  0.00    -0.212 C  
BRANCH  13  14
HETATM   14  C   UNL     1     -11.039   4.991  73.664  1.00  0.00    -0.336 C  
BRANCH  14  15
HETATM   15  C   UNL     1     -10.291   3.708  74.017  1.00  0.00    -0.240 C  
BRANCH  15  16
HETATM   16  C   UNL     1      -9.072   3.546  73.114  1.00  0.00    -0.110 C  
BRANCH  16  17
HETATM   17  C   UNL     1      -9.056   2.174  72.448  1.00  0.00    -0.113 C  
BRANCH  17  18
HETATM   18  C   UNL     1      -9.604   2.256  71.027  1.00  0.00    -0.201 C  
HETATM   19  O   UNL     1      -9.012   2.058  68.733  1.00  0.00    -0.085 OA 
HETATM   20  C   UNL     1      -8.534   1.989  69.997  1.00  0.00    -0.047 C  
HETATM   21  O   UNL     1      -7.364   1.740  70.239  1.00  0.00    -0.033 OA 
ENDBRANCH  17  18
ENDBRANCH  16  17
ENDBRANCH  15  16
ENDBRANCH  14  15
ENDBRANCH  13  14
ENDBRANCH   5  13
BRANCH   6  22
HETATM   22  C   UNL     1      -8.437   7.514  66.763  1.00  0.00    -0.124 C  
HETATM   23  F   UNL     1      -7.590   8.153  67.627  1.00  0.00    -0.090 F  
HETATM   24  F   UNL     1      -7.778   6.390  66.362  1.00  0.00    -0.091 F  
BRANCH  22  25
HETATM   25  C   UNL     1      -8.673   8.420  65.560  1.00  0.00    -0.196 C  
BRANCH  25  26
HETATM   26  C   UNL     1      -8.674   9.893  65.972  1.00  0.00    -0.152 C  
BRANCH  26  27
HETATM   27  C   UNL     1      -9.920  10.608  65.457  1.00  0.00    -0.333 C  
HETATM   28  C   UNL     1     -10.779  11.113  66.603  1.00  0.00    -0.322 C  
ENDBRANCH  26  27
ENDBRANCH  25  26
ENDBRANCH  22  25
ENDBRANCH   6  22
TORSDOF 10
ENDMDL
MODEL      246
REMARK 921   NORMALIZED FREE ENERGY PREDICTED BY IDOCK:   -3.55 KCAL/MOL
REMARK 922        TOTAL FREE ENERGY PREDICTED BY IDOCK:   -7.39 KCAL/MOL
REMARK 923 INTER-LIGAND FREE ENERGY PREDICTED BY IDOCK:   -5.30 KCAL/MOL
REMARK 924 INTRA-LIGAND FREE ENERGY PREDICTED BY IDOCK:   -2.09 KCAL/MOL
REMARK 927      BINDING AFFINITY PREDICTED BY RF-SCORE:    0.00 PKD
ROOT
HETATM    1  C   UNL     1     -10.317   8.645  69.263  1.00  0.00    -0.221 C  
HETATM    2  C   UNL     1     -10.360   9.830  70.209  1.00  0.00    -0.348 C  
HETATM    3  C   UNL     1     -11.604   9.514  70.999  1.00  0.00    -0.344 C  
HETATM    4  O   UNL     1     -12.202  10.362  71.649  1.00  0.00    -0.355 OA 
HETATM    5  C   UNL     1     -12.035   8.054  70.870  1.00  0.00    -0.201 C  
HETATM    6  C   UNL     1      -8.914   7.143  68.031  1.00  0.00    -0.127 C  
HETATM    7  C   UNL     1     -10.845   7.492  70.097  1.00  0.00    -0.259 C  
HETATM    8  C   UNL     1     -11.098   6.323  69.164  1.00  0.00    -0.457 C  
HETATM    9  O   UNL     1      -9.001   8.318  68.861  1.00  0.00    -0.143 OA 
HETATM   10  C   UNL     1      -9.749   5.935  68.552  1.00  0.00    -0.151 C  
HETATM   11  O   UNL     1      -9.361   7.509  66.720  1.00  0.00    -0.149 OA 
HETATM   12  H   UNL     1      -8.852   8.245  66.402  1.00  0.00     0.000 HD 
ENDROOT
BRANCH   5  13
HETATM   13  C   UNL     1     -12.166   7.311  72.201  1.00  0.00    -0.260 C  
BRANCH  13  14
HETATM   14  C   UNL     1     -11.697   5.864  72.152  1.00  0.00    -0.287 C  
BRANCH  14  15
HETATM   15  C   UNL     1     -10.719   5.572  73.288  1.00  0.00    -0.314 C  
BRANCH  15  16
HETATM   16  C   UNL     1     -10.398   6.856  74.046  1.00  0.00    -0.355 C  
BRANCH  16  17
HETATM   17  C   UNL     1      -8.899   7.136  74.051  1.00  0.00    -0.231 C  
BRANCH  17  18
HETATM   18  C   UNL     1      -8.441   7.658  72.693  1.00  0.00    -0.166 C  
HETATM   19  O   UNL     1      -6.930   9.153  71.628  1.00  0.00    -0.268 OA 
HETATM   20  C   UNL     1      -7.344   8.686  72.829  1.00  0.00     0.074 C  
HETATM   21  O   UNL     1      -6.864   9.076  73.882  1.00  0.00    -0.355 OA 
ENDBRANCH  17  18
ENDBRANCH  16  17
ENDBRANCH  15  16
ENDBRANCH  14  15
ENDBRANCH  13  14
ENDBRANCH   5  13
BRANCH   6  22
HETATM   22  C   UNL     1      -7.414   6.706  67.990  1.00  0.00    -0.098 C  
HETATM   23  F   UNL     1      -7.210   5.922  66.887  1.00  0.00    -0.065 F  
HETATM   24  F   UNL     1      -6.623   7.802  67.816  1.00  0.00    -0.052 F  
BRANCH  22  25
HETATM   25  C   UNL     1      -6.953   5.937  69.221  1.00  0.00    -0.064 C  
BRANCH  25  26
HETATM   26  C   UNL     1      -6.310   4.605  68.831  1.00  0.00    -0.032 C  
BRANCH  26  27
HETATM   27  C   UNL     1      -6.480   3.566  69.936  1.00  0.00    -0.033 C  
HETATM   28  C   UNL     1      -7.397   4.074  71.034  1.00  0.00    -0.040 C  
ENDBRANCH  26  27
ENDBRANCH  25  26
ENDBRANCH  22  25
ENDBRANCH   6  22
TORSDOF 10
ENDMDL
MODEL      247
REMARK 921   NORMALIZED FREE ENERGY PREDICTED BY IDOCK:   -3.54 KCAL/MOL
REMARK 922        TOTAL FREE ENERGY PREDICTED BY IDOCK:   -7.39 KCAL/MOL
REMARK 923 INTER-LIGAND FREE ENERGY PREDICTED BY IDOCK:   -6.11 KCAL/MOL
REMARK 924 INTRA-LIGAND FREE ENERGY PREDICTED BY IDOCK:   -1.28 KCAL/MOL
REMARK 927      BINDING AFFINITY PREDICTED BY RF-SCORE:    0.00 PKD
ROOT
HETATM    1  C   UNL     1     -10.365   7.703  69.994  1.00  0.00    -0.223 C  
HETATM    2  C   UNL     1     -11.573   8.070  70.835  1.00  0.00    -0.284 C  
HETATM    3  C   UNL     1     -11.414   9.567  70.918  1.00  0.00    -0.334 C  
HETATM    4  O   UNL     1     -11.978  10.240  71.771  1.00  0.00    -0.271 OA 
HETATM    5  C   UNL     1     -10.465  10.123  69.859  1.00  0.00    -0.322 C  
HETATM    6  C   UNL     1      -9.476   6.202  68.353  1.00  0.00    -0.118 C  
HETATM    7  C   UNL     1     -10.226   8.866  69.028  1.00  0.00    -0.217 C  
HETATM    8  C   UNL     1      -8.888   8.727  68.326  1.00  0.00    -0.141 C  
HETATM    9  O   UNL     1     -10.571   6.531  69.230  1.00  0.00    -0.205 OA 
HETATM   10  C   UNL     1      -8.925   7.413  67.542  1.00  0.00    -0.126 C  
HETATM   11  O   UNL     1      -8.430   5.646  69.160  1.00  0.00    -0.101 OA 
HETATM   12  H   UNL     1      -8.766   4.908  69.655  1.00  0.00     0.000 HD 
ENDROOT
BRANCH   5  13
HETATM   13  C   UNL     1     -11.074  11.207  68.968  1.00  0.00    -0.299 C  
BRANCH  13  14
HETATM   14  C   UNL     1     -10.277  12.503  68.934  1.00  0.00    -0.012 C  
BRANCH  14  15
HETATM   15  C   UNL     1      -9.876  12.856  67.504  1.00  0.00    -0.208 C  
BRANCH  15  16
HETATM   16  C   UNL     1     -10.718  12.060  66.512  1.00  0.00    -0.293 C  
BRANCH  16  17
HETATM   17  C   UNL     1     -12.094  12.690  66.324  1.00  0.00    -0.358 C  
BRANCH  17  18
HETATM   18  C   UNL     1     -12.055  13.764  65.242  1.00  0.00    -0.425 C  
HETATM   19  O   UNL     1     -12.599  14.214  62.972  1.00  0.00    -0.573 OA 
HETATM   20  C   UNL     1     -12.629  13.267  63.938  1.00  0.00    -0.133 C  
HETATM   21  O   UNL     1     -13.072  12.147  63.739  1.00  0.00    -0.774 OA 
ENDBRANCH  17  18
ENDBRANCH  16  17
ENDBRANCH  15  16
ENDBRANCH  14  15
ENDBRANCH  13  14
ENDBRANCH   5  13
BRANCH   6  22
HETATM   22  C   UNL     1      -9.994   5.137  67.332  1.00  0.00    -0.180 C  
HETATM   23  F   UNL     1      -9.887   3.894  67.893  1.00  0.00    -0.223 F  
HETATM   24  F   UNL     1     -11.325   5.329  67.107  1.00  0.00     0.074 F  
BRANCH  22  25
HETATM   25  C   UNL     1      -9.250   5.133  66.002  1.00  0.00    -0.159 C  
BRANCH  25  26
HETATM   26  C   UNL     1      -8.178   4.042  65.974  1.00  0.00    -0.105 C  
BRANCH  26  27
HETATM   27  C   UNL     1      -6.777   4.648  65.929  1.00  0.00    -0.053 C  
HETATM   28  C   UNL     1      -6.761   5.941  65.133  1.00  0.00    -0.044 C  
ENDBRANCH  26  27
ENDBRANCH  25  26
ENDBRANCH  22  25
ENDBRANCH   6  22
TORSDOF 10
ENDMDL
MODEL      248
REMARK 921   NORMALIZED FREE ENERGY PREDICTED BY IDOCK:   -3.52 KCAL/MOL
REMARK 922        TOTAL FREE ENERGY PREDICTED BY IDOCK:   -7.36 KCAL/MOL
REMARK 923 INTER-LIGAND FREE ENERGY PREDICTED BY IDOCK:   -5.37 KCAL/MOL
REMARK 924 INTRA-LIGAND FREE ENERGY PREDICTED BY IDOCK:   -1.99 KCAL/MOL
REMARK 927      BINDING AFFINITY PREDICTED BY RF-SCORE:    0.00 PKD
ROOT
HETATM    1  C   UNL     1     -10.498  12.658  64.980  1.00  0.00    -0.308 C  
HETATM    2  C   UNL     1     -10.294  14.152  64.820  1.00  0.00    -0.387 C  
HETATM    3  C   UNL     1     -11.189  14.678  65.912  1.00  0.00    -0.336 C  
HETATM    4  O   UNL     1     -11.587  15.836  65.935  1.00  0.00     0.126 OA 
HETATM    5  C   UNL     1     -11.556  13.613  66.943  1.00  0.00    -0.397 C  
HETATM    6  C   UNL     1      -9.496  10.490  64.791  1.00  0.00    -0.259 C  
HETATM    7  C   UNL     1     -10.657  12.470  66.479  1.00  0.00    -0.265 C  
HETATM    8  C   UNL     1     -11.137  11.051  66.719  1.00  0.00    -0.240 C  
HETATM    9  O   UNL     1      -9.370  11.909  64.571  1.00  0.00     0.010 OA 
HETATM   10  C   UNL     1     -10.045  10.113  66.200  1.00  0.00    -0.314 C  
HETATM   11  O   UNL     1     -10.368   9.973  63.779  1.00  0.00    -0.355 OA 
HETATM   12  H   UNL     1     -10.034  10.203  62.920  1.00  0.00     0.000 HD 
ENDROOT
BRANCH   5  13
HETATM   13  C   UNL     1     -11.201  13.977  68.386  1.00  0.00    -0.292 C  
BRANCH  13  14
HETATM   14  C   UNL     1      -9.756  13.681  68.762  1.00  0.00    -0.040 C  
BRANCH  14  15
HETATM   15  C   UNL     1      -8.833  14.804  68.293  1.00  0.00    -0.179 C  
BRANCH  15  16
HETATM   16  C   UNL     1      -9.157  16.095  69.038  1.00  0.00    -0.250 C  
BRANCH  16  17
HETATM   17  C   UNL     1      -9.445  17.236  68.069  1.00  0.00    -0.271 C  
BRANCH  17  18
HETATM   18  C   UNL     1      -8.465  17.212  66.899  1.00  0.00    -0.249 C  
HETATM   19  O   UNL     1      -6.476  18.198  66.049  1.00  0.00    -0.203 OA 
HETATM   20  C   UNL     1      -7.350  18.213  67.082  1.00  0.00    -0.200 C  
HETATM   21  O   UNL     1      -7.222  18.966  68.034  1.00  0.00    -0.235 OA 
ENDBRANCH  17  18
ENDBRANCH  16  17
ENDBRANCH  15  16
ENDBRANCH  14  15
ENDBRANCH  13  14
ENDBRANCH   5  13
BRANCH   6  22
HETATM   22  C   UNL     1      -8.071   9.864  64.649  1.00  0.00    -0.152 C  
HETATM   23  F   UNL     1      -8.140   8.529  64.942  1.00  0.00    -0.112 F  
HETATM   24  F   UNL     1      -7.666   9.937  63.349  1.00  0.00    -0.124 F  
BRANCH  22  25
HETATM   25  C   UNL     1      -7.016  10.501  65.545  1.00  0.00    -0.100 C  
BRANCH  25  26
HETATM   26  C   UNL     1      -6.453   9.485  66.541  1.00  0.00    -0.067 C  
BRANCH  26  27
HETATM   27  C   UNL     1      -7.048   9.689  67.932  1.00  0.00    -0.080 C  
HETATM   28  C   UNL     1      -7.379  11.150  68.181  1.00  0.00    -0.087 C  
ENDBRANCH  26  27
ENDBRANCH  25  26
ENDBRANCH  22  25
ENDBRANCH   6  22
TORSDOF 10
ENDMDL
MODEL      249
REMARK 921   NORMALIZED FREE ENERGY PREDICTED BY IDOCK:   -3.50 KCAL/MOL
REMARK 922        TOTAL FREE ENERGY PREDICTED BY IDOCK:   -7.32 KCAL/MOL
REMARK 923 INTER-LIGAND FREE ENERGY PREDICTED BY IDOCK:   -6.16 KCAL/MOL
REMARK 924 INTRA-LIGAND FREE ENERGY PREDICTED BY IDOCK:   -1.16 KCAL/MOL
REMARK 927      BINDING AFFINITY PREDICTED BY RF-SCORE:    0.00 PKD
ROOT
HETATM    1  C   UNL     1      -9.314  12.237  68.261  1.00  0.00    -0.199 C  
HETATM    2  C   UNL     1      -7.813  12.021  68.217  1.00  0.00    -0.145 C  
HETATM    3  C   UNL     1      -7.669  10.856  69.163  1.00  0.00    -0.127 C  
HETATM    4  O   UNL     1      -6.600  10.560  69.682  1.00  0.00    -0.069 OA 
HETATM    5  C   UNL     1      -8.988  10.128  69.414  1.00  0.00    -0.205 C  
HETATM    6  C   UNL     1     -11.252  12.927  67.034  1.00  0.00    -0.288 C  
HETATM    7  C   UNL     1      -9.881  10.836  68.399  1.00  0.00    -0.177 C  
HETATM    8  C   UNL     1     -11.357  10.965  68.725  1.00  0.00    -0.357 C  
HETATM    9  O   UNL     1      -9.818  12.789  67.060  1.00  0.00    -0.222 OA 
HETATM   10  C   UNL     1     -12.020  11.669  67.539  1.00  0.00    -0.044 C  
HETATM   11  O   UNL     1     -11.591  14.058  67.847  1.00  0.00    -0.303 OA 
HETATM   12  H   UNL     1     -11.122  14.825  67.539  1.00  0.00     0.000 HD 
ENDROOT
BRANCH   5  13
HETATM   13  C   UNL     1      -8.957   8.632  69.100  1.00  0.00    -0.142 C  
BRANCH  13  14
HETATM   14  C   UNL     1      -9.806   7.783  70.037  1.00  0.00    -0.181 C  
BRANCH  14  15
HETATM   15  C   UNL     1      -8.950   6.731  70.739  1.00  0.00    -0.151 C  
BRANCH  15  16
HETATM   16  C   UNL     1      -9.343   5.335  70.267  1.00  0.00    -0.207 C  
BRANCH  16  17
HETATM   17  C   UNL     1     -10.019   4.544  71.382  1.00  0.00    -0.259 C  
BRANCH  17  18
HETATM   18  C   UNL     1      -9.600   5.073  72.751  1.00  0.00    -0.164 C  
HETATM   19  O   UNL     1      -8.088   4.731  74.553  1.00  0.00    -0.094 OA 
HETATM   20  C   UNL     1      -8.467   4.268  73.339  1.00  0.00    -0.093 C  
HETATM   21  O   UNL     1      -7.932   3.305  72.812  1.00  0.00    -0.065 OA 
ENDBRANCH  17  18
ENDBRANCH  16  17
ENDBRANCH  15  16
ENDBRANCH  14  15
ENDBRANCH  13  14
ENDBRANCH   5  13
BRANCH   6  22
HETATM   22  C   UNL     1     -11.674  13.182  65.550  1.00  0.00    -0.357 C  
HETATM   23  F   UNL     1     -11.712  11.986  64.887  1.00  0.00    -0.379 F  
HETATM   24  F   UNL     1     -12.947  13.667  65.513  1.00  0.00    -0.521 F  
BRANCH  22  25
HETATM   25  C   UNL     1     -10.749  14.126  64.792  1.00  0.00    -0.436 C  
BRANCH  25  26
HETATM   26  C   UNL     1     -11.398  15.499  64.602  1.00  0.00    -0.363 C  
BRANCH  26  27
HETATM   27  C   UNL     1     -10.596  16.589  65.307  1.00  0.00    -0.273 C  
HETATM   28  C   UNL     1      -9.325  16.029  65.921  1.00  0.00    -0.335 C  
ENDBRANCH  26  27
ENDBRANCH  25  26
ENDBRANCH  22  25
ENDBRANCH   6  22
TORSDOF 10
ENDMDL
MODEL      250
REMARK 921   NORMALIZED FREE ENERGY PREDICTED BY IDOCK:   -3.50 KCAL/MOL
REMARK 922        TOTAL FREE ENERGY PREDICTED BY IDOCK:   -7.32 KCAL/MOL
REMARK 923 INTER-LIGAND FREE ENERGY PREDICTED BY IDOCK:   -6.31 KCAL/MOL
REMARK 924 INTRA-LIGAND FREE ENERGY PREDICTED BY IDOCK:   -1.01 KCAL/MOL
REMARK 927      BINDING AFFINITY PREDICTED BY RF-SCORE:    0.00 PKD
ROOT
HETATM    1  C   UNL     1     -10.343  17.114  68.446  1.00  0.00    -0.362 C  
HETATM    2  C   UNL     1     -10.390  17.743  67.066  1.00  0.00    -0.344 C  
HETATM    3  C   UNL     1      -8.919  17.849  66.755  1.00  0.00    -0.261 C  
HETATM    4  O   UNL     1      -8.484  18.596  65.888  1.00  0.00    -0.491 OA 
HETATM    5  C   UNL     1      -8.057  16.960  67.648  1.00  0.00    -0.193 C  
HETATM    6  C   UNL     1     -11.435  15.645  69.992  1.00  0.00    -0.344 C  
HETATM    7  C   UNL     1      -9.147  16.182  68.382  1.00  0.00    -0.199 C  
HETATM    8  C   UNL     1      -8.851  15.711  69.793  1.00  0.00     0.020 C  
HETATM    9  O   UNL     1     -11.486  16.329  68.724  1.00  0.00    -0.353 OA 
HETATM   10  C   UNL     1     -10.079  14.934  70.275  1.00  0.00     0.254 C  
HETATM   11  O   UNL     1     -11.694  16.615  71.014  1.00  0.00    -0.553 OA 
HETATM   12  H   UNL     1     -12.522  17.050  70.842  1.00  0.00     0.000 HD 
ENDROOT
BRANCH   5  13
HETATM   13  C   UNL     1      -7.161  15.978  66.892  1.00  0.00    -0.212 C  
BRANCH  13  14
HETATM   14  C   UNL     1      -7.495  14.514  67.143  1.00  0.00    -0.002 C  
BRANCH  14  15
HETATM   15  C   UNL     1      -6.234  13.719  67.474  1.00  0.00    -0.030 C  
BRANCH  15  16
HETATM   16  C   UNL     1      -6.607  12.333  67.987  1.00  0.00    -0.076 C  
BRANCH  16  17
HETATM   17  C   UNL     1      -6.849  11.363  66.836  1.00  0.00    -0.142 C  
BRANCH  17  18
HETATM   18  C   UNL     1      -8.331  11.303  66.480  1.00  0.00    -0.168 C  
HETATM   19  O   UNL     1     -10.407  10.319  67.092  1.00  0.00    -0.212 OA 
HETATM   20  C   UNL     1      -9.091  10.377  67.399  1.00  0.00    -0.135 C  
HETATM   21  O   UNL     1      -8.607   9.737  68.319  1.00  0.00    -0.117 OA 
ENDBRANCH  17  18
ENDBRANCH  16  17
ENDBRANCH  15  16
ENDBRANCH  14  15
ENDBRANCH  13  14
ENDBRANCH   5  13
BRANCH   6  22
HETATM   22  C   UNL     1     -12.556  14.555  69.984  1.00  0.00    -0.232 C  
HETATM   23  F   UNL     1     -13.773  15.167  70.109  1.00  0.00     0.002 F  
HETATM   24  F   UNL     1     -12.578  13.931  68.772  1.00  0.00    -0.301 F  
BRANCH  22  25
HETATM   25  C   UNL     1     -12.422  13.514  71.089  1.00  0.00    -0.424 C  
BRANCH  25  26
HETATM   26  C   UNL     1     -12.204  12.117  70.505  1.00  0.00    -0.392 C  
BRANCH  26  27
HETATM   27  C   UNL     1     -12.802  11.043  71.411  1.00  0.00    -0.548 C  
HETATM   28  C   UNL     1     -11.932   9.799  71.439  1.00  0.00    -0.493 C  
ENDBRANCH  26  27
ENDBRANCH  25  26
ENDBRANCH  22  25
ENDBRANCH   6  22
TORSDOF 10
ENDMDL
MODEL      251
REMARK 921   NORMALIZED FREE ENERGY PREDICTED BY IDOCK:   -3.48 KCAL/MOL
REMARK 922        TOTAL FREE ENERGY PREDICTED BY IDOCK:   -7.30 KCAL/MOL
REMARK 923 INTER-LIGAND FREE ENERGY PREDICTED BY IDOCK:   -6.18 KCAL/MOL
REMARK 924 INTRA-LIGAND FREE ENERGY PREDICTED BY IDOCK:   -1.12 KCAL/MOL
REMARK 927      BINDING AFFINITY PREDICTED BY RF-SCORE:    0.00 PKD
ROOT
HETATM    1  C   UNL     1     -10.466   7.450  68.049  1.00  0.00    -0.199 C  
HETATM    2  C   UNL     1      -9.678   7.024  66.825  1.00  0.00    -0.241 C  
HETATM    3  C   UNL     1      -9.346   8.365  66.222  1.00  0.00    -0.219 C  
HETATM    4  O   UNL     1      -9.005   8.493  65.054  1.00  0.00    -0.099 OA 
HETATM    5  C   UNL     1      -9.514   9.518  67.210  1.00  0.00    -0.170 C  
HETATM    6  C   UNL     1     -11.028   6.937  70.321  1.00  0.00    -0.281 C  
HETATM    7  C   UNL     1      -9.787   8.734  68.491  1.00  0.00    -0.183 C  
HETATM    8  C   UNL     1     -10.666   9.384  69.543  1.00  0.00    -0.238 C  
HETATM    9  O   UNL     1     -10.363   6.522  69.111  1.00  0.00    -0.169 OA 
HETATM   10  C   UNL     1     -10.744   8.415  70.725  1.00  0.00    -0.244 C  
HETATM   11  O   UNL     1     -12.435   6.752  70.124  1.00  0.00    -0.572 OA 
HETATM   12  H   UNL     1     -12.608   5.850  69.877  1.00  0.00     0.000 HD 
ENDROOT
BRANCH   5  13
HETATM   13  C   UNL     1      -8.262  10.376  67.403  1.00  0.00    -0.117 C  
BRANCH  13  14
HETATM   14  C   UNL     1      -8.546  11.779  67.920  1.00  0.00    -0.156 C  
BRANCH  14  15
HETATM   15  C   UNL     1      -8.449  12.803  66.791  1.00  0.00    -0.036 C  
BRANCH  15  16
HETATM   16  C   UNL     1      -8.042  14.162  67.349  1.00  0.00    -0.205 C  
BRANCH  16  17
HETATM   17  C   UNL     1      -9.065  15.235  66.994  1.00  0.00    -0.245 C  
BRANCH  17  18
HETATM   18  C   UNL     1     -10.453  14.847  67.496  1.00  0.00    -0.254 C  
HETATM   19  O   UNL     1     -12.048  15.248  69.212  1.00  0.00    -0.306 OA 
HETATM   20  C   UNL     1     -10.818  15.585  68.761  1.00  0.00    -0.256 C  
HETATM   21  O   UNL     1     -10.111  16.395  69.339  1.00  0.00    -0.258 OA 
ENDBRANCH  17  18
ENDBRANCH  16  17
ENDBRANCH  15  16
ENDBRANCH  14  15
ENDBRANCH  13  14
ENDBRANCH   5  13
BRANCH   6  22
HETATM   22  C   UNL     1     -10.517   6.018  71.478  1.00  0.00    -0.228 C  
HETATM   23  F   UNL     1     -10.258   4.772  70.975  1.00  0.00    -0.267 F  
HETATM   24  F   UNL     1      -9.324   6.485  71.941  1.00  0.00    -0.149 F  
BRANCH  22  25
HETATM   25  C   UNL     1     -11.493   5.877  72.640  1.00  0.00    -0.319 C  
BRANCH  25  26
HETATM   26  C   UNL     1     -11.358   4.508  73.309  1.00  0.00    -0.364 C  
BRANCH  26  27
HETATM   27  C   UNL     1     -10.421   4.573  74.513  1.00  0.00    -0.298 C  
HETATM   28  C   UNL     1      -9.273   3.590  74.372  1.00  0.00    -0.105 C  
ENDBRANCH  26  27
ENDBRANCH  25  26
ENDBRANCH  22  25
ENDBRANCH   6  22
TORSDOF 10
ENDMDL
MODEL      252
REMARK 921   NORMALIZED FREE ENERGY PREDICTED BY IDOCK:   -3.48 KCAL/MOL
REMARK 922        TOTAL FREE ENERGY PREDICTED BY IDOCK:   -7.29 KCAL/MOL
REMARK 923 INTER-LIGAND FREE ENERGY PREDICTED BY IDOCK:   -6.24 KCAL/MOL
REMARK 924 INTRA-LIGAND FREE ENERGY PREDICTED BY IDOCK:   -1.05 KCAL/MOL
REMARK 927      BINDING AFFINITY PREDICTED BY RF-SCORE:    0.00 PKD
ROOT
HETATM    1  C   UNL     1     -10.462  14.379  65.656  1.00  0.00    -0.334 C  
HETATM    2  C   UNL     1     -11.825  14.094  65.056  1.00  0.00    -0.390 C  
HETATM    3  C   UNL     1     -11.725  12.609  64.820  1.00  0.00    -0.352 C  
HETATM    4  O   UNL     1     -12.468  12.014  64.051  1.00  0.00    -0.423 OA 
HETATM    5  C   UNL     1     -10.593  11.957  65.613  1.00  0.00    -0.311 C  
HETATM    6  C   UNL     1      -9.217  15.730  67.194  1.00  0.00    -0.210 C  
HETATM    7  C   UNL     1     -10.157  13.138  66.476  1.00  0.00    -0.280 C  
HETATM    8  C   UNL     1      -8.701  13.207  66.896  1.00  0.00    -0.156 C  
HETATM    9  O   UNL     1     -10.477  15.484  66.538  1.00  0.00    -0.287 OA 
HETATM   10  C   UNL     1      -8.544  14.450  67.774  1.00  0.00    -0.171 C  
HETATM   11  O   UNL     1      -8.346  16.342  66.236  1.00  0.00    -0.302 OA 
HETATM   12  H   UNL     1      -8.756  17.123  65.882  1.00  0.00     0.000 HD 
ENDROOT
BRANCH   5  13
HETATM   13  C   UNL     1     -11.034  10.807  66.521  1.00  0.00    -0.143 C  
BRANCH  13  14
HETATM   14  C   UNL     1      -9.882  10.023  67.132  1.00  0.00    -0.231 C  
BRANCH  14  15
HETATM   15  C   UNL     1      -9.873  10.167  68.652  1.00  0.00    -0.170 C  
BRANCH  15  16
HETATM   16  C   UNL     1      -8.503   9.792  69.207  1.00  0.00    -0.152 C  
BRANCH  16  17
HETATM   17  C   UNL     1      -8.576   8.521  70.046  1.00  0.00    -0.134 C  
BRANCH  17  18
HETATM   18  C   UNL     1      -8.618   8.855  71.534  1.00  0.00    -0.205 C  
HETATM   19  O   UNL     1      -7.620   8.363  73.634  1.00  0.00    -0.266 OA 
HETATM   20  C   UNL     1      -7.590   8.071  72.313  1.00  0.00    -0.110 C  
HETATM   21  O   UNL     1      -6.811   7.259  71.842  1.00  0.00    -0.058 OA 
ENDBRANCH  17  18
ENDBRANCH  16  17
ENDBRANCH  15  16
ENDBRANCH  14  15
ENDBRANCH  13  14
ENDBRANCH   5  13
BRANCH   6  22
HETATM   22  C   UNL     1      -9.489  16.709  68.382  1.00  0.00    -0.231 C  
HETATM   23  F   UNL     1     -10.832  16.957  68.456  1.00  0.00    -0.316 F  
HETATM   24  F   UNL     1      -9.159  16.103  69.558  1.00  0.00    -0.241 F  
BRANCH  22  25
HETATM   25  C   UNL     1      -8.756  18.040  68.274  1.00  0.00    -0.289 C  
BRANCH  25  26
HETATM   26  C   UNL     1      -7.454  18.019  69.078  1.00  0.00    -0.177 C  
BRANCH  26  27
HETATM   27  C   UNL     1      -6.260  17.697  68.183  1.00  0.00    -0.167 C  
HETATM   28  C   UNL     1      -5.230  16.857  68.919  1.00  0.00    -0.132 C  
ENDBRANCH  26  27
ENDBRANCH  25  26
ENDBRANCH  22  25
ENDBRANCH   6  22
TORSDOF 10
ENDMDL
MODEL      253
REMARK 921   NORMALIZED FREE ENERGY PREDICTED BY IDOCK:   -3.47 KCAL/MOL
REMARK 922        TOTAL FREE ENERGY PREDICTED BY IDOCK:   -7.28 KCAL/MOL
REMARK 923 INTER-LIGAND FREE ENERGY PREDICTED BY IDOCK:   -6.18 KCAL/MOL
REMARK 924 INTRA-LIGAND FREE ENERGY PREDICTED BY IDOCK:   -1.10 KCAL/MOL
REMARK 927      BINDING AFFINITY PREDICTED BY RF-SCORE:    0.00 PKD
ROOT
HETATM    1  C   UNL     1     -11.155  11.886  67.035  1.00  0.00    -0.302 C  
HETATM    2  C   UNL     1     -10.567  10.604  67.592  1.00  0.00    -0.288 C  
HETATM    3  C   UNL     1     -10.198   9.887  66.318  1.00  0.00    -0.211 C  
HETATM    4  O   UNL     1      -9.995   8.681  66.279  1.00  0.00    -0.277 OA 
HETATM    5  C   UNL     1     -10.139  10.818  65.108  1.00  0.00    -0.363 C  
HETATM    6  C   UNL     1     -11.470  14.235  67.384  1.00  0.00    -0.347 C  
HETATM    7  C   UNL     1     -10.317  12.167  65.800  1.00  0.00    -0.289 C  
HETATM    8  C   UNL     1     -10.998  13.276  65.022  1.00  0.00    -0.328 C  
HETATM    9  O   UNL     1     -11.001  12.981  67.917  1.00  0.00    -0.229 OA 
HETATM   10  C   UNL     1     -11.012  14.515  65.921  1.00  0.00    -0.320 C  
HETATM   11  O   UNL     1     -12.902  14.220  67.446  1.00  0.00    -0.172 OA 
HETATM   12  H   UNL     1     -13.182  14.050  68.338  1.00  0.00     0.000 HD 
ENDROOT
BRANCH   5  13
HETATM   13  C   UNL     1      -8.804  10.807  64.363  1.00  0.00    -0.132 C  
BRANCH  13  14
HETATM   14  C   UNL     1      -8.937  10.670  62.853  1.00  0.00    -0.272 C  
BRANCH  14  15
HETATM   15  C   UNL     1      -8.879   9.202  62.435  1.00  0.00    -0.212 C  
BRANCH  15  16
HETATM   16  C   UNL     1      -7.433   8.715  62.431  1.00  0.00    -0.104 C  
BRANCH  16  17
HETATM   17  C   UNL     1      -7.019   8.203  63.806  1.00  0.00    -0.076 C  
BRANCH  17  18
HETATM   18  C   UNL     1      -7.770   6.922  64.156  1.00  0.00    -0.116 C  
HETATM   19  O   UNL     1      -7.505   4.590  64.533  1.00  0.00    -0.069 OA 
HETATM   20  C   UNL     1      -6.846   5.731  64.222  1.00  0.00    -0.050 C  
HETATM   21  O   UNL     1      -5.643   5.755  64.021  1.00  0.00    -0.016 OA 
ENDBRANCH  17  18
ENDBRANCH  16  17
ENDBRANCH  15  16
ENDBRANCH  14  15
ENDBRANCH  13  14
ENDBRANCH   5  13
BRANCH   6  22
HETATM   22  C   UNL     1     -10.901  15.375  68.290  1.00  0.00    -0.269 C  
HETATM   23  F   UNL     1     -11.770  15.598  69.323  1.00  0.00    -0.290 F  
HETATM   24  F   UNL     1      -9.738  14.962  68.868  1.00  0.00    -0.198 F  
BRANCH  22  25
HETATM   25  C   UNL     1     -10.667  16.693  67.563  1.00  0.00    -0.278 C  
BRANCH  25  26
HETATM   26  C   UNL     1     -10.320  17.811  68.548  1.00  0.00    -0.366 C  
BRANCH  26  27
HETATM   27  C   UNL     1      -9.061  18.556  68.113  1.00  0.00    -0.329 C  
HETATM   28  C   UNL     1      -8.498  17.984  66.824  1.00  0.00    -0.274 C  
ENDBRANCH  26  27
ENDBRANCH  25  26
ENDBRANCH  22  25
ENDBRANCH   6  22
TORSDOF 10
ENDMDL
MODEL      254
REMARK 921   NORMALIZED FREE ENERGY PREDICTED BY IDOCK:   -3.47 KCAL/MOL
REMARK 922        TOTAL FREE ENERGY PREDICTED BY IDOCK:   -7.27 KCAL/MOL
REMARK 923 INTER-LIGAND FREE ENERGY PREDICTED BY IDOCK:   -5.57 KCAL/MOL
REMARK 924 INTRA-LIGAND FREE ENERGY PREDICTED BY IDOCK:   -1.71 KCAL/MOL
REMARK 927      BINDING AFFINITY PREDICTED BY RF-SCORE:    0.00 PKD
ROOT
HETATM    1  C   UNL     1      -8.645  17.022  67.544  1.00  0.00    -0.205 C  
HETATM    2  C   UNL     1      -8.206  17.306  66.120  1.00  0.00    -0.258 C  
HETATM    3  C   UNL     1      -6.707  17.294  66.280  1.00  0.00    -0.234 C  
HETATM    4  O   UNL     1      -5.955  17.800  65.457  1.00  0.00    -0.134 OA 
HETATM    5  C   UNL     1      -6.253  16.620  67.573  1.00  0.00    -0.187 C  
HETATM    6  C   UNL     1     -10.299  15.994  68.940  1.00  0.00    -0.235 C  
HETATM    7  C   UNL     1      -7.587  16.069  68.070  1.00  0.00    -0.137 C  
HETATM    8  C   UNL     1      -7.784  15.940  69.568  1.00  0.00    -0.125 C  
HETATM    9  O   UNL     1      -9.892  16.358  67.605  1.00  0.00    -0.237 OA 
HETATM   10  C   UNL     1      -9.172  15.334  69.789  1.00  0.00    -0.060 C  
HETATM   11  O   UNL     1     -10.757  17.187  69.589  1.00  0.00    -0.367 OA 
HETATM   12  H   UNL     1     -11.444  17.590  69.071  1.00  0.00     0.000 HD 
ENDROOT
BRANCH   5  13
HETATM   13  C   UNL     1      -5.274  15.462  67.375  1.00  0.00     0.160 C  
BRANCH  13  14
HETATM   14  C   UNL     1      -5.330  14.407  68.472  1.00  0.00    -0.099 C  
BRANCH  14  15
HETATM   15  C   UNL     1      -5.160  13.007  67.887  1.00  0.00    -0.106 C  
BRANCH  15  16
HETATM   16  C   UNL     1      -6.466  12.543  67.250  1.00  0.00    -0.124 C  
BRANCH  16  17
HETATM   17  C   UNL     1      -7.580  12.439  68.286  1.00  0.00    -0.131 C  
BRANCH  17  18
HETATM   18  C   UNL     1      -7.536  11.089  68.995  1.00  0.00    -0.129 C  
HETATM   19  O   UNL     1      -8.722   9.053  69.309  1.00  0.00    -0.132 OA 
HETATM   20  C   UNL     1      -8.754  10.254  68.685  1.00  0.00    -0.133 C  
HETATM   21  O   UNL     1      -9.680  10.590  67.964  1.00  0.00    -0.145 OA 
ENDBRANCH  17  18
ENDBRANCH  16  17
ENDBRANCH  15  16
ENDBRANCH  14  15
ENDBRANCH  13  14
ENDBRANCH   5  13
BRANCH   6  22
HETATM   22  C   UNL     1     -11.468  14.965  68.811  1.00  0.00    -0.307 C  
HETATM   23  F   UNL     1     -11.962  15.009  67.537  1.00  0.00    -0.365 F  
HETATM   24  F   UNL     1     -10.985  13.701  68.977  1.00  0.00    -0.248 F  
BRANCH  22  25
HETATM   25  C   UNL     1     -12.617  15.200  69.784  1.00  0.00    -0.149 C  
BRANCH  25  26
HETATM   26  C   UNL     1     -12.651  14.121  70.868  1.00  0.00    -0.433 C  
BRANCH  26  27
HETATM   27  C   UNL     1     -13.026  14.713  72.224  1.00  0.00    -0.436 C  
HETATM   28  C   UNL     1     -12.136  15.892  72.576  1.00  0.00    -0.611 C  
ENDBRANCH  26  27
ENDBRANCH  25  26
ENDBRANCH  22  25
ENDBRANCH   6  22
TORSDOF 10
ENDMDL
MODEL      255
REMARK 921   NORMALIZED FREE ENERGY PREDICTED BY IDOCK:   -3.45 KCAL/MOL
REMARK 922        TOTAL FREE ENERGY PREDICTED BY IDOCK:   -7.25 KCAL/MOL
REMARK 923 INTER-LIGAND FREE ENERGY PREDICTED BY IDOCK:   -5.64 KCAL/MOL
REMARK 924 INTRA-LIGAND FREE ENERGY PREDICTED BY IDOCK:   -1.61 KCAL/MOL
REMARK 927      BINDING AFFINITY PREDICTED BY RF-SCORE:    0.00 PKD
ROOT
HETATM    1  C   UNL     1     -10.911   8.659  68.709  1.00  0.00     0.030 C  
HETATM    2  C   UNL     1     -10.129   8.380  67.440  1.00  0.00    -0.301 C  
HETATM    3  C   UNL     1      -9.801   9.783  66.997  1.00  0.00    -0.193 C  
HETATM    4  O   UNL     1      -9.465  10.048  65.850  1.00  0.00    -0.176 OA 
HETATM    5  C   UNL     1      -9.965  10.812  68.113  1.00  0.00    -0.176 C  
HETATM    6  C   UNL     1     -11.461   7.883  70.908  1.00  0.00    -0.281 C  
HETATM    7  C   UNL     1     -10.231   9.884  69.295  1.00  0.00    -0.222 C  
HETATM    8  C   UNL     1     -11.106  10.404  70.420  1.00  0.00    -0.371 C  
HETATM    9  O   UNL     1     -10.802   7.613  69.654  1.00  0.00    -0.242 OA 
HETATM   10  C   UNL     1     -11.177   9.303  71.481  1.00  0.00    -0.457 C  
HETATM   11  O   UNL     1     -12.869   7.719  70.697  1.00  0.00    -0.480 OA 
HETATM   12  H   UNL     1     -13.042   6.853  70.347  1.00  0.00     0.000 HD 
ENDROOT
BRANCH   5  13
HETATM   13  C   UNL     1      -8.713  11.644  68.399  1.00  0.00    -0.158 C  
BRANCH  13  14
HETATM   14  C   UNL     1      -7.423  10.836  68.417  1.00  0.00    -0.095 C  
BRANCH  14  15
HETATM   15  C   UNL     1      -7.052  10.439  69.844  1.00  0.00    -0.160 C  
BRANCH  15  16
HETATM   16  C   UNL     1      -7.179   8.929  70.019  1.00  0.00    -0.054 C  
BRANCH  16  17
HETATM   17  C   UNL     1      -6.329   8.434  71.183  1.00  0.00    -0.039 C  
BRANCH  17  18
HETATM   18  C   UNL     1      -7.201   7.784  72.253  1.00  0.00    -0.086 C  
HETATM   19  O   UNL     1      -7.757   7.842  74.564  1.00  0.00    -0.158 OA 
HETATM   20  C   UNL     1      -6.986   8.411  73.609  1.00  0.00    -0.092 C  
HETATM   21  O   UNL     1      -6.213   9.324  73.853  1.00  0.00    -0.331 OA 
ENDBRANCH  17  18
ENDBRANCH  16  17
ENDBRANCH  15  16
ENDBRANCH  14  15
ENDBRANCH  13  14
ENDBRANCH   5  13
BRANCH   6  22
HETATM   22  C   UNL     1     -10.944   6.835  71.946  1.00  0.00    -0.239 C  
HETATM   23  F   UNL     1     -10.209   7.481  72.902  1.00  0.00    -0.222 F  
HETATM   24  F   UNL     1     -12.003   6.283  72.605  1.00  0.00    -0.275 F  
BRANCH  22  25
HETATM   25  C   UNL     1     -10.088   5.728  71.344  1.00  0.00    -0.249 C  
BRANCH  25  26
HETATM   26  C   UNL     1      -9.995   4.528  72.288  1.00  0.00    -0.239 C  
BRANCH  26  27
HETATM   27  C   UNL     1      -9.352   3.330  71.594  1.00  0.00    -0.207 C  
HETATM   28  C   UNL     1      -9.594   2.048  72.370  1.00  0.00    -0.167 C  
ENDBRANCH  26  27
ENDBRANCH  25  26
ENDBRANCH  22  25
ENDBRANCH   6  22
TORSDOF 10
ENDMDL
MODEL      256
REMARK 921   NORMALIZED FREE ENERGY PREDICTED BY IDOCK:   -3.43 KCAL/MOL
REMARK 922        TOTAL FREE ENERGY PREDICTED BY IDOCK:   -7.21 KCAL/MOL
REMARK 923 INTER-LIGAND FREE ENERGY PREDICTED BY IDOCK:   -5.65 KCAL/MOL
REMARK 924 INTRA-LIGAND FREE ENERGY PREDICTED BY IDOCK:   -1.56 KCAL/MOL
REMARK 927      BINDING AFFINITY PREDICTED BY RF-SCORE:    0.00 PKD
ROOT
HETATM    1  C   UNL     1     -10.705  10.631  68.088  1.00  0.00    -0.225 C  
HETATM    2  C   UNL     1     -10.272  10.020  69.407  1.00  0.00    -0.239 C  
HETATM    3  C   UNL     1      -9.775   8.674  68.944  1.00  0.00    -0.170 C  
HETATM    4  O   UNL     1      -9.638   7.727  69.707  1.00  0.00    -0.167 OA 
HETATM    5  C   UNL     1      -9.500   8.627  67.442  1.00  0.00    -0.187 C  
HETATM    6  C   UNL     1     -10.931  12.652  66.821  1.00  0.00    -0.262 C  
HETATM    7  C   UNL     1      -9.693  10.100  67.089  1.00  0.00    -0.214 C  
HETATM    8  C   UNL     1     -10.197  10.433  65.698  1.00  0.00    -0.308 C  
HETATM    9  O   UNL     1     -10.611  12.042  68.087  1.00  0.00    -0.196 OA 
HETATM   10  C   UNL     1     -10.263  11.959  65.596  1.00  0.00    -0.280 C  
HETATM   11  O   UNL     1     -12.356  12.618  66.676  1.00  0.00    -0.474 OA 
HETATM   12  H   UNL     1     -12.764  13.041  67.423  1.00  0.00     0.000 HD 
ENDROOT
BRANCH   5  13
HETATM   13  C   UNL     1      -8.078   8.204  67.070  1.00  0.00    -0.108 C  
BRANCH  13  14
HETATM   14  C   UNL     1      -7.089   9.358  66.985  1.00  0.00    -0.086 C  
BRANCH  14  15
HETATM   15  C   UNL     1      -6.494   9.459  65.582  1.00  0.00    -0.069 C  
BRANCH  15  16
HETATM   16  C   UNL     1      -6.050   8.082  65.101  1.00  0.00    -0.045 C  
BRANCH  16  17
HETATM   17  C   UNL     1      -6.624   7.766  63.724  1.00  0.00    -0.062 C  
BRANCH  17  18
HETATM   18  C   UNL     1      -6.236   6.357  63.285  1.00  0.00    -0.030 C  
HETATM   19  O   UNL     1      -6.979   4.100  63.224  1.00  0.00    -0.042 OA 
HETATM   20  C   UNL     1      -7.314   5.353  63.611  1.00  0.00    -0.053 C  
HETATM   21  O   UNL     1      -8.375   5.604  64.161  1.00  0.00    -0.127 OA 
ENDBRANCH  17  18
ENDBRANCH  16  17
ENDBRANCH  15  16
ENDBRANCH  14  15
ENDBRANCH  13  14
ENDBRANCH   5  13
BRANCH   6  22
HETATM   22  C   UNL     1     -10.427  14.131  66.868  1.00  0.00    -0.272 C  
HETATM   23  F   UNL     1      -9.177  14.192  66.316  1.00  0.00    -0.276 F  
HETATM   24  F   UNL     1     -11.219  14.910  66.079  1.00  0.00    -0.326 F  
BRANCH  22  25
HETATM   25  C   UNL     1     -10.366  14.724  68.270  1.00  0.00    -0.238 C  
BRANCH  25  26
HETATM   26  C   UNL     1     -11.608  15.567  68.566  1.00  0.00    -0.379 C  
BRANCH  26  27
HETATM   27  C   UNL     1     -12.052  15.404  70.017  1.00  0.00    -0.388 C  
HETATM   28  C   UNL     1     -12.357  13.953  70.340  1.00  0.00    -0.433 C  
ENDBRANCH  26  27
ENDBRANCH  25  26
ENDBRANCH  22  25
ENDBRANCH   6  22
TORSDOF 10
ENDMDL
MODEL      257
REMARK 921   NORMALIZED FREE ENERGY PREDICTED BY IDOCK:   -3.43 KCAL/MOL
REMARK 922        TOTAL FREE ENERGY PREDICTED BY IDOCK:   -7.21 KCAL/MOL
REMARK 923 INTER-LIGAND FREE ENERGY PREDICTED BY IDOCK:   -5.85 KCAL/MOL
REMARK 924 INTRA-LIGAND FREE ENERGY PREDICTED BY IDOCK:   -1.35 KCAL/MOL
REMARK 927      BINDING AFFINITY PREDICTED BY RF-SCORE:    0.00 PKD
ROOT
HETATM    1  C   UNL     1     -10.284   8.279  66.745  1.00  0.00    -0.304 C  
HETATM    2  C   UNL     1     -10.956   6.966  67.099  1.00  0.00    -0.427 C  
HETATM    3  C   UNL     1      -9.855   5.989  66.772  1.00  0.00    -0.163 C  
HETATM    4  O   UNL     1     -10.067   4.797  66.594  1.00  0.00    -0.210 OA 
HETATM    5  C   UNL     1      -8.485   6.654  66.661  1.00  0.00    -0.120 C  
HETATM    6  C   UNL     1     -10.101  10.612  67.258  1.00  0.00    -0.199 C  
HETATM    7  C   UNL     1      -8.833   8.064  67.134  1.00  0.00    -0.138 C  
HETATM    8  C   UNL     1      -8.026   9.218  66.569  1.00  0.00    -0.104 C  
HETATM    9  O   UNL     1     -10.778   9.363  67.507  1.00  0.00    -0.280 OA 
HETATM   10  C   UNL     1      -8.547  10.496  67.229  1.00  0.00    -0.122 C  
HETATM   11  O   UNL     1     -10.572  11.113  66.001  1.00  0.00    -0.256 OA 
HETATM   12  H   UNL     1     -11.519  11.184  66.019  1.00  0.00     0.000 HD 
ENDROOT
BRANCH   5  13
HETATM   13  C   UNL     1      -7.416   6.065  67.584  1.00  0.00    -0.078 C  
BRANCH  13  14
HETATM   14  C   UNL     1      -7.852   5.941  69.037  1.00  0.00    -0.095 C  
BRANCH  14  15
HETATM   15  C   UNL     1      -6.935   6.753  69.949  1.00  0.00    -0.059 C  
BRANCH  15  16
HETATM   16  C   UNL     1      -7.323   6.540  71.408  1.00  0.00    -0.084 C  
BRANCH  16  17
HETATM   17  C   UNL     1      -8.240   5.332  71.566  1.00  0.00    -0.117 C  
BRANCH  17  18
HETATM   18  C   UNL     1      -9.469   5.689  72.396  1.00  0.00    -0.157 C  
HETATM   19  O   UNL     1     -11.481   4.814  73.311  1.00  0.00    -0.332 OA 
HETATM   20  C   UNL     1     -10.388   4.506  72.574  1.00  0.00    -0.195 C  
HETATM   21  O   UNL     1     -10.203   3.388  72.119  1.00  0.00    -0.153 OA 
ENDBRANCH  17  18
ENDBRANCH  16  17
ENDBRANCH  15  16
ENDBRANCH  14  15
ENDBRANCH  13  14
ENDBRANCH   5  13
BRANCH   6  22
HETATM   22  C   UNL     1     -10.486  11.594  68.412  1.00  0.00    -0.213 C  
HETATM   23  F   UNL     1     -10.397  10.934  69.607  1.00  0.00    -0.246 F  
HETATM   24  F   UNL     1      -9.573  12.604  68.477  1.00  0.00    -0.210 F  
BRANCH  22  25
HETATM   25  C   UNL     1     -11.886  12.183  68.289  1.00  0.00    -0.361 C  
BRANCH  25  26
HETATM   26  C   UNL     1     -11.950  13.583  68.902  1.00  0.00    -0.378 C  
BRANCH  26  27
HETATM   27  C   UNL     1     -12.286  13.518  70.389  1.00  0.00    -0.426 C  
HETATM   28  C   UNL     1     -12.897  14.821  70.874  1.00  0.00    -0.423 C  
ENDBRANCH  26  27
ENDBRANCH  25  26
ENDBRANCH  22  25
ENDBRANCH   6  22
TORSDOF 10
ENDMDL
MODEL      258
REMARK 921   NORMALIZED FREE ENERGY PREDICTED BY IDOCK:   -3.40 KCAL/MOL
REMARK 922        TOTAL FREE ENERGY PREDICTED BY IDOCK:   -7.16 KCAL/MOL
REMARK 923 INTER-LIGAND FREE ENERGY PREDICTED BY IDOCK:   -6.04 KCAL/MOL
REMARK 924 INTRA-LIGAND FREE ENERGY PREDICTED BY IDOCK:   -1.12 KCAL/MOL
REMARK 927      BINDING AFFINITY PREDICTED BY RF-SCORE:    0.00 PKD
ROOT
HETATM    1  C   UNL     1     -10.420  11.996  69.097  1.00  0.00     0.033 C  
HETATM    2  C   UNL     1     -11.798  12.580  68.850  1.00  0.00    -0.346 C  
HETATM    3  C   UNL     1     -11.435  13.935  68.298  1.00  0.00    -0.311 C  
HETATM    4  O   UNL     1     -12.229  14.866  68.269  1.00  0.00    -0.170 OA 
HETATM    5  C   UNL     1      -9.986  14.013  67.821  1.00  0.00    -0.236 C  
HETATM    6  C   UNL     1      -9.093  10.002  69.142  1.00  0.00    -0.184 C  
HETATM    7  C   UNL     1      -9.580  12.548  67.959  1.00  0.00    -0.212 C  
HETATM    8  C   UNL     1      -8.126  12.244  68.268  1.00  0.00    -0.166 C  
HETATM    9  O   UNL     1     -10.404  10.585  68.999  1.00  0.00    -0.189 OA 
HETATM   10  C   UNL     1      -7.985  10.720  68.314  1.00  0.00    -0.118 C  
HETATM   11  O   UNL     1      -8.756  10.038  70.534  1.00  0.00    -0.342 OA 
HETATM   12  H   UNL     1      -9.431   9.600  71.039  1.00  0.00     0.000 HD 
ENDROOT
BRANCH   5  13
HETATM   13  C   UNL     1      -9.820  14.445  66.363  1.00  0.00    -0.309 C  
BRANCH  13  14
HETATM   14  C   UNL     1     -11.036  15.154  65.784  1.00  0.00    -0.330 C  
BRANCH  14  15
HETATM   15  C   UNL     1     -11.318  14.674  64.362  1.00  0.00    -0.238 C  
BRANCH  15  16
HETATM   16  C   UNL     1     -11.554  13.167  64.355  1.00  0.00    -0.422 C  
BRANCH  16  17
HETATM   17  C   UNL     1     -10.460  12.439  63.582  1.00  0.00    -0.460 C  
BRANCH  17  18
HETATM   18  C   UNL     1      -9.856  11.319  64.424  1.00  0.00    -0.316 C  
HETATM   19  O   UNL     1      -8.868   9.160  64.309  1.00  0.00    -0.186 OA 
HETATM   20  C   UNL     1      -9.406  10.158  63.571  1.00  0.00    -0.290 C  
HETATM   21  O   UNL     1      -9.504  10.090  62.356  1.00  0.00    -0.295 OA 
ENDBRANCH  17  18
ENDBRANCH  16  17
ENDBRANCH  15  16
ENDBRANCH  14  15
ENDBRANCH  13  14
ENDBRANCH   5  13
BRANCH   6  22
HETATM   22  C   UNL     1      -9.179   8.523  68.644  1.00  0.00    -0.142 C  
HETATM   23  F   UNL     1     -10.441   8.285  68.171  1.00  0.00    -0.229 F  
HETATM   24  F   UNL     1      -8.346   8.349  67.579  1.00  0.00    -0.121 F  
BRANCH  22  25
HETATM   25  C   UNL     1      -8.860   7.485  69.713  1.00  0.00    -0.141 C  
BRANCH  25  26
HETATM   26  C   UNL     1      -7.993   6.359  69.146  1.00  0.00    -0.111 C  
BRANCH  26  27
HETATM   27  C   UNL     1      -8.726   5.021  69.195  1.00  0.00    -0.106 C  
HETATM   28  C   UNL     1      -8.486   4.308  70.514  1.00  0.00    -0.100 C  
ENDBRANCH  26  27
ENDBRANCH  25  26
ENDBRANCH  22  25
ENDBRANCH   6  22
TORSDOF 10
ENDMDL
MODEL      259
REMARK 921   NORMALIZED FREE ENERGY PREDICTED BY IDOCK:   -3.38 KCAL/MOL
REMARK 922        TOTAL FREE ENERGY PREDICTED BY IDOCK:   -7.13 KCAL/MOL
REMARK 923 INTER-LIGAND FREE ENERGY PREDICTED BY IDOCK:   -5.91 KCAL/MOL
REMARK 924 INTRA-LIGAND FREE ENERGY PREDICTED BY IDOCK:   -1.22 KCAL/MOL
REMARK 927      BINDING AFFINITY PREDICTED BY RF-SCORE:    0.00 PKD
ROOT
HETATM    1  C   UNL     1      -8.679   9.277  68.019  1.00  0.00    -0.125 C  
HETATM    2  C   UNL     1      -9.535   9.385  66.772  1.00  0.00    -0.217 C  
HETATM    3  C   UNL     1      -8.623   8.759  65.748  1.00  0.00    -0.164 C  
HETATM    4  O   UNL     1      -8.769   8.931  64.546  1.00  0.00    -0.168 OA 
HETATM    5  C   UNL     1      -7.504   7.931  66.378  1.00  0.00    -0.087 C  
HETATM    6  C   UNL     1      -8.671   8.986  70.397  1.00  0.00    -0.199 C  
HETATM    7  C   UNL     1      -7.938   7.964  67.841  1.00  0.00    -0.128 C  
HETATM    8  C   UNL     1      -6.856   7.895  68.901  1.00  0.00    -0.058 C  
HETATM    9  O   UNL     1      -9.451   9.178  69.200  1.00  0.00    -0.153 OA 
HETATM   10  C   UNL     1      -7.557   7.905  70.262  1.00  0.00    -0.086 C  
HETATM   11  O   UNL     1      -8.081  10.247  70.734  1.00  0.00    -0.246 OA 
HETATM   12  H   UNL     1      -8.760  10.907  70.817  1.00  0.00     0.000 HD 
ENDROOT
BRANCH   5  13
HETATM   13  C   UNL     1      -7.445   6.479  65.903  1.00  0.00    -0.081 C  
BRANCH  13  14
HETATM   14  C   UNL     1      -8.037   6.254  64.518  1.00  0.00    -0.102 C  
BRANCH  14  15
HETATM   15  C   UNL     1      -8.254   4.766  64.257  1.00  0.00    -0.117 C  
BRANCH  15  16
HETATM   16  C   UNL     1      -8.557   4.042  65.564  1.00  0.00    -0.114 C  
BRANCH  16  17
HETATM   17  C   UNL     1     -10.014   4.224  65.973  1.00  0.00    -0.234 C  
BRANCH  17  18
HETATM   18  C   UNL     1     -10.119   4.628  67.440  1.00  0.00    -0.150 C  
HETATM   19  O   UNL     1     -10.992   6.278  68.913  1.00  0.00    -0.306 OA 
HETATM   20  C   UNL     1     -10.892   5.913  67.614  1.00  0.00    -0.239 C  
HETATM   21  O   UNL     1     -11.382   6.573  66.712  1.00  0.00    -0.272 OA 
ENDBRANCH  17  18
ENDBRANCH  16  17
ENDBRANCH  15  16
ENDBRANCH  14  15
ENDBRANCH  13  14
ENDBRANCH   5  13
BRANCH   6  22
HETATM   22  C   UNL     1      -9.649   8.526  71.527  1.00  0.00    -0.228 C  
HETATM   23  F   UNL     1      -9.787   7.167  71.471  1.00  0.00    -0.171 F  
HETATM   24  F   UNL     1      -9.097   8.792  72.745  1.00  0.00    -0.310 F  
BRANCH  22  25
HETATM   25  C   UNL     1     -11.034   9.157  71.449  1.00  0.00    -0.414 C  
BRANCH  25  26
HETATM   26  C   UNL     1     -12.044   8.373  72.290  1.00  0.00    -0.456 C  
BRANCH  26  27
HETATM   27  C   UNL     1     -13.463   8.888  72.066  1.00  0.00    -0.482 C  
HETATM   28  C   UNL     1     -14.396   7.767  71.644  1.00  0.00    -0.607 C  
ENDBRANCH  26  27
ENDBRANCH  25  26
ENDBRANCH  22  25
ENDBRANCH   6  22
TORSDOF 10
ENDMDL
MODEL      260
REMARK 921   NORMALIZED FREE ENERGY PREDICTED BY IDOCK:   -3.36 KCAL/MOL
REMARK 922        TOTAL FREE ENERGY PREDICTED BY IDOCK:   -7.11 KCAL/MOL
REMARK 923 INTER-LIGAND FREE ENERGY PREDICTED BY IDOCK:   -5.76 KCAL/MOL
REMARK 924 INTRA-LIGAND FREE ENERGY PREDICTED BY IDOCK:   -1.34 KCAL/MOL
REMARK 927      BINDING AFFINITY PREDICTED BY RF-SCORE:    0.00 PKD
ROOT
HETATM    1  C   UNL     1     -11.283   9.307  68.696  1.00  0.00     0.235 C  
HETATM    2  C   UNL     1     -10.452   9.427  67.433  1.00  0.00    -0.343 C  
HETATM    3  C   UNL     1     -10.802  10.827  66.997  1.00  0.00    -0.252 C  
HETATM    4  O   UNL     1     -10.617  11.224  65.854  1.00  0.00    -0.258 OA 
HETATM    5  C   UNL     1     -11.427  11.658  68.116  1.00  0.00    -0.382 C  
HETATM    6  C   UNL     1     -11.430   8.350  70.887  1.00  0.00    -0.267 C  
HETATM    7  C   UNL     1     -11.245  10.703  69.292  1.00  0.00    -0.332 C  
HETATM    8  C   UNL     1     -12.268  10.756  70.411  1.00  0.00    -0.437 C  
HETATM    9  O   UNL     1     -10.713   8.421  69.639  1.00  0.00    -0.232 OA 
HETATM   10  C   UNL     1     -11.834   9.738  71.467  1.00  0.00    -0.476 C  
HETATM   11  O   UNL     1     -12.605   7.560  70.663  1.00  0.00    -0.545 OA 
HETATM   12  H   UNL     1     -12.359   6.713  70.309  1.00  0.00     0.000 HD 
ENDROOT
BRANCH   5  13
HETATM   13  C   UNL     1     -10.698  12.969  68.416  1.00  0.00    -0.273 C  
BRANCH  13  14
HETATM   14  C   UNL     1      -9.417  13.164  67.616  1.00  0.00    -0.207 C  
BRANCH  14  15
HETATM   15  C   UNL     1      -8.207  12.663  68.402  1.00  0.00    -0.129 C  
BRANCH  15  16
HETATM   16  C   UNL     1      -7.288  11.856  67.491  1.00  0.00    -0.132 C  
BRANCH  16  17
HETATM   17  C   UNL     1      -5.982  11.504  68.194  1.00  0.00    -0.045 C  
BRANCH  17  18
HETATM   18  C   UNL     1      -6.150  10.257  69.056  1.00  0.00    -0.037 C  
HETATM   19  O   UNL     1      -5.874   9.401  71.257  1.00  0.00    -0.064 OA 
HETATM   20  C   UNL     1      -5.727  10.502  70.484  1.00  0.00    -0.097 C  
HETATM   21  O   UNL     1      -5.295  11.556  70.925  1.00  0.00    -0.123 OA 
ENDBRANCH  17  18
ENDBRANCH  16  17
ENDBRANCH  15  16
ENDBRANCH  14  15
ENDBRANCH  13  14
ENDBRANCH   5  13
BRANCH   6  22
HETATM   22  C   UNL     1     -10.497   7.648  71.927  1.00  0.00    -0.215 C  
HETATM   23  F   UNL     1     -10.608   8.292  73.129  1.00  0.00    -0.387 F  
HETATM   24  F   UNL     1     -10.933   6.376  72.148  1.00  0.00    -0.242 F  
BRANCH  22  25
HETATM   25  C   UNL     1      -9.027   7.620  71.528  1.00  0.00    -0.148 C  
BRANCH  25  26
HETATM   26  C   UNL     1      -8.445   6.212  71.673  1.00  0.00    -0.130 C  
BRANCH  26  27
HETATM   27  C   UNL     1      -8.419   5.486  70.331  1.00  0.00    -0.122 C  
HETATM   28  C   UNL     1      -8.697   4.003  70.501  1.00  0.00    -0.120 C  
ENDBRANCH  26  27
ENDBRANCH  25  26
ENDBRANCH  22  25
ENDBRANCH   6  22
TORSDOF 10
ENDMDL
MODEL      261
REMARK 921   NORMALIZED FREE ENERGY PREDICTED BY IDOCK:   -3.36 KCAL/MOL
REMARK 922        TOTAL FREE ENERGY PREDICTED BY IDOCK:   -7.10 KCAL/MOL
REMARK 923 INTER-LIGAND FREE ENERGY PREDICTED BY IDOCK:   -6.08 KCAL/MOL
REMARK 924 INTRA-LIGAND FREE ENERGY PREDICTED BY IDOCK:   -1.02 KCAL/MOL
REMARK 927      BINDING AFFINITY PREDICTED BY RF-SCORE:    0.00 PKD
ROOT
HETATM    1  C   UNL     1     -10.388  13.389  64.469  1.00  0.00    -0.373 C  
HETATM    2  C   UNL     1      -9.787  14.745  64.787  1.00  0.00     0.301 C  
HETATM    3  C   UNL     1     -10.896  15.359  65.603  1.00  0.00    -0.355 C  
HETATM    4  O   UNL     1     -10.981  16.565  65.792  1.00  0.00    -0.168 OA 
HETATM    5  C   UNL     1     -11.891  14.325  66.127  1.00  0.00    -0.413 C  
HETATM    6  C   UNL     1      -9.941  11.069  64.072  1.00  0.00    -0.335 C  
HETATM    7  C   UNL     1     -11.180  13.038  65.716  1.00  0.00    -0.316 C  
HETATM    8  C   UNL     1     -12.038  11.829  65.394  1.00  0.00     0.247 C  
HETATM    9  O   UNL     1      -9.404  12.388  64.289  1.00  0.00     0.235 OA 
HETATM   10  C   UNL     1     -11.086  10.679  65.054  1.00  0.00     0.400 C  
HETATM   11  O   UNL     1     -10.424  11.017  62.724  1.00  0.00    -0.756 OA 
HETATM   12  H   UNL     1      -9.726  11.255  62.124  1.00  0.00     0.000 HD 
ENDROOT
BRANCH   5  13
HETATM   13  C   UNL     1     -12.075  14.334  67.645  1.00  0.00    -0.332 C  
BRANCH  13  14
HETATM   14  C   UNL     1     -10.839  13.904  68.423  1.00  0.00    -0.269 C  
BRANCH  14  15
HETATM   15  C   UNL     1     -10.187  15.101  69.110  1.00  0.00    -0.249 C  
BRANCH  15  16
HETATM   16  C   UNL     1     -10.452  15.053  70.611  1.00  0.00     0.117 C  
BRANCH  16  17
HETATM   17  C   UNL     1     -11.688  15.867  70.980  1.00  0.00    -0.473 C  
BRANCH  17  18
HETATM   18  C   UNL     1     -11.666  16.245  72.458  1.00  0.00    -0.493 C  
HETATM   19  O   UNL     1     -12.929  16.175  74.471  1.00  0.00    -0.559 OA 
HETATM   20  C   UNL     1     -12.941  15.844  73.158  1.00  0.00    -0.549 C  
HETATM   21  O   UNL     1     -13.894  15.289  72.634  1.00  0.00    -0.480 OA 
ENDBRANCH  17  18
ENDBRANCH  16  17
ENDBRANCH  15  16
ENDBRANCH  14  15
ENDBRANCH  13  14
ENDBRANCH   5  13
BRANCH   6  22
HETATM   22  C   UNL     1      -8.774  10.047  64.268  1.00  0.00    -0.206 C  
HETATM   23  F   UNL     1      -9.048   8.916  63.549  1.00  0.00    -0.125 F  
HETATM   24  F   UNL     1      -7.627  10.555  63.734  1.00  0.00    -0.143 F  
BRANCH  22  25
HETATM   25  C   UNL     1      -8.527   9.651  65.718  1.00  0.00    -0.142 C  
BRANCH  25  26
HETATM   26  C   UNL     1      -8.701   8.144  65.915  1.00  0.00    -0.184 C  
BRANCH  26  27
HETATM   27  C   UNL     1     -10.103   7.813  66.419  1.00  0.00    -0.124 C  
HETATM   28  C   UNL     1     -10.518   8.742  67.546  1.00  0.00    -0.340 C  
ENDBRANCH  26  27
ENDBRANCH  25  26
ENDBRANCH  22  25
ENDBRANCH   6  22
TORSDOF 10
ENDMDL
MODEL      262
REMARK 921   NORMALIZED FREE ENERGY PREDICTED BY IDOCK:   -3.32 KCAL/MOL
REMARK 922        TOTAL FREE ENERGY PREDICTED BY IDOCK:   -7.04 KCAL/MOL
REMARK 923 INTER-LIGAND FREE ENERGY PREDICTED BY IDOCK:   -6.65 KCAL/MOL
REMARK 924 INTRA-LIGAND FREE ENERGY PREDICTED BY IDOCK:   -0.40 KCAL/MOL
REMARK 927      BINDING AFFINITY PREDICTED BY RF-SCORE:    0.00 PKD
ROOT
HETATM    1  C   UNL     1     -10.250  10.138  65.858  1.00  0.00    -0.211 C  
HETATM    2  C   UNL     1      -9.797  11.106  64.782  1.00  0.00    -0.326 C  
HETATM    3  C   UNL     1     -10.672  12.295  65.087  1.00  0.00    -0.293 C  
HETATM    4  O   UNL     1     -10.879  13.184  64.271  1.00  0.00    -0.374 OA 
HETATM    5  C   UNL     1     -11.279  12.242  66.487  1.00  0.00    -0.373 C  
HETATM    6  C   UNL     1      -9.599   8.355  67.320  1.00  0.00    -0.165 C  
HETATM    7  C   UNL     1     -10.545  11.029  67.051  1.00  0.00    -0.303 C  
HETATM    8  C   UNL     1     -11.263  10.188  68.090  1.00  0.00    -0.245 C  
HETATM    9  O   UNL     1      -9.231   9.233  66.237  1.00  0.00    -0.160 OA 
HETATM   10  C   UNL     1     -10.301   9.074  68.510  1.00  0.00    -0.233 C  
HETATM   11  O   UNL     1     -10.469   7.351  66.782  1.00  0.00    -0.404 OA 
HETATM   12  H   UNL     1     -10.040   6.912  66.056  1.00  0.00     0.000 HD 
ENDROOT
BRANCH   5  13
HETATM   13  C   UNL     1     -10.975  13.463  67.357  1.00  0.00    -0.287 C  
BRANCH  13  14
HETATM   14  C   UNL     1     -12.014  13.729  68.438  1.00  0.00    -0.395 C  
BRANCH  14  15
HETATM   15  C   UNL     1     -11.548  13.179  69.784  1.00  0.00    -0.291 C  
BRANCH  15  16
HETATM   16  C   UNL     1     -12.299  13.867  70.920  1.00  0.00    -0.451 C  
BRANCH  16  17
HETATM   17  C   UNL     1     -13.535  13.073  71.326  1.00  0.00     0.059 C  
BRANCH  17  18
HETATM   18  C   UNL     1     -13.170  11.969  72.314  1.00  0.00    -0.235 C  
HETATM   19  O   UNL     1     -12.879   9.620  72.537  1.00  0.00    -0.302 OA 
HETATM   20  C   UNL     1     -13.203  10.606  71.668  1.00  0.00    -0.392 C  
HETATM   21  O   UNL     1     -13.488  10.380  70.502  1.00  0.00    -0.142 OA 
ENDBRANCH  17  18
ENDBRANCH  16  17
ENDBRANCH  15  16
ENDBRANCH  14  15
ENDBRANCH  13  14
ENDBRANCH   5  13
BRANCH   6  22
HETATM   22  C   UNL     1      -8.287   7.701  67.862  1.00  0.00    -0.123 C  
HETATM   23  F   UNL     1      -8.084   6.510  67.218  1.00  0.00    -0.107 F  
HETATM   24  F   UNL     1      -7.218   8.483  67.538  1.00  0.00    -0.078 F  
BRANCH  22  25
HETATM   25  C   UNL     1      -8.291   7.444  69.364  1.00  0.00    -0.132 C  
BRANCH  25  26
HETATM   26  C   UNL     1      -9.526   6.644  69.782  1.00  0.00    -0.150 C  
BRANCH  26  27
HETATM   27  C   UNL     1      -9.990   7.040  71.181  1.00  0.00    -0.191 C  
HETATM   28  C   UNL     1     -11.181   6.207  71.624  1.00  0.00    -0.342 C  
ENDBRANCH  26  27
ENDBRANCH  25  26
ENDBRANCH  22  25
ENDBRANCH   6  22
TORSDOF 10
ENDMDL
MODEL      263
REMARK 921   NORMALIZED FREE ENERGY PREDICTED BY IDOCK:   -3.27 KCAL/MOL
REMARK 922        TOTAL FREE ENERGY PREDICTED BY IDOCK:   -6.96 KCAL/MOL
REMARK 923 INTER-LIGAND FREE ENERGY PREDICTED BY IDOCK:   -6.30 KCAL/MOL
REMARK 924 INTRA-LIGAND FREE ENERGY PREDICTED BY IDOCK:   -0.65 KCAL/MOL
REMARK 927      BINDING AFFINITY PREDICTED BY RF-SCORE:    0.00 PKD
ROOT
HETATM    1  C   UNL     1      -7.869   8.478  69.734  1.00  0.00    -0.094 C  
HETATM    2  C   UNL     1      -6.964   9.628  70.133  1.00  0.00    -0.105 C  
HETATM    3  C   UNL     1      -7.056  10.498  68.905  1.00  0.00    -0.074 C  
HETATM    4  O   UNL     1      -6.231  11.366  68.653  1.00  0.00    -0.046 OA 
HETATM    5  C   UNL     1      -8.253  10.153  68.021  1.00  0.00    -0.113 C  
HETATM    6  C   UNL     1      -9.416   6.817  70.500  1.00  0.00    -0.169 C  
HETATM    7  C   UNL     1      -8.963   9.141  68.917  1.00  0.00    -0.139 C  
HETATM    8  C   UNL     1      -9.768   8.045  68.244  1.00  0.00    -0.177 C  
HETATM    9  O   UNL     1      -8.481   7.857  70.848  1.00  0.00    -0.121 OA 
HETATM   10  C   UNL     1     -10.400   7.204  69.356  1.00  0.00    -0.206 C  
HETATM   11  O   UNL     1      -8.655   5.666  70.114  1.00  0.00    -0.122 OA 
HETATM   12  H   UNL     1      -8.055   5.429  70.812  1.00  0.00     0.000 HD 
ENDROOT
BRANCH   5  13
HETATM   13  C   UNL     1      -9.194  11.325  67.742  1.00  0.00    -0.156 C  
BRANCH  13  14
HETATM   14  C   UNL     1      -9.608  11.454  66.282  1.00  0.00    -0.237 C  
BRANCH  14  15
HETATM   15  C   UNL     1     -11.125  11.359  66.138  1.00  0.00    -0.259 C  
BRANCH  15  16
HETATM   16  C   UNL     1     -11.718  12.745  65.906  1.00  0.00    -0.464 C  
BRANCH  16  17
HETATM   17  C   UNL     1     -11.471  13.220  64.479  1.00  0.00    -0.399 C  
BRANCH  17  18
HETATM   18  C   UNL     1     -11.949  14.657  64.296  1.00  0.00    -0.406 C  
HETATM   19  O   UNL     1     -11.329  16.933  64.598  1.00  0.00    -0.841 OA 
HETATM   20  C   UNL     1     -10.914  15.654  64.758  1.00  0.00    -0.400 C  
HETATM   21  O   UNL     1      -9.822  15.377  65.228  1.00  0.00    -0.302 OA 
ENDBRANCH  17  18
ENDBRANCH  16  17
ENDBRANCH  15  16
ENDBRANCH  14  15
ENDBRANCH  13  14
ENDBRANCH   5  13
BRANCH   6  22
HETATM   22  C   UNL     1     -10.264   6.501  71.775  1.00  0.00    -0.188 C  
HETATM   23  F   UNL     1     -11.574   6.808  71.525  1.00  0.00    -0.279 F  
HETATM   24  F   UNL     1     -10.239   5.161  72.021  1.00  0.00    -0.219 F  
BRANCH  22  25
HETATM   25  C   UNL     1      -9.821   7.255  73.023  1.00  0.00    -0.254 C  
BRANCH  25  26
HETATM   26  C   UNL     1      -8.406   6.846  73.440  1.00  0.00    -0.133 C  
BRANCH  26  27
HETATM   27  C   UNL     1      -7.786   7.882  74.374  1.00  0.00    -0.268 C  
HETATM   28  C   UNL     1      -6.388   8.263  73.923  1.00  0.00    -0.131 C  
ENDBRANCH  26  27
ENDBRANCH  25  26
ENDBRANCH  22  25
ENDBRANCH   6  22
TORSDOF 10
ENDMDL
MODEL      264
REMARK 921   NORMALIZED FREE ENERGY PREDICTED BY IDOCK:   -3.21 KCAL/MOL
REMARK 922        TOTAL FREE ENERGY PREDICTED BY IDOCK:   -6.86 KCAL/MOL
REMARK 923 INTER-LIGAND FREE ENERGY PREDICTED BY IDOCK:   -5.66 KCAL/MOL
REMARK 924 INTRA-LIGAND FREE ENERGY PREDICTED BY IDOCK:   -1.21 KCAL/MOL
REMARK 927      BINDING AFFINITY PREDICTED BY RF-SCORE:    0.00 PKD
ROOT
HETATM    1  C   UNL     1      -8.490  14.152  68.855  1.00  0.00     0.002 C  
HETATM    2  C   UNL     1      -8.775  15.617  69.124  1.00  0.00    -0.251 C  
HETATM    3  C   UNL     1      -7.374  16.154  69.269  1.00  0.00    -0.231 C  
HETATM    4  O   UNL     1      -7.134  17.222  69.816  1.00  0.00     0.063 OA 
HETATM    5  C   UNL     1      -6.315  15.214  68.695  1.00  0.00    -0.088 C  
HETATM    6  C   UNL     1      -9.214  12.169  67.722  1.00  0.00    -0.189 C  
HETATM    7  C   UNL     1      -7.213  14.173  68.033  1.00  0.00    -0.146 C  
HETATM    8  C   UNL     1      -6.697  12.749  67.944  1.00  0.00    -0.116 C  
HETATM    9  O   UNL     1      -9.495  13.539  68.071  1.00  0.00    -0.206 OA 
HETATM   10  C   UNL     1      -7.762  11.929  67.212  1.00  0.00    -0.164 C  
HETATM   11  O   UNL     1      -9.454  11.370  68.887  1.00  0.00    -0.343 OA 
HETATM   12  H   UNL     1     -10.340  11.516  69.198  1.00  0.00     0.000 HD 
ENDROOT
BRANCH   5  13
HETATM   13  C   UNL     1      -5.413  15.847  67.634  1.00  0.00    -0.147 C  
BRANCH  13  14
HETATM   14  C   UNL     1      -6.167  16.611  66.555  1.00  0.00     0.099 C  
BRANCH  14  15
HETATM   15  C   UNL     1      -6.116  18.114  66.820  1.00  0.00    -0.187 C  
BRANCH  15  16
HETATM   16  C   UNL     1      -7.333  18.797  66.203  1.00  0.00    -0.292 C  
BRANCH  16  17
HETATM   17  C   UNL     1      -8.279  19.319  67.279  1.00  0.00    -0.304 C  
BRANCH  17  18
HETATM   18  C   UNL     1      -9.326  20.249  66.675  1.00  0.00    -0.460 C  
HETATM   19  O   UNL     1     -11.261  20.313  65.295  1.00  0.00    -0.062 OA 
HETATM   20  C   UNL     1     -10.327  19.495  65.834  1.00  0.00    -0.470 C  
HETATM   21  O   UNL     1     -10.324  18.291  65.638  1.00  0.00    -0.607 OA 
ENDBRANCH  17  18
ENDBRANCH  16  17
ENDBRANCH  15  16
ENDBRANCH  14  15
ENDBRANCH  13  14
ENDBRANCH   5  13
BRANCH   6  22
HETATM   22  C   UNL     1     -10.197  11.764  66.576  1.00  0.00    -0.208 C  
HETATM   23  F   UNL     1     -10.265  10.399  66.509  1.00  0.00    -0.247 F  
HETATM   24  F   UNL     1     -11.458  12.182  66.885  1.00  0.00    -0.328 F  
BRANCH  22  25
HETATM   25  C   UNL     1      -9.809  12.297  65.202  1.00  0.00    -0.178 C  
BRANCH  25  26
HETATM   26  C   UNL     1     -10.206  13.766  65.049  1.00  0.00    -0.370 C  
BRANCH  26  27
HETATM   27  C   UNL     1     -11.250  13.942  63.949  1.00  0.00     0.120 C  
HETATM   28  C   UNL     1     -12.527  14.555  64.493  1.00  0.00    -0.346 C  
ENDBRANCH  26  27
ENDBRANCH  25  26
ENDBRANCH  22  25
ENDBRANCH   6  22
TORSDOF 10
ENDMDL
MODEL      265
REMARK 921   NORMALIZED FREE ENERGY PREDICTED BY IDOCK:   -3.19 KCAL/MOL
REMARK 922        TOTAL FREE ENERGY PREDICTED BY IDOCK:   -6.84 KCAL/MOL
REMARK 923 INTER-LIGAND FREE ENERGY PREDICTED BY IDOCK:   -4.44 KCAL/MOL
REMARK 924 INTRA-LIGAND FREE ENERGY PREDICTED BY IDOCK:   -2.40 KCAL/MOL
REMARK 927      BINDING AFFINITY PREDICTED BY RF-SCORE:    0.00 PKD
ROOT
HETATM    1  C   UNL     1      -9.822   6.937  72.084  1.00  0.00    -0.147 C  
HETATM    2  C   UNL     1      -8.822   6.674  73.194  1.00  0.00    -0.135 C  
HETATM    3  C   UNL     1      -9.033   5.199  73.420  1.00  0.00    -0.119 C  
HETATM    4  O   UNL     1      -8.674   4.634  74.444  1.00  0.00    -0.108 OA 
HETATM    5  C   UNL     1      -9.758   4.518  72.260  1.00  0.00    -0.217 C  
HETATM    6  C   UNL     1     -10.316   8.229  70.128  1.00  0.00    -0.212 C  
HETATM    7  C   UNL     1      -9.789   5.666  71.254  1.00  0.00    -0.225 C  
HETATM    8  C   UNL     1     -10.949   5.720  70.279  1.00  0.00    -0.347 C  
HETATM    9  O   UNL     1      -9.433   8.008  71.246  1.00  0.00    -0.151 OA 
HETATM   10  C   UNL     1     -10.718   6.929  69.370  1.00  0.00    -0.275 C  
HETATM   11  O   UNL     1     -11.490   8.879  70.629  1.00  0.00    -0.266 OA 
HETATM   12  H   UNL     1     -11.245   9.672  71.092  1.00  0.00     0.000 HD 
ENDROOT
BRANCH   5  13
HETATM   13  C   UNL     1      -9.006   3.335  71.649  1.00  0.00    -0.153 C  
BRANCH  13  14
HETATM   14  C   UNL     1      -7.800   3.733  70.808  1.00  0.00    -0.051 C  
BRANCH  14  15
HETATM   15  C   UNL     1      -7.779   2.960  69.492  1.00  0.00    -0.045 C  
BRANCH  15  16
HETATM   16  C   UNL     1      -9.185   2.881  68.907  1.00  0.00    -0.228 C  
BRANCH  16  17
HETATM   17  C   UNL     1      -9.146   2.757  67.388  1.00  0.00    -0.208 C  
BRANCH  17  18
HETATM   18  C   UNL     1      -8.492   3.984  66.761  1.00  0.00    -0.104 C  
HETATM   19  O   UNL     1      -8.944   6.087  65.749  1.00  0.00    -0.156 OA 
HETATM   20  C   UNL     1      -9.516   4.994  66.305  1.00  0.00    -0.157 C  
HETATM   21  O   UNL     1     -10.727   4.872  66.407  1.00  0.00    -0.281 OA 
ENDBRANCH  17  18
ENDBRANCH  16  17
ENDBRANCH  15  16
ENDBRANCH  14  15
ENDBRANCH  13  14
ENDBRANCH   5  13
BRANCH   6  22
HETATM   22  C   UNL     1      -9.571   9.162  69.118  1.00  0.00    -0.161 C  
HETATM   23  F   UNL     1     -10.469   9.626  68.196  1.00  0.00    -0.203 F  
HETATM   24  F   UNL     1      -9.108  10.266  69.770  1.00  0.00    -0.210 F  
BRANCH  22  25
HETATM   25  C   UNL     1      -8.422   8.490  68.378  1.00  0.00    -0.138 C  
BRANCH  25  26
HETATM   26  C   UNL     1      -7.084   9.147  68.724  1.00  0.00    -0.073 C  
BRANCH  26  27
HETATM   27  C   UNL     1      -6.116   8.137  69.334  1.00  0.00    -0.034 C  
HETATM   28  C   UNL     1      -5.904   8.400  70.814  1.00  0.00    -0.032 C  
ENDBRANCH  26  27
ENDBRANCH  25  26
ENDBRANCH  22  25
ENDBRANCH   6  22
TORSDOF 10
ENDMDL
MODEL      266
REMARK 921   NORMALIZED FREE ENERGY PREDICTED BY IDOCK:   -3.13 KCAL/MOL
REMARK 922        TOTAL FREE ENERGY PREDICTED BY IDOCK:   -6.74 KCAL/MOL
REMARK 923 INTER-LIGAND FREE ENERGY PREDICTED BY IDOCK:   -5.47 KCAL/MOL
REMARK 924 INTRA-LIGAND FREE ENERGY PREDICTED BY IDOCK:   -1.27 KCAL/MOL
REMARK 927      BINDING AFFINITY PREDICTED BY RF-SCORE:    0.00 PKD
ROOT
HETATM    1  C   UNL     1      -7.425   9.873  67.251  1.00  0.00    -0.087 C  
HETATM    2  C   UNL     1      -6.725  10.868  68.157  1.00  0.00    -0.063 C  
HETATM    3  C   UNL     1      -7.518  12.117  67.869  1.00  0.00    -0.117 C  
HETATM    4  O   UNL     1      -7.097  13.237  68.130  1.00  0.00    -0.086 OA 
HETATM    5  C   UNL     1      -8.861  11.828  67.201  1.00  0.00    -0.173 C  
HETATM    6  C   UNL     1      -8.085   7.590  66.952  1.00  0.00    -0.116 C  
HETATM    7  C   UNL     1      -8.880  10.304  67.290  1.00  0.00    -0.136 C  
HETATM    8  C   UNL     1      -9.618   9.542  66.205  1.00  0.00    -0.287 C  
HETATM    9  O   UNL     1      -7.355   8.549  67.743  1.00  0.00    -0.089 OA 
HETATM   10  C   UNL     1      -9.517   8.055  66.551  1.00  0.00    -0.278 C  
HETATM   11  O   UNL     1      -7.314   7.329  65.773  1.00  0.00    -0.071 OA 
HETATM   12  H   UNL     1      -6.440   7.045  66.018  1.00  0.00     0.000 HD 
ENDROOT
BRANCH   5  13
HETATM   13  C   UNL     1     -10.074  12.390  67.945  1.00  0.00    -0.208 C  
BRANCH  13  14
HETATM   14  C   UNL     1     -11.410  11.875  67.429  1.00  0.00    -0.389 C  
BRANCH  14  15
HETATM   15  C   UNL     1     -12.130  11.064  68.505  1.00  0.00    -0.066 C  
BRANCH  15  16
HETATM   16  C   UNL     1     -11.636  11.475  69.889  1.00  0.00    -0.387 C  
BRANCH  16  17
HETATM   17  C   UNL     1     -11.117  10.273  70.670  1.00  0.00    -0.358 C  
BRANCH  17  18
HETATM   18  C   UNL     1     -12.256   9.316  71.011  1.00  0.00    -0.322 C  
HETATM   19  O   UNL     1     -14.348   9.152  72.127  1.00  0.00    -0.330 OA 
HETATM   20  C   UNL     1     -13.333   9.993  71.822  1.00  0.00    -0.393 C  
HETATM   21  O   UNL     1     -13.322  11.160  72.181  1.00  0.00    -0.452 OA 
ENDBRANCH  17  18
ENDBRANCH  16  17
ENDBRANCH  15  16
ENDBRANCH  14  15
ENDBRANCH  13  14
ENDBRANCH   5  13
BRANCH   6  22
HETATM   22  C   UNL     1      -8.226   6.287  67.805  1.00  0.00    -0.118 C  
HETATM   23  F   UNL     1      -9.352   5.617  67.411  1.00  0.00    -0.115 F  
HETATM   24  F   UNL     1      -7.185   5.449  67.537  1.00  0.00    -0.068 F  
BRANCH  22  25
HETATM   25  C   UNL     1      -8.308   6.529  69.307  1.00  0.00    -0.123 C  
BRANCH  25  26
HETATM   26  C   UNL     1      -9.760   6.503  69.791  1.00  0.00    -0.170 C  
BRANCH  26  27
HETATM   27  C   UNL     1      -9.878   5.799  71.140  1.00  0.00    -0.227 C  
HETATM   28  C   UNL     1      -9.533   4.325  71.025  1.00  0.00    -0.236 C  
ENDBRANCH  26  27
ENDBRANCH  25  26
ENDBRANCH  22  25
ENDBRANCH   6  22
TORSDOF 10
ENDMDL
MODEL      267
REMARK 921   NORMALIZED FREE ENERGY PREDICTED BY IDOCK:   -3.12 KCAL/MOL
REMARK 922        TOTAL FREE ENERGY PREDICTED BY IDOCK:   -6.72 KCAL/MOL
REMARK 923 INTER-LIGAND FREE ENERGY PREDICTED BY IDOCK:   -4.61 KCAL/MOL
REMARK 924 INTRA-LIGAND FREE ENERGY PREDICTED BY IDOCK:   -2.11 KCAL/MOL
REMARK 927      BINDING AFFINITY PREDICTED BY RF-SCORE:    0.00 PKD
ROOT
HETATM    1  C   UNL     1      -7.619   9.922  67.839  1.00  0.00    -0.090 C  
HETATM    2  C   UNL     1      -7.983  10.554  66.509  1.00  0.00    -0.132 C  
HETATM    3  C   UNL     1      -7.011   9.858  65.591  1.00  0.00    -0.108 C  
HETATM    4  O   UNL     1      -6.725  10.295  64.484  1.00  0.00    -0.128 OA 
HETATM    5  C   UNL     1      -6.416   8.592  66.206  1.00  0.00    -0.061 C  
HETATM    6  C   UNL     1      -8.426   9.200  69.976  1.00  0.00    -0.157 C  
HETATM    7  C   UNL     1      -7.254   8.493  67.478  1.00  0.00    -0.084 C  
HETATM    8  C   UNL     1      -6.615   7.856  68.697  1.00  0.00    -0.057 C  
HETATM    9  O   UNL     1      -8.713   9.873  68.735  1.00  0.00    -0.122 OA 
HETATM   10  C   UNL     1      -7.670   7.849  69.806  1.00  0.00    -0.099 C  
HETATM   11  O   UNL     1      -7.643  10.093  70.779  1.00  0.00    -0.402 OA 
HETATM   12  H   UNL     1      -8.104  10.918  70.883  1.00  0.00     0.000 HD 
ENDROOT
BRANCH   5  13
HETATM   13  C   UNL     1      -6.619   7.326  65.371  1.00  0.00    -0.047 C  
BRANCH  13  14
HETATM   14  C   UNL     1      -8.065   7.072  64.971  1.00  0.00    -0.119 C  
BRANCH  14  15
HETATM   15  C   UNL     1      -8.442   5.610  65.200  1.00  0.00    -0.144 C  
BRANCH  15  16
HETATM   16  C   UNL     1      -7.478   4.970  66.194  1.00  0.00    -0.086 C  
BRANCH  16  17
HETATM   17  C   UNL     1      -8.204   4.525  67.459  1.00  0.00    -0.100 C  
BRANCH  17  18
HETATM   18  C   UNL     1      -7.207   4.168  68.558  1.00  0.00    -0.055 C  
HETATM   19  O   UNL     1      -6.971   3.876  70.906  1.00  0.00    -0.032 OA 
HETATM   20  C   UNL     1      -7.847   4.193  69.925  1.00  0.00    -0.052 C  
HETATM   21  O   UNL     1      -9.014   4.467  70.157  1.00  0.00    -0.080 OA 
ENDBRANCH  17  18
ENDBRANCH  16  17
ENDBRANCH  15  16
ENDBRANCH  14  15
ENDBRANCH  13  14
ENDBRANCH   5  13
BRANCH   6  22
HETATM   22  C   UNL     1      -9.791   8.900  70.676  1.00  0.00    -0.212 C  
HETATM   23  F   UNL     1     -10.030   7.554  70.627  1.00  0.00    -0.182 F  
HETATM   24  F   UNL     1      -9.706   9.212  72.000  1.00  0.00    -0.374 F  
BRANCH  22  25
HETATM   25  C   UNL     1     -10.981   9.625  70.060  1.00  0.00    -0.297 C  
BRANCH  25  26
HETATM   26  C   UNL     1     -11.954  10.104  71.139  1.00  0.00    -0.480 C  
BRANCH  26  27
HETATM   27  C   UNL     1     -12.593  11.435  70.753  1.00  0.00    -0.409 C  
HETATM   28  C   UNL     1     -13.181  12.137  71.964  1.00  0.00    -0.496 C  
ENDBRANCH  26  27
ENDBRANCH  25  26
ENDBRANCH  22  25
ENDBRANCH   6  22
TORSDOF 10
ENDMDL
MODEL      268
REMARK 921   NORMALIZED FREE ENERGY PREDICTED BY IDOCK:   -3.11 KCAL/MOL
REMARK 922        TOTAL FREE ENERGY PREDICTED BY IDOCK:   -6.70 KCAL/MOL
REMARK 923 INTER-LIGAND FREE ENERGY PREDICTED BY IDOCK:   -4.97 KCAL/MOL
REMARK 924 INTRA-LIGAND FREE ENERGY PREDICTED BY IDOCK:   -1.73 KCAL/MOL
REMARK 927      BINDING AFFINITY PREDICTED BY RF-SCORE:    0.00 PKD
ROOT
HETATM    1  C   UNL     1      -7.861   8.239  67.448  1.00  0.00    -0.106 C  
HETATM    2  C   UNL     1      -6.961   9.391  67.852  1.00  0.00    -0.080 C  
HETATM    3  C   UNL     1      -7.553  10.511  67.036  1.00  0.00    -0.107 C  
HETATM    4  O   UNL     1      -6.942  11.545  66.798  1.00  0.00    -0.137 OA 
HETATM    5  C   UNL     1      -8.959  10.197  66.527  1.00  0.00    -0.161 C  
HETATM    6  C   UNL     1      -8.901   6.197  68.147  1.00  0.00    -0.112 C  
HETATM    7  C   UNL     1      -9.222   8.886  67.263  1.00  0.00    -0.164 C  
HETATM    8  C   UNL     1     -10.131   7.871  66.596  1.00  0.00    -0.310 C  
HETATM    9  O   UNL     1      -7.983   7.263  68.464  1.00  0.00    -0.120 OA 
HETATM   10  C   UNL     1     -10.256   6.682  67.552  1.00  0.00    -0.229 C  
HETATM   11  O   UNL     1      -8.246   5.329  67.213  1.00  0.00    -0.104 OA 
HETATM   12  H   UNL     1      -7.419   5.034  67.577  1.00  0.00     0.000 HD 
ENDROOT
BRANCH   5  13
HETATM   13  C   UNL     1     -10.022  11.221  66.927  1.00  0.00    -0.238 C  
BRANCH  13  14
HETATM   14  C   UNL     1     -10.293  12.281  65.868  1.00  0.00    -0.280 C  
BRANCH  14  15
HETATM   15  C   UNL     1      -9.944  13.672  66.392  1.00  0.00    -0.299 C  
BRANCH  15  16
HETATM   16  C   UNL     1      -9.695  13.618  67.896  1.00  0.00    -0.234 C  
BRANCH  16  17
HETATM   17  C   UNL     1      -9.164  14.949  68.417  1.00  0.00    -0.189 C  
BRANCH  17  18
HETATM   18  C   UNL     1      -8.332  15.655  67.351  1.00  0.00    -0.198 C  
HETATM   19  O   UNL     1      -6.109  16.027  66.594  1.00  0.00    -0.192 OA 
HETATM   20  C   UNL     1      -6.855  15.405  67.537  1.00  0.00    -0.194 C  
HETATM   21  O   UNL     1      -6.356  14.731  68.424  1.00  0.00    -0.089 OA 
ENDBRANCH  17  18
ENDBRANCH  16  17
ENDBRANCH  15  16
ENDBRANCH  14  15
ENDBRANCH  13  14
ENDBRANCH   5  13
BRANCH   6  22
HETATM   22  C   UNL     1      -9.208   5.431  69.475  1.00  0.00    -0.117 C  
HETATM   23  F   UNL     1     -10.563   5.369  69.650  1.00  0.00    -0.319 F  
HETATM   24  F   UNL     1      -8.790   4.138  69.363  1.00  0.00    -0.099 F  
BRANCH  22  25
HETATM   25  C   UNL     1      -8.587   6.059  70.716  1.00  0.00    -0.135 C  
BRANCH  25  26
HETATM   26  C   UNL     1      -9.665   6.483  71.716  1.00  0.00    -0.168 C  
BRANCH  26  27
HETATM   27  C   UNL     1      -9.505   7.949  72.109  1.00  0.00    -0.234 C  
HETATM   28  C   UNL     1     -10.358   8.851  71.235  1.00  0.00    -0.355 C  
ENDBRANCH  26  27
ENDBRANCH  25  26
ENDBRANCH  22  25
ENDBRANCH   6  22
TORSDOF 10
ENDMDL
MODEL      269
REMARK 921   NORMALIZED FREE ENERGY PREDICTED BY IDOCK:   -3.10 KCAL/MOL
REMARK 922        TOTAL FREE ENERGY PREDICTED BY IDOCK:   -6.69 KCAL/MOL
REMARK 923 INTER-LIGAND FREE ENERGY PREDICTED BY IDOCK:   -5.20 KCAL/MOL
REMARK 924 INTRA-LIGAND FREE ENERGY PREDICTED BY IDOCK:   -1.50 KCAL/MOL
REMARK 927      BINDING AFFINITY PREDICTED BY RF-SCORE:    0.00 PKD
ROOT
HETATM    1  C   UNL     1     -10.489  13.132  64.921  1.00  0.00    -0.351 C  
HETATM    2  C   UNL     1     -10.377  14.529  64.341  1.00  0.00     0.349 C  
HETATM    3  C   UNL     1     -10.825  15.359  65.516  1.00  0.00    -0.374 C  
HETATM    4  O   UNL     1     -11.203  16.517  65.396  1.00  0.00    -0.065 OA 
HETATM    5  C   UNL     1     -10.781  14.591  66.836  1.00  0.00    -0.288 C  
HETATM    6  C   UNL     1      -9.594  10.909  64.922  1.00  0.00    -0.248 C  
HETATM    7  C   UNL     1     -10.095  13.307  66.376  1.00  0.00    -0.290 C  
HETATM    8  C   UNL     1     -10.437  12.023  67.107  1.00  0.00    -0.244 C  
HETATM    9  O   UNL     1      -9.576  12.225  64.334  1.00  0.00    -0.046 OA 
HETATM   10  C   UNL     1      -9.593  10.910  66.480  1.00  0.00    -0.224 C  
HETATM   11  O   UNL     1     -10.766  10.240  64.441  1.00  0.00    -0.167 OA 
HETATM   12  H   UNL     1     -10.767  10.239  63.491  1.00  0.00     0.000 HD 
ENDROOT
BRANCH   5  13
HETATM   13  C   UNL     1      -9.934  15.251  67.926  1.00  0.00    -0.228 C  
BRANCH  13  14
HETATM   14  C   UNL     1     -10.509  15.108  69.329  1.00  0.00    -0.261 C  
BRANCH  14  15
HETATM   15  C   UNL     1     -12.022  15.307  69.317  1.00  0.00    -0.327 C  
BRANCH  15  16
HETATM   16  C   UNL     1     -12.729  13.966  69.485  1.00  0.00     0.252 C  
BRANCH  16  17
HETATM   17  C   UNL     1     -12.079  13.132  70.584  1.00  0.00    -0.346 C  
BRANCH  17  18
HETATM   18  C   UNL     1     -12.107  11.649  70.226  1.00  0.00    -0.443 C  
HETATM   19  O   UNL     1     -12.824   9.512  70.980  1.00  0.00    -0.298 OA 
HETATM   20  C   UNL     1     -12.794  10.829  71.290  1.00  0.00    -0.438 C  
HETATM   21  O   UNL     1     -13.274  11.267  72.324  1.00  0.00    -0.402 OA 
ENDBRANCH  17  18
ENDBRANCH  16  17
ENDBRANCH  15  16
ENDBRANCH  14  15
ENDBRANCH  13  14
ENDBRANCH   5  13
BRANCH   6  22
HETATM   22  C   UNL     1      -8.308  10.161  64.443  1.00  0.00    -0.171 C  
HETATM   23  F   UNL     1      -7.827  10.777  63.320  1.00  0.00    -0.125 F  
HETATM   24  F   UNL     1      -7.328  10.287  65.382  1.00  0.00    -0.125 F  
BRANCH  22  25
HETATM   25  C   UNL     1      -8.524   8.686  64.130  1.00  0.00    -0.091 C  
BRANCH  25  26
HETATM   26  C   UNL     1      -8.125   7.807  65.317  1.00  0.00    -0.133 C  
BRANCH  26  27
HETATM   27  C   UNL     1      -6.905   6.952  64.984  1.00  0.00    -0.051 C  
HETATM   28  C   UNL     1      -7.307   5.531  64.632  1.00  0.00    -0.064 C  
ENDBRANCH  26  27
ENDBRANCH  25  26
ENDBRANCH  22  25
ENDBRANCH   6  22
TORSDOF 10
ENDMDL
MODEL      270
REMARK 921   NORMALIZED FREE ENERGY PREDICTED BY IDOCK:   -3.09 KCAL/MOL
REMARK 922        TOTAL FREE ENERGY PREDICTED BY IDOCK:   -6.67 KCAL/MOL
REMARK 923 INTER-LIGAND FREE ENERGY PREDICTED BY IDOCK:   -5.73 KCAL/MOL
REMARK 924 INTRA-LIGAND FREE ENERGY PREDICTED BY IDOCK:   -0.94 KCAL/MOL
REMARK 927      BINDING AFFINITY PREDICTED BY RF-SCORE:    0.00 PKD
ROOT
HETATM    1  C   UNL     1      -7.860   8.465  69.704  1.00  0.00    -0.100 C  
HETATM    2  C   UNL     1      -6.744   9.359  70.208  1.00  0.00    -0.074 C  
HETATM    3  C   UNL     1      -6.671  10.374  69.096  1.00  0.00    -0.061 C  
HETATM    4  O   UNL     1      -5.694  11.090  68.923  1.00  0.00    -0.041 OA 
HETATM    5  C   UNL     1      -7.919  10.379  68.215  1.00  0.00    -0.111 C  
HETATM    6  C   UNL     1      -9.698   7.055  70.316  1.00  0.00    -0.175 C  
HETATM    7  C   UNL     1      -8.809   9.423  69.006  1.00  0.00    -0.141 C  
HETATM    8  C   UNL     1      -9.818   8.595  68.233  1.00  0.00    -0.186 C  
HETATM    9  O   UNL     1      -8.574   7.843  70.755  1.00  0.00    -0.128 OA 
HETATM   10  C   UNL     1     -10.595   7.763  69.257  1.00  0.00    -0.199 C  
HETATM   11  O   UNL     1      -9.181   5.834  69.772  1.00  0.00    -0.136 OA 
HETATM   12  H   UNL     1      -8.634   5.402  70.418  1.00  0.00     0.000 HD 
ENDROOT
BRANCH   5  13
HETATM   13  C   UNL     1      -8.613  11.738  68.106  1.00  0.00    -0.160 C  
BRANCH  13  14
HETATM   14  C   UNL     1      -9.017  12.116  66.687  1.00  0.00    -0.198 C  
BRANCH  14  15
HETATM   15  C   UNL     1     -10.523  12.354  66.598  1.00  0.00    -0.251 C  
BRANCH  15  16
HETATM   16  C   UNL     1     -10.815  13.850  66.538  1.00  0.00    -0.295 C  
BRANCH  16  17
HETATM   17  C   UNL     1     -10.563  14.407  65.141  1.00  0.00    -0.429 C  
BRANCH  17  18
HETATM   18  C   UNL     1     -10.749  15.921  65.120  1.00  0.00    -0.449 C  
HETATM   19  O   UNL     1      -9.651  17.990  65.530  1.00  0.00    -0.231 OA 
HETATM   20  C   UNL     1      -9.496  16.645  65.547  1.00  0.00     0.294 C  
HETATM   21  O   UNL     1      -8.447  16.115  65.878  1.00  0.00    -0.261 OA 
ENDBRANCH  17  18
ENDBRANCH  16  17
ENDBRANCH  15  16
ENDBRANCH  14  15
ENDBRANCH  13  14
ENDBRANCH   5  13
BRANCH   6  22
HETATM   22  C   UNL     1     -10.583   6.757  71.570  1.00  0.00    -0.219 C  
HETATM   23  F   UNL     1     -10.931   5.434  71.565  1.00  0.00    -0.301 F  
HETATM   24  F   UNL     1      -9.847   6.942  72.703  1.00  0.00    -0.166 F  
BRANCH  22  25
HETATM   25  C   UNL     1     -11.855   7.592  71.650  1.00  0.00    -0.322 C  
BRANCH  25  26
HETATM   26  C   UNL     1     -11.530   9.081  71.775  1.00  0.00    -0.442 C  
BRANCH  26  27
HETATM   27  C   UNL     1     -12.756   9.940  71.475  1.00  0.00    -0.515 C  
HETATM   28  C   UNL     1     -12.425  11.051  70.495  1.00  0.00    -0.432 C  
ENDBRANCH  26  27
ENDBRANCH  25  26
ENDBRANCH  22  25
ENDBRANCH   6  22
TORSDOF 10
ENDMDL
MODEL      271
REMARK 921   NORMALIZED FREE ENERGY PREDICTED BY IDOCK:   -3.05 KCAL/MOL
REMARK 922        TOTAL FREE ENERGY PREDICTED BY IDOCK:   -6.61 KCAL/MOL
REMARK 923 INTER-LIGAND FREE ENERGY PREDICTED BY IDOCK:   -5.35 KCAL/MOL
REMARK 924 INTRA-LIGAND FREE ENERGY PREDICTED BY IDOCK:   -1.26 KCAL/MOL
REMARK 927      BINDING AFFINITY PREDICTED BY RF-SCORE:    0.00 PKD
ROOT
HETATM    1  C   UNL     1      -8.353  16.861  67.598  1.00  0.00    -0.184 C  
HETATM    2  C   UNL     1      -7.695  17.065  66.247  1.00  0.00    -0.346 C  
HETATM    3  C   UNL     1      -6.259  16.754  66.583  1.00  0.00    -0.095 C  
HETATM    4  O   UNL     1      -5.327  17.109  65.873  1.00  0.00    -0.295 OA 
HETATM    5  C   UNL     1      -6.109  15.990  67.897  1.00  0.00    -0.149 C  
HETATM    6  C   UNL     1     -10.336  16.168  68.752  1.00  0.00    -0.248 C  
HETATM    7  C   UNL     1      -7.576  15.710  68.213  1.00  0.00    -0.119 C  
HETATM    8  C   UNL     1      -7.977  15.608  69.672  1.00  0.00    -0.080 C  
HETATM    9  O   UNL     1      -9.704  16.457  67.489  1.00  0.00    -0.227 OA 
HETATM   10  C   UNL     1      -9.474  15.288  69.706  1.00  0.00    -0.107 C  
HETATM   11  O   UNL     1     -10.627  17.422  69.383  1.00  0.00    -0.389 OA 
HETATM   12  H   UNL     1     -11.153  17.959  68.801  1.00  0.00     0.000 HD 
ENDROOT
BRANCH   5  13
HETATM   13  C   UNL     1      -5.359  14.662  67.777  1.00  0.00    -0.017 C  
BRANCH  13  14
HETATM   14  C   UNL     1      -6.232  13.434  67.998  1.00  0.00    -0.133 C  
BRANCH  14  15
HETATM   15  C   UNL     1      -5.582  12.191  67.395  1.00  0.00    -0.128 C  
BRANCH  15  16
HETATM   16  C   UNL     1      -6.643  11.308  66.746  1.00  0.00    -0.140 C  
BRANCH  16  17
HETATM   17  C   UNL     1      -7.550  10.672  67.793  1.00  0.00    -0.095 C  
BRANCH  17  18
HETATM   18  C   UNL     1      -6.756  10.295  69.040  1.00  0.00    -0.055 C  
HETATM   19  O   UNL     1      -6.944   9.363  71.219  1.00  0.00    -0.261 OA 
HETATM   20  C   UNL     1      -7.641   9.702  70.110  1.00  0.00    -0.158 C  
HETATM   21  O   UNL     1      -8.847   9.536  70.021  1.00  0.00    -0.186 OA 
ENDBRANCH  17  18
ENDBRANCH  16  17
ENDBRANCH  15  16
ENDBRANCH  14  15
ENDBRANCH  13  14
ENDBRANCH   5  13
BRANCH   6  22
HETATM   22  C   UNL     1     -11.660  15.393  68.451  1.00  0.00    -0.354 C  
HETATM   23  F   UNL     1     -12.519  15.556  69.502  1.00  0.00    -0.326 F  
HETATM   24  F   UNL     1     -12.282  15.953  67.375  1.00  0.00     0.283 F  
BRANCH  22  25
HETATM   25  C   UNL     1     -11.468  13.902  68.208  1.00  0.00    -0.346 C  
BRANCH  25  26
HETATM   26  C   UNL     1     -11.766  13.538  66.752  1.00  0.00    -0.430 C  
BRANCH  26  27
HETATM   27  C   UNL     1     -11.495  12.059  66.487  1.00  0.00    -0.413 C  
HETATM   28  C   UNL     1     -11.453  11.266  67.781  1.00  0.00    -0.350 C  
ENDBRANCH  26  27
ENDBRANCH  25  26
ENDBRANCH  22  25
ENDBRANCH   6  22
TORSDOF 10
ENDMDL
MODEL      272
REMARK 921   NORMALIZED FREE ENERGY PREDICTED BY IDOCK:   -2.99 KCAL/MOL
REMARK 922        TOTAL FREE ENERGY PREDICTED BY IDOCK:   -6.51 KCAL/MOL
REMARK 923 INTER-LIGAND FREE ENERGY PREDICTED BY IDOCK:   -5.34 KCAL/MOL
REMARK 924 INTRA-LIGAND FREE ENERGY PREDICTED BY IDOCK:   -1.16 KCAL/MOL
REMARK 927      BINDING AFFINITY PREDICTED BY RF-SCORE:    0.00 PKD
ROOT
HETATM    1  C   UNL     1      -8.028   9.203  64.949  1.00  0.00    -0.123 C  
HETATM    2  C   UNL     1      -7.581   8.222  63.881  1.00  0.00    -0.133 C  
HETATM    3  C   UNL     1      -7.508   6.948  64.683  1.00  0.00    -0.098 C  
HETATM    4  O   UNL     1      -6.876   5.970  64.305  1.00  0.00    -0.044 OA 
HETATM    5  C   UNL     1      -8.272   7.032  66.003  1.00  0.00    -0.129 C  
HETATM    6  C   UNL     1      -9.293  11.184  65.414  1.00  0.00    -0.219 C  
HETATM    7  C   UNL     1      -8.955   8.386  65.831  1.00  0.00    -0.223 C  
HETATM    8  C   UNL     1      -9.240   9.198  67.080  1.00  0.00    -0.167 C  
HETATM    9  O   UNL     1      -8.777  10.279  64.417  1.00  0.00    -0.175 OA 
HETATM   10  C   UNL     1      -9.955  10.475  66.633  1.00  0.00    -0.260 C  
HETATM   11  O   UNL     1      -8.201  11.997  65.863  1.00  0.00    -0.296 OA 
HETATM   12  H   UNL     1      -7.797  12.429  65.119  1.00  0.00     0.000 HD 
ENDROOT
BRANCH   5  13
HETATM   13  C   UNL     1      -9.338   5.951  66.190  1.00  0.00    -0.150 C  
BRANCH  13  14
HETATM   14  C   UNL     1      -9.045   4.980  67.326  1.00  0.00    -0.117 C  
BRANCH  14  15
HETATM   15  C   UNL     1      -8.405   5.706  68.507  1.00  0.00    -0.106 C  
BRANCH  15  16
HETATM   16  C   UNL     1      -7.806   4.696  69.481  1.00  0.00    -0.062 C  
BRANCH  16  17
HETATM   17  C   UNL     1      -8.807   3.598  69.823  1.00  0.00    -0.152 C  
BRANCH  17  18
HETATM   18  C   UNL     1      -9.921   4.138  70.713  1.00  0.00    -0.192 C  
HETATM   19  O   UNL     1     -10.696   4.241  72.959  1.00  0.00    -0.183 OA 
HETATM   20  C   UNL     1      -9.712   3.765  72.161  1.00  0.00    -0.161 C  
HETATM   21  O   UNL     1      -8.779   3.109  72.596  1.00  0.00    -0.082 OA 
ENDBRANCH  17  18
ENDBRANCH  16  17
ENDBRANCH  15  16
ENDBRANCH  14  15
ENDBRANCH  13  14
ENDBRANCH   5  13
BRANCH   6  22
HETATM   22  C   UNL     1     -10.381  12.071  64.726  1.00  0.00    -0.280 C  
HETATM   23  F   UNL     1      -9.873  12.573  63.559  1.00  0.00    -0.375 F  
HETATM   24  F   UNL     1     -11.442  11.295  64.363  1.00  0.00    -0.346 F  
BRANCH  22  25
HETATM   25  C   UNL     1     -10.871  13.233  65.580  1.00  0.00    -0.291 C  
BRANCH  25  26
HETATM   26  C   UNL     1     -10.176  14.537  65.187  1.00  0.00    -0.420 C  
BRANCH  26  27
HETATM   27  C   UNL     1     -11.192  15.615  64.822  1.00  0.00    -0.391 C  
HETATM   28  C   UNL     1     -12.409  15.017  64.138  1.00  0.00    -0.167 C  
ENDBRANCH  26  27
ENDBRANCH  25  26
ENDBRANCH  22  25
ENDBRANCH   6  22
TORSDOF 10
ENDMDL
MODEL      273
REMARK 921   NORMALIZED FREE ENERGY PREDICTED BY IDOCK:   -2.94 KCAL/MOL
REMARK 922        TOTAL FREE ENERGY PREDICTED BY IDOCK:   -6.43 KCAL/MOL
REMARK 923 INTER-LIGAND FREE ENERGY PREDICTED BY IDOCK:   -5.85 KCAL/MOL
REMARK 924 INTRA-LIGAND FREE ENERGY PREDICTED BY IDOCK:   -0.58 KCAL/MOL
REMARK 927      BINDING AFFINITY PREDICTED BY RF-SCORE:    0.00 PKD
ROOT
HETATM    1  C   UNL     1      -8.151  13.556  68.375  1.00  0.00    -0.145 C  
HETATM    2  C   UNL     1      -6.956  13.943  67.525  1.00  0.00    -0.162 C  
HETATM    3  C   UNL     1      -6.325  12.593  67.295  1.00  0.00    -0.094 C  
HETATM    4  O   UNL     1      -5.162  12.465  66.938  1.00  0.00    -0.329 OA 
HETATM    5  C   UNL     1      -7.279  11.435  67.584  1.00  0.00    -0.097 C  
HETATM    6  C   UNL     1     -10.423  14.060  68.944  1.00  0.00    -0.200 C  
HETATM    7  C   UNL     1      -8.574  12.208  67.819  1.00  0.00    -0.164 C  
HETATM    8  C   UNL     1      -9.589  11.611  68.775  1.00  0.00    -0.083 C  
HETATM    9  O   UNL     1      -9.239  14.446  68.218  1.00  0.00    -0.188 OA 
HETATM   10  C   UNL     1     -10.795  12.554  68.798  1.00  0.00    -0.276 C  
HETATM   11  O   UNL     1     -10.201  14.370  70.325  1.00  0.00    -0.117 OA 
HETATM   12  H   UNL     1      -9.975  15.289  70.415  1.00  0.00     0.000 HD 
ENDROOT
BRANCH   5  13
HETATM   13  C   UNL     1      -7.475  10.468  66.415  1.00  0.00    -0.133 C  
BRANCH  13  14
HETATM   14  C   UNL     1      -8.602  10.860  65.469  1.00  0.00    -0.149 C  
BRANCH  14  15
HETATM   15  C   UNL     1      -9.493   9.658  65.161  1.00  0.00    -0.332 C  
BRANCH  15  16
HETATM   16  C   UNL     1     -10.479   9.430  66.302  1.00  0.00    -0.112 C  
BRANCH  16  17
HETATM   17  C   UNL     1     -10.287   8.055  66.932  1.00  0.00    -0.408 C  
BRANCH  17  18
HETATM   18  C   UNL     1     -10.648   8.082  68.414  1.00  0.00    -0.150 C  
HETATM   19  O   UNL     1      -9.736   8.008  70.608  1.00  0.00    -0.172 OA 
HETATM   20  C   UNL     1      -9.424   7.982  69.292  1.00  0.00    -0.155 C  
HETATM   21  O   UNL     1      -8.274   7.885  68.896  1.00  0.00    -0.123 OA 
ENDBRANCH  17  18
ENDBRANCH  16  17
ENDBRANCH  15  16
ENDBRANCH  14  15
ENDBRANCH  13  14
ENDBRANCH   5  13
BRANCH   6  22
HETATM   22  C   UNL     1     -11.615  14.903  68.385  1.00  0.00    -0.325 C  
HETATM   23  F   UNL     1     -12.513  15.126  69.392  1.00  0.00    -0.280 F  
HETATM   24  F   UNL     1     -11.167  16.135  68.009  1.00  0.00    -0.336 F  
BRANCH  22  25
HETATM   25  C   UNL     1     -12.347  14.252  67.218  1.00  0.00    -0.140 C  
BRANCH  25  26
HETATM   26  C   UNL     1     -11.496  13.155  66.577  1.00  0.00    -0.378 C  
BRANCH  26  27
HETATM   27  C   UNL     1     -11.513  13.264  65.054  1.00  0.00    -0.329 C  
HETATM   28  C   UNL     1     -12.650  12.455  64.456  1.00  0.00    -0.477 C  
ENDBRANCH  26  27
ENDBRANCH  25  26
ENDBRANCH  22  25
ENDBRANCH   6  22
TORSDOF 10
ENDMDL
MODEL      274
REMARK 921   NORMALIZED FREE ENERGY PREDICTED BY IDOCK:   -2.93 KCAL/MOL
REMARK 922        TOTAL FREE ENERGY PREDICTED BY IDOCK:   -6.42 KCAL/MOL
REMARK 923 INTER-LIGAND FREE ENERGY PREDICTED BY IDOCK:   -4.82 KCAL/MOL
REMARK 924 INTRA-LIGAND FREE ENERGY PREDICTED BY IDOCK:   -1.61 KCAL/MOL
REMARK 927      BINDING AFFINITY PREDICTED BY RF-SCORE:    0.00 PKD
ROOT
HETATM    1  C   UNL     1      -6.623   8.731  70.240  1.00  0.00    -0.040 C  
HETATM    2  C   UNL     1      -6.383  10.142  69.738  1.00  0.00    -0.064 C  
HETATM    3  C   UNL     1      -5.774   9.861  68.388  1.00  0.00    -0.042 C  
HETATM    4  O   UNL     1      -5.125  10.698  67.774  1.00  0.00    -0.037 OA 
HETATM    5  C   UNL     1      -6.030   8.435  67.906  1.00  0.00    -0.047 C  
HETATM    6  C   UNL     1      -8.027   7.311  71.564  1.00  0.00    -0.100 C  
HETATM    7  C   UNL     1      -6.995   7.956  68.988  1.00  0.00    -0.058 C  
HETATM    8  C   UNL     1      -6.989   6.480  69.338  1.00  0.00    -0.071 C  
HETATM    9  O   UNL     1      -7.715   8.651  71.135  1.00  0.00    -0.091 OA 
HETATM   10  C   UNL     1      -8.062   6.267  70.408  1.00  0.00    -0.116 C  
HETATM   11  O   UNL     1      -7.041   6.928  72.530  1.00  0.00    -0.070 OA 
HETATM   12  H   UNL     1      -7.019   7.565  73.235  1.00  0.00     0.000 HD 
ENDROOT
BRANCH   5  13
HETATM   13  C   UNL     1      -6.717   8.339  66.543  1.00  0.00    -0.063 C  
BRANCH  13  14
HETATM   14  C   UNL     1      -7.821   9.366  66.331  1.00  0.00    -0.100 C  
BRANCH  14  15
HETATM   15  C   UNL     1      -9.110   8.925  67.020  1.00  0.00    -0.161 C  
BRANCH  15  16
HETATM   16  C   UNL     1     -10.238   9.899  66.697  1.00  0.00    -0.293 C  
BRANCH  16  17
HETATM   17  C   UNL     1     -10.836  10.494  67.967  1.00  0.00    -0.312 C  
BRANCH  17  18
HETATM   18  C   UNL     1     -10.022  11.695  68.438  1.00  0.00    -0.201 C  
HETATM   19  O   UNL     1     -10.054  14.063  68.655  1.00  0.00    -0.230 OA 
HETATM   20  C   UNL     1     -10.769  12.992  68.239  1.00  0.00    -0.245 C  
HETATM   21  O   UNL     1     -11.886  13.100  67.758  1.00  0.00    -0.344 OA 
ENDBRANCH  17  18
ENDBRANCH  16  17
ENDBRANCH  15  16
ENDBRANCH  14  15
ENDBRANCH  13  14
ENDBRANCH   5  13
BRANCH   6  22
HETATM   22  C   UNL     1      -9.445   7.345  72.222  1.00  0.00    -0.146 C  
HETATM   23  F   UNL     1     -10.308   6.609  71.457  1.00  0.00    -0.213 F  
HETATM   24  F   UNL     1      -9.402   6.723  73.434  1.00  0.00    -0.142 F  
BRANCH  22  25
HETATM   25  C   UNL     1     -10.021   8.745  72.390  1.00  0.00    -0.224 C  
BRANCH  25  26
HETATM   26  C   UNL     1     -11.116   9.018  71.357  1.00  0.00    -0.399 C  
BRANCH  26  27
HETATM   27  C   UNL     1     -12.440   9.360  72.036  1.00  0.00    -0.440 C  
HETATM   28  C   UNL     1     -13.036  10.637  71.471  1.00  0.00    -0.566 C  
ENDBRANCH  26  27
ENDBRANCH  25  26
ENDBRANCH  22  25
ENDBRANCH   6  22
TORSDOF 10
ENDMDL
MODEL      275
REMARK 921   NORMALIZED FREE ENERGY PREDICTED BY IDOCK:   -2.92 KCAL/MOL
REMARK 922        TOTAL FREE ENERGY PREDICTED BY IDOCK:   -6.40 KCAL/MOL
REMARK 923 INTER-LIGAND FREE ENERGY PREDICTED BY IDOCK:   -5.19 KCAL/MOL
REMARK 924 INTRA-LIGAND FREE ENERGY PREDICTED BY IDOCK:   -1.21 KCAL/MOL
REMARK 927      BINDING AFFINITY PREDICTED BY RF-SCORE:    0.00 PKD
ROOT
HETATM    1  C   UNL     1      -7.864   6.302  66.626  1.00  0.00    -0.104 C  
HETATM    2  C   UNL     1      -8.426   5.206  65.740  1.00  0.00    -0.124 C  
HETATM    3  C   UNL     1      -8.610   4.099  66.746  1.00  0.00    -0.108 C  
HETATM    4  O   UNL     1      -8.730   2.926  66.417  1.00  0.00    -0.120 OA 
HETATM    5  C   UNL     1      -8.598   4.599  68.189  1.00  0.00    -0.108 C  
HETATM    6  C   UNL     1      -7.738   8.662  67.017  1.00  0.00    -0.095 C  
HETATM    7  C   UNL     1      -8.581   6.106  67.950  1.00  0.00    -0.114 C  
HETATM    8  C   UNL     1      -7.893   6.978  68.982  1.00  0.00    -0.115 C  
HETATM    9  O   UNL     1      -8.181   7.597  66.153  1.00  0.00    -0.111 OA 
HETATM   10  C   UNL     1      -8.055   8.430  68.525  1.00  0.00    -0.123 C  
HETATM   11  O   UNL     1      -6.323   8.802  66.837  1.00  0.00    -0.058 OA 
HETATM   12  H   UNL     1      -6.129   8.944  65.918  1.00  0.00     0.000 HD 
ENDROOT
BRANCH   5  13
HETATM   13  C   UNL     1      -9.843   4.232  68.999  1.00  0.00    -0.148 C  
BRANCH  13  14
HETATM   14  C   UNL     1      -9.820   4.737  70.435  1.00  0.00    -0.309 C  
BRANCH  14  15
HETATM   15  C   UNL     1     -11.018   5.641  70.711  1.00  0.00    -0.257 C  
BRANCH  15  16
HETATM   16  C   UNL     1     -10.552   6.956  71.328  1.00  0.00    -0.244 C  
BRANCH  16  17
HETATM   17  C   UNL     1     -11.728   7.759  71.872  1.00  0.00    -0.335 C  
BRANCH  17  18
HETATM   18  C   UNL     1     -11.656   9.210  71.404  1.00  0.00    -0.411 C  
HETATM   19  O   UNL     1     -12.845  11.268  71.360  1.00  0.00    -0.406 OA 
HETATM   20  C   UNL     1     -12.901   9.980  71.771  1.00  0.00    -0.446 C  
HETATM   21  O   UNL     1     -13.866   9.526  72.365  1.00  0.00    -0.424 OA 
ENDBRANCH  17  18
ENDBRANCH  16  17
ENDBRANCH  15  16
ENDBRANCH  14  15
ENDBRANCH  13  14
ENDBRANCH   5  13
BRANCH   6  22
HETATM   22  C   UNL     1      -8.472   9.968  66.569  1.00  0.00    -0.126 C  
HETATM   23  F   UNL     1      -9.013   9.771  65.328  1.00  0.00    -0.161 F  
HETATM   24  F   UNL     1      -9.526  10.208  67.399  1.00  0.00    -0.156 F  
BRANCH  22  25
HETATM   25  C   UNL     1      -7.577  11.200  66.516  1.00  0.00    -0.135 C  
BRANCH  25  26
HETATM   26  C   UNL     1      -7.625  11.973  67.836  1.00  0.00    -0.124 C  
BRANCH  26  27
HETATM   27  C   UNL     1      -6.521  13.025  67.898  1.00  0.00    -0.130 C  
HETATM   28  C   UNL     1      -7.063  14.412  67.601  1.00  0.00    -0.202 C  
ENDBRANCH  26  27
ENDBRANCH  25  26
ENDBRANCH  22  25
ENDBRANCH   6  22
TORSDOF 10
ENDMDL
MODEL      276
REMARK 921   NORMALIZED FREE ENERGY PREDICTED BY IDOCK:   -2.85 KCAL/MOL
REMARK 922        TOTAL FREE ENERGY PREDICTED BY IDOCK:   -6.28 KCAL/MOL
REMARK 923 INTER-LIGAND FREE ENERGY PREDICTED BY IDOCK:   -4.60 KCAL/MOL
REMARK 924 INTRA-LIGAND FREE ENERGY PREDICTED BY IDOCK:   -1.69 KCAL/MOL
REMARK 927      BINDING AFFINITY PREDICTED BY RF-SCORE:    0.00 PKD
ROOT
HETATM    1  C   UNL     1      -6.413   9.758  67.876  1.00  0.00    -0.060 C  
HETATM    2  C   UNL     1      -6.346  10.611  69.129  1.00  0.00    -0.053 C  
HETATM    3  C   UNL     1      -7.007  11.876  68.643  1.00  0.00    -0.095 C  
HETATM    4  O   UNL     1      -6.876  12.948  69.219  1.00  0.00    -0.095 OA 
HETATM    5  C   UNL     1      -7.815  11.670  67.363  1.00  0.00    -0.147 C  
HETATM    6  C   UNL     1      -6.624   7.537  67.002  1.00  0.00    -0.062 C  
HETATM    7  C   UNL     1      -7.733  10.151  67.237  1.00  0.00    -0.095 C  
HETATM    8  C   UNL     1      -7.767   9.555  65.842  1.00  0.00    -0.100 C  
HETATM    9  O   UNL     1      -6.471   8.374  68.165  1.00  0.00    -0.054 OA 
HETATM   10  C   UNL     1      -7.710   8.034  66.001  1.00  0.00    -0.088 C  
HETATM   11  O   UNL     1      -5.352   7.478  66.344  1.00  0.00    -0.023 OA 
HETATM   12  H   UNL     1      -4.690   7.175  66.954  1.00  0.00     0.000 HD 
ENDROOT
BRANCH   5  13
HETATM   13  C   UNL     1      -9.283  12.087  67.465  1.00  0.00    -0.180 C  
BRANCH  13  14
HETATM   14  C   UNL     1     -10.243  11.163  66.728  1.00  0.00    -0.272 C  
BRANCH  14  15
HETATM   15  C   UNL     1     -10.988  10.262  67.710  1.00  0.00    -0.360 C  
BRANCH  15  16
HETATM   16  C   UNL     1     -10.996  10.893  69.098  1.00  0.00    -0.290 C  
BRANCH  16  17
HETATM   17  C   UNL     1     -10.046  10.164  70.042  1.00  0.00    -0.241 C  
BRANCH  17  18
HETATM   18  C   UNL     1     -10.825   9.343  71.066  1.00  0.00    -0.406 C  
HETATM   19  O   UNL     1     -10.603   8.046  73.046  1.00  0.00    -0.353 OA 
HETATM   20  C   UNL     1      -9.921   8.775  72.133  1.00  0.00    -0.289 C  
HETATM   21  O   UNL     1      -8.712   8.931  72.195  1.00  0.00    -0.386 OA 
ENDBRANCH  17  18
ENDBRANCH  16  17
ENDBRANCH  15  16
ENDBRANCH  14  15
ENDBRANCH  13  14
ENDBRANCH   5  13
BRANCH   6  22
HETATM   22  C   UNL     1      -7.044   6.115  67.497  1.00  0.00    -0.074 C  
HETATM   23  F   UNL     1      -8.051   5.645  66.699  1.00  0.00    -0.102 F  
HETATM   24  F   UNL     1      -6.005   5.248  67.330  1.00  0.00    -0.021 F  
BRANCH  22  25
HETATM   25  C   UNL     1      -7.514   6.072  68.945  1.00  0.00    -0.086 C  
BRANCH  25  26
HETATM   26  C   UNL     1      -8.885   5.402  69.060  1.00  0.00    -0.108 C  
BRANCH  26  27
HETATM   27  C   UNL     1      -9.978   6.430  69.341  1.00  0.00    -0.184 C  
HETATM   28  C   UNL     1     -11.156   6.253  68.399  1.00  0.00    -0.371 C  
ENDBRANCH  26  27
ENDBRANCH  25  26
ENDBRANCH  22  25
ENDBRANCH   6  22
TORSDOF 10
ENDMDL
MODEL      277
REMARK 921   NORMALIZED FREE ENERGY PREDICTED BY IDOCK:   -2.78 KCAL/MOL
REMARK 922        TOTAL FREE ENERGY PREDICTED BY IDOCK:   -6.19 KCAL/MOL
REMARK 923 INTER-LIGAND FREE ENERGY PREDICTED BY IDOCK:   -5.56 KCAL/MOL
REMARK 924 INTRA-LIGAND FREE ENERGY PREDICTED BY IDOCK:   -0.63 KCAL/MOL
REMARK 927      BINDING AFFINITY PREDICTED BY RF-SCORE:    0.00 PKD
ROOT
HETATM    1  C   UNL     1      -8.346  13.992  68.890  1.00  0.00     0.032 C  
HETATM    2  C   UNL     1      -8.690  15.372  69.419  1.00  0.00    -0.252 C  
HETATM    3  C   UNL     1      -7.396  16.102  69.162  1.00  0.00    -0.215 C  
HETATM    4  O   UNL     1      -7.110  17.149  69.729  1.00  0.00     0.049 OA 
HETATM    5  C   UNL     1      -6.496  15.382  68.160  1.00  0.00    -0.133 C  
HETATM    6  C   UNL     1      -9.178  12.018  67.818  1.00  0.00    -0.190 C  
HETATM    7  C   UNL     1      -7.439  14.271  67.704  1.00  0.00    -0.194 C  
HETATM    8  C   UNL     1      -6.822  12.954  67.273  1.00  0.00    -0.066 C  
HETATM    9  O   UNL     1      -9.480  13.297  68.409  1.00  0.00    -0.214 OA 
HETATM   10  C   UNL     1      -7.970  12.042  66.834  1.00  0.00    -0.112 C  
HETATM   11  O   UNL     1      -8.910  11.102  68.888  1.00  0.00    -0.266 OA 
HETATM   12  H   UNL     1      -9.646  11.087  69.488  1.00  0.00     0.000 HD 
ENDROOT
BRANCH   5  13
HETATM   13  C   UNL     1      -6.092  16.226  66.950  1.00  0.00     0.040 C  
BRANCH  13  14
HETATM   14  C   UNL     1      -7.209  17.106  66.406  1.00  0.00    -0.325 C  
BRANCH  14  15
HETATM   15  C   UNL     1      -6.712  18.531  66.175  1.00  0.00    -0.275 C  
BRANCH  15  16
HETATM   16  C   UNL     1      -7.866  19.423  65.729  1.00  0.00    -0.120 C  
BRANCH  16  17
HETATM   17  C   UNL     1      -8.163  20.503  66.765  1.00  0.00    -0.217 C  
BRANCH  17  18
HETATM   18  C   UNL     1      -7.765  20.036  68.162  1.00  0.00    -0.271 C  
HETATM   19  O   UNL     1      -6.078  20.205  69.829  1.00  0.00    -0.317 OA 
HETATM   20  C   UNL     1      -6.438  20.613  68.589  1.00  0.00    -0.219 C  
HETATM   21  O   UNL     1      -5.741  21.360  67.921  1.00  0.00    -0.323 OA 
ENDBRANCH  17  18
ENDBRANCH  16  17
ENDBRANCH  15  16
ENDBRANCH  14  15
ENDBRANCH  13  14
ENDBRANCH   5  13
BRANCH   6  22
HETATM   22  C   UNL     1     -10.440  11.559  67.017  1.00  0.00    -0.228 C  
HETATM   23  F   UNL     1     -10.802  10.308  67.435  1.00  0.00    -0.283 F  
HETATM   24  F   UNL     1     -11.493  12.370  67.320  1.00  0.00    -0.310 F  
BRANCH  22  25
HETATM   25  C   UNL     1     -10.242  11.526  65.507  1.00  0.00    -0.303 C  
BRANCH  25  26
HETATM   26  C   UNL     1     -10.602  12.872  64.875  1.00  0.00    -0.342 C  
BRANCH  26  27
HETATM   27  C   UNL     1     -12.106  12.987  64.642  1.00  0.00    -0.463 C  
HETATM   28  C   UNL     1     -12.410  13.658  63.315  1.00  0.00    -0.037 C  
ENDBRANCH  26  27
ENDBRANCH  25  26
ENDBRANCH  22  25
ENDBRANCH   6  22
TORSDOF 10
ENDMDL
MODEL      278
REMARK 921   NORMALIZED FREE ENERGY PREDICTED BY IDOCK:   -2.74 KCAL/MOL
REMARK 922        TOTAL FREE ENERGY PREDICTED BY IDOCK:   -6.12 KCAL/MOL
REMARK 923 INTER-LIGAND FREE ENERGY PREDICTED BY IDOCK:   -5.36 KCAL/MOL
REMARK 924 INTRA-LIGAND FREE ENERGY PREDICTED BY IDOCK:   -0.76 KCAL/MOL
REMARK 927      BINDING AFFINITY PREDICTED BY RF-SCORE:    0.00 PKD
ROOT
HETATM    1  C   UNL     1      -6.087  16.573  68.857  1.00  0.00    -0.147 C  
HETATM    2  C   UNL     1      -5.169  15.585  68.164  1.00  0.00    -0.122 C  
HETATM    3  C   UNL     1      -5.950  14.307  68.335  1.00  0.00    -0.103 C  
HETATM    4  O   UNL     1      -5.436  13.203  68.219  1.00  0.00    -0.074 OA 
HETATM    5  C   UNL     1      -7.415  14.550  68.693  1.00  0.00    -0.128 C  
HETATM    6  C   UNL     1      -6.893  18.829  68.908  1.00  0.00    -0.291 C  
HETATM    7  C   UNL     1      -7.481  16.067  68.533  1.00  0.00    -0.156 C  
HETATM    8  C   UNL     1      -8.464  16.827  69.404  1.00  0.00     0.203 C  
HETATM    9  O   UNL     1      -5.972  17.881  68.332  1.00  0.00    -0.169 OA 
HETATM   10  C   UNL     1      -8.356  18.304  69.020  1.00  0.00    -0.062 C  
HETATM   11  O   UNL     1      -6.402  19.170  70.210  1.00  0.00    -0.146 OA 
HETATM   12  H   UNL     1      -5.509  19.490  70.141  1.00  0.00     0.000 HD 
ENDROOT
BRANCH   5  13
HETATM   13  C   UNL     1      -8.418  13.900  67.737  1.00  0.00    -0.183 C  
BRANCH  13  14
HETATM   14  C   UNL     1      -8.599  12.404  67.952  1.00  0.00    -0.171 C  
BRANCH  14  15
HETATM   15  C   UNL     1     -10.078  12.026  67.915  1.00  0.00    -0.199 C  
BRANCH  15  16
HETATM   16  C   UNL     1     -10.452  11.507  66.530  1.00  0.00    -0.284 C  
BRANCH  16  17
HETATM   17  C   UNL     1     -10.653   9.996  66.542  1.00  0.00    -0.165 C  
BRANCH  17  18
HETATM   18  C   UNL     1      -9.359   9.274  66.180  1.00  0.00    -0.270 C  
HETATM   19  O   UNL     1      -8.236   7.182  66.300  1.00  0.00    -0.112 OA 
HETATM   20  C   UNL     1      -9.381   7.830  66.619  1.00  0.00    -0.188 C  
HETATM   21  O   UNL     1     -10.303   7.279  67.198  1.00  0.00    -0.235 OA 
ENDBRANCH  17  18
ENDBRANCH  16  17
ENDBRANCH  15  16
ENDBRANCH  14  15
ENDBRANCH  13  14
ENDBRANCH   5  13
BRANCH   6  22
HETATM   22  C   UNL     1      -6.907  20.092  67.986  1.00  0.00    -0.279 C  
HETATM   23  F   UNL     1      -6.283  21.122  68.635  1.00  0.00    -0.364 F  
HETATM   24  F   UNL     1      -6.161  19.852  66.870  1.00  0.00    -0.182 F  
BRANCH  22  25
HETATM   25  C   UNL     1      -8.301  20.551  67.577  1.00  0.00    -0.310 C  
BRANCH  25  26
HETATM   26  C   UNL     1      -8.671  20.019  66.191  1.00  0.00    -0.310 C  
BRANCH  26  27
HETATM   27  C   UNL     1     -10.183  20.028  65.984  1.00  0.00    -0.568 C  
HETATM   28  C   UNL     1     -10.920  19.771  67.286  1.00  0.00    -0.345 C  
ENDBRANCH  26  27
ENDBRANCH  25  26
ENDBRANCH  22  25
ENDBRANCH   6  22
TORSDOF 10
ENDMDL
MODEL      279
REMARK 921   NORMALIZED FREE ENERGY PREDICTED BY IDOCK:   -2.69 KCAL/MOL
REMARK 922        TOTAL FREE ENERGY PREDICTED BY IDOCK:   -6.04 KCAL/MOL
REMARK 923 INTER-LIGAND FREE ENERGY PREDICTED BY IDOCK:   -4.60 KCAL/MOL
REMARK 924 INTRA-LIGAND FREE ENERGY PREDICTED BY IDOCK:   -1.44 KCAL/MOL
REMARK 927      BINDING AFFINITY PREDICTED BY RF-SCORE:    0.00 PKD
ROOT
HETATM    1  C   UNL     1      -9.304  12.232  68.260  1.00  0.00    -0.199 C  
HETATM    2  C   UNL     1      -7.793  12.105  68.295  1.00  0.00    -0.153 C  
HETATM    3  C   UNL     1      -7.629  10.962  69.263  1.00  0.00    -0.113 C  
HETATM    4  O   UNL     1      -6.573  10.736  69.839  1.00  0.00    -0.120 OA 
HETATM    5  C   UNL     1      -8.914  10.159  69.457  1.00  0.00    -0.205 C  
HETATM    6  C   UNL     1     -11.214  12.791  66.926  1.00  0.00    -0.296 C  
HETATM    7  C   UNL     1      -9.794  10.801  68.387  1.00  0.00    -0.177 C  
HETATM    8  C   UNL     1     -11.290  10.844  68.636  1.00  0.00    -0.360 C  
HETATM    9  O   UNL     1      -9.777  12.740  67.027  1.00  0.00    -0.214 OA 
HETATM   10  C   UNL     1     -11.931  11.495  67.408  1.00  0.00     0.075 C  
HETATM   11  O   UNL     1     -11.661  13.908  67.705  1.00  0.00    -0.308 OA 
HETATM   12  H   UNL     1     -11.223  14.699  67.411  1.00  0.00     0.000 HD 
ENDROOT
BRANCH   5  13
HETATM   13  C   UNL     1      -8.778   8.663  69.164  1.00  0.00    -0.136 C  
BRANCH  13  14
HETATM   14  C   UNL     1      -7.824   8.339  68.023  1.00  0.00    -0.118 C  
BRANCH  14  15
HETATM   15  C   UNL     1      -8.537   7.546  66.930  1.00  0.00    -0.124 C  
BRANCH  15  16
HETATM   16  C   UNL     1      -7.995   6.121  66.877  1.00  0.00    -0.105 C  
BRANCH  16  17
HETATM   17  C   UNL     1      -7.171   5.889  65.615  1.00  0.00    -0.075 C  
BRANCH  17  18
HETATM   18  C   UNL     1      -7.586   6.857  64.512  1.00  0.00    -0.107 C  
HETATM   19  O   UNL     1      -8.938   7.079  62.569  1.00  0.00     0.404 OA 
HETATM   20  C   UNL     1      -8.564   6.226  63.550  1.00  0.00     0.364 C  
HETATM   21  O   UNL     1      -8.986   5.082  63.617  1.00  0.00    -0.088 OA 
ENDBRANCH  17  18
ENDBRANCH  16  17
ENDBRANCH  15  16
ENDBRANCH  14  15
ENDBRANCH  13  14
ENDBRANCH   5  13
BRANCH   6  22
HETATM   22  C   UNL     1     -11.573  13.005  65.419  1.00  0.00    -0.341 C  
HETATM   23  F   UNL     1     -11.505  11.802  64.771  1.00  0.00    -0.371 F  
HETATM   24  F   UNL     1     -12.870  13.411  65.311  1.00  0.00    -0.494 F  
BRANCH  22  25
HETATM   25  C   UNL     1     -10.669  13.995  64.696  1.00  0.00    -0.416 C  
BRANCH  25  26
HETATM   26  C   UNL     1     -11.388  15.323  64.455  1.00  0.00    -0.307 C  
BRANCH  26  27
HETATM   27  C   UNL     1     -10.691  16.468  65.186  1.00  0.00    -0.261 C  
HETATM   28  C   UNL     1      -9.424  15.992  65.873  1.00  0.00    -0.351 C  
ENDBRANCH  26  27
ENDBRANCH  25  26
ENDBRANCH  22  25
ENDBRANCH   6  22
TORSDOF 10
ENDMDL
MODEL      280
REMARK 921   NORMALIZED FREE ENERGY PREDICTED BY IDOCK:   -2.68 KCAL/MOL
REMARK 922        TOTAL FREE ENERGY PREDICTED BY IDOCK:   -6.02 KCAL/MOL
REMARK 923 INTER-LIGAND FREE ENERGY PREDICTED BY IDOCK:   -6.23 KCAL/MOL
REMARK 924 INTRA-LIGAND FREE ENERGY PREDICTED BY IDOCK:    0.21 KCAL/MOL
REMARK 927      BINDING AFFINITY PREDICTED BY RF-SCORE:    0.00 PKD
ROOT
HETATM    1  C   UNL     1     -11.352  10.990  65.610  1.00  0.00     0.301 C  
HETATM    2  C   UNL     1     -11.368  11.347  64.136  1.00  0.00    -0.263 C  
HETATM    3  C   UNL     1     -12.209  12.597  64.159  1.00  0.00    -0.450 C  
HETATM    4  O   UNL     1     -12.755  13.040  63.156  1.00  0.00    -0.611 OA 
HETATM    5  C   UNL     1     -12.323  13.212  65.552  1.00  0.00    -0.529 C  
HETATM    6  C   UNL     1     -10.093  10.011  67.398  1.00  0.00    -0.208 C  
HETATM    7  C   UNL     1     -11.331  12.336  66.312  1.00  0.00    -0.395 C  
HETATM    8  C   UNL     1     -11.589  12.092  67.787  1.00  0.00    -0.410 C  
HETATM    9  O   UNL     1     -10.182  10.290  65.987  1.00  0.00    -0.253 OA 
HETATM   10  C   UNL     1     -10.439  11.227  68.309  1.00  0.00    -0.220 C  
HETATM   11  O   UNL     1     -10.987   8.927  67.680  1.00  0.00    -0.493 OA 
HETATM   12  H   UNL     1     -10.776   8.185  67.124  1.00  0.00     0.000 HD 
ENDROOT
BRANCH   5  13
HETATM   13  C   UNL     1     -11.874  14.672  65.641  1.00  0.00    -0.273 C  
BRANCH  13  14
HETATM   14  C   UNL     1     -10.751  15.034  64.679  1.00  0.00    -0.243 C  
BRANCH  14  15
HETATM   15  C   UNL     1      -9.388  14.830  65.336  1.00  0.00     0.335 C  
BRANCH  15  16
HETATM   16  C   UNL     1      -9.364  15.492  66.710  1.00  0.00    -0.267 C  
BRANCH  16  17
HETATM   17  C   UNL     1     -10.032  16.862  66.676  1.00  0.00    -0.302 C  
BRANCH  17  18
HETATM   18  C   UNL     1     -10.553  17.245  68.058  1.00  0.00    -0.394 C  
HETATM   19  O   UNL     1     -11.049  16.391  70.220  1.00  0.00    -0.359 OA 
HETATM   20  C   UNL     1     -10.590  16.059  68.991  1.00  0.00    -0.257 C  
HETATM   21  O   UNL     1     -10.256  14.921  68.705  1.00  0.00    -0.222 OA 
ENDBRANCH  17  18
ENDBRANCH  16  17
ENDBRANCH  15  16
ENDBRANCH  14  15
ENDBRANCH  13  14
ENDBRANCH   5  13
BRANCH   6  22
HETATM   22  C   UNL     1      -8.619   9.589  67.702  1.00  0.00    -0.122 C  
HETATM   23  F   UNL     1      -8.328   9.895  69.004  1.00  0.00    -0.103 F  
HETATM   24  F   UNL     1      -8.501   8.234  67.606  1.00  0.00    -0.124 F  
BRANCH  22  25
HETATM   25  C   UNL     1      -7.581  10.254  66.806  1.00  0.00    -0.107 C  
BRANCH  25  26
HETATM   26  C   UNL     1      -6.495   9.260  66.390  1.00  0.00    -0.066 C  
BRANCH  26  27
HETATM   27  C   UNL     1      -6.664   8.837  64.933  1.00  0.00    -0.069 C  
HETATM   28  C   UNL     1      -7.094  10.007  64.066  1.00  0.00    -0.126 C  
ENDBRANCH  26  27
ENDBRANCH  25  26
ENDBRANCH  22  25
ENDBRANCH   6  22
TORSDOF 10
ENDMDL
MODEL      281
REMARK 921   NORMALIZED FREE ENERGY PREDICTED BY IDOCK:   -2.62 KCAL/MOL
REMARK 922        TOTAL FREE ENERGY PREDICTED BY IDOCK:   -5.93 KCAL/MOL
REMARK 923 INTER-LIGAND FREE ENERGY PREDICTED BY IDOCK:   -4.74 KCAL/MOL
REMARK 924 INTRA-LIGAND FREE ENERGY PREDICTED BY IDOCK:   -1.19 KCAL/MOL
REMARK 927      BINDING AFFINITY PREDICTED BY RF-SCORE:    0.00 PKD
ROOT
HETATM    1  C   UNL     1      -9.953   8.512  66.144  1.00  0.00    -0.090 C  
HETATM    2  C   UNL     1     -10.675   7.375  66.841  1.00  0.00    -0.324 C  
HETATM    3  C   UNL     1      -9.658   6.271  66.704  1.00  0.00    -0.157 C  
HETATM    4  O   UNL     1      -9.951   5.089  66.832  1.00  0.00    -0.171 OA 
HETATM    5  C   UNL     1      -8.261   6.788  66.364  1.00  0.00    -0.117 C  
HETATM    6  C   UNL     1      -9.598  10.881  66.065  1.00  0.00    -0.209 C  
HETATM    7  C   UNL     1      -8.493   8.291  66.497  1.00  0.00    -0.121 C  
HETATM    8  C   UNL     1      -7.661   9.214  65.628  1.00  0.00    -0.094 C  
HETATM    9  O   UNL     1     -10.329   9.781  66.644  1.00  0.00    -0.235 OA 
HETATM   10  C   UNL     1      -8.060  10.648  65.984  1.00  0.00    -0.159 C  
HETATM   11  O   UNL     1     -10.124  11.101  64.750  1.00  0.00    -0.253 OA 
HETATM   12  H   UNL     1     -11.062  11.243  64.800  1.00  0.00     0.000 HD 
ENDROOT
BRANCH   5  13
HETATM   13  C   UNL     1      -7.169   6.359  67.345  1.00  0.00    -0.082 C  
BRANCH  13  14
HETATM   14  C   UNL     1      -7.599   6.394  68.805  1.00  0.00    -0.093 C  
BRANCH  14  15
HETATM   15  C   UNL     1      -6.631   7.234  69.635  1.00  0.00    -0.040 C  
BRANCH  15  16
HETATM   16  C   UNL     1      -6.833   6.953  71.120  1.00  0.00    -0.058 C  
BRANCH  16  17
HETATM   17  C   UNL     1      -7.661   5.692  71.337  1.00  0.00    -0.109 C  
BRANCH  17  18
HETATM   18  C   UNL     1      -8.948   6.012  72.092  1.00  0.00    -0.142 C  
HETATM   19  O   UNL     1     -10.836   5.034  73.156  1.00  0.00    -0.234 OA 
HETATM   20  C   UNL     1      -9.693   4.760  72.484  1.00  0.00    -0.148 C  
HETATM   21  O   UNL     1      -9.340   3.617  72.239  1.00  0.00    -0.112 OA 
ENDBRANCH  17  18
ENDBRANCH  16  17
ENDBRANCH  15  16
ENDBRANCH  14  15
ENDBRANCH  13  14
ENDBRANCH   5  13
BRANCH   6  22
HETATM   22  C   UNL     1      -9.846  12.136  66.964  1.00  0.00    -0.203 C  
HETATM   23  F   UNL     1      -9.785  11.761  68.278  1.00  0.00    -0.174 F  
HETATM   24  F   UNL     1      -8.835  13.032  66.788  1.00  0.00    -0.208 F  
BRANCH  22  25
HETATM   25  C   UNL     1     -11.183  12.824  66.720  1.00  0.00    -0.338 C  
BRANCH  25  26
HETATM   26  C   UNL     1     -10.983  14.217  66.117  1.00  0.00    -0.309 C  
BRANCH  26  27
HETATM   27  C   UNL     1     -11.478  14.268  64.674  1.00  0.00    -0.389 C  
HETATM   28  C   UNL     1     -11.666  15.700  64.206  1.00  0.00    -0.171 C  
ENDBRANCH  26  27
ENDBRANCH  25  26
ENDBRANCH  22  25
ENDBRANCH   6  22
TORSDOF 10
ENDMDL
MODEL      282
REMARK 921   NORMALIZED FREE ENERGY PREDICTED BY IDOCK:   -2.54 KCAL/MOL
REMARK 922        TOTAL FREE ENERGY PREDICTED BY IDOCK:   -5.80 KCAL/MOL
REMARK 923 INTER-LIGAND FREE ENERGY PREDICTED BY IDOCK:   -5.92 KCAL/MOL
REMARK 924 INTRA-LIGAND FREE ENERGY PREDICTED BY IDOCK:    0.12 KCAL/MOL
REMARK 927      BINDING AFFINITY PREDICTED BY RF-SCORE:    0.00 PKD
ROOT
HETATM    1  C   UNL     1      -8.151  13.555  68.377  1.00  0.00    -0.145 C  
HETATM    2  C   UNL     1      -6.966  13.946  67.516  1.00  0.00    -0.162 C  
HETATM    3  C   UNL     1      -6.338  12.597  67.273  1.00  0.00    -0.094 C  
HETATM    4  O   UNL     1      -5.178  12.470  66.902  1.00  0.00    -0.341 OA 
HETATM    5  C   UNL     1      -7.288  11.438  67.567  1.00  0.00    -0.112 C  
HETATM    6  C   UNL     1     -10.417  14.056  68.974  1.00  0.00    -0.156 C  
HETATM    7  C   UNL     1      -8.580  12.209  67.820  1.00  0.00    -0.164 C  
HETATM    8  C   UNL     1      -9.585  11.608  68.785  1.00  0.00    -0.083 C  
HETATM    9  O   UNL     1      -9.241  14.446  68.237  1.00  0.00    -0.188 OA 
HETATM   10  C   UNL     1     -10.790  12.551  68.825  1.00  0.00    -0.276 C  
HETATM   11  O   UNL     1     -10.179  14.361  70.354  1.00  0.00     0.005 OA 
HETATM   12  H   UNL     1      -9.952  15.279  70.445  1.00  0.00     0.000 HD 
ENDROOT
BRANCH   5  13
HETATM   13  C   UNL     1      -7.498  10.476  66.396  1.00  0.00    -0.133 C  
BRANCH  13  14
HETATM   14  C   UNL     1      -8.634  10.873  65.464  1.00  0.00    -0.149 C  
BRANCH  14  15
HETATM   15  C   UNL     1      -9.530   9.674  65.161  1.00  0.00    -0.332 C  
BRANCH  15  16
HETATM   16  C   UNL     1     -10.505   9.445  66.311  1.00  0.00    -0.112 C  
BRANCH  16  17
HETATM   17  C   UNL     1     -10.310   8.067  66.935  1.00  0.00    -0.408 C  
BRANCH  17  18
HETATM   18  C   UNL     1     -10.659   8.092  68.420  1.00  0.00    -0.150 C  
HETATM   19  O   UNL     1      -9.727   8.009  70.606  1.00  0.00    -0.172 OA 
HETATM   20  C   UNL     1      -9.427   7.987  69.286  1.00  0.00    -0.155 C  
HETATM   21  O   UNL     1      -8.280   7.888  68.880  1.00  0.00    -0.123 OA 
ENDBRANCH  17  18
ENDBRANCH  16  17
ENDBRANCH  15  16
ENDBRANCH  14  15
ENDBRANCH  13  14
ENDBRANCH   5  13
BRANCH   6  22
HETATM   22  C   UNL     1     -11.614  14.902  68.432  1.00  0.00    -0.325 C  
HETATM   23  F   UNL     1     -11.212  15.575  67.310  1.00  0.00    -0.319 F  
HETATM   24  F   UNL     1     -12.615  14.071  68.026  1.00  0.00    -0.241 F  
BRANCH  22  25
HETATM   25  C   UNL     1     -12.167  15.913  69.429  1.00  0.00    -0.080 C  
BRANCH  25  26
HETATM   26  C   UNL     1     -11.732  15.574  70.856  1.00  0.00    -0.413 C  
BRANCH  26  27
HETATM   27  C   UNL     1     -12.904  15.674  71.828  1.00  0.00    -0.530 C  
HETATM   28  C   UNL     1     -12.630  14.899  73.104  1.00  0.00    -0.559 C  
ENDBRANCH  26  27
ENDBRANCH  25  26
ENDBRANCH  22  25
ENDBRANCH   6  22
TORSDOF 10
ENDMDL
MODEL      283
REMARK 921   NORMALIZED FREE ENERGY PREDICTED BY IDOCK:   -2.42 KCAL/MOL
REMARK 922        TOTAL FREE ENERGY PREDICTED BY IDOCK:   -5.60 KCAL/MOL
REMARK 923 INTER-LIGAND FREE ENERGY PREDICTED BY IDOCK:   -4.13 KCAL/MOL
REMARK 924 INTRA-LIGAND FREE ENERGY PREDICTED BY IDOCK:   -1.48 KCAL/MOL
REMARK 927      BINDING AFFINITY PREDICTED BY RF-SCORE:    0.00 PKD
ROOT
HETATM    1  C   UNL     1      -9.422  15.142  66.843  1.00  0.00    -0.238 C  
HETATM    2  C   UNL     1      -8.695  16.361  66.307  1.00  0.00    -0.369 C  
HETATM    3  C   UNL     1      -7.795  16.686  67.472  1.00  0.00    -0.171 C  
HETATM    4  O   UNL     1      -7.270  17.783  67.610  1.00  0.00    -0.186 OA 
HETATM    5  C   UNL     1      -7.645  15.522  68.450  1.00  0.00    -0.116 C  
HETATM    6  C   UNL     1     -10.449  13.049  66.294  1.00  0.00    -0.276 C  
HETATM    7  C   UNL     1      -8.373  14.427  67.675  1.00  0.00    -0.186 C  
HETATM    8  C   UNL     1      -9.074  13.344  68.473  1.00  0.00    -0.077 C  
HETATM    9  O   UNL     1      -9.832  14.260  65.816  1.00  0.00    -0.313 OA 
HETATM   10  C   UNL     1      -9.682  12.365  67.465  1.00  0.00    -0.191 C  
HETATM   11  O   UNL     1     -11.778  13.380  66.716  1.00  0.00    -0.346 OA 
HETATM   12  H   UNL     1     -12.246  13.797  66.002  1.00  0.00     0.000 HD 
ENDROOT
BRANCH   5  13
HETATM   13  C   UNL     1      -6.200  15.085  68.700  1.00  0.00    -0.085 C  
BRANCH  13  14
HETATM   14  C   UNL     1      -6.073  13.773  69.462  1.00  0.00    -0.112 C  
BRANCH  14  15
HETATM   15  C   UNL     1      -5.282  12.750  68.650  1.00  0.00    -0.057 C  
BRANCH  15  16
HETATM   16  C   UNL     1      -5.999  11.403  68.664  1.00  0.00    -0.042 C  
BRANCH  16  17
HETATM   17  C   UNL     1      -6.705  11.166  69.994  1.00  0.00    -0.058 C  
BRANCH  17  18
HETATM   18  C   UNL     1      -5.759  10.519  71.001  1.00  0.00    -0.041 C  
HETATM   19  O   UNL     1      -5.203   8.462  72.056  1.00  0.00    -0.034 OA 
HETATM   20  C   UNL     1      -6.039   9.045  71.166  1.00  0.00    -0.058 C  
HETATM   21  O   UNL     1      -6.910   8.419  70.583  1.00  0.00    -0.036 OA 
ENDBRANCH  17  18
ENDBRANCH  16  17
ENDBRANCH  15  16
ENDBRANCH  14  15
ENDBRANCH  13  14
ENDBRANCH   5  13
BRANCH   6  22
HETATM   22  C   UNL     1     -10.497  12.041  65.100  1.00  0.00    -0.289 C  
HETATM   23  F   UNL     1     -11.746  11.488  65.034  1.00  0.00    -0.270 F  
HETATM   24  F   UNL     1     -10.327  12.714  63.927  1.00  0.00    -0.366 F  
BRANCH  22  25
HETATM   25  C   UNL     1      -9.474  10.916  65.191  1.00  0.00    -0.268 C  
BRANCH  25  26
HETATM   26  C   UNL     1     -10.132   9.554  64.961  1.00  0.00     0.360 C  
BRANCH  26  27
HETATM   27  C   UNL     1      -9.239   8.420  65.459  1.00  0.00    -0.057 C  
HETATM   28  C   UNL     1      -9.533   8.083  66.910  1.00  0.00    -0.244 C  
ENDBRANCH  26  27
ENDBRANCH  25  26
ENDBRANCH  22  25
ENDBRANCH   6  22
TORSDOF 10
ENDMDL
MODEL      284
REMARK 921   NORMALIZED FREE ENERGY PREDICTED BY IDOCK:   -2.03 KCAL/MOL
REMARK 922        TOTAL FREE ENERGY PREDICTED BY IDOCK:   -4.99 KCAL/MOL
REMARK 923 INTER-LIGAND FREE ENERGY PREDICTED BY IDOCK:   -4.03 KCAL/MOL
REMARK 924 INTRA-LIGAND FREE ENERGY PREDICTED BY IDOCK:   -0.96 KCAL/MOL
REMARK 927      BINDING AFFINITY PREDICTED BY RF-SCORE:    0.00 PKD
ROOT
HETATM    1  C   UNL     1      -6.557   8.835  70.266  1.00  0.00    -0.040 C  
HETATM    2  C   UNL     1      -6.593  10.257  69.741  1.00  0.00    -0.090 C  
HETATM    3  C   UNL     1      -5.824  10.102  68.454  1.00  0.00    -0.041 C  
HETATM    4  O   UNL     1      -5.327  11.054  67.867  1.00  0.00    -0.040 OA 
HETATM    5  C   UNL     1      -5.717   8.648  67.998  1.00  0.00    -0.035 C  
HETATM    6  C   UNL     1      -7.720   7.155  71.517  1.00  0.00    -0.089 C  
HETATM    7  C   UNL     1      -6.640   7.981  69.013  1.00  0.00    -0.048 C  
HETATM    8  C   UNL     1      -6.338   6.548  69.409  1.00  0.00    -0.035 C  
HETATM    9  O   UNL     1      -7.677   8.525  71.073  1.00  0.00    -0.076 OA 
HETATM   10  C   UNL     1      -7.425   6.114  70.396  1.00  0.00    -0.090 C  
HETATM   11  O   UNL     1      -6.759   7.014  72.571  1.00  0.00    -0.060 OA 
HETATM   12  H   UNL     1      -6.939   7.649  73.255  1.00  0.00     0.000 HD 
ENDROOT
BRANCH   5  13
HETATM   13  C   UNL     1      -6.246   8.384  66.587  1.00  0.00    -0.054 C  
BRANCH  13  14
HETATM   14  C   UNL     1      -7.383   9.307  66.169  1.00  0.00    -0.095 C  
BRANCH  14  15
HETATM   15  C   UNL     1      -8.685   8.911  66.862  1.00  0.00    -0.128 C  
BRANCH  15  16
HETATM   16  C   UNL     1      -9.846   9.723  66.298  1.00  0.00    -0.315 C  
BRANCH  16  17
HETATM   17  C   UNL     1     -10.869  10.050  67.381  1.00  0.00    -0.313 C  
BRANCH  17  18
HETATM   18  C   UNL     1     -10.351  11.151  68.301  1.00  0.00    -0.198 C  
HETATM   19  O   UNL     1     -10.857  13.298  69.188  1.00  0.00    -0.206 OA 
HETATM   20  C   UNL     1     -11.307  12.317  68.372  1.00  0.00    -0.292 C  
HETATM   21  O   UNL     1     -12.369  12.401  67.776  1.00  0.00    -0.281 OA 
ENDBRANCH  17  18
ENDBRANCH  16  17
ENDBRANCH  15  16
ENDBRANCH  14  15
ENDBRANCH  13  14
ENDBRANCH   5  13
BRANCH   6  22
HETATM   22  C   UNL     1      -9.161   6.880  72.058  1.00  0.00    -0.136 C  
HETATM   23  F   UNL     1      -9.143   6.945  73.424  1.00  0.00    -0.135 F  
HETATM   24  F   UNL     1      -9.999   7.876  71.652  1.00  0.00    -0.188 F  
BRANCH  22  25
HETATM   25  C   UNL     1      -9.737   5.532  71.645  1.00  0.00    -0.203 C  
BRANCH  25  26
HETATM   26  C   UNL     1      -9.615   4.511  72.777  1.00  0.00    -0.168 C  
BRANCH  26  27
HETATM   27  C   UNL     1     -10.947   4.326  73.498  1.00  0.00    -0.373 C  
HETATM   28  C   UNL     1     -11.281   2.855  73.672  1.00  0.00    -0.305 C  
ENDBRANCH  26  27
ENDBRANCH  25  26
ENDBRANCH  22  25
ENDBRANCH   6  22
TORSDOF 10
ENDMDL
MODEL      285
REMARK 921   NORMALIZED FREE ENERGY PREDICTED BY IDOCK:   -1.85 KCAL/MOL
REMARK 922        TOTAL FREE ENERGY PREDICTED BY IDOCK:   -4.70 KCAL/MOL
REMARK 923 INTER-LIGAND FREE ENERGY PREDICTED BY IDOCK:   -5.36 KCAL/MOL
REMARK 924 INTRA-LIGAND FREE ENERGY PREDICTED BY IDOCK:    0.66 KCAL/MOL
REMARK 927      BINDING AFFINITY PREDICTED BY RF-SCORE:    0.00 PKD
ROOT
HETATM    1  C   UNL     1      -5.902  16.394  68.243  1.00  0.00    -0.108 C  
HETATM    2  C   UNL     1      -5.130  15.441  67.351  1.00  0.00     0.168 C  
HETATM    3  C   UNL     1      -5.932  14.177  67.530  1.00  0.00     0.096 C  
HETATM    4  O   UNL     1      -5.484  13.071  67.256  1.00  0.00    -0.335 OA 
HETATM    5  C   UNL     1      -7.322  14.432  68.110  1.00  0.00    -0.130 C  
HETATM    6  C   UNL     1      -6.601  18.661  68.583  1.00  0.00    -0.257 C  
HETATM    7  C   UNL     1      -7.347  15.958  68.081  1.00  0.00    -0.133 C  
HETATM    8  C   UNL     1      -8.168  16.671  69.139  1.00  0.00    -0.126 C  
HETATM    9  O   UNL     1      -5.808  17.738  67.810  1.00  0.00    -0.143 OA 
HETATM   10  C   UNL     1      -8.054  18.172  68.860  1.00  0.00    -0.171 C  
HETATM   11  O   UNL     1      -5.919  18.877  69.825  1.00  0.00    -0.249 OA 
HETATM   12  H   UNL     1      -5.033  19.176  69.657  1.00  0.00     0.000 HD 
ENDROOT
BRANCH   5  13
HETATM   13  C   UNL     1      -8.473  13.894  67.258  1.00  0.00    -0.212 C  
BRANCH  13  14
HETATM   14  C   UNL     1      -8.804  12.431  67.517  1.00  0.00    -0.181 C  
BRANCH  14  15
HETATM   15  C   UNL     1      -9.896  12.302  68.577  1.00  0.00    -0.157 C  
BRANCH  15  16
HETATM   16  C   UNL     1     -11.266  12.227  67.912  1.00  0.00    -0.328 C  
BRANCH  16  17
HETATM   17  C   UNL     1     -11.724  13.600  67.432  1.00  0.00    -0.416 C  
BRANCH  17  18
HETATM   18  C   UNL     1     -12.418  14.363  68.556  1.00  0.00     0.166 C  
HETATM   19  O   UNL     1     -12.067  15.945  70.296  1.00  0.00    -0.353 OA 
HETATM   20  C   UNL     1     -11.459  15.262  69.298  1.00  0.00    -0.320 C  
HETATM   21  O   UNL     1     -10.269  15.383  69.057  1.00  0.00    -0.212 OA 
ENDBRANCH  17  18
ENDBRANCH  16  17
ENDBRANCH  15  16
ENDBRANCH  14  15
ENDBRANCH  13  14
ENDBRANCH   5  13
BRANCH   6  22
HETATM   22  C   UNL     1      -6.691  19.996  67.775  1.00  0.00    -0.250 C  
HETATM   23  F   UNL     1      -6.247  21.023  68.563  1.00  0.00    -0.350 F  
HETATM   24  F   UNL     1      -5.836  19.947  66.715  1.00  0.00    -0.172 F  
BRANCH  22  25
HETATM   25  C   UNL     1      -8.092  20.335  67.283  1.00  0.00    -0.381 C  
BRANCH  25  26
HETATM   26  C   UNL     1      -8.369  19.690  65.923  1.00  0.00    -0.188 C  
BRANCH  26  27
HETATM   27  C   UNL     1      -9.859  19.716  65.595  1.00  0.00    -0.051 C  
HETATM   28  C   UNL     1     -10.703  19.697  66.857  1.00  0.00    -0.570 C  
ENDBRANCH  26  27
ENDBRANCH  25  26
ENDBRANCH  22  25
ENDBRANCH   6  22
TORSDOF 10
ENDMDL
MODEL      286
REMARK 921   NORMALIZED FREE ENERGY PREDICTED BY IDOCK:   -1.84 KCAL/MOL
REMARK 922        TOTAL FREE ENERGY PREDICTED BY IDOCK:   -4.69 KCAL/MOL
REMARK 923 INTER-LIGAND FREE ENERGY PREDICTED BY IDOCK:   -3.63 KCAL/MOL
REMARK 924 INTRA-LIGAND FREE ENERGY PREDICTED BY IDOCK:   -1.06 KCAL/MOL
REMARK 927      BINDING AFFINITY PREDICTED BY RF-SCORE:    0.00 PKD
ROOT
HETATM    1  C   UNL     1      -9.935   8.850  67.678  1.00  0.00    -0.196 C  
HETATM    2  C   UNL     1     -10.534   8.234  68.927  1.00  0.00    -0.209 C  
HETATM    3  C   UNL     1     -10.840   6.842  68.436  1.00  0.00    -0.223 C  
HETATM    4  O   UNL     1     -11.629   6.102  69.008  1.00  0.00    -0.236 OA 
HETATM    5  C   UNL     1     -10.090   6.487  67.153  1.00  0.00    -0.223 C  
HETATM    6  C   UNL     1      -8.348  10.420  66.809  1.00  0.00    -0.126 C  
HETATM    7  C   UNL     1      -9.177   7.704  67.032  1.00  0.00    -0.168 C  
HETATM    8  C   UNL     1      -8.770   8.146  65.639  1.00  0.00    -0.176 C  
HETATM    9  O   UNL     1      -9.002   9.872  67.971  1.00  0.00    -0.122 OA 
HETATM   10  C   UNL     1      -7.835   9.347  65.803  1.00  0.00    -0.099 C  
HETATM   11  O   UNL     1      -9.285  11.286  66.156  1.00  0.00    -0.194 OA 
HETATM   12  H   UNL     1      -9.597  11.941  66.770  1.00  0.00     0.000 HD 
ENDROOT
BRANCH   5  13
HETATM   13  C   UNL     1      -9.233   5.224  67.247  1.00  0.00    -0.114 C  
BRANCH  13  14
HETATM   14  C   UNL     1      -8.934   4.782  68.674  1.00  0.00    -0.136 C  
BRANCH  14  15
HETATM   15  C   UNL     1      -7.495   5.121  69.055  1.00  0.00    -0.069 C  
BRANCH  15  16
HETATM   16  C   UNL     1      -7.101   4.377  70.327  1.00  0.00    -0.045 C  
BRANCH  16  17
HETATM   17  C   UNL     1      -8.253   3.525  70.849  1.00  0.00    -0.080 C  
BRANCH  17  18
HETATM   18  C   UNL     1      -8.698   4.002  72.228  1.00  0.00    -0.118 C  
HETATM   19  O   UNL     1      -8.712   3.432  74.537  1.00  0.00    -0.085 OA 
HETATM   20  C   UNL     1      -8.323   3.017  73.309  1.00  0.00    -0.076 C  
HETATM   21  O   UNL     1      -7.740   1.959  73.133  1.00  0.00    -0.039 OA 
ENDBRANCH  17  18
ENDBRANCH  16  17
ENDBRANCH  15  16
ENDBRANCH  14  15
ENDBRANCH  13  14
ENDBRANCH   5  13
BRANCH   6  22
HETATM   22  C   UNL     1      -7.112  11.238  67.307  1.00  0.00    -0.114 C  
HETATM   23  F   UNL     1      -6.250  10.394  67.953  1.00  0.00    -0.056 F  
HETATM   24  F   UNL     1      -6.422  11.723  66.236  1.00  0.00    -0.068 F  
BRANCH  22  25
HETATM   25  C   UNL     1      -7.460  12.386  68.247  1.00  0.00    -0.124 C  
BRANCH  25  26
HETATM   26  C   UNL     1      -6.890  13.710  67.735  1.00  0.00    -0.175 C  
BRANCH  26  27
HETATM   27  C   UNL     1      -7.987  14.589  67.142  1.00  0.00    -0.167 C  
HETATM   28  C   UNL     1      -9.329  14.311  67.795  1.00  0.00    -0.198 C  
ENDBRANCH  26  27
ENDBRANCH  25  26
ENDBRANCH  22  25
ENDBRANCH   6  22
TORSDOF 10
ENDMDL
MODEL      287
REMARK 921   NORMALIZED FREE ENERGY PREDICTED BY IDOCK:   -1.11 KCAL/MOL
REMARK 922        TOTAL FREE ENERGY PREDICTED BY IDOCK:   -3.54 KCAL/MOL
REMARK 923 INTER-LIGAND FREE ENERGY PREDICTED BY IDOCK:   -3.45 KCAL/MOL
REMARK 924 INTRA-LIGAND FREE ENERGY PREDICTED BY IDOCK:   -0.09 KCAL/MOL
REMARK 927      BINDING AFFINITY PREDICTED BY RF-SCORE:    0.00 PKD
ROOT
HETATM    1  C   UNL     1      -8.000   8.325  69.648  1.00  0.00    -0.111 C  
HETATM    2  C   UNL     1      -8.506   9.663  70.153  1.00  0.00    -0.231 C  
HETATM    3  C   UNL     1      -8.690  10.403  68.853  1.00  0.00    -0.157 C  
HETATM    4  O   UNL     1      -8.769  11.624  68.798  1.00  0.00    -0.119 OA 
HETATM    5  C   UNL     1      -8.732   9.474  67.641  1.00  0.00    -0.122 C  
HETATM    6  C   UNL     1      -7.947   5.959  70.019  1.00  0.00    -0.105 C  
HETATM    7  C   UNL     1      -8.749   8.119  68.344  1.00  0.00    -0.134 C  
HETATM    8  C   UNL     1      -8.114   6.943  67.626  1.00  0.00    -0.113 C  
HETATM    9  O   UNL     1      -8.337   7.257  70.511  1.00  0.00    -0.129 OA 
HETATM   10  C   UNL     1      -8.300   5.716  68.521  1.00  0.00    -0.106 C  
HETATM   11  O   UNL     1      -6.532   5.835  70.208  1.00  0.00    -0.033 OA 
HETATM   12  H   UNL     1      -6.317   5.983  71.121  1.00  0.00     0.000 HD 
ENDROOT
BRANCH   5  13
HETATM   13  C   UNL     1      -9.989   9.610  66.781  1.00  0.00    -0.289 C  
BRANCH  13  14
HETATM   14  C   UNL     1      -9.715   9.651  65.284  1.00  0.00    -0.330 C  
BRANCH  14  15
HETATM   15  C   UNL     1      -8.229   9.871  65.011  1.00  0.00    -0.143 C  
BRANCH  15  16
HETATM   16  C   UNL     1      -7.590   8.579  64.511  1.00  0.00    -0.115 C  
BRANCH  16  17
HETATM   17  C   UNL     1      -8.520   7.835  63.560  1.00  0.00     0.239 C  
BRANCH  17  18
HETATM   18  C   UNL     1      -7.723   6.948  62.607  1.00  0.00    -0.105 C  
HETATM   19  O   UNL     1      -5.895   5.434  62.481  1.00  0.00    -0.014 OA 
HETATM   20  C   UNL     1      -6.606   6.224  63.319  1.00  0.00    -0.040 C  
HETATM   21  O   UNL     1      -6.344   6.318  64.507  1.00  0.00    -0.029 OA 
ENDBRANCH  17  18
ENDBRANCH  16  17
ENDBRANCH  15  16
ENDBRANCH  14  15
ENDBRANCH  13  14
ENDBRANCH   5  13
BRANCH   6  22
HETATM   22  C   UNL     1      -8.703   4.887  70.870  1.00  0.00    -0.120 C  
HETATM   23  F   UNL     1      -8.444   3.646  70.354  1.00  0.00    -0.062 F  
HETATM   24  F   UNL     1      -8.201   4.872  72.137  1.00  0.00    -0.105 F  
BRANCH  22  25
HETATM   25  C   UNL     1     -10.213   5.083  70.923  1.00  0.00    -0.287 C  
BRANCH  25  26
HETATM   26  C   UNL     1     -10.568   6.506  71.358  1.00  0.00    -0.266 C  
BRANCH  26  27
HETATM   27  C   UNL     1     -12.015   6.843  71.010  1.00  0.00    -0.422 C  
HETATM   28  C   UNL     1     -12.193   8.332  70.770  1.00  0.00    -0.001 C  
ENDBRANCH  26  27
ENDBRANCH  25  26
ENDBRANCH  22  25
ENDBRANCH   6  22
TORSDOF 10
ENDMDL
MODEL      288
REMARK 921   NORMALIZED FREE ENERGY PREDICTED BY IDOCK:   -1.09 KCAL/MOL
REMARK 922        TOTAL FREE ENERGY PREDICTED BY IDOCK:   -3.50 KCAL/MOL
REMARK 923 INTER-LIGAND FREE ENERGY PREDICTED BY IDOCK:   -3.84 KCAL/MOL
REMARK 924 INTRA-LIGAND FREE ENERGY PREDICTED BY IDOCK:    0.34 KCAL/MOL
REMARK 927      BINDING AFFINITY PREDICTED BY RF-SCORE:    0.00 PKD
ROOT
HETATM    1  C   UNL     1     -10.191  17.522  69.664  1.00  0.00     0.173 C  
HETATM    2  C   UNL     1     -10.421  18.835  68.941  1.00  0.00     0.054 C  
HETATM    3  C   UNL     1      -9.103  18.999  68.228  1.00  0.00    -0.327 C  
HETATM    4  O   UNL     1      -8.723  20.077  67.791  1.00  0.00    -0.320 OA 
HETATM    5  C   UNL     1      -8.306  17.699  68.148  1.00  0.00    -0.259 C  
HETATM    6  C   UNL     1     -11.198  15.509  70.485  1.00  0.00    -0.342 C  
HETATM    7  C   UNL     1      -9.337  16.718  68.699  1.00  0.00    -0.252 C  
HETATM    8  C   UNL     1      -8.826  15.497  69.440  1.00  0.00    -0.257 C  
HETATM    9  O   UNL     1     -11.390  16.802  69.879  1.00  0.00    -0.034 OA 
HETATM   10  C   UNL     1     -10.049  14.673  69.847  1.00  0.00     0.235 C  
HETATM   11  O   UNL     1     -10.926  15.722  71.876  1.00  0.00    -0.084 OA 
HETATM   12  H   UNL     1     -11.627  16.232  72.265  1.00  0.00     0.000 HD 
ENDROOT
BRANCH   5  13
HETATM   13  C   UNL     1      -7.921  17.278  66.728  1.00  0.00    -0.276 C  
BRANCH  13  14
HETATM   14  C   UNL     1      -9.018  16.529  65.985  1.00  0.00    -0.276 C  
BRANCH  14  15
HETATM   15  C   UNL     1      -8.787  15.021  66.053  1.00  0.00     0.109 C  
BRANCH  15  16
HETATM   16  C   UNL     1     -10.063  14.277  65.674  1.00  0.00    -0.364 C  
BRANCH  16  17
HETATM   17  C   UNL     1     -11.049  15.197  64.963  1.00  0.00    -0.428 C  
BRANCH  17  18
HETATM   18  C   UNL     1     -12.057  14.388  64.152  1.00  0.00    -0.405 C  
HETATM   19  O   UNL     1     -12.431  12.277  63.124  1.00  0.00    -0.508 OA 
HETATM   20  C   UNL     1     -11.543  13.003  63.842  1.00  0.00    -0.449 C  
HETATM   21  O   UNL     1     -10.458  12.557  64.179  1.00  0.00    -0.351 OA 
ENDBRANCH  17  18
ENDBRANCH  16  17
ENDBRANCH  15  16
ENDBRANCH  14  15
ENDBRANCH  13  14
ENDBRANCH   5  13
BRANCH   6  22
HETATM   22  C   UNL     1     -12.528  14.706  70.311  1.00  0.00    -0.346 C  
HETATM   23  F   UNL     1     -13.246  14.777  71.474  1.00  0.00    -0.340 F  
HETATM   24  F   UNL     1     -13.302  15.303  69.361  1.00  0.00     0.428 F  
BRANCH  22  25
HETATM   25  C   UNL     1     -12.330  13.238  69.955  1.00  0.00    -0.269 C  
BRANCH  25  26
HETATM   26  C   UNL     1     -12.196  13.051  68.443  1.00  0.00    -0.029 C  
BRANCH  26  27
HETATM   27  C   UNL     1     -12.052  11.576  68.080  1.00  0.00    -0.032 C  
HETATM   28  C   UNL     1     -12.126  11.367  66.578  1.00  0.00     1.108 C  
ENDBRANCH  26  27
ENDBRANCH  25  26
ENDBRANCH  22  25
ENDBRANCH   6  22
TORSDOF 10
ENDMDL
MODEL      289
REMARK 921   NORMALIZED FREE ENERGY PREDICTED BY IDOCK:   -1.07 KCAL/MOL
REMARK 922        TOTAL FREE ENERGY PREDICTED BY IDOCK:   -3.47 KCAL/MOL
REMARK 923 INTER-LIGAND FREE ENERGY PREDICTED BY IDOCK:   -4.60 KCAL/MOL
REMARK 924 INTRA-LIGAND FREE ENERGY PREDICTED BY IDOCK:    1.13 KCAL/MOL
REMARK 927      BINDING AFFINITY PREDICTED BY RF-SCORE:    0.00 PKD
ROOT
HETATM    1  C   UNL     1      -8.988  15.566  66.093  1.00  0.00    -0.294 C  
HETATM    2  C   UNL     1      -7.844  16.445  66.560  1.00  0.00    -0.323 C  
HETATM    3  C   UNL     1      -8.587  17.450  67.404  1.00  0.00    -0.214 C  
HETATM    4  O   UNL     1      -8.107  18.534  67.709  1.00  0.00    -0.245 OA 
HETATM    5  C   UNL     1      -9.986  16.978  67.795  1.00  0.00    -0.280 C  
HETATM    6  C   UNL     1      -9.661  13.350  65.480  1.00  0.00    -0.042 C  
HETATM    7  C   UNL     1      -9.938  15.543  67.278  1.00  0.00    -0.238 C  
HETATM    8  C   UNL     1     -11.239  14.915  66.815  1.00  0.00    -0.338 C  
HETATM    9  O   UNL     1      -8.582  14.235  65.842  1.00  0.00     0.623 OA 
HETATM   10  C   UNL     1     -10.920  13.480  66.388  1.00  0.00    -0.297 C  
HETATM   11  O   UNL     1     -10.015  13.635  64.121  1.00  0.00    -0.746 OA 
HETATM   12  H   UNL     1      -9.246  13.556  63.567  1.00  0.00     0.000 HD 
ENDROOT
BRANCH   5  13
HETATM   13  C   UNL     1     -10.251  16.960  69.301  1.00  0.00    -0.262 C  
BRANCH  13  14
HETATM   14  C   UNL     1     -11.722  16.822  69.670  1.00  0.00     0.748 C  
BRANCH  14  15
HETATM   15  C   UNL     1     -12.242  15.432  69.314  1.00  0.00    -0.219 C  
BRANCH  15  16
HETATM   16  C   UNL     1     -11.480  14.370  70.101  1.00  0.00    -0.280 C  
BRANCH  16  17
HETATM   17  C   UNL     1     -11.722  14.512  71.600  1.00  0.00    -0.146 C  
BRANCH  17  18
HETATM   18  C   UNL     1     -13.120  15.058  71.873  1.00  0.00    -0.437 C  
HETATM   19  O   UNL     1     -14.390  16.408  73.363  1.00  0.00    -0.049 OA 
HETATM   20  C   UNL     1     -13.153  15.918  73.113  1.00  0.00    -0.572 C  
HETATM   21  O   UNL     1     -12.197  16.162  73.832  1.00  0.00    -0.492 OA 
ENDBRANCH  17  18
ENDBRANCH  16  17
ENDBRANCH  15  16
ENDBRANCH  14  15
ENDBRANCH  13  14
ENDBRANCH   5  13
BRANCH   6  22
HETATM   22  C   UNL     1      -9.130  11.885  65.605  1.00  0.00     0.021 C  
HETATM   23  F   UNL     1      -8.269  11.634  64.572  1.00  0.00     0.510 F  
HETATM   24  F   UNL     1      -8.389  11.762  66.743  1.00  0.00    -0.160 F  
BRANCH  22  25
HETATM   25  C   UNL     1     -10.222  10.822  65.593  1.00  0.00    -0.320 C  
BRANCH  25  26
HETATM   26  C   UNL     1     -10.092   9.886  66.796  1.00  0.00    -0.292 C  
BRANCH  26  27
HETATM   27  C   UNL     1      -8.912   8.933  66.629  1.00  0.00    -0.165 C  
HETATM   28  C   UNL     1      -7.767   9.304  67.554  1.00  0.00    -0.092 C  
ENDBRANCH  26  27
ENDBRANCH  25  26
ENDBRANCH  22  25
ENDBRANCH   6  22
TORSDOF 10
ENDMDL
MODEL      290
REMARK 921   NORMALIZED FREE ENERGY PREDICTED BY IDOCK:   -0.87 KCAL/MOL
REMARK 922        TOTAL FREE ENERGY PREDICTED BY IDOCK:   -3.15 KCAL/MOL
REMARK 923 INTER-LIGAND FREE ENERGY PREDICTED BY IDOCK:   -3.59 KCAL/MOL
REMARK 924 INTRA-LIGAND FREE ENERGY PREDICTED BY IDOCK:    0.44 KCAL/MOL
REMARK 927      BINDING AFFINITY PREDICTED BY RF-SCORE:    0.00 PKD
ROOT
HETATM    1  C   UNL     1      -7.919   8.574  69.639  1.00  0.00    -0.101 C  
HETATM    2  C   UNL     1      -6.995   9.708  70.041  1.00  0.00    -0.093 C  
HETATM    3  C   UNL     1      -6.286   9.968  68.737  1.00  0.00    -0.040 C  
HETATM    4  O   UNL     1      -5.224  10.575  68.676  1.00  0.00    -0.038 OA 
HETATM    5  C   UNL     1      -7.016   9.373  67.534  1.00  0.00    -0.077 C  
HETATM    6  C   UNL     1     -10.048   7.534  69.995  1.00  0.00    -0.199 C  
HETATM    7  C   UNL     1      -8.303   8.906  68.208  1.00  0.00    -0.125 C  
HETATM    8  C   UNL     1      -9.007   7.694  67.626  1.00  0.00    -0.127 C  
HETATM    9  O   UNL     1      -9.107   8.545  70.407  1.00  0.00    -0.143 OA 
HETATM   10  C   UNL     1     -10.273   7.468  68.454  1.00  0.00    -0.211 C  
HETATM   11  O   UNL     1      -9.559   6.273  70.466  1.00  0.00    -0.164 OA 
HETATM   12  H   UNL     1      -9.422   6.313  71.406  1.00  0.00     0.000 HD 
ENDROOT
BRANCH   5  13
HETATM   13  C   UNL     1      -7.360  10.381  66.437  1.00  0.00    -0.120 C  
BRANCH  13  14
HETATM   14  C   UNL     1      -6.993   9.920  65.034  1.00  0.00    -0.130 C  
BRANCH  14  15
HETATM   15  C   UNL     1      -6.018   8.747  65.086  1.00  0.00    -0.055 C  
BRANCH  15  16
HETATM   16  C   UNL     1      -6.743   7.447  64.754  1.00  0.00    -0.047 C  
BRANCH  16  17
HETATM   17  C   UNL     1      -7.735   7.644  63.612  1.00  0.00    -0.123 C  
BRANCH  17  18
HETATM   18  C   UNL     1      -7.932   6.345  62.837  1.00  0.00    -0.091 C  
HETATM   19  O   UNL     1      -7.956   3.976  63.045  1.00  0.00    -0.072 OA 
HETATM   20  C   UNL     1      -7.781   5.133  63.725  1.00  0.00    -0.078 C  
HETATM   21  O   UNL     1      -7.527   5.156  64.919  1.00  0.00    -0.069 OA 
ENDBRANCH  17  18
ENDBRANCH  16  17
ENDBRANCH  15  16
ENDBRANCH  14  15
ENDBRANCH  13  14
ENDBRANCH   5  13
BRANCH   6  22
HETATM   22  C   UNL     1     -11.421   7.867  70.665  1.00  0.00    -0.238 C  
HETATM   23  F   UNL     1     -12.430   7.395  69.872  1.00  0.00     0.261 F  
HETATM   24  F   UNL     1     -11.530   7.191  71.844  1.00  0.00    -0.259 F  
BRANCH  22  25
HETATM   25  C   UNL     1     -11.652   9.353  70.909  1.00  0.00    -0.380 C  
BRANCH  25  26
HETATM   26  C   UNL     1     -13.106   9.628  71.298  1.00  0.00    -0.437 C  
BRANCH  26  27
HETATM   27  C   UNL     1     -13.458   8.958  72.624  1.00  0.00    -0.386 C  
HETATM   28  C   UNL     1     -14.267   7.692  72.405  1.00  0.00    -0.050 C  
ENDBRANCH  26  27
ENDBRANCH  25  26
ENDBRANCH  22  25
ENDBRANCH   6  22
TORSDOF 10
ENDMDL
MODEL      291
REMARK 921   NORMALIZED FREE ENERGY PREDICTED BY IDOCK:   -0.52 KCAL/MOL
REMARK 922        TOTAL FREE ENERGY PREDICTED BY IDOCK:   -2.60 KCAL/MOL
REMARK 923 INTER-LIGAND FREE ENERGY PREDICTED BY IDOCK:   -1.60 KCAL/MOL
REMARK 924 INTRA-LIGAND FREE ENERGY PREDICTED BY IDOCK:   -1.00 KCAL/MOL
REMARK 927      BINDING AFFINITY PREDICTED BY RF-SCORE:    0.00 PKD
ROOT
HETATM    1  C   UNL     1      -9.540  11.879  66.043  1.00  0.00    -0.235 C  
HETATM    2  C   UNL     1      -8.662  13.116  66.058  1.00  0.00     0.644 C  
HETATM    3  C   UNL     1      -9.692  14.189  66.304  1.00  0.00    -0.297 C  
HETATM    4  O   UNL     1      -9.480  15.370  66.064  1.00  0.00    -0.306 OA 
HETATM    5  C   UNL     1     -11.010  13.635  66.843  1.00  0.00    -0.296 C  
HETATM    6  C   UNL     1      -9.676   9.541  66.548  1.00  0.00    -0.222 C  
HETATM    7  C   UNL     1     -10.612  12.179  67.074  1.00  0.00    -0.256 C  
HETATM    8  C   UNL     1     -11.692  11.122  66.940  1.00  0.00     0.309 C  
HETATM    9  O   UNL     1      -8.849  10.719  66.466  1.00  0.00    -0.147 OA 
HETATM   10  C   UNL     1     -11.043   9.773  67.257  1.00  0.00    -0.002 C  
HETATM   11  O   UNL     1      -9.898   9.077  65.210  1.00  0.00    -0.417 OA 
HETATM   12  H   UNL     1      -9.064   8.936  64.777  1.00  0.00     0.000 HD 
ENDROOT
BRANCH   5  13
HETATM   13  C   UNL     1     -11.460  14.249  68.170  1.00  0.00    -0.336 C  
BRANCH  13  14
HETATM   14  C   UNL     1     -12.304  15.507  68.015  1.00  0.00     0.662 C  
BRANCH  14  15
HETATM   15  C   UNL     1     -11.905  16.557  69.049  1.00  0.00     0.235 C  
BRANCH  15  16
HETATM   16  C   UNL     1     -10.424  16.425  69.386  1.00  0.00    -0.309 C  
BRANCH  16  17
HETATM   17  C   UNL     1      -9.634  17.630  68.886  1.00  0.00    -0.217 C  
BRANCH  17  18
HETATM   18  C   UNL     1     -10.527  18.565  68.075  1.00  0.00    -0.395 C  
HETATM   19  O   UNL     1     -10.741  20.796  67.283  1.00  0.00     0.466 OA 
HETATM   20  C   UNL     1      -9.956  19.960  68.002  1.00  0.00    -0.429 C  
HETATM   21  O   UNL     1      -8.914  20.329  68.520  1.00  0.00    -0.003 OA 
ENDBRANCH  17  18
ENDBRANCH  16  17
ENDBRANCH  15  16
ENDBRANCH  14  15
ENDBRANCH  13  14
ENDBRANCH   5  13
BRANCH   6  22
HETATM   22  C   UNL     1      -8.887   8.468  67.367  1.00  0.00    -0.134 C  
HETATM   23  F   UNL     1      -9.778   7.605  67.944  1.00  0.00    -0.143 F  
HETATM   24  F   UNL     1      -8.132   7.711  66.522  1.00  0.00    -0.106 F  
BRANCH  22  25
HETATM   25  C   UNL     1      -7.998   9.048  68.461  1.00  0.00    -0.103 C  
BRANCH  25  26
HETATM   26  C   UNL     1      -8.819   9.428  69.694  1.00  0.00    -0.178 C  
BRANCH  26  27
HETATM   27  C   UNL     1      -8.950  10.943  69.823  1.00  0.00     0.585 C  
HETATM   28  C   UNL     1      -7.857  11.659  69.049  1.00  0.00     0.031 C  
ENDBRANCH  26  27
ENDBRANCH  25  26
ENDBRANCH  22  25
ENDBRANCH   6  22
TORSDOF 10
ENDMDL
MODEL      292
REMARK 921   NORMALIZED FREE ENERGY PREDICTED BY IDOCK:    3.38 KCAL/MOL
REMARK 922        TOTAL FREE ENERGY PREDICTED BY IDOCK:    3.58 KCAL/MOL
REMARK 923 INTER-LIGAND FREE ENERGY PREDICTED BY IDOCK:    1.99 KCAL/MOL
REMARK 924 INTRA-LIGAND FREE ENERGY PREDICTED BY IDOCK:    1.58 KCAL/MOL
REMARK 927      BINDING AFFINITY PREDICTED BY RF-SCORE:    0.00 PKD
ROOT
HETATM    1  C   UNL     1      -6.103  17.033  68.563  1.00  0.00    -0.147 C  
HETATM    2  C   UNL     1      -5.249  16.336  67.521  1.00  0.00    -0.150 C  
HETATM    3  C   UNL     1      -6.166  15.213  67.111  1.00  0.00     0.456 C  
HETATM    4  O   UNL     1      -5.761  14.212  66.533  1.00  0.00     1.837 OA 
HETATM    5  C   UNL     1      -7.618  15.452  67.520  1.00  0.00    -0.207 C  
HETATM    6  C   UNL     1      -6.675  19.126  69.578  1.00  0.00    -0.241 C  
HETATM    7  C   UNL     1      -7.518  16.886  68.034  1.00  0.00    -0.177 C  
HETATM    8  C   UNL     1      -8.471  17.309  69.136  1.00  0.00     0.029 C  
HETATM    9  O   UNL     1      -5.821  18.415  68.660  1.00  0.00    -0.183 OA 
HETATM   10  C   UNL     1      -8.187  18.784  69.433  1.00  0.00     0.249 C  
HETATM   11  O   UNL     1      -6.234  18.813  70.905  1.00  0.00     0.205 OA 
HETATM   12  H   UNL     1      -5.311  19.021  70.994  1.00  0.00     0.000 HD 
ENDROOT
BRANCH   5  13
HETATM   13  C   UNL     1      -8.619  15.401  66.364  1.00  0.00    -0.244 C  
BRANCH  13  14
HETATM   14  C   UNL     1      -9.656  14.294  66.491  1.00  0.00    -0.313 C  
BRANCH  14  15
HETATM   15  C   UNL     1     -10.243  13.943  65.125  1.00  0.00    -0.382 C  
BRANCH  15  16
HETATM   16  C   UNL     1     -10.051  12.457  64.839  1.00  0.00    -0.259 C  
BRANCH  16  17
HETATM   17  C   UNL     1      -8.613  12.024  65.102  1.00  0.00     0.947 C  
BRANCH  17  18
HETATM   18  C   UNL     1      -8.493  11.337  66.459  1.00  0.00    -0.171 C  
HETATM   19  O   UNL     1      -9.737  10.253  68.171  1.00  0.00    -0.141 OA 
HETATM   20  C   UNL     1      -9.834  10.865  66.968  1.00  0.00    -0.183 C  
HETATM   21  O   UNL     1     -10.901  11.005  66.392  1.00  0.00    -0.257 OA 
ENDBRANCH  17  18
ENDBRANCH  16  17
ENDBRANCH  15  16
ENDBRANCH  14  15
ENDBRANCH  13  14
ENDBRANCH   5  13
BRANCH   6  22
HETATM   22  C   UNL     1      -6.500  20.654  69.297  1.00  0.00    -0.016 C  
HETATM   23  F   UNL     1      -6.460  21.324  70.489  1.00  0.00     0.854 F  
HETATM   24  F   UNL     1      -5.291  20.875  68.707  1.00  0.00    -0.274 F  
BRANCH  22  25
HETATM   25  C   UNL     1      -7.602  21.261  68.438  1.00  0.00     1.267 C  
BRANCH  25  26
HETATM   26  C   UNL     1      -7.848  20.421  67.183  1.00  0.00    -0.378 C  
BRANCH  26  27
HETATM   27  C   UNL     1      -9.341  20.285  66.895  1.00  0.00    -0.505 C  
HETATM   28  C   UNL     1      -9.620  20.319  65.403  1.00  0.00     0.374 C  
ENDBRANCH  26  27
ENDBRANCH  25  26
ENDBRANCH  22  25
ENDBRANCH   6  22
TORSDOF 10
ENDMDL
MODEL      293
REMARK 921   NORMALIZED FREE ENERGY PREDICTED BY IDOCK:    3.81 KCAL/MOL
REMARK 922        TOTAL FREE ENERGY PREDICTED BY IDOCK:    4.27 KCAL/MOL
REMARK 923 INTER-LIGAND FREE ENERGY PREDICTED BY IDOCK:    2.17 KCAL/MOL
REMARK 924 INTRA-LIGAND FREE ENERGY PREDICTED BY IDOCK:    2.09 KCAL/MOL
REMARK 927      BINDING AFFINITY PREDICTED BY RF-SCORE:    0.00 PKD
ROOT
HETATM    1  C   UNL     1      -8.251  17.083  67.862  1.00  0.00    -0.200 C  
HETATM    2  C   UNL     1      -7.459  17.405  66.610  1.00  0.00    -0.289 C  
HETATM    3  C   UNL     1      -6.171  16.675  66.896  1.00  0.00    -0.154 C  
HETATM    4  O   UNL     1      -5.128  16.929  66.308  1.00  0.00    -0.364 OA 
HETATM    5  C   UNL     1      -6.315  15.629  68.000  1.00  0.00    -0.147 C  
HETATM    6  C   UNL     1     -10.427  16.680  68.780  1.00  0.00    -0.324 C  
HETATM    7  C   UNL     1      -7.826  15.668  68.210  1.00  0.00    -0.128 C  
HETATM    8  C   UNL     1      -8.355  15.353  69.596  1.00  0.00    -0.127 C  
HETATM    9  O   UNL     1      -9.647  17.069  67.632  1.00  0.00    -0.244 OA 
HETATM   10  C   UNL     1      -9.882  15.424  69.522  1.00  0.00    -0.262 C  
HETATM   11  O   UNL     1     -10.457  17.796  69.678  1.00  0.00    -0.299 OA 
HETATM   12  H   UNL     1     -10.790  18.563  69.225  1.00  0.00     0.000 HD 
ENDROOT
BRANCH   5  13
HETATM   13  C   UNL     1      -5.901  14.214  67.591  1.00  0.00    -0.017 C  
BRANCH  13  14
HETATM   14  C   UNL     1      -6.958  13.155  67.866  1.00  0.00    -0.132 C  
BRANCH  14  15
HETATM   15  C   UNL     1      -7.891  12.996  66.668  1.00  0.00     0.501 C  
BRANCH  15  16
HETATM   16  C   UNL     1      -9.309  12.698  67.143  1.00  0.00    -0.210 C  
BRANCH  16  17
HETATM   17  C   UNL     1     -10.002  11.699  66.224  1.00  0.00    -0.247 C  
BRANCH  17  18
HETATM   18  C   UNL     1     -10.961  12.410  65.274  1.00  0.00    -0.335 C  
HETATM   19  O   UNL     1     -12.059  12.229  63.173  1.00  0.00    -0.426 OA 
HETATM   20  C   UNL     1     -11.208  11.606  64.021  1.00  0.00    -0.369 C  
HETATM   21  O   UNL     1     -10.714  10.519  63.767  1.00  0.00     0.072 OA 
ENDBRANCH  17  18
ENDBRANCH  16  17
ENDBRANCH  15  16
ENDBRANCH  14  15
ENDBRANCH  13  14
ENDBRANCH   5  13
BRANCH   6  22
HETATM   22  C   UNL     1     -11.871  16.351  68.278  1.00  0.00     0.284 C  
HETATM   23  F   UNL     1     -11.835  15.195  67.547  1.00  0.00    -0.349 F  
HETATM   24  F   UNL     1     -12.678  16.088  69.345  1.00  0.00    -0.140 F  
BRANCH  22  25
HETATM   25  C   UNL     1     -12.500  17.444  67.424  1.00  0.00     4.110 C  
BRANCH  25  26
HETATM   26  C   UNL     1     -11.757  18.771  67.593  1.00  0.00     1.602 C  
BRANCH  26  27
HETATM   27  C   UNL     1     -10.662  18.928  66.542  1.00  0.00    -0.375 C  
HETATM   28  C   UNL     1     -11.237  19.366  65.207  1.00  0.00     0.742 C  
ENDBRANCH  26  27
ENDBRANCH  25  26
ENDBRANCH  22  25
ENDBRANCH   6  22
TORSDOF 10
ENDMDL
MODEL      294
REMARK 921   NORMALIZED FREE ENERGY PREDICTED BY IDOCK:    4.31 KCAL/MOL
REMARK 922        TOTAL FREE ENERGY PREDICTED BY IDOCK:    5.05 KCAL/MOL
REMARK 923 INTER-LIGAND FREE ENERGY PREDICTED BY IDOCK:    3.62 KCAL/MOL
REMARK 924 INTRA-LIGAND FREE ENERGY PREDICTED BY IDOCK:    1.43 KCAL/MOL
REMARK 927      BINDING AFFINITY PREDICTED BY RF-SCORE:    0.00 PKD
ROOT
HETATM    1  C   UNL     1      -8.262  17.084  67.857  1.00  0.00    -0.200 C  
HETATM    2  C   UNL     1      -7.468  17.407  66.607  1.00  0.00    -0.289 C  
HETATM    3  C   UNL     1      -6.177  16.685  66.899  1.00  0.00    -0.154 C  
HETATM    4  O   UNL     1      -5.133  16.944  66.314  1.00  0.00    -0.364 OA 
HETATM    5  C   UNL     1      -6.317  15.642  68.005  1.00  0.00    -0.147 C  
HETATM    6  C   UNL     1     -10.439  16.670  68.770  1.00  0.00    -0.324 C  
HETATM    7  C   UNL     1      -7.829  15.672  68.211  1.00  0.00    -0.128 C  
HETATM    8  C   UNL     1      -8.360  15.358  69.597  1.00  0.00    -0.127 C  
HETATM    9  O   UNL     1      -9.657  17.059  67.623  1.00  0.00    -0.244 OA 
HETATM   10  C   UNL     1      -9.888  15.419  69.518  1.00  0.00    -0.262 C  
HETATM   11  O   UNL     1     -10.478  17.789  69.664  1.00  0.00    -0.299 OA 
HETATM   12  H   UNL     1     -10.814  18.552  69.208  1.00  0.00     0.000 HD 
ENDROOT
BRANCH   5  13
HETATM   13  C   UNL     1      -5.893  14.229  67.603  1.00  0.00    -0.012 C  
BRANCH  13  14
HETATM   14  C   UNL     1      -6.945  13.163  67.877  1.00  0.00    -0.132 C  
BRANCH  14  15
HETATM   15  C   UNL     1      -7.870  12.993  66.673  1.00  0.00     0.501 C  
BRANCH  15  16
HETATM   16  C   UNL     1      -9.289  12.689  67.141  1.00  0.00    -0.210 C  
BRANCH  16  17
HETATM   17  C   UNL     1      -9.285  11.909  68.451  1.00  0.00    -0.173 C  
BRANCH  17  18
HETATM   18  C   UNL     1      -9.540  10.426  68.199  1.00  0.00    -0.155 C  
HETATM   19  O   UNL     1      -9.213   8.248  69.094  1.00  0.00    -0.150 OA 
HETATM   20  C   UNL     1      -8.989   9.565  69.309  1.00  0.00    -0.160 C  
HETATM   21  O   UNL     1      -8.402   9.974  70.298  1.00  0.00    -0.135 OA 
ENDBRANCH  17  18
ENDBRANCH  16  17
ENDBRANCH  15  16
ENDBRANCH  14  15
ENDBRANCH  13  14
ENDBRANCH   5  13
BRANCH   6  22
HETATM   22  C   UNL     1     -11.879  16.330  68.265  1.00  0.00     0.177 C  
HETATM   23  F   UNL     1     -11.834  15.169  67.542  1.00  0.00    -0.349 F  
HETATM   24  F   UNL     1     -12.688  16.070  69.331  1.00  0.00    -0.140 F  
BRANCH  22  25
HETATM   25  C   UNL     1     -12.509  17.414  67.401  1.00  0.00     4.110 C  
BRANCH  25  26
HETATM   26  C   UNL     1     -12.125  18.809  67.899  1.00  0.00     3.321 C  
BRANCH  26  27
HETATM   27  C   UNL     1     -10.873  19.321  67.191  1.00  0.00    -0.543 C  
HETATM   28  C   UNL     1     -11.201  19.851  65.807  1.00  0.00     0.213 C  
ENDBRANCH  26  27
ENDBRANCH  25  26
ENDBRANCH  22  25
ENDBRANCH   6  22
TORSDOF 10
ENDMDL
MODEL      295
REMARK 921   NORMALIZED FREE ENERGY PREDICTED BY IDOCK:    6.03 KCAL/MOL
REMARK 922        TOTAL FREE ENERGY PREDICTED BY IDOCK:    7.79 KCAL/MOL
REMARK 923 INTER-LIGAND FREE ENERGY PREDICTED BY IDOCK:    5.98 KCAL/MOL
REMARK 924 INTRA-LIGAND FREE ENERGY PREDICTED BY IDOCK:    1.81 KCAL/MOL
REMARK 927      BINDING AFFINITY PREDICTED BY RF-SCORE:    0.00 PKD
ROOT
HETATM    1  C   UNL     1     -10.148  18.078  69.910  1.00  0.00     0.769 C  
HETATM    2  C   UNL     1     -10.464  19.557  69.805  1.00  0.00     0.640 C  
HETATM    3  C   UNL     1      -9.153  20.157  70.246  1.00  0.00     1.342 C  
HETATM    4  O   UNL     1      -9.057  21.316  70.627  1.00  0.00     2.768 OA 
HETATM    5  C   UNL     1      -7.996  19.162  70.190  1.00  0.00     1.192 C  
HETATM    6  C   UNL     1     -10.559  15.896  69.010  1.00  0.00    -0.247 C  
HETATM    7  C   UNL     1      -8.688  17.986  69.505  1.00  0.00     0.699 C  
HETATM    8  C   UNL     1      -8.202  16.588  69.839  1.00  0.00     1.045 C  
HETATM    9  O   UNL     1     -10.897  17.297  68.999  1.00  0.00    -0.237 OA 
HETATM   10  C   UNL     1      -9.027  15.612  68.997  1.00  0.00    -0.239 C  
HETATM   11  O   UNL     1     -11.146  15.321  70.184  1.00  0.00    -0.256 OA 
HETATM   12  H   UNL     1     -12.081  15.494  70.192  1.00  0.00     0.000 HD 
ENDROOT
BRANCH   5  13
HETATM   13  C   UNL     1      -6.810  19.614  69.337  1.00  0.00    -0.377 C  
BRANCH  13  14
HETATM   14  C   UNL     1      -6.775  18.994  67.947  1.00  0.00    -0.237 C  
BRANCH  14  15
HETATM   15  C   UNL     1      -7.946  19.490  67.103  1.00  0.00    -0.298 C  
BRANCH  15  16
HETATM   16  C   UNL     1      -7.648  19.287  65.621  1.00  0.00    -0.065 C  
BRANCH  16  17
HETATM   17  C   UNL     1      -7.778  20.594  64.846  1.00  0.00     0.779 C  
BRANCH  17  18
HETATM   18  C   UNL     1      -6.873  20.587  63.617  1.00  0.00     0.464 C  
HETATM   19  O   UNL     1      -5.211  19.331  62.472  1.00  0.00    -0.280 OA 
HETATM   20  C   UNL     1      -6.016  19.346  63.560  1.00  0.00     0.063 C  
HETATM   21  O   UNL     1      -6.018  18.444  64.382  1.00  0.00    -0.200 OA 
ENDBRANCH  17  18
ENDBRANCH  16  17
ENDBRANCH  15  16
ENDBRANCH  14  15
ENDBRANCH  13  14
ENDBRANCH   5  13
BRANCH   6  22
HETATM   22  C   UNL     1     -11.176  15.252  67.726  1.00  0.00    -0.326 C  
HETATM   23  F   UNL     1     -12.529  15.458  67.731  1.00  0.00     0.098 F  
HETATM   24  F   UNL     1     -10.708  15.898  66.620  1.00  0.00    -0.310 F  
BRANCH  22  25
HETATM   25  C   UNL     1     -10.915  13.757  67.589  1.00  0.00    -0.278 C  
BRANCH  25  26
HETATM   26  C   UNL     1      -9.422  13.472  67.420  1.00  0.00    -0.225 C  
BRANCH  26  27
HETATM   27  C   UNL     1      -9.125  11.983  67.571  1.00  0.00    -0.177 C  
HETATM   28  C   UNL     1      -7.969  11.558  66.683  1.00  0.00    -0.127 C  
ENDBRANCH  26  27
ENDBRANCH  25  26
ENDBRANCH  22  25
ENDBRANCH   6  22
TORSDOF 10
ENDMDL
MODEL      296
REMARK 921   NORMALIZED FREE ENERGY PREDICTED BY IDOCK:    9.74 KCAL/MOL
REMARK 922        TOTAL FREE ENERGY PREDICTED BY IDOCK:   13.66 KCAL/MOL
REMARK 923 INTER-LIGAND FREE ENERGY PREDICTED BY IDOCK:    6.83 KCAL/MOL
REMARK 924 INTRA-LIGAND FREE ENERGY PREDICTED BY IDOCK:    6.84 KCAL/MOL
REMARK 927      BINDING AFFINITY PREDICTED BY RF-SCORE:    0.00 PKD
ROOT
HETATM    1  C   UNL     1      -9.080  16.013  66.195  1.00  0.00    -0.351 C  
HETATM    2  C   UNL     1      -7.596  15.812  66.431  1.00  0.00     0.310 C  
HETATM    3  C   UNL     1      -7.237  17.116  67.095  1.00  0.00    -0.173 C  
HETATM    4  O   UNL     1      -6.085  17.523  67.162  1.00  0.00    -0.122 OA 
HETATM    5  C   UNL     1      -8.455  17.865  67.632  1.00  0.00    -0.234 C  
HETATM    6  C   UNL     1     -11.226  14.955  66.054  1.00  0.00    -0.327 C  
HETATM    7  C   UNL     1      -9.538  16.813  67.401  1.00  0.00    -0.236 C  
HETATM    8  C   UNL     1     -10.948  17.299  67.127  1.00  0.00     0.042 C  
HETATM    9  O   UNL     1      -9.799  14.795  66.189  1.00  0.00    -0.279 OA 
HETATM   10  C   UNL     1     -11.830  16.058  66.974  1.00  0.00     0.786 C  
HETATM   11  O   UNL     1     -11.495  15.270  64.682  1.00  0.00    -0.501 OA 
HETATM   12  H   UNL     1     -11.126  14.597  64.121  1.00  0.00     0.000 HD 
ENDROOT
BRANCH   5  13
HETATM   13  C   UNL     1      -8.389  18.199  69.123  1.00  0.00     0.094 C  
BRANCH  13  14
HETATM   14  C   UNL     1      -7.066  17.835  69.782  1.00  0.00     0.438 C  
BRANCH  14  15
HETATM   15  C   UNL     1      -5.889  18.349  68.956  1.00  0.00    -0.216 C  
BRANCH  15  16
HETATM   16  C   UNL     1      -6.214  19.724  68.381  1.00  0.00    -0.292 C  
BRANCH  16  17
HETATM   17  C   UNL     1      -6.898  20.609  69.417  1.00  0.00     0.353 C  
BRANCH  17  18
HETATM   18  C   UNL     1      -6.532  20.170  70.831  1.00  0.00    -0.060 C  
HETATM   19  O   UNL     1      -7.382  19.919  73.037  1.00  0.00     1.901 OA 
HETATM   20  C   UNL     1      -7.698  20.308  71.780  1.00  0.00     1.855 C  
HETATM   21  O   UNL     1      -8.807  20.722  71.485  1.00  0.00     1.205 OA 
ENDBRANCH  17  18
ENDBRANCH  16  17
ENDBRANCH  15  16
ENDBRANCH  14  15
ENDBRANCH  13  14
ENDBRANCH   5  13
BRANCH   6  22
HETATM   22  C   UNL     1     -11.891  13.593  66.437  1.00  0.00    -0.398 C  
HETATM   23  F   UNL     1     -12.380  13.681  67.712  1.00  0.00    -0.367 F  
HETATM   24  F   UNL     1     -12.974  13.373  65.640  1.00  0.00    -0.494 F  
BRANCH  22  25
HETATM   25  C   UNL     1     -10.951  12.396  66.361  1.00  0.00    -0.315 C  
BRANCH  25  26
HETATM   26  C   UNL     1     -11.475  11.347  65.379  1.00  0.00     0.028 C  
BRANCH  26  27
HETATM   27  C   UNL     1     -11.978  10.107  66.113  1.00  0.00     4.029 C  
HETATM   28  C   UNL     1     -11.337   9.981  67.484  1.00  0.00     0.151 C  
ENDBRANCH  26  27
ENDBRANCH  25  26
ENDBRANCH  22  25
ENDBRANCH   6  22
TORSDOF 10
ENDMDL
MODEL      297
REMARK 921   NORMALIZED FREE ENERGY PREDICTED BY IDOCK:   17.23 KCAL/MOL
REMARK 922        TOTAL FREE ENERGY PREDICTED BY IDOCK:   25.53 KCAL/MOL
REMARK 923 INTER-LIGAND FREE ENERGY PREDICTED BY IDOCK:   23.74 KCAL/MOL
REMARK 924 INTRA-LIGAND FREE ENERGY PREDICTED BY IDOCK:    1.79 KCAL/MOL
REMARK 927      BINDING AFFINITY PREDICTED BY RF-SCORE:    0.00 PKD
ROOT
HETATM    1  C   UNL     1     -10.296   8.281  67.583  1.00  0.00    -0.248 C  
HETATM    2  C   UNL     1     -11.119   7.800  68.763  1.00  0.00     0.239 C  
HETATM    3  C   UNL     1     -12.247   7.097  68.051  1.00  0.00     3.625 C  
HETATM    4  O   UNL     1     -13.312   6.843  68.598  1.00  0.00     7.272 OA 
HETATM    5  C   UNL     1     -11.920   6.776  66.593  1.00  0.00     3.012 C  
HETATM    6  C   UNL     1      -8.095   8.767  66.771  1.00  0.00    -0.104 C  
HETATM    7  C   UNL     1     -10.447   7.174  66.556  1.00  0.00    -0.055 C  
HETATM    8  C   UNL     1      -9.886   7.682  65.241  1.00  0.00     1.666 C  
HETATM    9  O   UNL     1      -8.920   8.396  67.893  1.00  0.00    -0.136 OA 
HETATM   10  C   UNL     1      -8.399   7.969  65.468  1.00  0.00    -0.153 C  
HETATM   11  O   UNL     1      -8.291  10.167  66.537  1.00  0.00    -0.121 OA 
HETATM   12  H   UNL     1      -8.105  10.653  67.332  1.00  0.00     0.000 HD 
ENDROOT
BRANCH   5  13
HETATM   13  C   UNL     1     -12.051   5.298  66.224  1.00  0.00     3.706 C  
BRANCH  13  14
HETATM   14  C   UNL     1     -11.602   4.342  67.322  1.00  0.00     5.860 C  
BRANCH  14  15
HETATM   15  C   UNL     1     -10.169   4.647  67.752  1.00  0.00    -0.027 C  
BRANCH  15  16
HETATM   16  C   UNL     1      -9.585   3.460  68.510  1.00  0.00    -0.138 C  
BRANCH  16  17
HETATM   17  C   UNL     1      -9.648   3.680  70.018  1.00  0.00    -0.244 C  
BRANCH  17  18
HETATM   18  C   UNL     1      -8.456   4.505  70.494  1.00  0.00    -0.099 C  
HETATM   19  O   UNL     1      -6.084   4.529  70.645  1.00  0.00    -0.017 OA 
HETATM   20  C   UNL     1      -7.147   3.804  70.227  1.00  0.00    -0.041 C  
HETATM   21  O   UNL     1      -7.023   2.709  69.701  1.00  0.00    -0.033 OA 
ENDBRANCH  17  18
ENDBRANCH  16  17
ENDBRANCH  15  16
ENDBRANCH  14  15
ENDBRANCH  13  14
ENDBRANCH   5  13
BRANCH   6  22
HETATM   22  C   UNL     1      -6.609   8.487  67.167  1.00  0.00    -0.058 C  
HETATM   23  F   UNL     1      -6.424   7.136  67.278  1.00  0.00    -0.047 F  
HETATM   24  F   UNL     1      -5.783   8.892  66.161  1.00  0.00    -0.043 F  
BRANCH  22  25
HETATM   25  C   UNL     1      -6.177   9.142  68.473  1.00  0.00    -0.049 C  
BRANCH  25  26
HETATM   26  C   UNL     1      -5.186  10.280  68.217  1.00  0.00    -0.035 C  
BRANCH  26  27
HETATM   27  C   UNL     1      -5.879  11.480  67.577  1.00  0.00    -0.067 C  
HETATM   28  C   UNL     1      -5.786  11.427  66.063  1.00  0.00     0.077 C  
ENDBRANCH  26  27
ENDBRANCH  25  26
ENDBRANCH  22  25
ENDBRANCH   6  22
TORSDOF 10
ENDMDL
