MODEL        1
REMARK 921   NORMALIZED FREE ENERGY PREDICTED BY IDOCK:   -6.68 KCAL/MOL
REMARK 922        TOTAL FREE ENERGY PREDICTED BY IDOCK:   -8.03 KCAL/MOL
REMARK 923 INTER-LIGAND FREE ENERGY PREDICTED BY IDOCK:   -7.85 KCAL/MOL
REMARK 924 INTRA-LIGAND FREE ENERGY PREDICTED BY IDOCK:   -0.17 KCAL/MOL
REMARK 927      BINDING AFFINITY PREDICTED BY RF-SCORE:    0.00 PKD
ROOT
HETATM    1 CL   UNL     1     -13.773  12.990  72.561  1.00  0.00    -0.624 Cl 
HETATM    2  C   UNL     1     -12.804  12.866  71.147  1.00  0.00    -0.238 A  
HETATM    3  C   UNL     1     -12.233  11.648  70.798  1.00  0.00    -0.443 A  
HETATM    4  C   UNL     1     -11.439  11.553  69.649  1.00  0.00    -0.301 A  
HETATM    5 CL   UNL     1     -10.732  10.006  69.321  1.00  0.00    -0.230 Cl 
HETATM    6  C   UNL     1     -11.215  12.669  68.818  1.00  0.00    -0.325 A  
HETATM    7  C   UNL     1     -11.803  13.891  69.210  1.00  0.00    -0.394 A  
HETATM    8  C   UNL     1     -12.588  13.989  70.360  1.00  0.00    -0.374 A  
ENDROOT
BRANCH   6   9
HETATM    9  C   UNL     1     -10.328  12.557  67.578  1.00  0.00    -0.220 C  
HETATM   10  C   UNL     1      -8.856  12.865  67.850  1.00  0.00    -0.190 C  
HETATM   11  S   UNL     1      -8.611  14.662  67.785  1.00  0.00    -0.184 SA 
HETATM   12  C   UNL     1      -9.824  15.002  66.563  1.00  0.00    -0.260 C  
HETATM   13  S   UNL     1     -10.833  13.615  66.170  1.00  0.00    -0.280 SA 
HETATM   14  C   UNL     1      -9.939  16.189  65.914  1.00  0.00    -0.356 C  
BRANCH  14  15
HETATM   15  C   UNL     1     -10.921  16.297  64.760  1.00  0.00    -0.272 C  
HETATM   16  H2  UNL     1     -12.513  17.007  64.033  1.00  0.00     0.000 HD 
HETATM   17  N   UNL     1     -11.737  16.386  63.803  1.00  0.00    -1.498 NA 
HETATM   18  H1  UNL     1     -12.396  16.458  63.028  1.00  0.00     0.000 HD 
ENDBRANCH  14  15
BRANCH  14  19
HETATM   19  N   UNL     1      -9.176  17.356  66.155  1.00  0.00    -0.472 NA 
HETATM   20  C   UNL     1      -9.663  18.595  66.552  1.00  0.00    -0.351 A  
HETATM   21  C   UNL     1      -8.591  19.454  66.576  1.00  0.00    -0.343 A  
HETATM   22  N   UNL     1      -7.437  18.787  66.306  1.00  0.00    -0.252 NA 
HETATM   23  C   UNL     1      -7.806  17.543  66.091  1.00  0.00    -0.246 A  
ENDBRANCH  14  19
ENDBRANCH   6   9
TORSDOF 3
ENDMDL
MODEL        2
REMARK 921   NORMALIZED FREE ENERGY PREDICTED BY IDOCK:   -6.50 KCAL/MOL
REMARK 922        TOTAL FREE ENERGY PREDICTED BY IDOCK:   -7.81 KCAL/MOL
REMARK 923 INTER-LIGAND FREE ENERGY PREDICTED BY IDOCK:   -7.52 KCAL/MOL
REMARK 924 INTRA-LIGAND FREE ENERGY PREDICTED BY IDOCK:   -0.29 KCAL/MOL
REMARK 927      BINDING AFFINITY PREDICTED BY RF-SCORE:    0.00 PKD
ROOT
HETATM    1 CL   UNL     1     -13.220  10.922  71.707  1.00  0.00    -0.541 Cl 
HETATM    2  C   UNL     1     -12.121  11.429  70.487  1.00  0.00    -0.394 A  
HETATM    3  C   UNL     1     -11.193  10.533  69.970  1.00  0.00    -0.386 A  
HETATM    4  C   UNL     1     -10.294  10.951  68.981  1.00  0.00    -0.211 A  
HETATM    5 CL   UNL     1      -9.144   9.778  68.433  1.00  0.00    -0.123 Cl 
HETATM    6  C   UNL     1     -10.320  12.267  68.478  1.00  0.00    -0.234 A  
HETATM    7  C   UNL     1     -11.269  13.151  69.033  1.00  0.00    -0.309 A  
HETATM    8  C   UNL     1     -12.160  12.737  70.026  1.00  0.00    -0.355 A  
ENDROOT
BRANCH   6   9
HETATM    9  C   UNL     1      -9.319  12.718  67.413  1.00  0.00    -0.193 C  
HETATM   10  C   UNL     1      -8.129  13.491  67.981  1.00  0.00    -0.156 C  
HETATM   11  S   UNL     1      -8.602  15.231  68.182  1.00  0.00    -0.164 SA 
HETATM   12  C   UNL     1      -9.697  15.318  66.813  1.00  0.00    -0.236 C  
HETATM   13  S   UNL     1     -10.027  13.752  66.078  1.00  0.00    -0.290 SA 
HETATM   14  C   UNL     1     -10.190  16.475  66.303  1.00  0.00    -0.332 C  
BRANCH  14  15
HETATM   15  C   UNL     1     -10.992  16.422  65.013  1.00  0.00    -0.252 C  
HETATM   16  H2  UNL     1     -12.533  16.892  64.029  1.00  0.00     0.000 HD 
HETATM   17  N   UNL     1     -11.656  16.378  63.943  1.00  0.00    -1.602 NA 
HETATM   18  H1  UNL     1     -12.195  16.341  63.077  1.00  0.00     0.000 HD 
ENDBRANCH  14  15
BRANCH  14  19
HETATM   19  N   UNL     1      -9.981  17.776  66.818  1.00  0.00    -0.317 NA 
HETATM   20  C   UNL     1     -10.735  18.409  67.799  1.00  0.00    -0.340 A  
HETATM   21  C   UNL     1     -10.237  19.683  67.921  1.00  0.00    -0.448 A  
HETATM   22  N   UNL     1      -9.143  19.849  67.132  1.00  0.00    -0.330 NA 
HETATM   23  C   UNL     1      -8.993  18.697  66.513  1.00  0.00    -0.304 A  
ENDBRANCH  14  19
ENDBRANCH   6   9
TORSDOF 3
ENDMDL
MODEL        3
REMARK 921   NORMALIZED FREE ENERGY PREDICTED BY IDOCK:   -6.03 KCAL/MOL
REMARK 922        TOTAL FREE ENERGY PREDICTED BY IDOCK:   -7.26 KCAL/MOL
REMARK 923 INTER-LIGAND FREE ENERGY PREDICTED BY IDOCK:   -6.85 KCAL/MOL
REMARK 924 INTRA-LIGAND FREE ENERGY PREDICTED BY IDOCK:   -0.41 KCAL/MOL
REMARK 927      BINDING AFFINITY PREDICTED BY RF-SCORE:    0.00 PKD
ROOT
HETATM    1 CL   UNL     1      -7.707   9.380  64.296  1.00  0.00    -0.112 Cl 
HETATM    2  C   UNL     1      -8.907  10.508  64.787  1.00  0.00    -0.196 A  
HETATM    3  C   UNL     1     -10.021  10.733  63.987  1.00  0.00    -0.403 A  
HETATM    4  C   UNL     1     -10.992  11.658  64.386  1.00  0.00    -0.337 A  
HETATM    5 CL   UNL     1     -12.320  11.905  63.301  1.00  0.00    -0.616 Cl 
HETATM    6  C   UNL     1     -10.877  12.363  65.601  1.00  0.00    -0.312 A  
HETATM    7  C   UNL     1      -9.728  12.116  66.382  1.00  0.00    -0.243 A  
HETATM    8  C   UNL     1      -8.754  11.200  65.980  1.00  0.00    -0.185 A  
ENDROOT
BRANCH   6   9
HETATM    9  C   UNL     1     -11.934  13.386  66.016  1.00  0.00    -0.415 C  
HETATM   10  C   UNL     1     -11.902  14.670  65.185  1.00  0.00    -0.351 C  
HETATM   11  S   UNL     1     -10.645  15.782  65.875  1.00  0.00    -0.334 SA 
HETATM   12  C   UNL     1     -10.829  15.304  67.554  1.00  0.00    -0.304 C  
HETATM   13  S   UNL     1     -11.866  13.898  67.773  1.00  0.00    -0.370 SA 
HETATM   14  C   UNL     1     -10.299  15.983  68.602  1.00  0.00    -0.241 C  
BRANCH  14  15
HETATM   15  C   UNL     1     -10.676  15.559  70.012  1.00  0.00    -0.318 C  
HETATM   16  H2  UNL     1     -11.759  14.538  71.174  1.00  0.00     0.000 HD 
HETATM   17  N   UNL     1     -10.988  15.207  71.181  1.00  0.00    -0.552 NA 
HETATM   18  H1  UNL     1     -11.241  14.922  72.128  1.00  0.00     0.000 HD 
ENDBRANCH  14  15
BRANCH  14  19
HETATM   19  N   UNL     1      -9.461  17.121  68.529  1.00  0.00    -0.274 NA 
HETATM   20  C   UNL     1      -8.082  17.122  68.362  1.00  0.00    -0.255 A  
HETATM   21  C   UNL     1      -7.674  18.432  68.439  1.00  0.00    -0.297 A  
HETATM   22  N   UNL     1      -8.746  19.262  68.549  1.00  0.00    -0.359 NA 
HETATM   23  C   UNL     1      -9.792  18.465  68.569  1.00  0.00    -0.376 A  
ENDBRANCH  14  19
ENDBRANCH   6   9
TORSDOF 3
ENDMDL
MODEL        4
REMARK 921   NORMALIZED FREE ENERGY PREDICTED BY IDOCK:   -6.03 KCAL/MOL
REMARK 922        TOTAL FREE ENERGY PREDICTED BY IDOCK:   -7.26 KCAL/MOL
REMARK 923 INTER-LIGAND FREE ENERGY PREDICTED BY IDOCK:   -7.22 KCAL/MOL
REMARK 924 INTRA-LIGAND FREE ENERGY PREDICTED BY IDOCK:   -0.04 KCAL/MOL
REMARK 927      BINDING AFFINITY PREDICTED BY RF-SCORE:    0.00 PKD
ROOT
HETATM    1 CL   UNL     1      -8.100   8.879  63.210  1.00  0.00    -0.165 Cl 
HETATM    2  C   UNL     1      -9.227   9.972  63.910  1.00  0.00    -0.272 A  
HETATM    3  C   UNL     1      -9.585   9.842  65.246  1.00  0.00    -0.368 A  
HETATM    4  C   UNL     1     -10.508  10.729  65.812  1.00  0.00    -0.188 A  
HETATM    5 CL   UNL     1     -10.929  10.458  67.470  1.00  0.00    -0.360 Cl 
HETATM    6  C   UNL     1     -11.076  11.775  65.057  1.00  0.00    -0.343 A  
HETATM    7  C   UNL     1     -10.696  11.871  63.702  1.00  0.00    -0.502 A  
HETATM    8  C   UNL     1      -9.782  10.980  63.134  1.00  0.00    -0.398 A  
ENDROOT
BRANCH   6   9
HETATM    9  C   UNL     1     -12.099  12.725  65.680  1.00  0.00    -0.459 C  
HETATM   10  C   UNL     1     -12.500  13.880  64.762  1.00  0.00    -0.354 C  
HETATM   11  S   UNL     1     -11.270  15.205  64.916  1.00  0.00    -0.394 SA 
HETATM   12  C   UNL     1     -10.877  14.941  66.607  1.00  0.00    -0.319 C  
HETATM   13  S   UNL     1     -11.587  13.474  67.271  1.00  0.00    -0.385 SA 
HETATM   14  C   UNL     1     -10.164  15.810  67.368  1.00  0.00    -0.270 C  
BRANCH  14  15
HETATM   15  C   UNL     1     -10.040  15.542  68.858  1.00  0.00    -0.214 C  
HETATM   16  H2  UNL     1      -8.994  15.521  70.431  1.00  0.00     0.000 HD 
HETATM   17  N   UNL     1      -9.937  15.320  70.095  1.00  0.00    -0.494 NA 
HETATM   18  H1  UNL     1      -9.853  15.140  71.096  1.00  0.00     0.000 HD 
ENDBRANCH  14  15
BRANCH  14  19
HETATM   19  N   UNL     1      -9.559  17.011  66.928  1.00  0.00    -0.248 NA 
HETATM   20  C   UNL     1     -10.108  18.286  66.994  1.00  0.00    -0.360 A  
HETATM   21  C   UNL     1      -9.220  19.133  66.376  1.00  0.00    -0.343 A  
HETATM   22  N   UNL     1      -8.094  18.463  66.011  1.00  0.00    -0.498 NA 
HETATM   23  C   UNL     1      -8.306  17.217  66.377  1.00  0.00    -0.280 A  
ENDBRANCH  14  19
ENDBRANCH   6   9
TORSDOF 3
ENDMDL
MODEL        5
REMARK 921   NORMALIZED FREE ENERGY PREDICTED BY IDOCK:   -5.86 KCAL/MOL
REMARK 922        TOTAL FREE ENERGY PREDICTED BY IDOCK:   -7.06 KCAL/MOL
REMARK 923 INTER-LIGAND FREE ENERGY PREDICTED BY IDOCK:   -6.83 KCAL/MOL
REMARK 924 INTRA-LIGAND FREE ENERGY PREDICTED BY IDOCK:   -0.23 KCAL/MOL
REMARK 927      BINDING AFFINITY PREDICTED BY RF-SCORE:    0.00 PKD
ROOT
HETATM    1 CL   UNL     1     -13.420   9.513  72.284  1.00  0.00    -0.527 Cl 
HETATM    2  C   UNL     1     -12.404   9.933  70.963  1.00  0.00    -0.357 A  
HETATM    3  C   UNL     1     -11.317   9.130  70.638  1.00  0.00    -0.323 A  
HETATM    4  C   UNL     1     -10.487   9.480  69.566  1.00  0.00    -0.220 A  
HETATM    5 CL   UNL     1      -9.131   8.445  69.266  1.00  0.00    -0.150 Cl 
HETATM    6  C   UNL     1     -10.738  10.628  68.789  1.00  0.00    -0.249 A  
HETATM    7  C   UNL     1     -11.844  11.424  69.155  1.00  0.00    -0.413 A  
HETATM    8  C   UNL     1     -12.668  11.081  70.230  1.00  0.00    -0.256 A  
ENDROOT
BRANCH   6   9
HETATM    9  C   UNL     1      -9.812  11.010  67.634  1.00  0.00    -0.172 C  
HETATM   10  C   UNL     1      -8.616  11.860  68.065  1.00  0.00    -0.168 C  
HETATM   11  S   UNL     1      -9.130  13.598  68.145  1.00  0.00    -0.196 SA 
HETATM   12  C   UNL     1     -10.301  13.538  66.839  1.00  0.00    -0.265 C  
HETATM   13  S   UNL     1     -10.623  11.908  66.259  1.00  0.00    -0.263 SA 
HETATM   14  C   UNL     1     -10.856  14.635  66.263  1.00  0.00    -0.321 C  
BRANCH  14  15
HETATM   15  C   UNL     1     -11.725  14.450  65.030  1.00  0.00    -0.389 C  
HETATM   16  H2  UNL     1     -13.125  15.053  63.915  1.00  0.00     0.000 HD 
HETATM   17  N   UNL     1     -12.446  14.298  64.007  1.00  0.00    -0.863 NA 
HETATM   18  H1  UNL     1     -13.029  14.173  63.179  1.00  0.00     0.000 HD 
ENDBRANCH  14  15
BRANCH  14  19
HETATM   19  N   UNL     1     -10.658  15.980  66.653  1.00  0.00    -0.316 NA 
HETATM   20  C   UNL     1     -10.226  17.022  65.840  1.00  0.00    -0.296 A  
HETATM   21  C   UNL     1     -10.088  18.124  66.649  1.00  0.00    -0.373 A  
HETATM   22  N   UNL     1     -10.507  17.848  67.912  1.00  0.00    -0.389 NA 
HETATM   23  C   UNL     1     -10.868  16.583  67.881  1.00  0.00    -0.326 A  
ENDBRANCH  14  19
ENDBRANCH   6   9
TORSDOF 3
ENDMDL
MODEL        6
REMARK 921   NORMALIZED FREE ENERGY PREDICTED BY IDOCK:   -5.84 KCAL/MOL
REMARK 922        TOTAL FREE ENERGY PREDICTED BY IDOCK:   -7.04 KCAL/MOL
REMARK 923 INTER-LIGAND FREE ENERGY PREDICTED BY IDOCK:   -6.97 KCAL/MOL
REMARK 924 INTRA-LIGAND FREE ENERGY PREDICTED BY IDOCK:   -0.07 KCAL/MOL
REMARK 927      BINDING AFFINITY PREDICTED BY RF-SCORE:    0.00 PKD
ROOT
HETATM    1 CL   UNL     1     -13.401  14.557  72.953  1.00  0.00    -0.585 Cl 
HETATM    2  C   UNL     1     -12.490  14.715  71.504  1.00  0.00    -0.346 A  
HETATM    3  C   UNL     1     -12.438  13.664  70.596  1.00  0.00    -0.417 A  
HETATM    4  C   UNL     1     -11.689  13.793  69.420  1.00  0.00    -0.325 A  
HETATM    5 CL   UNL     1     -11.645  12.414  68.374  1.00  0.00    -0.348 Cl 
HETATM    6  C   UNL     1     -10.995  14.982  69.121  1.00  0.00    -0.265 A  
HETATM    7  C   UNL     1     -11.063  16.024  70.070  1.00  0.00    -0.362 A  
HETATM    8  C   UNL     1     -11.802  15.893  71.248  1.00  0.00    -0.502 A  
ENDROOT
BRANCH   6   9
HETATM    9  C   UNL     1     -10.164  15.104  67.844  1.00  0.00    -0.232 C  
HETATM   10  C   UNL     1      -8.672  14.844  68.057  1.00  0.00    -0.165 C  
HETATM   11  S   UNL     1      -7.889  16.375  68.637  1.00  0.00    -0.223 SA 
HETATM   12  C   UNL     1      -8.919  17.492  67.759  1.00  0.00    -0.245 C  
HETATM   13  S   UNL     1     -10.297  16.717  66.986  1.00  0.00    -0.286 SA 
HETATM   14  C   UNL     1      -8.655  18.815  67.610  1.00  0.00    -0.272 C  
BRANCH  14  15
HETATM   15  C   UNL     1      -9.537  19.636  66.684  1.00  0.00    -0.380 C  
HETATM   16  H2  UNL     1      -9.749  21.085  65.492  1.00  0.00     0.000 HD 
HETATM   17  N   UNL     1     -10.269  20.317  65.917  1.00  0.00    -0.536 NA 
HETATM   18  H1  UNL     1     -10.862  20.868  65.296  1.00  0.00     0.000 HD 
ENDBRANCH  14  15
BRANCH  14  19
HETATM   19  N   UNL     1      -7.576  19.527  68.185  1.00  0.00    -0.294 NA 
HETATM   20  C   UNL     1      -6.717  20.400  67.529  1.00  0.00    -0.278 A  
HETATM   21  C   UNL     1      -5.770  20.789  68.445  1.00  0.00    -0.335 A  
HETATM   22  N   UNL     1      -6.051  20.276  69.673  1.00  0.00    -0.344 NA 
HETATM   23  C   UNL     1      -7.141  19.559  69.499  1.00  0.00    -0.227 A  
ENDBRANCH  14  19
ENDBRANCH   6   9
TORSDOF 3
ENDMDL
MODEL        7
REMARK 921   NORMALIZED FREE ENERGY PREDICTED BY IDOCK:   -5.61 KCAL/MOL
REMARK 922        TOTAL FREE ENERGY PREDICTED BY IDOCK:   -6.77 KCAL/MOL
REMARK 923 INTER-LIGAND FREE ENERGY PREDICTED BY IDOCK:   -6.56 KCAL/MOL
REMARK 924 INTRA-LIGAND FREE ENERGY PREDICTED BY IDOCK:   -0.20 KCAL/MOL
REMARK 927      BINDING AFFINITY PREDICTED BY RF-SCORE:    0.00 PKD
ROOT
HETATM    1 CL   UNL     1      -6.422  20.494  64.777  1.00  0.00    -0.340 Cl 
HETATM    2  C   UNL     1      -7.233  19.331  65.747  1.00  0.00    -0.264 A  
HETATM    3  C   UNL     1      -8.410  19.671  66.405  1.00  0.00    -0.376 A  
HETATM    4  C   UNL     1      -9.065  18.723  67.200  1.00  0.00    -0.284 A  
HETATM    5 CL   UNL     1     -10.496  19.253  68.017  1.00  0.00    -0.497 Cl 
HETATM    6  C   UNL     1      -8.566  17.412  67.338  1.00  0.00    -0.221 A  
HETATM    7  C   UNL     1      -7.364  17.107  66.664  1.00  0.00    -0.285 A  
HETATM    8  C   UNL     1      -6.705  18.054  65.878  1.00  0.00    -0.323 A  
ENDROOT
BRANCH   6   9
HETATM    9  C   UNL     1      -9.278  16.393  68.226  1.00  0.00    -0.207 C  
HETATM   10  C   UNL     1      -8.421  15.173  68.566  1.00  0.00    -0.160 C  
HETATM   11  S   UNL     1      -8.539  13.977  67.207  1.00  0.00    -0.210 SA 
HETATM   12  C   UNL     1     -10.193  14.336  66.744  1.00  0.00    -0.272 C  
HETATM   13  S   UNL     1     -10.857  15.752  67.553  1.00  0.00    -0.293 SA 
HETATM   14  C   UNL     1     -10.934  13.566  65.907  1.00  0.00    -0.278 C  
BRANCH  14  15
HETATM   15  C   UNL     1     -12.406  13.897  65.723  1.00  0.00    -0.486 C  
HETATM   16  H2  UNL     1     -13.838  14.394  64.597  1.00  0.00     0.000 HD 
HETATM   17  N   UNL     1     -13.627  14.172  65.570  1.00  0.00    -0.458 NA 
HETATM   18  H1  UNL     1     -14.615  14.394  65.446  1.00  0.00     0.000 HD 
ENDBRANCH  14  15
BRANCH  14  19
HETATM   19  N   UNL     1     -10.495  12.413  65.216  1.00  0.00    -0.279 NA 
HETATM   20  C   UNL     1     -10.203  12.323  63.860  1.00  0.00    -0.395 A  
HETATM   21  C   UNL     1      -9.905  11.006  63.605  1.00  0.00    -0.351 A  
HETATM   22  N   UNL     1      -9.900  10.284  64.757  1.00  0.00    -0.328 NA 
HETATM   23  C   UNL     1     -10.221  11.145  65.699  1.00  0.00    -0.256 A  
ENDBRANCH  14  19
ENDBRANCH   6   9
TORSDOF 3
ENDMDL
MODEL        8
REMARK 921   NORMALIZED FREE ENERGY PREDICTED BY IDOCK:   -5.61 KCAL/MOL
REMARK 922        TOTAL FREE ENERGY PREDICTED BY IDOCK:   -6.76 KCAL/MOL
REMARK 923 INTER-LIGAND FREE ENERGY PREDICTED BY IDOCK:   -6.54 KCAL/MOL
REMARK 924 INTRA-LIGAND FREE ENERGY PREDICTED BY IDOCK:   -0.22 KCAL/MOL
REMARK 927      BINDING AFFINITY PREDICTED BY RF-SCORE:    0.00 PKD
ROOT
HETATM    1 CL   UNL     1      -8.660  19.360  67.036  1.00  0.00    -0.301 Cl 
HETATM    2  C   UNL     1      -9.551  17.904  67.240  1.00  0.00    -0.273 A  
HETATM    3  C   UNL     1     -10.096  17.589  68.479  1.00  0.00    -0.363 A  
HETATM    4  C   UNL     1     -10.815  16.399  68.644  1.00  0.00    -0.331 A  
HETATM    5 CL   UNL     1     -11.415  16.070  70.234  1.00  0.00    -0.361 Cl 
HETATM    6  C   UNL     1     -11.017  15.511  67.569  1.00  0.00    -0.316 A  
HETATM    7  C   UNL     1     -10.440  15.859  66.329  1.00  0.00    -0.324 A  
HETATM    8  C   UNL     1      -9.715  17.041  66.165  1.00  0.00    -0.283 A  
ENDROOT
BRANCH   6   9
HETATM    9  C   UNL     1     -11.785  14.204  67.767  1.00  0.00    -0.373 C  
HETATM   10  C   UNL     1     -10.963  13.108  68.445  1.00  0.00    -0.262 C  
HETATM   11  S   UNL     1      -9.968  12.259  67.188  1.00  0.00    -0.207 SA 
HETATM   12  C   UNL     1     -11.107  12.421  65.863  1.00  0.00    -0.313 C  
HETATM   13  S   UNL     1     -12.470  13.472  66.234  1.00  0.00    -0.248 SA 
HETATM   14  C   UNL     1     -11.010  11.749  64.687  1.00  0.00    -0.310 C  
BRANCH  14  15
HETATM   15  C   UNL     1     -12.153  11.852  63.692  1.00  0.00    -0.477 C  
HETATM   16  H2  UNL     1     -12.840  11.547  61.959  1.00  0.00     0.000 HD 
HETATM   17  N   UNL     1     -13.101  11.936  62.865  1.00  0.00    -0.623 NA 
HETATM   18  H1  UNL     1     -13.869  12.005  62.196  1.00  0.00     0.000 HD 
ENDBRANCH  14  15
BRANCH  14  19
HETATM   19  N   UNL     1      -9.961  10.884  64.299  1.00  0.00    -0.304 NA 
HETATM   20  C   UNL     1      -9.138  11.028  63.188  1.00  0.00    -0.258 A  
HETATM   21  C   UNL     1      -8.327   9.919  63.149  1.00  0.00    -0.166 A  
HETATM   22  N   UNL     1      -8.536   9.133  64.239  1.00  0.00    -0.184 NA 
HETATM   23  C   UNL     1      -9.484   9.741  64.919  1.00  0.00    -0.265 A  
ENDBRANCH  14  19
ENDBRANCH   6   9
TORSDOF 3
ENDMDL
MODEL        9
REMARK 921   NORMALIZED FREE ENERGY PREDICTED BY IDOCK:   -5.57 KCAL/MOL
REMARK 922        TOTAL FREE ENERGY PREDICTED BY IDOCK:   -6.72 KCAL/MOL
REMARK 923 INTER-LIGAND FREE ENERGY PREDICTED BY IDOCK:   -6.56 KCAL/MOL
REMARK 924 INTRA-LIGAND FREE ENERGY PREDICTED BY IDOCK:   -0.16 KCAL/MOL
REMARK 927      BINDING AFFINITY PREDICTED BY RF-SCORE:    0.00 PKD
ROOT
HETATM    1 CL   UNL     1      -8.195   7.993  66.781  1.00  0.00    -0.110 Cl 
HETATM    2  C   UNL     1      -9.174   9.358  66.416  1.00  0.00    -0.169 A  
HETATM    3  C   UNL     1      -9.393   9.724  65.094  1.00  0.00    -0.322 A  
HETATM    4  C   UNL     1     -10.185  10.841  64.800  1.00  0.00    -0.334 A  
HETATM    5 CL   UNL     1     -10.362  11.248  63.126  1.00  0.00    -0.374 Cl 
HETATM    6  C   UNL     1     -10.788  11.601  65.822  1.00  0.00    -0.334 A  
HETATM    7  C   UNL     1     -10.535  11.205  67.153  1.00  0.00    -0.270 A  
HETATM    8  C   UNL     1      -9.738  10.097  67.448  1.00  0.00    -0.192 A  
ENDROOT
BRANCH   6   9
HETATM    9  C   UNL     1     -11.633  12.830  65.490  1.00  0.00    -0.362 C  
HETATM   10  C   UNL     1     -10.909  13.851  64.612  1.00  0.00    -0.408 C  
HETATM   11  S   UNL     1      -9.890  14.916  65.670  1.00  0.00    -0.296 SA 
HETATM   12  C   UNL     1     -10.943  14.898  67.074  1.00  0.00    -0.327 C  
HETATM   13  S   UNL     1     -12.268  13.747  66.943  1.00  0.00    -0.295 SA 
HETATM   14  C   UNL     1     -10.814  15.737  68.133  1.00  0.00    -0.307 C  
BRANCH  14  15
HETATM   15  C   UNL     1     -11.893  15.731  69.204  1.00  0.00    -0.354 C  
HETATM   16  H2  UNL     1     -12.381  15.710  71.028  1.00  0.00     0.000 HD 
HETATM   17  N   UNL     1     -12.787  15.726  70.092  1.00  0.00    -0.639 NA 
HETATM   18  H1  UNL     1     -13.511  15.721  70.811  1.00  0.00     0.000 HD 
ENDBRANCH  14  15
BRANCH  14  19
HETATM   19  N   UNL     1      -9.791  16.694  68.328  1.00  0.00    -0.245 NA 
HETATM   20  C   UNL     1      -9.925  18.075  68.248  1.00  0.00    -0.371 A  
HETATM   21  C   UNL     1      -8.668  18.606  68.414  1.00  0.00    -0.333 A  
HETATM   22  N   UNL     1      -7.767  17.626  68.693  1.00  0.00    -0.279 NA 
HETATM   23  C   UNL     1      -8.462  16.509  68.666  1.00  0.00    -0.243 A  
ENDBRANCH  14  19
ENDBRANCH   6   9
TORSDOF 3
ENDMDL
MODEL       10
REMARK 921   NORMALIZED FREE ENERGY PREDICTED BY IDOCK:   -5.57 KCAL/MOL
REMARK 922        TOTAL FREE ENERGY PREDICTED BY IDOCK:   -6.72 KCAL/MOL
REMARK 923 INTER-LIGAND FREE ENERGY PREDICTED BY IDOCK:   -6.50 KCAL/MOL
REMARK 924 INTRA-LIGAND FREE ENERGY PREDICTED BY IDOCK:   -0.22 KCAL/MOL
REMARK 927      BINDING AFFINITY PREDICTED BY RF-SCORE:    0.00 PKD
ROOT
HETATM    1 CL   UNL     1      -8.008   7.757  71.720  1.00  0.00    -0.096 Cl 
HETATM    2  C   UNL     1      -9.125   8.853  71.009  1.00  0.00    -0.243 A  
HETATM    3  C   UNL     1     -10.383   9.028  71.572  1.00  0.00    -0.412 A  
HETATM    4  C   UNL     1     -11.294   9.916  70.986  1.00  0.00    -0.386 A  
HETATM    5 CL   UNL     1     -12.853  10.032  71.731  1.00  0.00    -0.517 Cl 
HETATM    6  C   UNL     1     -10.956  10.659  69.837  1.00  0.00    -0.337 A  
HETATM    7  C   UNL     1      -9.674  10.447  69.288  1.00  0.00    -0.231 A  
HETATM    8  C   UNL     1      -8.768   9.555  69.866  1.00  0.00    -0.224 A  
ENDROOT
BRANCH   6   9
HETATM    9  C   UNL     1     -11.966  11.609  69.195  1.00  0.00    -0.313 C  
HETATM   10  C   UNL     1     -11.599  12.019  67.768  1.00  0.00    -0.330 C  
HETATM   11  S   UNL     1     -10.433  13.407  67.839  1.00  0.00    -0.245 SA 
HETATM   12  C   UNL     1     -11.064  14.146  69.300  1.00  0.00    -0.250 C  
HETATM   13  S   UNL     1     -12.266  13.159  70.123  1.00  0.00    -0.234 SA 
HETATM   14  C   UNL     1     -10.731  15.390  69.729  1.00  0.00    -0.291 C  
BRANCH  14  15
HETATM   15  C   UNL     1     -11.477  15.977  70.916  1.00  0.00    -0.416 C  
HETATM   16  H2  UNL     1     -11.470  16.997  72.505  1.00  0.00     0.000 HD 
HETATM   17  N   UNL     1     -12.095  16.463  71.901  1.00  0.00    -0.628 NA 
HETATM   18  H1  UNL     1     -12.596  16.856  72.699  1.00  0.00     0.000 HD 
ENDBRANCH  14  15
BRANCH  14  19
HETATM   19  N   UNL     1      -9.783  16.258  69.137  1.00  0.00    -0.261 NA 
HETATM   20  C   UNL     1     -10.053  17.452  68.480  1.00  0.00    -0.352 A  
HETATM   21  C   UNL     1      -8.855  17.913  67.988  1.00  0.00    -0.268 A  
HETATM   22  N   UNL     1      -7.832  17.114  68.391  1.00  0.00    -0.233 NA 
HETATM   23  C   UNL     1      -8.403  16.160  69.095  1.00  0.00    -0.230 A  
ENDBRANCH  14  19
ENDBRANCH   6   9
TORSDOF 3
ENDMDL
MODEL       11
REMARK 921   NORMALIZED FREE ENERGY PREDICTED BY IDOCK:   -5.51 KCAL/MOL
REMARK 922        TOTAL FREE ENERGY PREDICTED BY IDOCK:   -6.65 KCAL/MOL
REMARK 923 INTER-LIGAND FREE ENERGY PREDICTED BY IDOCK:   -6.28 KCAL/MOL
REMARK 924 INTRA-LIGAND FREE ENERGY PREDICTED BY IDOCK:   -0.36 KCAL/MOL
REMARK 927      BINDING AFFINITY PREDICTED BY RF-SCORE:    0.00 PKD
ROOT
HETATM    1 CL   UNL     1      -8.481  18.853  68.481  1.00  0.00    -0.375 Cl 
HETATM    2  C   UNL     1      -9.515  17.491  68.302  1.00  0.00    -0.296 A  
HETATM    3  C   UNL     1     -10.425  17.172  69.302  1.00  0.00    -0.267 A  
HETATM    4  C   UNL     1     -11.260  16.058  69.156  1.00  0.00    -0.342 A  
HETATM    5 CL   UNL     1     -12.328  15.711  70.475  1.00  0.00    -0.441 Cl 
HETATM    6  C   UNL     1     -11.214  15.254  68.000  1.00  0.00    -0.330 A  
HETATM    7  C   UNL     1     -10.271  15.603  67.010  1.00  0.00    -0.274 A  
HETATM    8  C   UNL     1      -9.430  16.709  67.159  1.00  0.00    -0.236 A  
ENDROOT
BRANCH   6   9
HETATM    9  C   UNL     1     -12.116  14.028  67.861  1.00  0.00    -0.279 C  
HETATM   10  C   UNL     1     -11.802  12.921  68.868  1.00  0.00    -0.309 C  
HETATM   11  S   UNL     1     -10.439  11.911  68.223  1.00  0.00    -0.211 SA 
HETATM   12  C   UNL     1     -10.838  12.070  66.522  1.00  0.00    -0.277 C  
HETATM   13  S   UNL     1     -12.109  13.246  66.205  1.00  0.00    -0.408 SA 
HETATM   14  C   UNL     1     -10.291  11.313  65.537  1.00  0.00    -0.266 C  
BRANCH  14  15
HETATM   15  C   UNL     1     -10.847  11.434  64.128  1.00  0.00    -0.365 C  
HETATM   16  H2  UNL     1     -12.264  11.893  62.968  1.00  0.00     0.000 HD 
HETATM   17  N   UNL     1     -11.309  11.535  62.960  1.00  0.00    -0.834 NA 
HETATM   18  H1  UNL     1     -11.682  11.616  62.014  1.00  0.00     0.000 HD 
ENDBRANCH  14  15
BRANCH  14  19
HETATM   19  N   UNL     1      -9.272  10.343  65.691  1.00  0.00    -0.172 NA 
HETATM   20  C   UNL     1      -7.902  10.575  65.682  1.00  0.00    -0.150 A  
HETATM   21  C   UNL     1      -7.291   9.347  65.771  1.00  0.00    -0.095 A  
HETATM   22  N   UNL     1      -8.215   8.363  65.934  1.00  0.00    -0.116 NA 
HETATM   23  C   UNL     1      -9.376   8.981  65.914  1.00  0.00    -0.242 A  
ENDBRANCH  14  19
ENDBRANCH   6   9
TORSDOF 3
ENDMDL
MODEL       12
REMARK 921   NORMALIZED FREE ENERGY PREDICTED BY IDOCK:   -5.49 KCAL/MOL
REMARK 922        TOTAL FREE ENERGY PREDICTED BY IDOCK:   -6.63 KCAL/MOL
REMARK 923 INTER-LIGAND FREE ENERGY PREDICTED BY IDOCK:   -6.43 KCAL/MOL
REMARK 924 INTRA-LIGAND FREE ENERGY PREDICTED BY IDOCK:   -0.20 KCAL/MOL
REMARK 927      BINDING AFFINITY PREDICTED BY RF-SCORE:    0.00 PKD
ROOT
HETATM    1 CL   UNL     1     -12.300  12.200  63.408  1.00  0.00    -0.669 Cl 
HETATM    2  C   UNL     1     -11.880  12.962  64.890  1.00  0.00    -0.366 A  
HETATM    3  C   UNL     1     -11.883  12.233  66.073  1.00  0.00    -0.409 A  
HETATM    4  C   UNL     1     -11.547  12.859  67.280  1.00  0.00    -0.360 A  
HETATM    5 CL   UNL     1     -11.625  11.882  68.708  1.00  0.00    -0.333 Cl 
HETATM    6  C   UNL     1     -11.184  14.220  67.323  1.00  0.00    -0.330 A  
HETATM    7  C   UNL     1     -11.202  14.930  66.104  1.00  0.00    -0.325 A  
HETATM    8  C   UNL     1     -11.546  14.309  64.901  1.00  0.00    -0.384 A  
ENDROOT
BRANCH   6   9
HETATM    9  C   UNL     1     -10.840  14.897  68.650  1.00  0.00    -0.251 C  
HETATM   10  C   UNL     1     -11.477  16.277  68.815  1.00  0.00    -0.289 C  
HETATM   11  S   UNL     1     -10.432  17.508  67.989  1.00  0.00    -0.384 SA 
HETATM   12  C   UNL     1      -8.891  16.724  68.292  1.00  0.00    -0.228 C  
HETATM   13  S   UNL     1      -9.049  15.106  68.968  1.00  0.00    -0.214 SA 
HETATM   14  C   UNL     1      -7.685  17.317  68.106  1.00  0.00    -0.217 C  
BRANCH  14  15
HETATM   15  C   UNL     1      -6.434  16.587  68.567  1.00  0.00    -0.137 C  
HETATM   16  H2  UNL     1      -4.613  16.153  68.318  1.00  0.00     0.000 HD 
HETATM   17  N   UNL     1      -5.397  15.982  68.950  1.00  0.00    -0.106 NA 
HETATM   18  H1  UNL     1      -4.557  15.492  69.259  1.00  0.00     0.000 HD 
ENDBRANCH  14  15
BRANCH  14  19
HETATM   19  N   UNL     1      -7.456  18.608  67.575  1.00  0.00    -0.226 NA 
HETATM   20  C   UNL     1      -7.302  19.785  68.298  1.00  0.00    -0.314 A  
HETATM   21  C   UNL     1      -7.193  20.802  67.381  1.00  0.00    -0.354 A  
HETATM   22  N   UNL     1      -7.174  20.307  66.115  1.00  0.00    -0.273 NA 
HETATM   23  C   UNL     1      -7.300  19.005  66.258  1.00  0.00    -0.260 A  
ENDBRANCH  14  19
ENDBRANCH   6   9
TORSDOF 3
ENDMDL
MODEL       13
REMARK 921   NORMALIZED FREE ENERGY PREDICTED BY IDOCK:   -5.47 KCAL/MOL
REMARK 922        TOTAL FREE ENERGY PREDICTED BY IDOCK:   -6.60 KCAL/MOL
REMARK 923 INTER-LIGAND FREE ENERGY PREDICTED BY IDOCK:   -6.34 KCAL/MOL
REMARK 924 INTRA-LIGAND FREE ENERGY PREDICTED BY IDOCK:   -0.26 KCAL/MOL
REMARK 927      BINDING AFFINITY PREDICTED BY RF-SCORE:    0.00 PKD
ROOT
HETATM    1 CL   UNL     1     -12.672  15.021  73.492  1.00  0.00    -0.641 Cl 
HETATM    2  C   UNL     1     -12.243  14.944  71.830  1.00  0.00    -0.348 A  
HETATM    3  C   UNL     1     -11.590  16.014  71.229  1.00  0.00    -0.506 A  
HETATM    4  C   UNL     1     -11.249  15.951  69.873  1.00  0.00    -0.348 A  
HETATM    5 CL   UNL     1     -10.481  17.350  69.201  1.00  0.00    -0.313 Cl 
HETATM    6  C   UNL     1     -11.538  14.811  69.097  1.00  0.00    -0.330 A  
HETATM    7  C   UNL     1     -12.211  13.749  69.738  1.00  0.00    -0.368 A  
HETATM    8  C   UNL     1     -12.560  13.814  71.089  1.00  0.00    -0.452 A  
ENDROOT
BRANCH   6   9
HETATM    9  C   UNL     1     -11.180  14.763  67.611  1.00  0.00    -0.323 C  
HETATM   10  C   UNL     1     -12.097  13.857  66.790  1.00  0.00    -0.439 C  
HETATM   11  S   UNL     1     -11.504  12.147  66.923  1.00  0.00    -0.338 SA 
HETATM   12  C   UNL     1      -9.794  12.520  67.054  1.00  0.00    -0.217 C  
HETATM   13  S   UNL     1      -9.463  14.238  67.248  1.00  0.00    -0.228 SA 
HETATM   14  C   UNL     1      -8.803  11.600  66.939  1.00  0.00    -0.190 C  
BRANCH  14  15
HETATM   15  C   UNL     1      -7.361  12.081  66.902  1.00  0.00    -0.042 C  
HETATM   16  H2  UNL     1      -6.084  13.433  67.227  1.00  0.00     0.000 HD 
HETATM   17  N   UNL     1      -6.166  12.480  66.872  1.00  0.00    -0.494 NA 
HETATM   18  H1  UNL     1      -5.199  12.803  66.847  1.00  0.00     0.000 HD 
ENDBRANCH  14  15
BRANCH  14  19
HETATM   19  N   UNL     1      -8.966  10.204  66.777  1.00  0.00    -0.132 NA 
HETATM   20  C   UNL     1      -9.080   9.262  67.792  1.00  0.00    -0.126 A  
HETATM   21  C   UNL     1      -9.130   8.030  67.186  1.00  0.00    -0.137 A  
HETATM   22  N   UNL     1      -9.150   8.162  65.832  1.00  0.00    -0.162 NA 
HETATM   23  C   UNL     1      -9.084   9.458  65.617  1.00  0.00    -0.207 A  
ENDBRANCH  14  19
ENDBRANCH   6   9
TORSDOF 3
ENDMDL
MODEL       14
REMARK 921   NORMALIZED FREE ENERGY PREDICTED BY IDOCK:   -5.45 KCAL/MOL
REMARK 922        TOTAL FREE ENERGY PREDICTED BY IDOCK:   -6.58 KCAL/MOL
REMARK 923 INTER-LIGAND FREE ENERGY PREDICTED BY IDOCK:   -6.68 KCAL/MOL
REMARK 924 INTRA-LIGAND FREE ENERGY PREDICTED BY IDOCK:    0.10 KCAL/MOL
REMARK 927      BINDING AFFINITY PREDICTED BY RF-SCORE:    0.00 PKD
ROOT
HETATM    1 CL   UNL     1      -8.729   8.390  65.884  1.00  0.00    -0.182 Cl 
HETATM    2  C   UNL     1      -9.724   9.792  65.866  1.00  0.00    -0.266 A  
HETATM    3  C   UNL     1     -10.362  10.207  67.029  1.00  0.00    -0.303 A  
HETATM    4  C   UNL     1     -11.177  11.345  67.009  1.00  0.00    -0.283 A  
HETATM    5 CL   UNL     1     -11.968  11.757  68.494  1.00  0.00    -0.350 Cl 
HETATM    6  C   UNL     1     -11.355  12.098  65.832  1.00  0.00    -0.407 A  
HETATM    7  C   UNL     1     -10.700  11.641  64.669  1.00  0.00    -0.371 A  
HETATM    8  C   UNL     1      -9.893  10.501  64.685  1.00  0.00    -0.404 A  
ENDROOT
BRANCH   6   9
HETATM    9  C   UNL     1     -12.265  13.327  65.819  1.00  0.00    -0.456 C  
HETATM   10  C   UNL     1     -12.113  14.187  64.564  1.00  0.00    -0.468 C  
HETATM   11  S   UNL     1     -10.707  15.310  64.790  1.00  0.00    -0.215 SA 
HETATM   12  C   UNL     1     -10.879  15.528  66.523  1.00  0.00    -0.284 C  
HETATM   13  S   UNL     1     -12.066  14.451  67.251  1.00  0.00    -0.208 SA 
HETATM   14  C   UNL     1     -10.230  16.481  67.239  1.00  0.00    -0.287 C  
BRANCH  14  15
HETATM   15  C   UNL     1     -10.598  16.671  68.702  1.00  0.00    -0.337 C  
HETATM   16  H2  UNL     1     -11.725  16.278  70.165  1.00  0.00     0.000 HD 
HETATM   17  N   UNL     1     -10.903  16.828  69.915  1.00  0.00    -0.366 NA 
HETATM   18  H1  UNL     1     -11.149  16.956  70.896  1.00  0.00     0.000 HD 
ENDBRANCH  14  15
BRANCH  14  19
HETATM   19  N   UNL     1      -9.266  17.391  66.747  1.00  0.00    -0.252 NA 
HETATM   20  C   UNL     1      -7.908  17.150  66.584  1.00  0.00    -0.262 A  
HETATM   21  C   UNL     1      -7.342  18.331  66.170  1.00  0.00    -0.263 A  
HETATM   22  N   UNL     1      -8.298  19.278  65.971  1.00  0.00    -0.455 NA 
HETATM   23  C   UNL     1      -9.430  18.688  66.289  1.00  0.00    -0.260 A  
ENDBRANCH  14  19
ENDBRANCH   6   9
TORSDOF 3
ENDMDL
MODEL       15
REMARK 921   NORMALIZED FREE ENERGY PREDICTED BY IDOCK:   -5.38 KCAL/MOL
REMARK 922        TOTAL FREE ENERGY PREDICTED BY IDOCK:   -6.49 KCAL/MOL
REMARK 923 INTER-LIGAND FREE ENERGY PREDICTED BY IDOCK:   -6.39 KCAL/MOL
REMARK 924 INTRA-LIGAND FREE ENERGY PREDICTED BY IDOCK:   -0.11 KCAL/MOL
REMARK 927      BINDING AFFINITY PREDICTED BY RF-SCORE:    0.00 PKD
ROOT
HETATM    1 CL   UNL     1     -12.409  10.705  70.953  1.00  0.00    -0.461 Cl 
HETATM    2  C   UNL     1     -12.034  11.879  69.756  1.00  0.00    -0.307 A  
HETATM    3  C   UNL     1     -11.882  11.497  68.429  1.00  0.00    -0.353 A  
HETATM    4  C   UNL     1     -11.569  12.455  67.457  1.00  0.00    -0.365 A  
HETATM    5 CL   UNL     1     -11.351  11.876  65.839  1.00  0.00    -0.380 Cl 
HETATM    6  C   UNL     1     -11.421  13.816  67.791  1.00  0.00    -0.354 A  
HETATM    7  C   UNL     1     -11.573  14.165  69.149  1.00  0.00    -0.349 A  
HETATM    8  C   UNL     1     -11.876  13.209  70.121  1.00  0.00    -0.328 A  
ENDROOT
BRANCH   6   9
HETATM    9  C   UNL     1     -11.059  14.849  66.724  1.00  0.00    -0.335 C  
HETATM   10  C   UNL     1      -9.708  14.591  66.057  1.00  0.00    -0.303 C  
HETATM   11  S   UNL     1      -8.397  15.296  67.095  1.00  0.00    -0.231 SA 
HETATM   12  C   UNL     1      -9.320  16.652  67.719  1.00  0.00    -0.222 C  
HETATM   13  S   UNL     1     -11.031  16.584  67.309  1.00  0.00     0.007 SA 
HETATM   14  C   UNL     1      -8.777  17.702  68.386  1.00  0.00    -0.284 C  
BRANCH  14  15
HETATM   15  C   UNL     1      -9.662  18.890  68.723  1.00  0.00    -0.400 C  
HETATM   16  H2  UNL     1     -10.407  20.058  70.006  1.00  0.00     0.000 HD 
HETATM   17  N   UNL     1     -10.396  19.876  69.003  1.00  0.00    -0.599 NA 
HETATM   18  H1  UNL     1     -10.991  20.673  69.229  1.00  0.00     0.000 HD 
ENDBRANCH  14  15
BRANCH  14  19
HETATM   19  N   UNL     1      -7.420  17.849  68.757  1.00  0.00    -0.279 NA 
HETATM   20  C   UNL     1      -6.612  18.955  68.519  1.00  0.00    -0.246 A  
HETATM   21  C   UNL     1      -5.354  18.631  68.965  1.00  0.00    -0.201 A  
HETATM   22  N   UNL     1      -5.356  17.409  69.562  1.00  0.00    -0.169 NA 
HETATM   23  C   UNL     1      -6.596  16.981  69.454  1.00  0.00    -0.225 A  
ENDBRANCH  14  19
ENDBRANCH   6   9
TORSDOF 3
ENDMDL
MODEL       16
REMARK 921   NORMALIZED FREE ENERGY PREDICTED BY IDOCK:   -5.36 KCAL/MOL
REMARK 922        TOTAL FREE ENERGY PREDICTED BY IDOCK:   -6.47 KCAL/MOL
REMARK 923 INTER-LIGAND FREE ENERGY PREDICTED BY IDOCK:   -6.26 KCAL/MOL
REMARK 924 INTRA-LIGAND FREE ENERGY PREDICTED BY IDOCK:   -0.21 KCAL/MOL
REMARK 927      BINDING AFFINITY PREDICTED BY RF-SCORE:    0.00 PKD
ROOT
HETATM    1 CL   UNL     1      -5.181  19.004  69.604  1.00  0.00    -0.184 Cl 
HETATM    2  C   UNL     1      -6.718  18.424  69.098  1.00  0.00    -0.260 A  
HETATM    3  C   UNL     1      -7.743  19.320  68.817  1.00  0.00    -0.397 A  
HETATM    4  C   UNL     1      -8.995  18.844  68.412  1.00  0.00    -0.340 A  
HETATM    5 CL   UNL     1     -10.223  20.032  68.131  1.00  0.00    -0.553 Cl 
HETATM    6  C   UNL     1      -9.241  17.464  68.262  1.00  0.00    -0.271 A  
HETATM    7  C   UNL     1      -8.180  16.584  68.566  1.00  0.00    -0.212 A  
HETATM    8  C   UNL     1      -6.933  17.058  68.979  1.00  0.00    -0.229 A  
ENDROOT
BRANCH   6   9
HETATM    9  C   UNL     1     -10.619  16.955  67.840  1.00  0.00    -0.361 C  
HETATM   10  C   UNL     1     -11.366  16.218  68.952  1.00  0.00    -0.317 C  
HETATM   11  S   UNL     1     -10.810  14.492  68.986  1.00  0.00    -0.258 SA 
HETATM   12  C   UNL     1     -10.512  14.325  67.265  1.00  0.00    -0.269 C  
HETATM   13  S   UNL     1     -10.619  15.845  66.384  1.00  0.00    -0.268 SA 
HETATM   14  C   UNL     1     -10.297  13.139  66.640  1.00  0.00    -0.265 C  
BRANCH  14  15
HETATM   15  C   UNL     1     -10.221  13.117  65.123  1.00  0.00    -0.284 C  
HETATM   16  H2  UNL     1     -11.080  12.961  63.448  1.00  0.00     0.000 HD 
HETATM   17  N   UNL     1     -10.159  13.099  63.864  1.00  0.00    -0.764 NA 
HETATM   18  H1  UNL     1     -10.108  13.083  62.845  1.00  0.00     0.000 HD 
ENDBRANCH  14  15
BRANCH  14  19
HETATM   19  N   UNL     1     -10.198  11.870  67.257  1.00  0.00    -0.199 NA 
HETATM   20  C   UNL     1      -9.054  11.307  67.812  1.00  0.00    -0.152 A  
HETATM   21  C   UNL     1      -9.392  10.037  68.213  1.00  0.00    -0.132 A  
HETATM   22  N   UNL     1     -10.720   9.812  68.024  1.00  0.00    -0.250 NA 
HETATM   23  C   UNL     1     -11.180  10.921  67.487  1.00  0.00    -0.293 A  
ENDBRANCH  14  19
ENDBRANCH   6   9
TORSDOF 3
ENDMDL
MODEL       17
REMARK 921   NORMALIZED FREE ENERGY PREDICTED BY IDOCK:   -5.34 KCAL/MOL
REMARK 922        TOTAL FREE ENERGY PREDICTED BY IDOCK:   -6.45 KCAL/MOL
REMARK 923 INTER-LIGAND FREE ENERGY PREDICTED BY IDOCK:   -6.18 KCAL/MOL
REMARK 924 INTRA-LIGAND FREE ENERGY PREDICTED BY IDOCK:   -0.26 KCAL/MOL
REMARK 927      BINDING AFFINITY PREDICTED BY RF-SCORE:    0.00 PKD
ROOT
HETATM    1 CL   UNL     1     -12.500   6.743  71.685  1.00  0.00    -0.404 Cl 
HETATM    2  C   UNL     1     -11.363   7.633  70.754  1.00  0.00    -0.281 A  
HETATM    3  C   UNL     1     -10.420   6.964  69.982  1.00  0.00    -0.231 A  
HETATM    4  C   UNL     1      -9.490   7.692  69.230  1.00  0.00    -0.158 A  
HETATM    5 CL   UNL     1      -8.325   6.773  68.338  1.00  0.00    -0.122 Cl 
HETATM    6  C   UNL     1      -9.496   9.101  69.223  1.00  0.00    -0.158 A  
HETATM    7  C   UNL     1     -10.461   9.745  70.026  1.00  0.00    -0.314 A  
HETATM    8  C   UNL     1     -11.384   9.020  70.784  1.00  0.00    -0.329 A  
ENDROOT
BRANCH   6   9
HETATM    9  C   UNL     1      -8.462   9.885  68.415  1.00  0.00    -0.111 C  
HETATM   10  C   UNL     1      -8.396  11.368  68.780  1.00  0.00    -0.096 C  
HETATM   11  S   UNL     1      -9.688  12.255  67.867  1.00  0.00    -0.208 SA 
HETATM   12  C   UNL     1      -9.665  11.251  66.427  1.00  0.00    -0.209 C  
HETATM   13  S   UNL     1      -8.679   9.803  66.598  1.00  0.00    -0.131 SA 
HETATM   14  C   UNL     1     -10.274  11.579  65.260  1.00  0.00    -0.267 C  
BRANCH  14  15
HETATM   15  C   UNL     1     -10.034  10.704  64.041  1.00  0.00    -0.337 C  
HETATM   16  H2  UNL     1     -10.706   9.568  62.690  1.00  0.00     0.000 HD 
HETATM   17  N   UNL     1      -9.836   9.979  63.029  1.00  0.00    -0.515 NA 
HETATM   18  H1  UNL     1      -9.675   9.391  62.211  1.00  0.00     0.000 HD 
ENDBRANCH  14  15
BRANCH  14  19
HETATM   19  N   UNL     1     -11.081  12.717  65.024  1.00  0.00    -0.279 NA 
HETATM   20  C   UNL     1     -10.642  13.973  64.623  1.00  0.00    -0.395 A  
HETATM   21  C   UNL     1     -11.745  14.792  64.605  1.00  0.00    -0.422 A  
HETATM   22  N   UNL     1     -12.873  14.084  64.882  1.00  0.00    -0.716 NA 
HETATM   23  C   UNL     1     -12.457  12.853  65.095  1.00  0.00    -0.501 A  
ENDBRANCH  14  19
ENDBRANCH   6   9
TORSDOF 3
ENDMDL
MODEL       18
REMARK 921   NORMALIZED FREE ENERGY PREDICTED BY IDOCK:   -5.33 KCAL/MOL
REMARK 922        TOTAL FREE ENERGY PREDICTED BY IDOCK:   -6.43 KCAL/MOL
REMARK 923 INTER-LIGAND FREE ENERGY PREDICTED BY IDOCK:   -6.17 KCAL/MOL
REMARK 924 INTRA-LIGAND FREE ENERGY PREDICTED BY IDOCK:   -0.27 KCAL/MOL
REMARK 927      BINDING AFFINITY PREDICTED BY RF-SCORE:    0.00 PKD
ROOT
HETATM    1 CL   UNL     1     -12.237   6.431  72.047  1.00  0.00    -0.374 Cl 
HETATM    2  C   UNL     1     -11.464   7.255  70.751  1.00  0.00    -0.299 A  
HETATM    3  C   UNL     1     -11.394   6.667  69.495  1.00  0.00    -0.358 A  
HETATM    4  C   UNL     1     -10.758   7.338  68.443  1.00  0.00    -0.121 A  
HETATM    5 CL   UNL     1     -10.678   6.505  66.927  1.00  0.00    -0.395 Cl 
HETATM    6  C   UNL     1     -10.196   8.617  68.625  1.00  0.00    -0.214 A  
HETATM    7  C   UNL     1     -10.277   9.179  69.917  1.00  0.00    -0.222 A  
HETATM    8  C   UNL     1     -10.904   8.506  70.969  1.00  0.00    -0.290 A  
ENDROOT
BRANCH   6   9
HETATM    9  C   UNL     1      -9.485   9.331  67.475  1.00  0.00    -0.132 C  
HETATM   10  C   UNL     1      -8.399  10.303  67.937  1.00  0.00    -0.114 C  
HETATM   11  S   UNL     1      -9.172  11.889  68.358  1.00  0.00    -0.138 SA 
HETATM   12  C   UNL     1     -10.463  11.823  67.171  1.00  0.00    -0.220 C  
HETATM   13  S   UNL     1     -10.585  10.270  66.352  1.00  0.00    -0.048 SA 
HETATM   14  C   UNL     1     -11.251  12.879  66.843  1.00  0.00    -0.291 C  
BRANCH  14  15
HETATM   15  C   UNL     1     -12.217  12.734  65.679  1.00  0.00    -0.444 C  
HETATM   16  H2  UNL     1     -13.525  11.728  64.759  1.00  0.00     0.000 HD 
HETATM   17  N   UNL     1     -13.019  12.613  64.714  1.00  0.00    -0.867 NA 
HETATM   18  H1  UNL     1     -13.668  12.516  63.932  1.00  0.00     0.000 HD 
ENDBRANCH  14  15
BRANCH  14  19
HETATM   19  N   UNL     1     -11.227  14.162  67.438  1.00  0.00    -0.306 NA 
HETATM   20  C   UNL     1     -10.563  15.284  66.957  1.00  0.00    -0.306 A  
HETATM   21  C   UNL     1     -10.735  16.277  67.892  1.00  0.00    -0.329 A  
HETATM   22  N   UNL     1     -11.558  15.859  68.890  1.00  0.00    -0.389 NA 
HETATM   23  C   UNL     1     -11.860  14.615  68.582  1.00  0.00    -0.311 A  
ENDBRANCH  14  19
ENDBRANCH   6   9
TORSDOF 3
ENDMDL
MODEL       19
REMARK 921   NORMALIZED FREE ENERGY PREDICTED BY IDOCK:   -5.31 KCAL/MOL
REMARK 922        TOTAL FREE ENERGY PREDICTED BY IDOCK:   -6.42 KCAL/MOL
REMARK 923 INTER-LIGAND FREE ENERGY PREDICTED BY IDOCK:   -6.19 KCAL/MOL
REMARK 924 INTRA-LIGAND FREE ENERGY PREDICTED BY IDOCK:   -0.23 KCAL/MOL
REMARK 927      BINDING AFFINITY PREDICTED BY RF-SCORE:    0.00 PKD
ROOT
HETATM    1 CL   UNL     1     -12.593  12.116  63.118  1.00  0.00    -0.493 Cl 
HETATM    2  C   UNL     1     -11.918  12.111  64.698  1.00  0.00    -0.323 A  
HETATM    3  C   UNL     1     -12.268  13.101  65.608  1.00  0.00    -0.521 A  
HETATM    4  C   UNL     1     -11.710  13.097  66.893  1.00  0.00    -0.387 A  
HETATM    5 CL   UNL     1     -12.169  14.398  67.941  1.00  0.00    -0.275 Cl 
HETATM    6  C   UNL     1     -10.807  12.094  67.296  1.00  0.00    -0.286 A  
HETATM    7  C   UNL     1     -10.468  11.111  66.342  1.00  0.00    -0.311 A  
HETATM    8  C   UNL     1     -11.016  11.119  65.058  1.00  0.00    -0.174 A  
ENDROOT
BRANCH   6   9
HETATM    9  C   UNL     1     -10.188  12.113  68.694  1.00  0.00    -0.174 C  
HETATM   10  C   UNL     1      -8.915  11.275  68.811  1.00  0.00    -0.111 C  
HETATM   11  S   UNL     1      -9.377   9.545  69.108  1.00  0.00    -0.171 SA 
HETATM   12  C   UNL     1     -10.833   9.866  70.035  1.00  0.00    -0.294 C  
HETATM   13  S   UNL     1     -11.303  11.562  70.039  1.00  0.00    -0.038 SA 
HETATM   14  C   UNL     1     -11.501   8.927  70.752  1.00  0.00    -0.275 C  
BRANCH  14  15
HETATM   15  C   UNL     1     -12.648   9.371  71.645  1.00  0.00    -0.375 C  
HETATM   16  H2  UNL     1     -13.342   9.690  73.372  1.00  0.00     0.000 HD 
HETATM   17  N   UNL     1     -13.599   9.739  72.386  1.00  0.00    -0.638 NA 
HETATM   18  H1  UNL     1     -14.369  10.037  72.986  1.00  0.00     0.000 HD 
ENDBRANCH  14  15
BRANCH  14  19
HETATM   19  N   UNL     1     -11.201   7.546  70.815  1.00  0.00    -0.266 NA 
HETATM   20  C   UNL     1     -10.709   6.857  71.917  1.00  0.00    -0.218 A  
HETATM   21  C   UNL     1     -10.479   5.566  71.506  1.00  0.00    -0.235 A  
HETATM   22  N   UNL     1     -10.895   5.389  70.223  1.00  0.00    -0.222 NA 
HETATM   23  C   UNL     1     -11.346   6.566  69.848  1.00  0.00    -0.406 A  
ENDBRANCH  14  19
ENDBRANCH   6   9
TORSDOF 3
ENDMDL
MODEL       20
REMARK 921   NORMALIZED FREE ENERGY PREDICTED BY IDOCK:   -5.31 KCAL/MOL
REMARK 922        TOTAL FREE ENERGY PREDICTED BY IDOCK:   -6.41 KCAL/MOL
REMARK 923 INTER-LIGAND FREE ENERGY PREDICTED BY IDOCK:   -6.08 KCAL/MOL
REMARK 924 INTRA-LIGAND FREE ENERGY PREDICTED BY IDOCK:   -0.33 KCAL/MOL
REMARK 927      BINDING AFFINITY PREDICTED BY RF-SCORE:    0.00 PKD
ROOT
HETATM    1 CL   UNL     1      -5.428  19.556  66.368  1.00  0.00    -0.159 Cl 
HETATM    2  C   UNL     1      -6.926  18.715  66.419  1.00  0.00    -0.226 A  
HETATM    3  C   UNL     1      -8.098  19.398  66.719  1.00  0.00    -0.302 A  
HETATM    4  C   UNL     1      -9.316  18.709  66.768  1.00  0.00    -0.308 A  
HETATM    5 CL   UNL     1     -10.715  19.636  67.197  1.00  0.00    -0.602 Cl 
HETATM    6  C   UNL     1      -9.387  17.328  66.499  1.00  0.00    -0.283 A  
HETATM    7  C   UNL     1      -8.175  16.666  66.207  1.00  0.00    -0.365 A  
HETATM    8  C   UNL     1      -6.959  17.350  66.168  1.00  0.00    -0.298 A  
ENDROOT
BRANCH   6   9
HETATM    9  C   UNL     1     -10.719  16.583  66.576  1.00  0.00    -0.144 C  
HETATM   10  C   UNL     1     -10.961  15.900  67.922  1.00  0.00    -0.327 C  
HETATM   11  S   UNL     1     -10.132  14.286  67.918  1.00  0.00    -0.237 SA 
HETATM   12  C   UNL     1     -10.337  13.940  66.209  1.00  0.00    -0.293 C  
HETATM   13  S   UNL     1     -10.963  15.303  65.288  1.00  0.00    -0.401 SA 
HETATM   14  C   UNL     1     -10.118  12.725  65.646  1.00  0.00    -0.270 C  
BRANCH  14  15
HETATM   15  C   UNL     1     -10.497  12.517  64.189  1.00  0.00    -0.403 C  
HETATM   16  H2  UNL     1     -10.425  11.471  62.618  1.00  0.00     0.000 HD 
HETATM   17  N   UNL     1     -10.811  12.343  62.981  1.00  0.00    -0.599 NA 
HETATM   18  H1  UNL     1     -11.064  12.204  62.003  1.00  0.00     0.000 HD 
ENDBRANCH  14  15
BRANCH  14  19
HETATM   19  N   UNL     1      -9.622  11.573  66.300  1.00  0.00    -0.211 NA 
HETATM   20  C   UNL     1     -10.378  10.544  66.850  1.00  0.00    -0.239 A  
HETATM   21  C   UNL     1      -9.495   9.685  67.459  1.00  0.00    -0.134 A  
HETATM   22  N   UNL     1      -8.212  10.076  67.233  1.00  0.00    -0.117 NA 
HETATM   23  C   UNL     1      -8.313  11.177  66.519  1.00  0.00    -0.166 A  
ENDBRANCH  14  19
ENDBRANCH   6   9
TORSDOF 3
ENDMDL
MODEL       21
REMARK 921   NORMALIZED FREE ENERGY PREDICTED BY IDOCK:   -5.25 KCAL/MOL
REMARK 922        TOTAL FREE ENERGY PREDICTED BY IDOCK:   -6.34 KCAL/MOL
REMARK 923 INTER-LIGAND FREE ENERGY PREDICTED BY IDOCK:   -5.99 KCAL/MOL
REMARK 924 INTRA-LIGAND FREE ENERGY PREDICTED BY IDOCK:   -0.35 KCAL/MOL
REMARK 927      BINDING AFFINITY PREDICTED BY RF-SCORE:    0.00 PKD
ROOT
HETATM    1 CL   UNL     1     -12.176   8.832  71.716  1.00  0.00    -0.384 Cl 
HETATM    2  C   UNL     1     -11.405   9.377  70.280  1.00  0.00    -0.220 A  
HETATM    3  C   UNL     1     -10.608   8.508  69.545  1.00  0.00    -0.215 A  
HETATM    4  C   UNL     1      -9.975   8.958  68.380  1.00  0.00    -0.178 A  
HETATM    5 CL   UNL     1      -8.964   7.817  67.557  1.00  0.00    -0.123 Cl 
HETATM    6  C   UNL     1     -10.142  10.279  67.919  1.00  0.00    -0.200 A  
HETATM    7  C   UNL     1     -10.950  11.135  68.696  1.00  0.00    -0.268 A  
HETATM    8  C   UNL     1     -11.575  10.690  69.864  1.00  0.00    -0.396 A  
ENDROOT
BRANCH   6   9
HETATM    9  C   UNL     1      -9.428  10.764  66.657  1.00  0.00    -0.175 C  
HETATM   10  C   UNL     1      -8.076  11.421  66.933  1.00  0.00    -0.158 C  
HETATM   11  S   UNL     1      -8.348  13.161  67.371  1.00  0.00    -0.185 SA 
HETATM   12  C   UNL     1      -9.757  13.422  66.358  1.00  0.00    -0.277 C  
HETATM   13  S   UNL     1     -10.385  11.945  65.635  1.00  0.00    -0.258 SA 
HETATM   14  C   UNL     1     -10.280  14.643  66.080  1.00  0.00    -0.311 C  
BRANCH  14  15
HETATM   15  C   UNL     1     -11.396  14.743  65.053  1.00  0.00    -0.391 C  
HETATM   16  H2  UNL     1     -11.948  14.932  63.257  1.00  0.00     0.000 HD 
HETATM   17  N   UNL     1     -12.321  14.826  64.201  1.00  0.00    -0.925 NA 
HETATM   18  H1  UNL     1     -13.070  14.894  63.512  1.00  0.00     0.000 HD 
ENDBRANCH  14  15
BRANCH  14  19
HETATM   19  N   UNL     1      -9.845  15.883  66.605  1.00  0.00    -0.243 NA 
HETATM   20  C   UNL     1     -10.283  16.482  67.780  1.00  0.00    -0.278 A  
HETATM   21  C   UNL     1      -9.667  17.708  67.854  1.00  0.00    -0.295 A  
HETATM   22  N   UNL     1      -8.788  17.865  66.828  1.00  0.00    -0.251 NA 
HETATM   23  C   UNL     1      -8.889  16.760  66.122  1.00  0.00    -0.263 A  
ENDBRANCH  14  19
ENDBRANCH   6   9
TORSDOF 3
ENDMDL
MODEL       22
REMARK 921   NORMALIZED FREE ENERGY PREDICTED BY IDOCK:   -5.18 KCAL/MOL
REMARK 922        TOTAL FREE ENERGY PREDICTED BY IDOCK:   -6.27 KCAL/MOL
REMARK 923 INTER-LIGAND FREE ENERGY PREDICTED BY IDOCK:   -6.13 KCAL/MOL
REMARK 924 INTRA-LIGAND FREE ENERGY PREDICTED BY IDOCK:   -0.13 KCAL/MOL
REMARK 927      BINDING AFFINITY PREDICTED BY RF-SCORE:    0.00 PKD
ROOT
HETATM    1 CL   UNL     1      -6.293   8.091  73.125  1.00  0.00    -0.071 Cl 
HETATM    2  C   UNL     1      -7.701   8.498  72.227  1.00  0.00    -0.059 A  
HETATM    3  C   UNL     1      -8.958   8.158  72.712  1.00  0.00    -0.313 A  
HETATM    4  C   UNL     1     -10.103   8.484  71.975  1.00  0.00    -0.316 A  
HETATM    5 CL   UNL     1     -11.622   7.978  72.636  1.00  0.00    -0.463 Cl 
HETATM    6  C   UNL     1     -10.013   9.171  70.748  1.00  0.00    -0.334 A  
HETATM    7  C   UNL     1      -8.720   9.491  70.282  1.00  0.00    -0.270 A  
HETATM    8  C   UNL     1      -7.576   9.158  71.013  1.00  0.00    -0.124 A  
ENDROOT
BRANCH   6   9
HETATM    9  C   UNL     1     -11.269   9.503  69.942  1.00  0.00    -0.178 C  
HETATM   10  C   UNL     1     -10.972  10.052  68.546  1.00  0.00    -0.209 C  
HETATM   11  S   UNL     1     -10.659  11.834  68.671  1.00  0.00    -0.219 SA 
HETATM   12  C   UNL     1     -11.752  12.153  70.007  1.00  0.00    -0.252 C  
HETATM   13  S   UNL     1     -12.407  10.694  70.742  1.00  0.00    -0.409 SA 
HETATM   14  C   UNL     1     -12.131  13.395  70.402  1.00  0.00    -0.333 C  
BRANCH  14  15
HETATM   15  C   UNL     1     -13.213  13.526  71.461  1.00  0.00    -0.322 C  
HETATM   16  H2  UNL     1     -15.018  13.839  71.920  1.00  0.00     0.000 HD 
HETATM   17  N   UNL     1     -14.111  13.635  72.339  1.00  0.00    -0.713 NA 
HETATM   18  H1  UNL     1     -14.837  13.723  73.050  1.00  0.00     0.000 HD 
ENDBRANCH  14  15
BRANCH  14  19
HETATM   19  N   UNL     1     -11.666  14.623  69.874  1.00  0.00    -0.282 NA 
HETATM   20  C   UNL     1     -10.827  15.531  70.509  1.00  0.00    -0.328 A  
HETATM   21  C   UNL     1     -10.712  16.615  69.673  1.00  0.00    -0.286 A  
HETATM   22  N   UNL     1     -11.362  16.389  68.500  1.00  0.00    -0.348 NA 
HETATM   23  C   UNL     1     -11.891  15.191  68.632  1.00  0.00    -0.302 A  
ENDBRANCH  14  19
ENDBRANCH   6   9
TORSDOF 3
ENDMDL
MODEL       23
REMARK 921   NORMALIZED FREE ENERGY PREDICTED BY IDOCK:   -5.14 KCAL/MOL
REMARK 922        TOTAL FREE ENERGY PREDICTED BY IDOCK:   -6.22 KCAL/MOL
REMARK 923 INTER-LIGAND FREE ENERGY PREDICTED BY IDOCK:   -5.95 KCAL/MOL
REMARK 924 INTRA-LIGAND FREE ENERGY PREDICTED BY IDOCK:   -0.26 KCAL/MOL
REMARK 927      BINDING AFFINITY PREDICTED BY RF-SCORE:    0.00 PKD
ROOT
HETATM    1 CL   UNL     1      -5.593  16.559  67.331  1.00  0.00    -0.172 Cl 
HETATM    2  C   UNL     1      -7.099  15.769  67.082  1.00  0.00    -0.190 A  
HETATM    3  C   UNL     1      -8.118  16.414  66.391  1.00  0.00    -0.357 A  
HETATM    4  C   UNL     1      -9.346  15.770  66.196  1.00  0.00    -0.346 A  
HETATM    5 CL   UNL     1     -10.571  16.671  65.367  1.00  0.00    -0.323 Cl 
HETATM    6  C   UNL     1      -9.571  14.463  66.672  1.00  0.00    -0.295 A  
HETATM    7  C   UNL     1      -8.517  13.844  67.376  1.00  0.00    -0.208 A  
HETATM    8  C   UNL     1      -7.295  14.488  67.579  1.00  0.00    -0.212 A  
ENDROOT
BRANCH   6   9
HETATM    9  C   UNL     1     -10.924  13.779  66.471  1.00  0.00    -0.299 C  
HETATM   10  C   UNL     1     -11.926  14.065  67.589  1.00  0.00    -0.368 C  
HETATM   11  S   UNL     1     -11.619  12.915  68.959  1.00  0.00    -0.339 SA 
HETATM   12  C   UNL     1     -11.084  11.556  67.986  1.00  0.00    -0.254 C  
HETATM   13  S   UNL     1     -10.848  11.958  66.288  1.00  0.00    -0.293 SA 
HETATM   14  C   UNL     1     -10.936  10.292  68.458  1.00  0.00    -0.247 C  
BRANCH  14  15
HETATM   15  C   UNL     1     -10.631   9.176  67.473  1.00  0.00    -0.249 C  
HETATM   16  H2  UNL     1     -10.589   8.533  65.698  1.00  0.00     0.000 HD 
HETATM   17  N   UNL     1     -10.377   8.251  66.655  1.00  0.00    -0.396 NA 
HETATM   18  H1  UNL     1     -10.173   7.501  65.994  1.00  0.00     0.000 HD 
ENDBRANCH  14  15
BRANCH  14  19
HETATM   19  N   UNL     1     -11.105   9.871  69.798  1.00  0.00    -0.249 NA 
HETATM   20  C   UNL     1     -10.108   9.424  70.657  1.00  0.00    -0.291 A  
HETATM   21  C   UNL     1     -10.730   9.035  71.819  1.00  0.00    -0.367 A  
HETATM   22  N   UNL     1     -12.061   9.309  71.765  1.00  0.00    -0.369 NA 
HETATM   23  C   UNL     1     -12.252   9.831  70.572  1.00  0.00    -0.130 A  
ENDBRANCH  14  19
ENDBRANCH   6   9
TORSDOF 3
ENDMDL
MODEL       24
REMARK 921   NORMALIZED FREE ENERGY PREDICTED BY IDOCK:   -5.11 KCAL/MOL
REMARK 922        TOTAL FREE ENERGY PREDICTED BY IDOCK:   -6.18 KCAL/MOL
REMARK 923 INTER-LIGAND FREE ENERGY PREDICTED BY IDOCK:   -5.87 KCAL/MOL
REMARK 924 INTRA-LIGAND FREE ENERGY PREDICTED BY IDOCK:   -0.31 KCAL/MOL
REMARK 927      BINDING AFFINITY PREDICTED BY RF-SCORE:    0.00 PKD
ROOT
HETATM    1 CL   UNL     1     -10.209   4.897  67.110  1.00  0.00    -0.225 Cl 
HETATM    2  C   UNL     1      -9.776   6.509  66.699  1.00  0.00    -0.154 A  
HETATM    3  C   UNL     1      -8.586   6.760  66.028  1.00  0.00    -0.149 A  
HETATM    4  C   UNL     1      -8.233   8.075  65.701  1.00  0.00    -0.135 A  
HETATM    5 CL   UNL     1      -6.709   8.295  64.908  1.00  0.00    -0.066 Cl 
HETATM    6  C   UNL     1      -9.072   9.161  66.023  1.00  0.00    -0.245 A  
HETATM    7  C   UNL     1     -10.267   8.867  66.713  1.00  0.00    -0.348 A  
HETATM    8  C   UNL     1     -10.616   7.557  67.048  1.00  0.00    -0.409 A  
ENDROOT
BRANCH   6   9
HETATM    9  C   UNL     1      -8.665  10.594  65.680  1.00  0.00    -0.188 C  
HETATM   10  C   UNL     1      -7.871  11.286  66.787  1.00  0.00    -0.155 C  
HETATM   11  S   UNL     1      -9.032  11.973  68.000  1.00  0.00    -0.192 SA 
HETATM   12  C   UNL     1     -10.325  12.350  66.874  1.00  0.00    -0.224 C  
HETATM   13  S   UNL     1     -10.054  11.710  65.256  1.00  0.00    -0.274 SA 
HETATM   14  C   UNL     1     -11.397  13.125  67.176  1.00  0.00    -0.316 C  
BRANCH  14  15
HETATM   15  C   UNL     1     -12.355  13.512  66.062  1.00  0.00    -0.433 C  
HETATM   16  H2  UNL     1     -13.581  13.009  64.716  1.00  0.00     0.000 HD 
HETATM   17  N   UNL     1     -13.150  13.832  65.137  1.00  0.00    -0.751 NA 
HETATM   18  H1  UNL     1     -13.793  14.092  64.389  1.00  0.00     0.000 HD 
ENDBRANCH  14  15
BRANCH  14  19
HETATM   19  N   UNL     1     -11.699  13.686  68.439  1.00  0.00    -0.338 NA 
HETATM   20  C   UNL     1     -11.675  15.035  68.772  1.00  0.00    -0.334 A  
HETATM   21  C   UNL     1     -11.944  15.116  70.117  1.00  0.00    -0.334 A  
HETATM   22  N   UNL     1     -12.233  13.888  70.624  1.00  0.00    -0.355 NA 
HETATM   23  C   UNL     1     -12.111  13.064  69.605  1.00  0.00    -0.241 A  
ENDBRANCH  14  19
ENDBRANCH   6   9
TORSDOF 3
ENDMDL
MODEL       25
REMARK 921   NORMALIZED FREE ENERGY PREDICTED BY IDOCK:   -5.09 KCAL/MOL
REMARK 922        TOTAL FREE ENERGY PREDICTED BY IDOCK:   -6.15 KCAL/MOL
REMARK 923 INTER-LIGAND FREE ENERGY PREDICTED BY IDOCK:   -6.95 KCAL/MOL
REMARK 924 INTRA-LIGAND FREE ENERGY PREDICTED BY IDOCK:    0.80 KCAL/MOL
REMARK 927      BINDING AFFINITY PREDICTED BY RF-SCORE:    0.00 PKD
ROOT
HETATM    1 CL   UNL     1     -12.584   9.982  71.100  1.00  0.00    -0.445 Cl 
HETATM    2  C   UNL     1     -11.580  10.641  69.871  1.00  0.00    -0.316 A  
HETATM    3  C   UNL     1     -12.143  11.365  68.827  1.00  0.00    -0.256 A  
HETATM    4  C   UNL     1     -11.323  11.895  67.823  1.00  0.00    -0.292 A  
HETATM    5 CL   UNL     1     -12.118  12.741  66.538  1.00  0.00    -0.417 Cl 
HETATM    6  C   UNL     1      -9.924  11.725  67.855  1.00  0.00    -0.187 A  
HETATM    7  C   UNL     1      -9.390  10.976  68.924  1.00  0.00    -0.155 A  
HETATM    8  C   UNL     1     -10.208  10.440  69.921  1.00  0.00    -0.190 A  
ENDROOT
BRANCH   6   9
HETATM    9  C   UNL     1      -9.042  12.290  66.741  1.00  0.00    -0.211 C  
HETATM   10  C   UNL     1      -7.802  13.022  67.256  1.00  0.00    -0.127 C  
HETATM   11  S   UNL     1      -8.259  14.728  67.672  1.00  0.00    -0.190 SA 
HETATM   12  C   UNL     1      -9.491  14.930  66.438  1.00  0.00    -0.300 C  
HETATM   13  S   UNL     1      -9.888  13.438  65.593  1.00  0.00    -0.098 SA 
HETATM   14  C   UNL     1     -10.039  16.124  66.097  1.00  0.00    -0.338 C  
BRANCH  14  15
HETATM   15  C   UNL     1     -10.969  16.184  64.897  1.00  0.00    -0.349 C  
HETATM   16  H2  UNL     1     -11.219  16.219  63.026  1.00  0.00     0.000 HD 
HETATM   17  N   UNL     1     -11.741  16.233  63.902  1.00  0.00    -1.518 NA 
HETATM   18  H1  UNL     1     -12.366  16.274  63.096  1.00  0.00     0.000 HD 
ENDBRANCH  14  15
BRANCH  14  19
HETATM   19  N   UNL     1      -9.782  17.372  66.711  1.00  0.00    -0.277 NA 
HETATM   20  C   UNL     1      -8.786  18.276  66.363  1.00  0.00    -0.241 A  
HETATM   21  C   UNL     1      -8.844  19.302  67.275  1.00  0.00    -0.292 A  
HETATM   22  N   UNL     1      -9.894  19.132  68.122  1.00  0.00    -0.346 NA 
HETATM   23  C   UNL     1     -10.451  18.000  67.748  1.00  0.00    -0.408 A  
ENDBRANCH  14  19
ENDBRANCH   6   9
TORSDOF 3
ENDMDL
MODEL       26
REMARK 921   NORMALIZED FREE ENERGY PREDICTED BY IDOCK:   -5.06 KCAL/MOL
REMARK 922        TOTAL FREE ENERGY PREDICTED BY IDOCK:   -6.12 KCAL/MOL
REMARK 923 INTER-LIGAND FREE ENERGY PREDICTED BY IDOCK:   -5.93 KCAL/MOL
REMARK 924 INTRA-LIGAND FREE ENERGY PREDICTED BY IDOCK:   -0.19 KCAL/MOL
REMARK 927      BINDING AFFINITY PREDICTED BY RF-SCORE:    0.00 PKD
ROOT
HETATM    1 CL   UNL     1     -13.158  15.717  73.509  1.00  0.00    -0.662 Cl 
HETATM    2  C   UNL     1     -12.517  15.280  71.976  1.00  0.00    -0.354 A  
HETATM    3  C   UNL     1     -11.765  16.195  71.249  1.00  0.00    -0.480 A  
HETATM    4  C   UNL     1     -11.250  15.838  69.997  1.00  0.00    -0.342 A  
HETATM    5 CL   UNL     1     -10.367  17.060  69.144  1.00  0.00    -0.320 Cl 
HETATM    6  C   UNL     1     -11.462  14.554  69.457  1.00  0.00    -0.330 A  
HETATM    7  C   UNL     1     -12.238  13.655  70.219  1.00  0.00    -0.423 A  
HETATM    8  C   UNL     1     -12.760  14.013  71.464  1.00  0.00    -0.443 A  
ENDROOT
BRANCH   6   9
HETATM    9  C   UNL     1     -10.913  14.183  68.079  1.00  0.00    -0.255 C  
HETATM   10  C   UNL     1     -11.893  13.377  67.227  1.00  0.00    -0.376 C  
HETATM   11  S   UNL     1     -11.761  11.625  67.680  1.00  0.00    -0.159 SA 
HETATM   12  C   UNL     1     -10.050  11.630  68.070  1.00  0.00    -0.189 C  
HETATM   13  S   UNL     1      -9.342  13.241  68.102  1.00  0.00    -0.214 SA 
HETATM   14  C   UNL     1      -9.307  10.509  68.254  1.00  0.00    -0.156 C  
BRANCH  14  15
HETATM   15  C   UNL     1      -7.803  10.649  68.419  1.00  0.00    -0.113 C  
HETATM   16  H2  UNL     1      -6.055  10.065  68.005  1.00  0.00     0.000 HD 
HETATM   17  N   UNL     1      -6.555  10.764  68.555  1.00  0.00    -0.054 NA 
HETATM   18  H1  UNL     1      -5.545  10.858  68.665  1.00  0.00     0.000 HD 
ENDBRANCH  14  15
BRANCH  14  19
HETATM   19  N   UNL     1      -9.781   9.176  68.244  1.00  0.00    -0.151 NA 
HETATM   20  C   UNL     1      -9.965   8.372  67.125  1.00  0.00    -0.238 A  
HETATM   21  C   UNL     1     -10.523   7.197  67.569  1.00  0.00    -0.260 A  
HETATM   22  N   UNL     1     -10.608   7.188  68.926  1.00  0.00    -0.209 NA 
HETATM   23  C   UNL     1     -10.134   8.357  69.303  1.00  0.00    -0.202 A  
ENDBRANCH  14  19
ENDBRANCH   6   9
TORSDOF 3
ENDMDL
MODEL       27
REMARK 921   NORMALIZED FREE ENERGY PREDICTED BY IDOCK:   -5.04 KCAL/MOL
REMARK 922        TOTAL FREE ENERGY PREDICTED BY IDOCK:   -6.10 KCAL/MOL
REMARK 923 INTER-LIGAND FREE ENERGY PREDICTED BY IDOCK:   -5.84 KCAL/MOL
REMARK 924 INTRA-LIGAND FREE ENERGY PREDICTED BY IDOCK:   -0.26 KCAL/MOL
REMARK 927      BINDING AFFINITY PREDICTED BY RF-SCORE:    0.00 PKD
ROOT
HETATM    1 CL   UNL     1     -12.647  15.773  73.834  1.00  0.00    -0.690 Cl 
HETATM    2  C   UNL     1     -12.313  15.375  72.196  1.00  0.00    -0.379 A  
HETATM    3  C   UNL     1     -11.673  16.292  71.372  1.00  0.00    -0.427 A  
HETATM    4  C   UNL     1     -11.409  15.967  70.036  1.00  0.00    -0.352 A  
HETATM    5 CL   UNL     1     -10.650  17.192  69.075  1.00  0.00    -0.315 Cl 
HETATM    6  C   UNL     1     -11.765  14.712  69.504  1.00  0.00    -0.366 A  
HETATM    7  C   UNL     1     -12.422  13.810  70.367  1.00  0.00    -0.384 A  
HETATM    8  C   UNL     1     -12.694  14.136  71.698  1.00  0.00    -0.430 A  
ENDROOT
BRANCH   6   9
HETATM    9  C   UNL     1     -11.491  14.376  68.038  1.00  0.00    -0.310 C  
HETATM   10  C   UNL     1     -12.252  13.149  67.539  1.00  0.00    -0.116 C  
HETATM   11  S   UNL     1     -11.321  11.658  67.988  1.00  0.00    -0.315 SA 
HETATM   12  C   UNL     1      -9.716  12.356  67.855  1.00  0.00    -0.204 C  
HETATM   13  S   UNL     1      -9.727  14.102  67.626  1.00  0.00    -0.233 SA 
HETATM   14  C   UNL     1      -8.568  11.632  67.846  1.00  0.00    -0.150 C  
BRANCH  14  15
HETATM   15  C   UNL     1      -7.258  12.345  67.554  1.00  0.00    -0.145 C  
HETATM   16  H2  UNL     1      -5.527  12.864  68.100  1.00  0.00     0.000 HD 
HETATM   17  N   UNL     1      -6.171  12.936  67.313  1.00  0.00    -0.409 NA 
HETATM   18  H1  UNL     1      -5.292  13.415  67.117  1.00  0.00     0.000 HD 
ENDBRANCH  14  15
BRANCH  14  19
HETATM   19  N   UNL     1      -8.456  10.233  68.018  1.00  0.00    -0.117 NA 
HETATM   20  C   UNL     1      -8.454   9.545  69.225  1.00  0.00    -0.139 A  
HETATM   21  C   UNL     1      -8.233   8.222  68.928  1.00  0.00    -0.116 A  
HETATM   22  N   UNL     1      -8.195   8.032  67.582  1.00  0.00    -0.123 NA 
HETATM   23  C   UNL     1      -8.360   9.232  67.066  1.00  0.00    -0.120 A  
ENDBRANCH  14  19
ENDBRANCH   6   9
TORSDOF 3
ENDMDL
MODEL       28
REMARK 921   NORMALIZED FREE ENERGY PREDICTED BY IDOCK:   -5.03 KCAL/MOL
REMARK 922        TOTAL FREE ENERGY PREDICTED BY IDOCK:   -6.08 KCAL/MOL
REMARK 923 INTER-LIGAND FREE ENERGY PREDICTED BY IDOCK:   -5.88 KCAL/MOL
REMARK 924 INTRA-LIGAND FREE ENERGY PREDICTED BY IDOCK:   -0.20 KCAL/MOL
REMARK 927      BINDING AFFINITY PREDICTED BY RF-SCORE:    0.00 PKD
ROOT
HETATM    1 CL   UNL     1     -12.221  12.669  63.335  1.00  0.00    -0.636 Cl 
HETATM    2  C   UNL     1     -11.572  12.200  64.856  1.00  0.00    -0.316 A  
HETATM    3  C   UNL     1     -12.000  12.829  66.019  1.00  0.00    -0.491 A  
HETATM    4  C   UNL     1     -11.464  12.450  67.256  1.00  0.00    -0.354 A  
HETATM    5 CL   UNL     1     -12.022  13.323  68.643  1.00  0.00    -0.377 Cl 
HETATM    6  C   UNL     1     -10.505  11.422  67.354  1.00  0.00    -0.239 A  
HETATM    7  C   UNL     1     -10.088  10.813  66.152  1.00  0.00    -0.297 A  
HETATM    8  C   UNL     1     -10.615  11.196  64.916  1.00  0.00    -0.356 A  
ENDROOT
BRANCH   6   9
HETATM    9  C   UNL     1      -9.912  11.031  68.708  1.00  0.00    -0.207 C  
HETATM   10  C   UNL     1      -8.534  10.378  68.606  1.00  0.00    -0.129 C  
HETATM   11  S   UNL     1      -8.747   8.609  68.261  1.00  0.00    -0.142 SA 
HETATM   12  C   UNL     1     -10.245   8.393  69.151  1.00  0.00    -0.211 C  
HETATM   13  S   UNL     1     -10.952   9.905  69.710  1.00  0.00    -0.277 SA 
HETATM   14  C   UNL     1     -10.781   7.185  69.458  1.00  0.00    -0.239 C  
BRANCH  14  15
HETATM   15  C   UNL     1     -11.990   7.136  70.378  1.00  0.00    -0.145 C  
HETATM   16  H2  UNL     1     -13.254   8.029  71.460  1.00  0.00     0.000 HD 
HETATM   17  N   UNL     1     -12.992   7.096  71.141  1.00  0.00    -0.534 NA 
HETATM   18  H1  UNL     1     -13.803   7.063  71.759  1.00  0.00     0.000 HD 
ENDBRANCH  14  15
BRANCH  14  19
HETATM   19  N   UNL     1     -10.287   5.921  69.060  1.00  0.00    -0.208 NA 
HETATM   20  C   UNL     1      -9.770   4.936  69.892  1.00  0.00    -0.206 A  
HETATM   21  C   UNL     1      -9.328   3.920  69.079  1.00  0.00    -0.169 A  
HETATM   22  N   UNL     1      -9.634   4.180  67.779  1.00  0.00    -0.171 NA 
HETATM   23  C   UNL     1     -10.228   5.354  67.798  1.00  0.00    -0.178 A  
ENDBRANCH  14  19
ENDBRANCH   6   9
TORSDOF 3
ENDMDL
MODEL       29
REMARK 921   NORMALIZED FREE ENERGY PREDICTED BY IDOCK:   -5.03 KCAL/MOL
REMARK 922        TOTAL FREE ENERGY PREDICTED BY IDOCK:   -6.08 KCAL/MOL
REMARK 923 INTER-LIGAND FREE ENERGY PREDICTED BY IDOCK:   -5.78 KCAL/MOL
REMARK 924 INTRA-LIGAND FREE ENERGY PREDICTED BY IDOCK:   -0.30 KCAL/MOL
REMARK 927      BINDING AFFINITY PREDICTED BY RF-SCORE:    0.00 PKD
ROOT
HETATM    1 CL   UNL     1     -10.146  18.391  68.778  1.00  0.00    -0.409 Cl 
HETATM    2  C   UNL     1     -10.056  16.756  68.254  1.00  0.00    -0.274 A  
HETATM    3  C   UNL     1     -10.339  16.432  66.933  1.00  0.00    -0.300 A  
HETATM    4  C   UNL     1     -10.272  15.099  66.511  1.00  0.00    -0.276 A  
HETATM    5 CL   UNL     1     -10.687  14.786  64.859  1.00  0.00    -0.439 Cl 
HETATM    6  C   UNL     1      -9.904  14.067  67.398  1.00  0.00    -0.240 A  
HETATM    7  C   UNL     1      -9.634  14.433  68.734  1.00  0.00    -0.177 A  
HETATM    8  C   UNL     1      -9.709  15.762  69.158  1.00  0.00    -0.250 A  
ENDROOT
BRANCH   6   9
HETATM    9  C   UNL     1      -9.855  12.613  66.931  1.00  0.00    -0.234 C  
HETATM   10  C   UNL     1     -11.232  12.023  66.624  1.00  0.00    -0.327 C  
HETATM   11  S   UNL     1     -11.975  11.434  68.172  1.00  0.00     0.021 SA 
HETATM   12  C   UNL     1     -10.483  10.955  68.961  1.00  0.00    -0.219 C  
HETATM   13  S   UNL     1      -9.037  11.456  68.091  1.00  0.00    -0.179 SA 
HETATM   14  C   UNL     1     -10.425  10.203  70.089  1.00  0.00    -0.255 C  
BRANCH  14  15
HETATM   15  C   UNL     1      -9.069   9.716  70.573  1.00  0.00    -0.139 C  
HETATM   16  H2  UNL     1      -7.438  10.050  71.464  1.00  0.00     0.000 HD 
HETATM   17  N   UNL     1      -7.944   9.312  70.974  1.00  0.00    -0.309 NA 
HETATM   18  H1  UNL     1      -7.034   8.986  71.299  1.00  0.00     0.000 HD 
ENDBRANCH  14  15
BRANCH  14  19
HETATM   19  N   UNL     1     -11.525   9.750  70.854  1.00  0.00    -0.339 NA 
HETATM   20  C   UNL     1     -11.887   8.427  71.080  1.00  0.00    -0.252 A  
HETATM   21  C   UNL     1     -13.061   8.454  71.794  1.00  0.00    -0.351 A  
HETATM   22  N   UNL     1     -13.401   9.732  72.111  1.00  0.00    -0.451 NA 
HETATM   23  C   UNL     1     -12.461  10.477  71.571  1.00  0.00    -0.387 A  
ENDBRANCH  14  19
ENDBRANCH   6   9
TORSDOF 3
ENDMDL
MODEL       30
REMARK 921   NORMALIZED FREE ENERGY PREDICTED BY IDOCK:   -5.01 KCAL/MOL
REMARK 922        TOTAL FREE ENERGY PREDICTED BY IDOCK:   -6.06 KCAL/MOL
REMARK 923 INTER-LIGAND FREE ENERGY PREDICTED BY IDOCK:   -5.95 KCAL/MOL
REMARK 924 INTRA-LIGAND FREE ENERGY PREDICTED BY IDOCK:   -0.11 KCAL/MOL
REMARK 927      BINDING AFFINITY PREDICTED BY RF-SCORE:    0.00 PKD
ROOT
HETATM    1 CL   UNL     1      -5.675  18.123  69.442  1.00  0.00    -0.217 Cl 
HETATM    2  C   UNL     1      -7.237  17.507  69.075  1.00  0.00    -0.215 A  
HETATM    3  C   UNL     1      -8.206  18.344  68.535  1.00  0.00    -0.338 A  
HETATM    4  C   UNL     1      -9.480  17.842  68.245  1.00  0.00    -0.290 A  
HETATM    5 CL   UNL     1     -10.635  18.971  67.620  1.00  0.00    -0.519 Cl 
HETATM    6  C   UNL     1      -9.803  16.489  68.472  1.00  0.00    -0.243 A  
HETATM    7  C   UNL     1      -8.797  15.672  69.030  1.00  0.00    -0.243 A  
HETATM    8  C   UNL     1      -7.528  16.174  69.329  1.00  0.00    -0.222 A  
ENDROOT
BRANCH   6   9
HETATM    9  C   UNL     1     -11.204  15.957  68.170  1.00  0.00    -0.339 C  
HETATM   10  C   UNL     1     -12.074  15.786  69.416  1.00  0.00    -0.227 C  
HETATM   11  S   UNL     1     -11.698  14.182  70.178  1.00  0.00    -0.256 SA 
HETATM   12  C   UNL     1     -11.336  13.317  68.694  1.00  0.00    -0.288 C  
HETATM   13  S   UNL     1     -11.247  14.358  67.278  1.00  0.00    -0.337 SA 
HETATM   14  C   UNL     1     -11.213  11.968  68.610  1.00  0.00    -0.258 C  
BRANCH  14  15
HETATM   15  C   UNL     1     -11.068  11.332  67.237  1.00  0.00    -0.305 C  
HETATM   16  H2  UNL     1     -11.271   9.837  66.102  1.00  0.00     0.000 HD 
HETATM   17  N   UNL     1     -10.947  10.805  66.099  1.00  0.00    -0.048 NA 
HETATM   18  H1  UNL     1     -10.849  10.378  65.177  1.00  0.00     0.000 HD 
ENDBRANCH  14  15
BRANCH  14  19
HETATM   19  N   UNL     1     -11.273  11.050  69.685  1.00  0.00    -0.266 NA 
HETATM   20  C   UNL     1     -12.377  10.786  70.487  1.00  0.00    -0.369 A  
HETATM   21  C   UNL     1     -11.962   9.903  71.454  1.00  0.00    -0.404 A  
HETATM   22  N   UNL     1     -10.674   9.524  71.238  1.00  0.00    -0.343 NA 
HETATM   23  C   UNL     1     -10.299  10.192  70.168  1.00  0.00    -0.224 A  
ENDBRANCH  14  19
ENDBRANCH   6   9
TORSDOF 3
ENDMDL
MODEL       31
REMARK 921   NORMALIZED FREE ENERGY PREDICTED BY IDOCK:   -5.01 KCAL/MOL
REMARK 922        TOTAL FREE ENERGY PREDICTED BY IDOCK:   -6.06 KCAL/MOL
REMARK 923 INTER-LIGAND FREE ENERGY PREDICTED BY IDOCK:   -5.97 KCAL/MOL
REMARK 924 INTRA-LIGAND FREE ENERGY PREDICTED BY IDOCK:   -0.09 KCAL/MOL
REMARK 927      BINDING AFFINITY PREDICTED BY RF-SCORE:    0.00 PKD
ROOT
HETATM    1 CL   UNL     1      -7.178  18.607  67.720  1.00  0.00    -0.234 Cl 
HETATM    2  C   UNL     1      -8.453  17.467  67.558  1.00  0.00    -0.214 A  
HETATM    3  C   UNL     1      -9.163  17.380  66.367  1.00  0.00    -0.272 A  
HETATM    4  C   UNL     1     -10.207  16.455  66.241  1.00  0.00    -0.330 A  
HETATM    5 CL   UNL     1     -11.065  16.454  64.736  1.00  0.00    -0.356 Cl 
HETATM    6  C   UNL     1     -10.547  15.587  67.297  1.00  0.00    -0.299 A  
HETATM    7  C   UNL     1      -9.811  15.710  68.495  1.00  0.00    -0.205 A  
HETATM    8  C   UNL     1      -8.776  16.639  68.625  1.00  0.00    -0.250 A  
ENDROOT
BRANCH   6   9
HETATM    9  C   UNL     1     -11.702  14.596  67.155  1.00  0.00    -0.373 C  
HETATM   10  C   UNL     1     -11.882  13.687  68.372  1.00  0.00    -0.372 C  
HETATM   11  S   UNL     1     -10.742  12.282  68.228  1.00  0.00    -0.230 SA 
HETATM   12  C   UNL     1     -10.768  12.160  66.477  1.00  0.00    -0.255 C  
HETATM   13  S   UNL     1     -11.601  13.498  65.692  1.00  0.00    -0.337 SA 
HETATM   14  C   UNL     1     -10.272  11.107  65.780  1.00  0.00    -0.257 C  
BRANCH  14  15
HETATM   15  C   UNL     1     -10.511  11.047  64.280  1.00  0.00    -0.359 C  
HETATM   16  H2  UNL     1     -10.452  10.086  62.655  1.00  0.00     0.000 HD 
HETATM   17  N   UNL     1     -10.708  10.997  63.036  1.00  0.00    -0.803 NA 
HETATM   18  H1  UNL     1     -10.868  10.957  62.029  1.00  0.00     0.000 HD 
ENDBRANCH  14  15
BRANCH  14  19
HETATM   19  N   UNL     1      -9.593   9.988  66.317  1.00  0.00    -0.189 NA 
HETATM   20  C   UNL     1     -10.167   8.790  66.724  1.00  0.00    -0.284 A  
HETATM   21  C   UNL     1      -9.156   8.029  67.262  1.00  0.00    -0.135 A  
HETATM   22  N   UNL     1      -7.958   8.655  67.121  1.00  0.00    -0.100 NA 
HETATM   23  C   UNL     1      -8.239   9.798  66.532  1.00  0.00    -0.120 A  
ENDBRANCH  14  19
ENDBRANCH   6   9
TORSDOF 3
ENDMDL
MODEL       32
REMARK 921   NORMALIZED FREE ENERGY PREDICTED BY IDOCK:   -5.00 KCAL/MOL
REMARK 922        TOTAL FREE ENERGY PREDICTED BY IDOCK:   -6.05 KCAL/MOL
REMARK 923 INTER-LIGAND FREE ENERGY PREDICTED BY IDOCK:   -5.63 KCAL/MOL
REMARK 924 INTRA-LIGAND FREE ENERGY PREDICTED BY IDOCK:   -0.42 KCAL/MOL
REMARK 927      BINDING AFFINITY PREDICTED BY RF-SCORE:    0.00 PKD
ROOT
HETATM    1 CL   UNL     1     -10.783   4.880  66.173  1.00  0.00    -0.334 Cl 
HETATM    2  C   UNL     1     -10.555   6.276  67.149  1.00  0.00    -0.311 A  
HETATM    3  C   UNL     1     -10.917   6.253  68.491  1.00  0.00    -0.421 A  
HETATM    4  C   UNL     1     -10.737   7.394  69.282  1.00  0.00    -0.185 A  
HETATM    5 CL   UNL     1     -11.262   7.286  70.929  1.00  0.00    -0.286 Cl 
HETATM    6  C   UNL     1     -10.175   8.572  68.751  1.00  0.00    -0.217 A  
HETATM    7  C   UNL     1      -9.829   8.561  67.383  1.00  0.00    -0.244 A  
HETATM    8  C   UNL     1     -10.016   7.426  66.591  1.00  0.00    -0.261 A  
ENDROOT
BRANCH   6   9
HETATM    9  C   UNL     1     -10.003   9.818  69.620  1.00  0.00    -0.223 C  
HETATM   10  C   UNL     1     -11.277  10.653  69.751  1.00  0.00    -0.297 C  
HETATM   11  S   UNL     1     -11.409  11.751  68.313  1.00  0.00    -0.310 SA 
HETATM   12  C   UNL     1      -9.689  12.003  68.073  1.00  0.00    -0.198 C  
HETATM   13  S   UNL     1      -8.681  10.963  69.075  1.00  0.00    -0.044 SA 
HETATM   14  C   UNL     1      -9.164  12.955  67.261  1.00  0.00    -0.208 C  
BRANCH  14  15
HETATM   15  C   UNL     1      -7.661  13.178  67.274  1.00  0.00    -0.080 C  
HETATM   16  H2  UNL     1      -6.186  14.356  67.336  1.00  0.00     0.000 HD 
HETATM   17  N   UNL     1      -6.414  13.363  67.286  1.00  0.00    -0.457 NA 
HETATM   18  H1  UNL     1      -5.405  13.513  67.294  1.00  0.00     0.000 HD 
ENDBRANCH  14  15
BRANCH  14  19
HETATM   19  N   UNL     1      -9.887  13.837  66.424  1.00  0.00    -0.290 NA 
HETATM   20  C   UNL     1     -10.231  15.152  66.710  1.00  0.00    -0.264 A  
HETATM   21  C   UNL     1     -11.002  15.597  65.663  1.00  0.00    -0.272 A  
HETATM   22  N   UNL     1     -11.077  14.653  64.687  1.00  0.00    -0.363 NA 
HETATM   23  C   UNL     1     -10.383  13.634  65.147  1.00  0.00    -0.364 A  
ENDBRANCH  14  19
ENDBRANCH   6   9
TORSDOF 3
ENDMDL
MODEL       33
REMARK 921   NORMALIZED FREE ENERGY PREDICTED BY IDOCK:   -4.99 KCAL/MOL
REMARK 922        TOTAL FREE ENERGY PREDICTED BY IDOCK:   -6.04 KCAL/MOL
REMARK 923 INTER-LIGAND FREE ENERGY PREDICTED BY IDOCK:   -5.66 KCAL/MOL
REMARK 924 INTRA-LIGAND FREE ENERGY PREDICTED BY IDOCK:   -0.39 KCAL/MOL
REMARK 927      BINDING AFFINITY PREDICTED BY RF-SCORE:    0.00 PKD
ROOT
HETATM    1 CL   UNL     1     -12.941  13.955  65.366  1.00  0.00    -0.468 Cl 
HETATM    2  C   UNL     1     -11.853  12.655  65.652  1.00  0.00    -0.437 A  
HETATM    3  C   UNL     1     -11.217  12.032  64.585  1.00  0.00    -0.380 A  
HETATM    4  C   UNL     1     -10.338  10.969  64.821  1.00  0.00    -0.324 A  
HETATM    5 CL   UNL     1      -9.629  10.224  63.427  1.00  0.00    -0.347 Cl 
HETATM    6  C   UNL     1     -10.064  10.521  66.129  1.00  0.00    -0.306 A  
HETATM    7  C   UNL     1     -10.735  11.172  67.186  1.00  0.00    -0.305 A  
HETATM    8  C   UNL     1     -11.620  12.227  66.951  1.00  0.00    -0.427 A  
ENDROOT
BRANCH   6   9
HETATM    9  C   UNL     1      -9.117   9.346  66.373  1.00  0.00    -0.161 C  
HETATM   10  C   UNL     1      -9.786   7.980  66.214  1.00  0.00    -0.126 C  
HETATM   11  S   UNL     1     -10.617   7.550  67.769  1.00  0.00    -0.176 SA 
HETATM   12  C   UNL     1      -9.484   8.345  68.848  1.00  0.00    -0.147 C  
HETATM   13  S   UNL     1      -8.298   9.341  68.011  1.00  0.00    -0.120 SA 
HETATM   14  C   UNL     1      -9.455   8.161  70.193  1.00  0.00    -0.167 C  
BRANCH  14  15
HETATM   15  C   UNL     1      -8.317   8.777  70.989  1.00  0.00    -0.171 C  
HETATM   16  H2  UNL     1      -7.465   9.084  72.646  1.00  0.00     0.000 HD 
HETATM   17  N   UNL     1      -7.373   9.287  71.651  1.00  0.00    -0.328 NA 
HETATM   18  H1  UNL     1      -6.608   9.700  72.185  1.00  0.00     0.000 HD 
ENDBRANCH  14  15
BRANCH  14  19
HETATM   19  N   UNL     1     -10.358   7.382  70.953  1.00  0.00    -0.201 NA 
HETATM   20  C   UNL     1     -10.094   6.152  71.545  1.00  0.00    -0.192 A  
HETATM   21  C   UNL     1     -11.273   5.718  72.101  1.00  0.00    -0.269 A  
HETATM   22  N   UNL     1     -12.242   6.663  71.970  1.00  0.00    -0.322 NA 
HETATM   23  C   UNL     1     -11.667   7.650  71.316  1.00  0.00    -0.284 A  
ENDBRANCH  14  19
ENDBRANCH   6   9
TORSDOF 3
ENDMDL
MODEL       34
REMARK 921   NORMALIZED FREE ENERGY PREDICTED BY IDOCK:   -4.93 KCAL/MOL
REMARK 922        TOTAL FREE ENERGY PREDICTED BY IDOCK:   -5.97 KCAL/MOL
REMARK 923 INTER-LIGAND FREE ENERGY PREDICTED BY IDOCK:   -5.70 KCAL/MOL
REMARK 924 INTRA-LIGAND FREE ENERGY PREDICTED BY IDOCK:   -0.26 KCAL/MOL
REMARK 927      BINDING AFFINITY PREDICTED BY RF-SCORE:    0.00 PKD
ROOT
HETATM    1 CL   UNL     1      -7.356   7.982  73.349  1.00  0.00    -0.159 Cl 
HETATM    2  C   UNL     1      -8.529   8.580  72.245  1.00  0.00    -0.148 A  
HETATM    3  C   UNL     1      -9.882   8.483  72.547  1.00  0.00    -0.324 A  
HETATM    4  C   UNL     1     -10.836   8.965  71.642  1.00  0.00    -0.349 A  
HETATM    5 CL   UNL     1     -12.498   8.757  72.083  1.00  0.00    -0.439 Cl 
HETATM    6  C   UNL     1     -10.454   9.569  70.427  1.00  0.00    -0.336 A  
HETATM    7  C   UNL     1      -9.072   9.641  70.151  1.00  0.00    -0.280 A  
HETATM    8  C   UNL     1      -8.120   9.153  71.049  1.00  0.00    -0.179 A  
ENDROOT
BRANCH   6   9
HETATM    9  C   UNL     1     -11.505  10.072  69.438  1.00  0.00    -0.083 C  
HETATM   10  C   UNL     1     -10.945  10.359  68.045  1.00  0.00    -0.291 C  
HETATM   11  S   UNL     1     -10.229  12.026  68.033  1.00  0.00    -0.204 SA 
HETATM   12  C   UNL     1     -11.343  12.750  69.180  1.00  0.00    -0.281 C  
HETATM   13  S   UNL     1     -12.400  11.581  69.964  1.00  0.00    -0.169 SA 
HETATM   14  C   UNL     1     -11.452  14.085  69.398  1.00  0.00    -0.290 C  
BRANCH  14  15
HETATM   15  C   UNL     1     -12.573  14.590  70.291  1.00  0.00    -0.323 C  
HETATM   16  H2  UNL     1     -13.143  15.331  71.932  1.00  0.00     0.000 HD 
HETATM   17  N   UNL     1     -13.502  15.008  71.033  1.00  0.00    -0.568 NA 
HETATM   18  H1  UNL     1     -14.255  15.347  71.633  1.00  0.00     0.000 HD 
ENDBRANCH  14  15
BRANCH  14  19
HETATM   19  N   UNL     1     -10.655  15.099  68.816  1.00  0.00    -0.229 NA 
HETATM   20  C   UNL     1     -10.869  15.717  67.590  1.00  0.00    -0.310 A  
HETATM   21  C   UNL     1      -9.809  16.567  67.384  1.00  0.00    -0.253 A  
HETATM   22  N   UNL     1      -8.990  16.584  68.470  1.00  0.00    -0.222 NA 
HETATM   23  C   UNL     1      -9.529  15.731  69.314  1.00  0.00    -0.270 A  
ENDBRANCH  14  19
ENDBRANCH   6   9
TORSDOF 3
ENDMDL
MODEL       35
REMARK 921   NORMALIZED FREE ENERGY PREDICTED BY IDOCK:   -4.85 KCAL/MOL
REMARK 922        TOTAL FREE ENERGY PREDICTED BY IDOCK:   -5.87 KCAL/MOL
REMARK 923 INTER-LIGAND FREE ENERGY PREDICTED BY IDOCK:   -5.86 KCAL/MOL
REMARK 924 INTRA-LIGAND FREE ENERGY PREDICTED BY IDOCK:   -0.01 KCAL/MOL
REMARK 927      BINDING AFFINITY PREDICTED BY RF-SCORE:    0.00 PKD
ROOT
HETATM    1 CL   UNL     1      -7.761   8.046  68.118  1.00  0.00    -0.115 Cl 
HETATM    2  C   UNL     1      -8.924   9.274  67.811  1.00  0.00    -0.126 A  
HETATM    3  C   UNL     1      -9.914   9.545  68.747  1.00  0.00    -0.185 A  
HETATM    4  C   UNL     1     -10.864  10.541  68.491  1.00  0.00    -0.234 A  
HETATM    5 CL   UNL     1     -12.088  10.774  69.694  1.00  0.00    -0.372 Cl 
HETATM    6  C   UNL     1     -10.830  11.297  67.302  1.00  0.00    -0.317 A  
HETATM    7  C   UNL     1      -9.817  10.987  66.371  1.00  0.00    -0.252 A  
HETATM    8  C   UNL     1      -8.874   9.987  66.622  1.00  0.00    -0.145 A  
ENDROOT
BRANCH   6   9
HETATM    9  C   UNL     1     -11.886  12.367  67.024  1.00  0.00    -0.297 C  
HETATM   10  C   UNL     1     -11.733  13.036  65.658  1.00  0.00    -0.375 C  
HETATM   11  S   UNL     1     -10.509  14.369  65.791  1.00  0.00    -0.336 SA 
HETATM   12  C   UNL     1     -10.863  14.824  67.449  1.00  0.00    -0.300 C  
HETATM   13  S   UNL     1     -11.963  13.715  68.261  1.00  0.00    -0.291 SA 
HETATM   14  C   UNL     1     -10.410  15.958  68.041  1.00  0.00    -0.262 C  
BRANCH  14  15
HETATM   15  C   UNL     1     -10.929  16.317  69.423  1.00  0.00    -0.337 C  
HETATM   16  H2  UNL     1     -12.343  16.363  70.674  1.00  0.00     0.000 HD 
HETATM   17  N   UNL     1     -11.360  16.615  70.570  1.00  0.00    -0.451 NA 
HETATM   18  H1  UNL     1     -11.708  16.857  71.498  1.00  0.00     0.000 HD 
ENDBRANCH  14  15
BRANCH  14  19
HETATM   19  N   UNL     1      -9.531  16.909  67.472  1.00  0.00    -0.239 NA 
HETATM   20  C   UNL     1      -8.249  17.218  67.912  1.00  0.00    -0.219 A  
HETATM   21  C   UNL     1      -7.800  18.254  67.129  1.00  0.00    -0.219 A  
HETATM   22  N   UNL     1      -8.702  18.544  66.153  1.00  0.00    -0.494 NA 
HETATM   23  C   UNL     1      -9.702  17.715  66.359  1.00  0.00    -0.294 A  
ENDBRANCH  14  19
ENDBRANCH   6   9
TORSDOF 3
ENDMDL
MODEL       36
REMARK 921   NORMALIZED FREE ENERGY PREDICTED BY IDOCK:   -4.84 KCAL/MOL
REMARK 922        TOTAL FREE ENERGY PREDICTED BY IDOCK:   -5.86 KCAL/MOL
REMARK 923 INTER-LIGAND FREE ENERGY PREDICTED BY IDOCK:   -6.08 KCAL/MOL
REMARK 924 INTRA-LIGAND FREE ENERGY PREDICTED BY IDOCK:    0.22 KCAL/MOL
REMARK 927      BINDING AFFINITY PREDICTED BY RF-SCORE:    0.00 PKD
ROOT
HETATM    1 CL   UNL     1     -12.614  12.906  62.986  1.00  0.00    -0.099 Cl 
HETATM    2  C   UNL     1     -11.918  12.816  64.554  1.00  0.00    -0.393 A  
HETATM    3  C   UNL     1     -11.863  13.948  65.358  1.00  0.00    -0.363 A  
HETATM    4  C   UNL     1     -11.289  13.872  66.633  1.00  0.00    -0.331 A  
HETATM    5 CL   UNL     1     -11.223  15.345  67.542  1.00  0.00    -0.324 Cl 
HETATM    6  C   UNL     1     -10.775  12.660  67.134  1.00  0.00    -0.264 A  
HETATM    7  C   UNL     1     -10.839  11.534  66.286  1.00  0.00    -0.333 A  
HETATM    8  C   UNL     1     -11.403  11.610  65.010  1.00  0.00    -0.237 A  
ENDROOT
BRANCH   6   9
HETATM    9  C   UNL     1     -10.131  12.595  68.519  1.00  0.00    -0.178 C  
HETATM   10  C   UNL     1      -9.370  11.295  68.779  1.00  0.00    -0.128 C  
HETATM   11  S   UNL     1     -10.546  10.030  69.337  1.00  0.00    -0.249 SA 
HETATM   12  C   UNL     1     -11.639  11.109  70.185  1.00  0.00    -0.323 C  
HETATM   13  S   UNL     1     -11.290  12.814  69.920  1.00  0.00     0.160 SA 
HETATM   14  C   UNL     1     -12.615  10.693  71.032  1.00  0.00    -0.416 C  
BRANCH  14  15
HETATM   15  C   UNL     1     -13.380  11.734  71.832  1.00  0.00    -0.296 C  
HETATM   16  H2  UNL     1     -13.680  12.646  73.458  1.00  0.00     0.000 HD 
HETATM   17  N   UNL     1     -14.014  12.598  72.496  1.00  0.00    -0.569 NA 
HETATM   18  H1  UNL     1     -14.528  13.297  73.033  1.00  0.00     0.000 HD 
ENDBRANCH  14  15
BRANCH  14  19
HETATM   19  N   UNL     1     -12.969   9.352  71.313  1.00  0.00    -0.322 NA 
HETATM   20  C   UNL     1     -12.096   8.284  71.481  1.00  0.00    -0.299 A  
HETATM   21  C   UNL     1     -12.870   7.161  71.645  1.00  0.00    -0.379 A  
HETATM   22  N   UNL     1     -14.189   7.489  71.684  1.00  0.00    -0.447 NA 
HETATM   23  C   UNL     1     -14.220   8.794  71.517  1.00  0.00    -0.292 A  
ENDBRANCH  14  19
ENDBRANCH   6   9
TORSDOF 3
ENDMDL
MODEL       37
REMARK 921   NORMALIZED FREE ENERGY PREDICTED BY IDOCK:   -4.83 KCAL/MOL
REMARK 922        TOTAL FREE ENERGY PREDICTED BY IDOCK:   -5.86 KCAL/MOL
REMARK 923 INTER-LIGAND FREE ENERGY PREDICTED BY IDOCK:   -5.65 KCAL/MOL
REMARK 924 INTRA-LIGAND FREE ENERGY PREDICTED BY IDOCK:   -0.20 KCAL/MOL
REMARK 927      BINDING AFFINITY PREDICTED BY RF-SCORE:    0.00 PKD
ROOT
HETATM    1 CL   UNL     1     -13.166  15.744  73.221  1.00  0.00    -0.661 Cl 
HETATM    2  C   UNL     1     -12.459  15.106  71.791  1.00  0.00    -0.345 A  
HETATM    3  C   UNL     1     -11.540  15.861  71.071  1.00  0.00    -0.465 A  
HETATM    4  C   UNL     1     -10.972  15.341  69.902  1.00  0.00    -0.290 A  
HETATM    5 CL   UNL     1      -9.874  16.373  69.048  1.00  0.00    -0.256 Cl 
HETATM    6  C   UNL     1     -11.297  14.049  69.441  1.00  0.00    -0.317 A  
HETATM    7  C   UNL     1     -12.240  13.316  70.192  1.00  0.00    -0.376 A  
HETATM    8  C   UNL     1     -12.815  13.838  71.354  1.00  0.00    -0.449 A  
ENDROOT
BRANCH   6   9
HETATM    9  C   UNL     1     -10.685  13.501  68.152  1.00  0.00    -0.252 C  
HETATM   10  C   UNL     1     -11.677  12.721  67.288  1.00  0.00    -0.378 C  
HETATM   11  S   UNL     1     -11.769  11.014  67.896  1.00  0.00     0.014 SA 
HETATM   12  C   UNL     1     -10.103  10.884  68.431  1.00  0.00    -0.183 C  
HETATM   13  S   UNL     1      -9.231  12.413  68.390  1.00  0.00    -0.093 SA 
HETATM   14  C   UNL     1      -9.500   9.716  68.771  1.00  0.00    -0.148 C  
BRANCH  14  15
HETATM   15  C   UNL     1      -8.007   9.720  69.053  1.00  0.00    -0.096 C  
HETATM   16  H2  UNL     1      -6.514   8.991  69.951  1.00  0.00     0.000 HD 
HETATM   17  N   UNL     1      -6.768   9.723  69.287  1.00  0.00    -0.052 NA 
HETATM   18  H1  UNL     1      -5.766   9.726  69.476  1.00  0.00     0.000 HD 
ENDBRANCH  14  15
BRANCH  14  19
HETATM   19  N   UNL     1     -10.112   8.442  68.831  1.00  0.00    -0.195 NA 
HETATM   20  C   UNL     1     -10.695   7.856  69.948  1.00  0.00    -0.244 A  
HETATM   21  C   UNL     1     -11.078   6.590  69.577  1.00  0.00    -0.365 A  
HETATM   22  N   UNL     1     -10.850   6.388  68.252  1.00  0.00    -0.288 NA 
HETATM   23  C   UNL     1     -10.307   7.509  67.827  1.00  0.00    -0.216 A  
ENDBRANCH  14  19
ENDBRANCH   6   9
TORSDOF 3
ENDMDL
MODEL       38
REMARK 921   NORMALIZED FREE ENERGY PREDICTED BY IDOCK:   -4.77 KCAL/MOL
REMARK 922        TOTAL FREE ENERGY PREDICTED BY IDOCK:   -5.78 KCAL/MOL
REMARK 923 INTER-LIGAND FREE ENERGY PREDICTED BY IDOCK:   -5.65 KCAL/MOL
REMARK 924 INTRA-LIGAND FREE ENERGY PREDICTED BY IDOCK:   -0.13 KCAL/MOL
REMARK 927      BINDING AFFINITY PREDICTED BY RF-SCORE:    0.00 PKD
ROOT
HETATM    1 CL   UNL     1     -11.238  11.380  63.365  1.00  0.00    -0.369 Cl 
HETATM    2  C   UNL     1     -10.887  11.237  65.041  1.00  0.00    -0.216 A  
HETATM    3  C   UNL     1     -11.465  12.115  65.950  1.00  0.00    -0.418 A  
HETATM    4  C   UNL     1     -11.172  12.001  67.315  1.00  0.00    -0.311 A  
HETATM    5 CL   UNL     1     -11.902  13.168  68.365  1.00  0.00    -0.385 Cl 
HETATM    6  C   UNL     1     -10.309  10.996  67.797  1.00  0.00    -0.218 A  
HETATM    7  C   UNL     1      -9.733  10.130  66.843  1.00  0.00    -0.233 A  
HETATM    8  C   UNL     1     -10.018  10.248  65.481  1.00  0.00    -0.364 A  
ENDROOT
BRANCH   6   9
HETATM    9  C   UNL     1      -9.979  10.895  69.286  1.00  0.00    -0.113 C  
HETATM   10  C   UNL     1      -8.616  10.264  69.569  1.00  0.00    -0.138 C  
HETATM   11  S   UNL     1      -8.791   8.458  69.551  1.00  0.00    -0.146 SA 
HETATM   12  C   UNL     1     -10.429   8.392  70.178  1.00  0.00    -0.228 C  
HETATM   13  S   UNL     1     -11.203   9.970  70.286  1.00  0.00    -0.332 SA 
HETATM   14  C   UNL     1     -11.031   7.258  70.617  1.00  0.00    -0.256 C  
BRANCH  14  15
HETATM   15  C   UNL     1     -12.388   7.367  71.293  1.00  0.00    -0.346 C  
HETATM   16  H2  UNL     1     -14.003   6.562  71.849  1.00  0.00     0.000 HD 
HETATM   17  N   UNL     1     -13.514   7.458  71.853  1.00  0.00    -0.523 NA 
HETATM   18  H1  UNL     1     -14.425   7.531  72.306  1.00  0.00     0.000 HD 
ENDBRANCH  14  15
BRANCH  14  19
HETATM   19  N   UNL     1     -10.493   5.951  70.576  1.00  0.00    -0.236 NA 
HETATM   20  C   UNL     1     -10.169   5.225  69.436  1.00  0.00    -0.251 A  
HETATM   21  C   UNL     1      -9.767   3.981  69.859  1.00  0.00    -0.193 A  
HETATM   22  N   UNL     1      -9.732   3.924  71.217  1.00  0.00    -0.174 NA 
HETATM   23  C   UNL     1     -10.136   5.110  71.617  1.00  0.00    -0.200 A  
ENDBRANCH  14  19
ENDBRANCH   6   9
TORSDOF 3
ENDMDL
MODEL       39
REMARK 921   NORMALIZED FREE ENERGY PREDICTED BY IDOCK:   -4.73 KCAL/MOL
REMARK 922        TOTAL FREE ENERGY PREDICTED BY IDOCK:   -5.74 KCAL/MOL
REMARK 923 INTER-LIGAND FREE ENERGY PREDICTED BY IDOCK:   -5.54 KCAL/MOL
REMARK 924 INTRA-LIGAND FREE ENERGY PREDICTED BY IDOCK:   -0.19 KCAL/MOL
REMARK 927      BINDING AFFINITY PREDICTED BY RF-SCORE:    0.00 PKD
ROOT
HETATM    1 CL   UNL     1     -11.482   6.365  70.747  1.00  0.00    -0.405 Cl 
HETATM    2  C   UNL     1     -10.692   7.175  69.453  1.00  0.00    -0.231 A  
HETATM    3  C   UNL     1     -10.272   6.461  68.338  1.00  0.00    -0.198 A  
HETATM    4  C   UNL     1      -9.622   7.122  67.289  1.00  0.00    -0.143 A  
HETATM    5 CL   UNL     1      -9.093   6.141  65.963  1.00  0.00    -0.159 Cl 
HETATM    6  C   UNL     1      -9.398   8.513  67.327  1.00  0.00    -0.184 A  
HETATM    7  C   UNL     1      -9.830   9.203  68.480  1.00  0.00    -0.178 A  
HETATM    8  C   UNL     1     -10.470   8.543  69.531  1.00  0.00    -0.222 A  
ENDROOT
BRANCH   6   9
HETATM    9  C   UNL     1      -8.669   9.220  66.185  1.00  0.00    -0.149 C  
HETATM   10  C   UNL     1      -7.622  10.228  66.659  1.00  0.00    -0.110 C  
HETATM   11  S   UNL     1      -8.447  11.803  67.023  1.00  0.00    -0.178 SA 
HETATM   12  C   UNL     1      -9.698  11.681  65.799  1.00  0.00    -0.236 C  
HETATM   13  S   UNL     1      -9.756  10.109  65.009  1.00  0.00    -0.321 SA 
HETATM   14  C   UNL     1     -10.500  12.710  65.424  1.00  0.00    -0.283 C  
BRANCH  14  15
HETATM   15  C   UNL     1     -11.426  12.518  64.235  1.00  0.00    -0.362 C  
HETATM   16  H2  UNL     1     -12.725  11.490  63.327  1.00  0.00     0.000 HD 
HETATM   17  N   UNL     1     -12.194  12.358  63.248  1.00  0.00    -0.715 NA 
HETATM   18  H1  UNL     1     -12.816  12.228  62.449  1.00  0.00     0.000 HD 
ENDBRANCH  14  15
BRANCH  14  19
HETATM   19  N   UNL     1     -10.526  14.005  65.993  1.00  0.00    -0.296 NA 
HETATM   20  C   UNL     1     -11.263  14.407  67.101  1.00  0.00    -0.328 A  
HETATM   21  C   UNL     1     -11.059  15.759  67.243  1.00  0.00    -0.211 A  
HETATM   22  N   UNL     1     -10.151  16.205  66.334  1.00  0.00    -0.291 NA 
HETATM   23  C   UNL     1      -9.828  15.143  65.627  1.00  0.00    -0.343 A  
ENDBRANCH  14  19
ENDBRANCH   6   9
TORSDOF 3
ENDMDL
MODEL       40
REMARK 921   NORMALIZED FREE ENERGY PREDICTED BY IDOCK:   -4.72 KCAL/MOL
REMARK 922        TOTAL FREE ENERGY PREDICTED BY IDOCK:   -5.73 KCAL/MOL
REMARK 923 INTER-LIGAND FREE ENERGY PREDICTED BY IDOCK:   -5.51 KCAL/MOL
REMARK 924 INTRA-LIGAND FREE ENERGY PREDICTED BY IDOCK:   -0.22 KCAL/MOL
REMARK 927      BINDING AFFINITY PREDICTED BY RF-SCORE:    0.00 PKD
ROOT
HETATM    1 CL   UNL     1      -9.781   7.114  71.734  1.00  0.00    -0.165 Cl 
HETATM    2  C   UNL     1     -10.193   8.257  70.518  1.00  0.00    -0.198 A  
HETATM    3  C   UNL     1     -10.074   7.919  69.176  1.00  0.00    -0.197 A  
HETATM    4  C   UNL     1     -10.403   8.854  68.187  1.00  0.00    -0.212 A  
HETATM    5 CL   UNL     1     -10.177   8.358  66.544  1.00  0.00    -0.341 Cl 
HETATM    6  C   UNL     1     -10.876  10.138  68.523  1.00  0.00    -0.278 A  
HETATM    7  C   UNL     1     -10.975  10.449  69.896  1.00  0.00    -0.364 A  
HETATM    8  C   UNL     1     -10.638   9.520  70.883  1.00  0.00    -0.395 A  
ENDROOT
BRANCH   6   9
HETATM    9  C   UNL     1     -11.212  11.158  67.436  1.00  0.00    -0.294 C  
HETATM   10  C   UNL     1     -10.028  11.503  66.533  1.00  0.00    -0.210 C  
HETATM   11  S   UNL     1      -9.030  12.786  67.338  1.00  0.00    -0.205 SA 
HETATM   12  C   UNL     1     -10.350  13.610  68.150  1.00  0.00    -0.245 C  
HETATM   13  S   UNL     1     -11.882  12.749  68.049  1.00  0.00    -0.283 SA 
HETATM   14  C   UNL     1     -10.241  14.829  68.736  1.00  0.00    -0.239 C  
BRANCH  14  15
HETATM   15  C   UNL     1     -11.500  15.504  69.255  1.00  0.00    -0.340 C  
HETATM   16  H2  UNL     1     -13.312  15.981  69.017  1.00  0.00     0.000 HD 
HETATM   17  N   UNL     1     -12.545  16.064  69.684  1.00  0.00    -0.516 NA 
HETATM   18  H1  UNL     1     -13.390  16.517  70.032  1.00  0.00     0.000 HD 
ENDBRANCH  14  15
BRANCH  14  19
HETATM   19  N   UNL     1      -9.061  15.598  68.864  1.00  0.00    -0.200 NA 
HETATM   20  C   UNL     1      -8.801  16.822  68.259  1.00  0.00    -0.228 A  
HETATM   21  C   UNL     1      -7.509  17.159  68.584  1.00  0.00    -0.245 A  
HETATM   22  N   UNL     1      -6.979  16.250  69.445  1.00  0.00    -0.217 NA 
HETATM   23  C   UNL     1      -7.926  15.354  69.620  1.00  0.00    -0.138 A  
ENDBRANCH  14  19
ENDBRANCH   6   9
TORSDOF 3
ENDMDL
MODEL       41
REMARK 921   NORMALIZED FREE ENERGY PREDICTED BY IDOCK:   -4.71 KCAL/MOL
REMARK 922        TOTAL FREE ENERGY PREDICTED BY IDOCK:   -5.71 KCAL/MOL
REMARK 923 INTER-LIGAND FREE ENERGY PREDICTED BY IDOCK:   -5.61 KCAL/MOL
REMARK 924 INTRA-LIGAND FREE ENERGY PREDICTED BY IDOCK:   -0.10 KCAL/MOL
REMARK 927      BINDING AFFINITY PREDICTED BY RF-SCORE:    0.00 PKD
ROOT
HETATM    1 CL   UNL     1     -10.138  18.278  69.024  1.00  0.00    -0.363 Cl 
HETATM    2  C   UNL     1     -10.015  16.644  68.506  1.00  0.00    -0.261 A  
HETATM    3  C   UNL     1      -8.766  16.074  68.290  1.00  0.00    -0.177 A  
HETATM    4  C   UNL     1      -8.669  14.745  67.861  1.00  0.00    -0.167 A  
HETATM    5 CL   UNL     1      -7.073  14.137  67.573  1.00  0.00    -0.200 Cl 
HETATM    6  C   UNL     1      -9.819  13.956  67.657  1.00  0.00    -0.236 A  
HETATM    7  C   UNL     1     -11.069  14.571  67.876  1.00  0.00    -0.290 A  
HETATM    8  C   UNL     1     -11.167  15.900  68.296  1.00  0.00    -0.354 A  
ENDROOT
BRANCH   6   9
HETATM    9  C   UNL     1      -9.701  12.513  67.167  1.00  0.00    -0.205 C  
HETATM   10  C   UNL     1     -11.037  11.897  66.751  1.00  0.00    -0.308 C  
HETATM   11  S   UNL     1     -11.875  11.260  68.229  1.00  0.00    -0.145 SA 
HETATM   12  C   UNL     1     -10.432  10.800  69.115  1.00  0.00    -0.218 C  
HETATM   13  S   UNL     1      -8.940  11.352  68.363  1.00  0.00    -0.164 SA 
HETATM   14  C   UNL     1     -10.438  10.026  70.231  1.00  0.00    -0.272 C  
BRANCH  14  15
HETATM   15  C   UNL     1      -9.109   9.561  70.803  1.00  0.00    -0.110 C  
HETATM   16  H2  UNL     1      -7.883   9.498  72.238  1.00  0.00     0.000 HD 
HETATM   17  N   UNL     1      -8.007   9.176  71.278  1.00  0.00    -0.325 NA 
HETATM   18  H1  UNL     1      -7.114   8.864  71.661  1.00  0.00     0.000 HD 
ENDBRANCH  14  15
BRANCH  14  19
HETATM   19  N   UNL     1     -11.579   9.533  70.905  1.00  0.00    -0.302 NA 
HETATM   20  C   UNL     1     -12.568  10.290  71.521  1.00  0.00    -0.440 A  
HETATM   21  C   UNL     1     -13.428   9.405  72.124  1.00  0.00    -0.471 A  
HETATM   22  N   UNL     1     -13.079   8.123  71.833  1.00  0.00    -0.331 NA 
HETATM   23  C   UNL     1     -12.001   8.226  71.086  1.00  0.00    -0.265 A  
ENDBRANCH  14  19
ENDBRANCH   6   9
TORSDOF 3
ENDMDL
MODEL       42
REMARK 921   NORMALIZED FREE ENERGY PREDICTED BY IDOCK:   -4.65 KCAL/MOL
REMARK 922        TOTAL FREE ENERGY PREDICTED BY IDOCK:   -5.64 KCAL/MOL
REMARK 923 INTER-LIGAND FREE ENERGY PREDICTED BY IDOCK:   -5.50 KCAL/MOL
REMARK 924 INTRA-LIGAND FREE ENERGY PREDICTED BY IDOCK:   -0.14 KCAL/MOL
REMARK 927      BINDING AFFINITY PREDICTED BY RF-SCORE:    0.00 PKD
ROOT
HETATM    1 CL   UNL     1      -6.857  17.262  67.105  1.00  0.00    -0.192 Cl 
HETATM    2  C   UNL     1      -8.048  16.081  66.731  1.00  0.00    -0.267 A  
HETATM    3  C   UNL     1      -9.102  16.399  65.883  1.00  0.00    -0.217 A  
HETATM    4  C   UNL     1     -10.074  15.437  65.587  1.00  0.00    -0.376 A  
HETATM    5 CL   UNL     1     -11.375  15.939  64.559  1.00  0.00    -0.403 Cl 
HETATM    6  C   UNL     1     -10.001  14.133  66.118  1.00  0.00    -0.328 A  
HETATM    7  C   UNL     1      -8.922  13.850  66.982  1.00  0.00    -0.251 A  
HETATM    8  C   UNL     1      -7.957  14.812  67.286  1.00  0.00    -0.232 A  
ENDROOT
BRANCH   6   9
HETATM    9  C   UNL     1     -11.080  13.098  65.803  1.00  0.00    -0.273 C  
HETATM   10  C   UNL     1     -12.143  12.971  66.895  1.00  0.00    -0.285 C  
HETATM   11  S   UNL     1     -11.530  11.848  68.182  1.00  0.00    -0.338 SA 
HETATM   12  C   UNL     1     -10.592  10.803  67.130  1.00  0.00    -0.256 C  
HETATM   13  S   UNL     1     -10.457  11.406  65.481  1.00  0.00    -0.266 SA 
HETATM   14  C   UNL     1     -10.080   9.604  67.506  1.00  0.00    -0.197 C  
BRANCH  14  15
HETATM   15  C   UNL     1      -9.434   8.722  66.451  1.00  0.00    -0.228 C  
HETATM   16  H2  UNL     1      -7.898   7.878  65.747  1.00  0.00     0.000 HD 
HETATM   17  N   UNL     1      -8.898   7.990  65.575  1.00  0.00    -0.347 NA 
HETATM   18  H1  UNL     1      -8.464   7.399  64.866  1.00  0.00     0.000 HD 
ENDBRANCH  14  15
BRANCH  14  19
HETATM   19  N   UNL     1     -10.140   9.034  68.800  1.00  0.00    -0.193 NA 
HETATM   20  C   UNL     1     -10.645   7.782  69.129  1.00  0.00    -0.183 A  
HETATM   21  C   UNL     1     -10.589   7.680  70.498  1.00  0.00    -0.226 A  
HETATM   22  N   UNL     1      -9.981   8.770  71.037  1.00  0.00    -0.213 NA 
HETATM   23  C   UNL     1      -9.697   9.542  70.009  1.00  0.00    -0.236 A  
ENDBRANCH  14  19
ENDBRANCH   6   9
TORSDOF 3
ENDMDL
MODEL       43
REMARK 921   NORMALIZED FREE ENERGY PREDICTED BY IDOCK:   -4.65 KCAL/MOL
REMARK 922        TOTAL FREE ENERGY PREDICTED BY IDOCK:   -5.64 KCAL/MOL
REMARK 923 INTER-LIGAND FREE ENERGY PREDICTED BY IDOCK:   -5.24 KCAL/MOL
REMARK 924 INTRA-LIGAND FREE ENERGY PREDICTED BY IDOCK:   -0.39 KCAL/MOL
REMARK 927      BINDING AFFINITY PREDICTED BY RF-SCORE:    0.00 PKD
ROOT
HETATM    1 CL   UNL     1      -9.896   3.811  67.419  1.00  0.00    -0.132 Cl 
HETATM    2  C   UNL     1      -9.899   5.347  68.191  1.00  0.00    -0.145 A  
HETATM    3  C   UNL     1     -10.354   5.467  69.498  1.00  0.00    -0.357 A  
HETATM    4  C   UNL     1     -10.362   6.721  70.122  1.00  0.00    -0.202 A  
HETATM    5 CL   UNL     1     -10.991   6.781  71.735  1.00  0.00    -0.257 Cl 
HETATM    6  C   UNL     1      -9.899   7.873  69.456  1.00  0.00    -0.176 A  
HETATM    7  C   UNL     1      -9.455   7.714  68.126  1.00  0.00    -0.150 A  
HETATM    8  C   UNL     1      -9.454   6.465  67.500  1.00  0.00    -0.121 A  
ENDROOT
BRANCH   6   9
HETATM    9  C   UNL     1      -9.933   9.240  70.140  1.00  0.00    -0.215 C  
HETATM   10  C   UNL     1     -11.347   9.782  70.354  1.00  0.00    -0.297 C  
HETATM   11  S   UNL     1     -11.898  10.601  68.832  1.00  0.00    -0.037 SA 
HETATM   12  C   UNL     1     -10.325  11.189  68.321  1.00  0.00    -0.180 C  
HETATM   13  S   UNL     1      -8.993  10.556  69.282  1.00  0.00    -0.083 SA 
HETATM   14  C   UNL     1     -10.137  12.104  67.336  1.00  0.00    -0.199 C  
BRANCH  14  15
HETATM   15  C   UNL     1      -8.739  12.654  67.108  1.00  0.00    -0.201 C  
HETATM   16  H2  UNL     1      -7.525  13.635  66.045  1.00  0.00     0.000 HD 
HETATM   17  N   UNL     1      -7.579  13.110  66.918  1.00  0.00    -0.348 NA 
HETATM   18  H1  UNL     1      -6.640  13.479  66.765  1.00  0.00     0.000 HD 
ENDBRANCH  14  15
BRANCH  14  19
HETATM   19  N   UNL     1     -11.139  12.672  66.514  1.00  0.00    -0.270 NA 
HETATM   20  C   UNL     1     -11.771  13.895  66.706  1.00  0.00    -0.399 A  
HETATM   21  C   UNL     1     -12.731  14.002  65.729  1.00  0.00    -0.450 A  
HETATM   22  N   UNL     1     -12.666  12.947  64.874  1.00  0.00    -0.701 NA 
HETATM   23  C   UNL     1     -11.696  12.190  65.342  1.00  0.00    -0.321 A  
ENDBRANCH  14  19
ENDBRANCH   6   9
TORSDOF 3
ENDMDL
MODEL       44
REMARK 921   NORMALIZED FREE ENERGY PREDICTED BY IDOCK:   -4.63 KCAL/MOL
REMARK 922        TOTAL FREE ENERGY PREDICTED BY IDOCK:   -5.61 KCAL/MOL
REMARK 923 INTER-LIGAND FREE ENERGY PREDICTED BY IDOCK:   -5.21 KCAL/MOL
REMARK 924 INTRA-LIGAND FREE ENERGY PREDICTED BY IDOCK:   -0.41 KCAL/MOL
REMARK 927      BINDING AFFINITY PREDICTED BY RF-SCORE:    0.00 PKD
ROOT
HETATM    1 CL   UNL     1     -12.013  14.184  64.324  1.00  0.00    -0.470 Cl 
HETATM    2  C   UNL     1     -11.202  13.313  65.564  1.00  0.00    -0.287 A  
HETATM    3  C   UNL     1      -9.974  13.760  66.039  1.00  0.00    -0.319 A  
HETATM    4  C   UNL     1      -9.312  13.045  67.044  1.00  0.00    -0.236 A  
HETATM    5 CL   UNL     1      -7.767  13.651  67.538  1.00  0.00    -0.178 Cl 
HETATM    6  C   UNL     1      -9.873  11.881  67.606  1.00  0.00    -0.192 A  
HETATM    7  C   UNL     1     -11.115  11.452  67.092  1.00  0.00    -0.366 A  
HETATM    8  C   UNL     1     -11.773  12.160  66.083  1.00  0.00    -0.384 A  
ENDROOT
BRANCH   6   9
HETATM    9  C   UNL     1      -9.131  11.097  68.688  1.00  0.00    -0.166 C  
HETATM   10  C   UNL     1      -7.922  10.323  68.161  1.00  0.00    -0.109 C  
HETATM   11  S   UNL     1      -8.489   8.735  67.490  1.00  0.00    -0.120 SA 
HETATM   12  C   UNL     1      -9.825   8.494  68.602  1.00  0.00    -0.170 C  
HETATM   13  S   UNL     1     -10.158   9.896  69.613  1.00  0.00    -0.243 SA 
HETATM   14  C   UNL     1     -10.497   7.323  68.743  1.00  0.00    -0.200 C  
BRANCH  14  15
HETATM   15  C   UNL     1     -11.519   7.199  69.860  1.00  0.00    -0.115 C  
HETATM   16  H2  UNL     1     -13.258   7.518  70.524  1.00  0.00     0.000 HD 
HETATM   17  N   UNL     1     -12.368   7.095  70.787  1.00  0.00    -0.567 NA 
HETATM   18  H1  UNL     1     -13.054   7.012  71.537  1.00  0.00     0.000 HD 
ENDBRANCH  14  15
BRANCH  14  19
HETATM   19  N   UNL     1     -10.301   6.146  67.984  1.00  0.00    -0.175 NA 
HETATM   20  C   UNL     1      -9.612   5.008  68.386  1.00  0.00    -0.144 A  
HETATM   21  C   UNL     1      -9.593   4.155  67.309  1.00  0.00    -0.190 A  
HETATM   22  N   UNL     1     -10.322   4.664  66.280  1.00  0.00    -0.280 NA 
HETATM   23  C   UNL     1     -10.756   5.827  66.715  1.00  0.00    -0.297 A  
ENDBRANCH  14  19
ENDBRANCH   6   9
TORSDOF 3
ENDMDL
MODEL       45
REMARK 921   NORMALIZED FREE ENERGY PREDICTED BY IDOCK:   -4.62 KCAL/MOL
REMARK 922        TOTAL FREE ENERGY PREDICTED BY IDOCK:   -5.61 KCAL/MOL
REMARK 923 INTER-LIGAND FREE ENERGY PREDICTED BY IDOCK:   -5.48 KCAL/MOL
REMARK 924 INTRA-LIGAND FREE ENERGY PREDICTED BY IDOCK:   -0.12 KCAL/MOL
REMARK 927      BINDING AFFINITY PREDICTED BY RF-SCORE:    0.00 PKD
ROOT
HETATM    1 CL   UNL     1      -5.149  21.206  69.587  1.00  0.00    -0.394 Cl 
HETATM    2  C   UNL     1      -6.172  20.149  68.699  1.00  0.00    -0.292 A  
HETATM    3  C   UNL     1      -5.812  19.744  67.419  1.00  0.00    -0.193 A  
HETATM    4  C   UNL     1      -6.651  18.888  66.695  1.00  0.00    -0.191 A  
HETATM    5 CL   UNL     1      -6.142  18.476  65.092  1.00  0.00    -0.288 Cl 
HETATM    6  C   UNL     1      -7.856  18.407  67.245  1.00  0.00    -0.234 A  
HETATM    7  C   UNL     1      -8.194  18.847  68.542  1.00  0.00    -0.388 A  
HETATM    8  C   UNL     1      -7.362  19.708  69.262  1.00  0.00    -0.294 A  
ENDROOT
BRANCH   6   9
HETATM    9  C   UNL     1      -8.774  17.490  66.436  1.00  0.00    -0.242 C  
HETATM   10  C   UNL     1     -10.249  17.887  66.503  1.00  0.00    -0.379 C  
HETATM   11  S   UNL     1     -10.978  17.184  68.009  1.00  0.00    -0.111 SA 
HETATM   12  C   UNL     1     -10.003  15.726  68.061  1.00  0.00    -0.222 C  
HETATM   13  S   UNL     1      -8.689  15.717  66.890  1.00  0.00    -0.269 SA 
HETATM   14  C   UNL     1     -10.267  14.662  68.862  1.00  0.00    -0.241 C  
BRANCH  14  15
HETATM   15  C   UNL     1      -9.445  13.396  68.687  1.00  0.00    -0.036 C  
HETATM   16  H2  UNL     1      -8.125  12.424  67.749  1.00  0.00     0.000 HD 
HETATM   17  N   UNL     1      -8.763  12.346  68.542  1.00  0.00    -0.345 NA 
HETATM   18  H1  UNL     1      -8.211  11.495  68.424  1.00  0.00     0.000 HD 
ENDBRANCH  14  15
BRANCH  14  19
HETATM   19  N   UNL     1     -11.297  14.571  69.827  1.00  0.00    -0.263 NA 
HETATM   20  C   UNL     1     -12.409  13.740  69.775  1.00  0.00    -0.255 A  
HETATM   21  C   UNL     1     -13.185  14.046  70.867  1.00  0.00    -0.180 A  
HETATM   22  N   UNL     1     -12.564  14.964  71.655  1.00  0.00    -0.310 NA 
HETATM   23  C   UNL     1     -11.435  15.235  71.035  1.00  0.00    -0.356 A  
ENDBRANCH  14  19
ENDBRANCH   6   9
TORSDOF 3
ENDMDL
MODEL       46
REMARK 921   NORMALIZED FREE ENERGY PREDICTED BY IDOCK:   -4.62 KCAL/MOL
REMARK 922        TOTAL FREE ENERGY PREDICTED BY IDOCK:   -5.60 KCAL/MOL
REMARK 923 INTER-LIGAND FREE ENERGY PREDICTED BY IDOCK:   -5.41 KCAL/MOL
REMARK 924 INTRA-LIGAND FREE ENERGY PREDICTED BY IDOCK:   -0.19 KCAL/MOL
REMARK 927      BINDING AFFINITY PREDICTED BY RF-SCORE:    0.00 PKD
ROOT
HETATM    1 CL   UNL     1     -12.636  13.624  70.490  1.00  0.00    -0.369 Cl 
HETATM    2  C   UNL     1     -12.260  11.953  70.630  1.00  0.00    -0.331 A  
HETATM    3  C   UNL     1     -13.014  11.137  71.465  1.00  0.00    -0.542 A  
HETATM    4  C   UNL     1     -12.701   9.778  71.583  1.00  0.00    -0.422 A  
HETATM    5 CL   UNL     1     -13.666   8.852  72.683  1.00  0.00    -0.454 Cl 
HETATM    6  C   UNL     1     -11.639   9.205  70.854  1.00  0.00    -0.350 A  
HETATM    7  C   UNL     1     -10.890  10.066  70.025  1.00  0.00    -0.352 A  
HETATM    8  C   UNL     1     -11.196  11.424  69.913  1.00  0.00    -0.221 A  
ENDROOT
BRANCH   6   9
HETATM    9  C   UNL     1     -11.293   7.724  71.008  1.00  0.00    -0.271 C  
HETATM   10  C   UNL     1      -9.899   7.478  71.586  1.00  0.00    -0.161 C  
HETATM   11  S   UNL     1      -8.684   7.557  70.241  1.00  0.00    -0.146 SA 
HETATM   12  C   UNL     1      -9.718   6.914  68.976  1.00  0.00    -0.150 C  
HETATM   13  S   UNL     1     -11.400   6.742  69.465  1.00  0.00    -0.191 SA 
HETATM   14  C   UNL     1      -9.272   6.507  67.761  1.00  0.00    -0.113 C  
BRANCH  14  15
HETATM   15  C   UNL     1     -10.244   5.813  66.822  1.00  0.00    -0.221 C  
HETATM   16  H2  UNL     1     -10.750   5.319  65.071  1.00  0.00     0.000 HD 
HETATM   17  N   UNL     1     -11.050   5.237  66.042  1.00  0.00    -0.793 NA 
HETATM   18  H1  UNL     1     -11.703   4.771  65.412  1.00  0.00     0.000 HD 
ENDBRANCH  14  15
BRANCH  14  19
HETATM   19  N   UNL     1      -7.945   6.600  67.279  1.00  0.00    -0.115 NA 
HETATM   20  C   UNL     1      -6.977   5.604  67.324  1.00  0.00    -0.065 A  
HETATM   21  C   UNL     1      -5.818   6.154  66.832  1.00  0.00    -0.017 A  
HETATM   22  N   UNL     1      -6.039   7.421  66.388  1.00  0.00    -0.039 NA 
HETATM   23  C   UNL     1      -7.312   7.649  66.635  1.00  0.00    -0.088 A  
ENDBRANCH  14  19
ENDBRANCH   6   9
TORSDOF 3
ENDMDL
MODEL       47
REMARK 921   NORMALIZED FREE ENERGY PREDICTED BY IDOCK:   -4.51 KCAL/MOL
REMARK 922        TOTAL FREE ENERGY PREDICTED BY IDOCK:   -5.47 KCAL/MOL
REMARK 923 INTER-LIGAND FREE ENERGY PREDICTED BY IDOCK:   -5.09 KCAL/MOL
REMARK 924 INTRA-LIGAND FREE ENERGY PREDICTED BY IDOCK:   -0.38 KCAL/MOL
REMARK 927      BINDING AFFINITY PREDICTED BY RF-SCORE:    0.00 PKD
ROOT
HETATM    1 CL   UNL     1      -6.452  17.123  68.803  1.00  0.00    -0.175 Cl 
HETATM    2  C   UNL     1      -7.807  16.208  68.275  1.00  0.00    -0.153 A  
HETATM    3  C   UNL     1      -9.086  16.547  68.701  1.00  0.00    -0.239 A  
HETATM    4  C   UNL     1     -10.187  15.795  68.274  1.00  0.00    -0.225 A  
HETATM    5 CL   UNL     1     -11.734  16.264  68.896  1.00  0.00    -0.256 Cl 
HETATM    6  C   UNL     1     -10.032  14.701  67.399  1.00  0.00    -0.231 A  
HETATM    7  C   UNL     1      -8.719  14.380  66.996  1.00  0.00    -0.244 A  
HETATM    8  C   UNL     1      -7.618  15.124  67.428  1.00  0.00    -0.232 A  
ENDROOT
BRANCH   6   9
HETATM    9  C   UNL     1     -11.240  13.875  66.958  1.00  0.00    -0.313 C  
HETATM   10  C   UNL     1     -11.884  13.078  68.093  1.00  0.00    -0.340 C  
HETATM   11  S   UNL     1     -10.976  11.521  68.305  1.00  0.00    -0.245 SA 
HETATM   12  C   UNL     1     -10.537  11.295  66.621  1.00  0.00    -0.262 C  
HETATM   13  S   UNL     1     -10.908  12.685  65.606  1.00  0.00    -0.283 SA 
HETATM   14  C   UNL     1     -10.034  10.141  66.113  1.00  0.00    -0.246 C  
BRANCH  14  15
HETATM   15  C   UNL     1      -9.856  10.022  64.608  1.00  0.00    -0.218 C  
HETATM   16  H2  UNL     1      -9.160   9.098  63.116  1.00  0.00     0.000 HD 
HETATM   17  N   UNL     1      -9.708   9.923  63.360  1.00  0.00    -0.504 NA 
HETATM   18  H1  UNL     1      -9.589   9.844  62.350  1.00  0.00     0.000 HD 
ENDBRANCH  14  15
BRANCH  14  19
HETATM   19  N   UNL     1      -9.708   8.974  66.843  1.00  0.00    -0.182 NA 
HETATM   20  C   UNL     1     -10.511   7.853  67.012  1.00  0.00    -0.349 A  
HETATM   21  C   UNL     1      -9.838   7.007  67.861  1.00  0.00    -0.138 A  
HETATM   22  N   UNL     1      -8.606   7.503  68.155  1.00  0.00    -0.124 NA 
HETATM   23  C   UNL     1      -8.541   8.652  67.516  1.00  0.00    -0.135 A  
ENDBRANCH  14  19
ENDBRANCH   6   9
TORSDOF 3
ENDMDL
MODEL       48
REMARK 921   NORMALIZED FREE ENERGY PREDICTED BY IDOCK:   -4.50 KCAL/MOL
REMARK 922        TOTAL FREE ENERGY PREDICTED BY IDOCK:   -5.46 KCAL/MOL
REMARK 923 INTER-LIGAND FREE ENERGY PREDICTED BY IDOCK:   -5.19 KCAL/MOL
REMARK 924 INTRA-LIGAND FREE ENERGY PREDICTED BY IDOCK:   -0.27 KCAL/MOL
REMARK 927      BINDING AFFINITY PREDICTED BY RF-SCORE:    0.00 PKD
ROOT
HETATM    1 CL   UNL     1      -7.489  18.559  67.946  1.00  0.00    -0.242 Cl 
HETATM    2  C   UNL     1      -8.702  17.362  67.722  1.00  0.00    -0.232 A  
HETATM    3  C   UNL     1      -9.276  17.178  66.470  1.00  0.00    -0.289 A  
HETATM    4  C   UNL     1     -10.269  16.207  66.293  1.00  0.00    -0.320 A  
HETATM    5 CL   UNL     1     -10.959  16.084  64.710  1.00  0.00    -0.456 Cl 
HETATM    6  C   UNL     1     -10.693  15.390  67.360  1.00  0.00    -0.296 A  
HETATM    7  C   UNL     1     -10.094  15.612  68.618  1.00  0.00    -0.210 A  
HETATM    8  C   UNL     1      -9.110  16.586  68.798  1.00  0.00    -0.256 A  
ENDROOT
BRANCH   6   9
HETATM    9  C   UNL     1     -11.793  14.347  67.159  1.00  0.00    -0.410 C  
HETATM   10  C   UNL     1     -12.398  13.837  68.466  1.00  0.00     0.031 C  
HETATM   11  S   UNL     1     -11.347  12.509  69.119  1.00  0.00    -0.261 SA 
HETATM   12  C   UNL     1     -10.821  11.868  67.572  1.00  0.00    -0.238 C  
HETATM   13  S   UNL     1     -11.289  12.869  66.202  1.00  0.00    -0.333 SA 
HETATM   14  C   UNL     1     -10.185  10.679  67.417  1.00  0.00    -0.204 C  
BRANCH  14  15
HETATM   15  C   UNL     1      -9.936  10.163  66.009  1.00  0.00    -0.256 C  
HETATM   16  H2  UNL     1      -8.771   9.403  64.732  1.00  0.00     0.000 HD 
HETATM   17  N   UNL     1      -9.729   9.735  64.842  1.00  0.00    -0.415 NA 
HETATM   18  H1  UNL     1      -9.563   9.389  63.897  1.00  0.00     0.000 HD 
ENDBRANCH  14  15
BRANCH  14  19
HETATM   19  N   UNL     1      -9.771   9.806  68.450  1.00  0.00    -0.147 NA 
HETATM   20  C   UNL     1      -8.521   9.774  69.055  1.00  0.00    -0.137 A  
HETATM   21  C   UNL     1      -8.533   8.718  69.934  1.00  0.00    -0.131 A  
HETATM   22  N   UNL     1      -9.765   8.145  69.980  1.00  0.00    -0.172 NA 
HETATM   23  C   UNL     1     -10.488   8.827  69.117  1.00  0.00    -0.217 A  
ENDBRANCH  14  19
ENDBRANCH   6   9
TORSDOF 3
ENDMDL
MODEL       49
REMARK 921   NORMALIZED FREE ENERGY PREDICTED BY IDOCK:   -4.46 KCAL/MOL
REMARK 922        TOTAL FREE ENERGY PREDICTED BY IDOCK:   -5.42 KCAL/MOL
REMARK 923 INTER-LIGAND FREE ENERGY PREDICTED BY IDOCK:   -5.00 KCAL/MOL
REMARK 924 INTRA-LIGAND FREE ENERGY PREDICTED BY IDOCK:   -0.42 KCAL/MOL
REMARK 927      BINDING AFFINITY PREDICTED BY RF-SCORE:    0.00 PKD
ROOT
HETATM    1 CL   UNL     1      -5.697  15.412  67.761  1.00  0.00    -0.153 Cl 
HETATM    2  C   UNL     1      -7.121  14.480  67.523  1.00  0.00    -0.175 A  
HETATM    3  C   UNL     1      -8.253  15.066  66.971  1.00  0.00    -0.246 A  
HETATM    4  C   UNL     1      -9.414  14.306  66.785  1.00  0.00    -0.275 A  
HETATM    5 CL   UNL     1     -10.789  15.135  66.136  1.00  0.00    -0.326 Cl 
HETATM    6  C   UNL     1      -9.457  12.940  67.130  1.00  0.00    -0.229 A  
HETATM    7  C   UNL     1      -8.292  12.381  67.696  1.00  0.00    -0.169 A  
HETATM    8  C   UNL     1      -7.136  13.141  67.890  1.00  0.00    -0.129 A  
ENDROOT
BRANCH   6   9
HETATM    9  C   UNL     1     -10.737  12.125  66.941  1.00  0.00    -0.236 C  
HETATM   10  C   UNL     1     -11.797  12.396  68.009  1.00  0.00    -0.316 C  
HETATM   11  S   UNL     1     -11.437  11.375  69.465  1.00  0.00    -0.329 SA 
HETATM   12  C   UNL     1     -10.752  10.006  68.606  1.00  0.00    -0.226 C  
HETATM   13  S   UNL     1     -10.496  10.310  66.891  1.00  0.00    -0.209 SA 
HETATM   14  C   UNL     1     -10.511   8.796  69.171  1.00  0.00    -0.217 C  
BRANCH  14  15
HETATM   15  C   UNL     1     -10.076   7.647  68.277  1.00  0.00    -0.186 C  
HETATM   16  H2  UNL     1      -9.189   5.994  68.060  1.00  0.00     0.000 HD 
HETATM   17  N   UNL     1      -9.714   6.693  67.535  1.00  0.00    -0.124 NA 
HETATM   18  H1  UNL     1      -9.422   5.922  66.935  1.00  0.00     0.000 HD 
ENDBRANCH  14  15
BRANCH  14  19
HETATM   19  N   UNL     1     -10.687   8.454  70.532  1.00  0.00    -0.223 NA 
HETATM   20  C   UNL     1     -11.852   7.977  71.121  1.00  0.00    -0.284 A  
HETATM   21  C   UNL     1     -11.600   7.867  72.467  1.00  0.00    -0.386 A  
HETATM   22  N   UNL     1     -10.299   8.159  72.737  1.00  0.00    -0.326 NA 
HETATM   23  C   UNL     1      -9.773   8.473  71.573  1.00  0.00    -0.234 A  
ENDBRANCH  14  19
ENDBRANCH   6   9
TORSDOF 3
ENDMDL
MODEL       50
REMARK 921   NORMALIZED FREE ENERGY PREDICTED BY IDOCK:   -4.43 KCAL/MOL
REMARK 922        TOTAL FREE ENERGY PREDICTED BY IDOCK:   -5.38 KCAL/MOL
REMARK 923 INTER-LIGAND FREE ENERGY PREDICTED BY IDOCK:   -5.04 KCAL/MOL
REMARK 924 INTRA-LIGAND FREE ENERGY PREDICTED BY IDOCK:   -0.34 KCAL/MOL
REMARK 927      BINDING AFFINITY PREDICTED BY RF-SCORE:    0.00 PKD
ROOT
HETATM    1 CL   UNL     1     -11.948  13.333  68.075  1.00  0.00    -0.380 Cl 
HETATM    2  C   UNL     1     -11.492  11.711  68.416  1.00  0.00    -0.297 A  
HETATM    3  C   UNL     1     -11.508  11.245  69.725  1.00  0.00    -0.386 A  
HETATM    4  C   UNL     1     -11.129   9.925  70.001  1.00  0.00    -0.285 A  
HETATM    5 CL   UNL     1     -11.136   9.449  71.666  1.00  0.00    -0.443 Cl 
HETATM    6  C   UNL     1     -10.745   9.043  68.972  1.00  0.00    -0.163 A  
HETATM    7  C   UNL     1     -10.731   9.555  67.657  1.00  0.00    -0.314 A  
HETATM    8  C   UNL     1     -11.100  10.873  67.381  1.00  0.00    -0.373 A  
ENDROOT
BRANCH   6   9
HETATM    9  C   UNL     1     -10.313   7.611  69.288  1.00  0.00    -0.217 C  
HETATM   10  C   UNL     1      -8.806   7.458  69.490  1.00  0.00    -0.137 C  
HETATM   11  S   UNL     1      -8.014   7.270  67.868  1.00  0.00    -0.120 SA 
HETATM   12  C   UNL     1      -9.331   6.419  67.080  1.00  0.00    -0.124 C  
HETATM   13  S   UNL     1     -10.805   6.363  68.041  1.00  0.00    -0.316 SA 
HETATM   14  C   UNL     1      -9.223   5.789  65.883  1.00  0.00    -0.113 C  
BRANCH  14  15
HETATM   15  C   UNL     1     -10.389   4.946  65.394  1.00  0.00     0.019 C  
HETATM   16  H2  UNL     1     -11.207   3.926  64.031  1.00  0.00     0.000 HD 
HETATM   17  N   UNL     1     -11.357   4.247  64.988  1.00  0.00    -1.043 NA 
HETATM   18  H1  UNL     1     -12.140   3.682  64.659  1.00  0.00     0.000 HD 
ENDBRANCH  14  15
BRANCH  14  19
HETATM   19  N   UNL     1      -8.086   5.773  65.041  1.00  0.00    -0.125 NA 
HETATM   20  C   UNL     1      -7.016   4.888  65.113  1.00  0.00    -0.062 A  
HETATM   21  C   UNL     1      -6.103   5.294  64.170  1.00  0.00    -0.022 A  
HETATM   22  N   UNL     1      -6.593   6.333  63.443  1.00  0.00    -0.039 NA 
HETATM   23  C   UNL     1      -7.779   6.577  63.957  1.00  0.00    -0.105 A  
ENDBRANCH  14  19
ENDBRANCH   6   9
TORSDOF 3
ENDMDL
MODEL       51
REMARK 921   NORMALIZED FREE ENERGY PREDICTED BY IDOCK:   -4.43 KCAL/MOL
REMARK 922        TOTAL FREE ENERGY PREDICTED BY IDOCK:   -5.38 KCAL/MOL
REMARK 923 INTER-LIGAND FREE ENERGY PREDICTED BY IDOCK:   -4.97 KCAL/MOL
REMARK 924 INTRA-LIGAND FREE ENERGY PREDICTED BY IDOCK:   -0.41 KCAL/MOL
REMARK 927      BINDING AFFINITY PREDICTED BY RF-SCORE:    0.00 PKD
ROOT
HETATM    1 CL   UNL     1      -9.660   3.325  68.920  1.00  0.00    -0.182 Cl 
HETATM    2  C   UNL     1      -9.637   5.009  69.265  1.00  0.00    -0.162 A  
HETATM    3  C   UNL     1     -10.277   5.496  70.399  1.00  0.00    -0.321 A  
HETATM    4  C   UNL     1     -10.263   6.869  70.673  1.00  0.00    -0.195 A  
HETATM    5 CL   UNL     1     -11.126   7.387  72.082  1.00  0.00    -0.270 Cl 
HETATM    6  C   UNL     1      -9.593   7.778  69.829  1.00  0.00    -0.167 A  
HETATM    7  C   UNL     1      -8.964   7.248  68.683  1.00  0.00    -0.128 A  
HETATM    8  C   UNL     1      -8.986   5.879  68.403  1.00  0.00    -0.112 A  
ENDROOT
BRANCH   6   9
HETATM    9  C   UNL     1      -9.603   9.277  70.128  1.00  0.00    -0.220 C  
HETATM   10  C   UNL     1     -10.963   9.937  69.900  1.00  0.00    -0.281 C  
HETATM   11  S   UNL     1     -11.126  10.351  68.141  1.00  0.00    -0.263 SA 
HETATM   12  C   UNL     1      -9.431  10.689  67.839  1.00  0.00    -0.159 C  
HETATM   13  S   UNL     1      -8.379  10.260  69.184  1.00  0.00    -0.162 SA 
HETATM   14  C   UNL     1      -8.963  11.296  66.719  1.00  0.00    -0.171 C  
BRANCH  14  15
HETATM   15  C   UNL     1      -7.494  11.683  66.658  1.00  0.00    -0.037 C  
HETATM   16  H2  UNL     1      -6.136  12.973  66.897  1.00  0.00     0.000 HD 
HETATM   17  N   UNL     1      -6.276  12.005  66.608  1.00  0.00    -0.465 NA 
HETATM   18  H1  UNL     1      -5.291  12.265  66.566  1.00  0.00     0.000 HD 
ENDBRANCH  14  15
BRANCH  14  19
HETATM   19  N   UNL     1      -9.725  11.681  65.591  1.00  0.00    -0.233 NA 
HETATM   20  C   UNL     1     -10.244  12.945  65.336  1.00  0.00    -0.287 A  
HETATM   21  C   UNL     1     -10.987  12.843  64.185  1.00  0.00    -0.408 A  
HETATM   22  N   UNL     1     -10.878  11.597  63.651  1.00  0.00    -0.405 NA 
HETATM   23  C   UNL     1     -10.101  10.938  64.485  1.00  0.00    -0.341 A  
ENDBRANCH  14  19
ENDBRANCH   6   9
TORSDOF 3
ENDMDL
MODEL       52
REMARK 921   NORMALIZED FREE ENERGY PREDICTED BY IDOCK:   -4.42 KCAL/MOL
REMARK 922        TOTAL FREE ENERGY PREDICTED BY IDOCK:   -5.37 KCAL/MOL
REMARK 923 INTER-LIGAND FREE ENERGY PREDICTED BY IDOCK:   -5.50 KCAL/MOL
REMARK 924 INTRA-LIGAND FREE ENERGY PREDICTED BY IDOCK:    0.13 KCAL/MOL
REMARK 927      BINDING AFFINITY PREDICTED BY RF-SCORE:    0.00 PKD
ROOT
HETATM    1 CL   UNL     1      -9.482   9.906  63.905  1.00  0.00    -0.285 Cl 
HETATM    2  C   UNL     1      -9.847  11.132  65.054  1.00  0.00    -0.266 A  
HETATM    3  C   UNL     1     -11.059  11.809  64.988  1.00  0.00    -0.343 A  
HETATM    4  C   UNL     1     -11.350  12.812  65.920  1.00  0.00    -0.324 A  
HETATM    5 CL   UNL     1     -12.863  13.633  65.730  1.00  0.00    -0.469 Cl 
HETATM    6  C   UNL     1     -10.443  13.143  66.947  1.00  0.00    -0.256 A  
HETATM    7  C   UNL     1      -9.219  12.441  66.976  1.00  0.00    -0.208 A  
HETATM    8  C   UNL     1      -8.924  11.447  66.041  1.00  0.00    -0.203 A  
ENDROOT
BRANCH   6   9
HETATM    9  C   UNL     1     -10.763  14.254  67.946  1.00  0.00    -0.240 C  
HETATM   10  C   UNL     1     -11.500  15.442  67.325  1.00  0.00    -0.165 C  
HETATM   11  S   UNL     1     -10.283  16.557  66.572  1.00  0.00    -0.304 SA 
HETATM   12  C   UNL     1      -8.983  16.265  67.714  1.00  0.00    -0.193 C  
HETATM   13  S   UNL     1      -9.312  14.941  68.828  1.00  0.00    -0.201 SA 
HETATM   14  C   UNL     1      -7.861  17.023  67.802  1.00  0.00    -0.180 C  
BRANCH  14  15
HETATM   15  C   UNL     1      -6.894  16.766  68.945  1.00  0.00    -0.198 C  
HETATM   16  H2  UNL     1      -5.174  16.269  69.548  1.00  0.00     0.000 HD 
HETATM   17  N   UNL     1      -6.091  16.552  69.894  1.00  0.00    -0.209 NA 
HETATM   18  H1  UNL     1      -5.442  16.379  70.662  1.00  0.00     0.000 HD 
ENDBRANCH  14  15
BRANCH  14  19
HETATM   19  N   UNL     1      -7.509  18.104  66.960  1.00  0.00    -0.204 NA 
HETATM   20  C   UNL     1      -7.689  19.455  67.230  1.00  0.00    -0.247 A  
HETATM   21  C   UNL     1      -7.293  20.140  66.107  1.00  0.00    -0.284 A  
HETATM   22  N   UNL     1      -6.781  19.287  65.180  1.00  0.00    -0.451 NA 
HETATM   23  C   UNL     1      -6.892  18.093  65.720  1.00  0.00    -0.270 A  
ENDBRANCH  14  19
ENDBRANCH   6   9
TORSDOF 3
ENDMDL
MODEL       53
REMARK 921   NORMALIZED FREE ENERGY PREDICTED BY IDOCK:   -4.38 KCAL/MOL
REMARK 922        TOTAL FREE ENERGY PREDICTED BY IDOCK:   -5.32 KCAL/MOL
REMARK 923 INTER-LIGAND FREE ENERGY PREDICTED BY IDOCK:   -5.05 KCAL/MOL
REMARK 924 INTRA-LIGAND FREE ENERGY PREDICTED BY IDOCK:   -0.27 KCAL/MOL
REMARK 927      BINDING AFFINITY PREDICTED BY RF-SCORE:    0.00 PKD
ROOT
HETATM    1 CL   UNL     1      -8.697  18.119  66.431  1.00  0.00    -0.276 Cl 
HETATM    2  C   UNL     1      -9.524  16.614  66.492  1.00  0.00    -0.266 A  
HETATM    3  C   UNL     1     -10.427  16.275  65.492  1.00  0.00    -0.383 A  
HETATM    4  C   UNL     1     -11.105  15.051  65.548  1.00  0.00    -0.357 A  
HETATM    5 CL   UNL     1     -12.246  14.737  64.283  1.00  0.00    -0.489 Cl 
HETATM    6  C   UNL     1     -10.877  14.135  66.595  1.00  0.00    -0.299 A  
HETATM    7  C   UNL     1      -9.961  14.518  67.597  1.00  0.00    -0.224 A  
HETATM    8  C   UNL     1      -9.291  15.743  67.547  1.00  0.00    -0.210 A  
ENDROOT
BRANCH   6   9
HETATM    9  C   UNL     1     -11.639  12.811  66.656  1.00  0.00    -0.370 C  
HETATM   10  C   UNL     1     -11.770  12.246  68.071  1.00  0.00    -0.356 C  
HETATM   11  S   UNL     1     -10.260  11.324  68.476  1.00  0.00    -0.211 SA 
HETATM   12  C   UNL     1      -9.916  10.748  66.854  1.00  0.00    -0.200 C  
HETATM   13  S   UNL     1     -10.942  11.471  65.620  1.00  0.00    -0.189 SA 
HETATM   14  C   UNL     1      -9.008   9.782  66.565  1.00  0.00    -0.150 C  
BRANCH  14  15
HETATM   15  C   UNL     1      -8.929   9.256  65.141  1.00  0.00    -0.209 C  
HETATM   16  H2  UNL     1      -7.895   8.673  63.673  1.00  0.00     0.000 HD 
HETATM   17  N   UNL     1      -8.862   8.820  63.960  1.00  0.00    -0.419 NA 
HETATM   18  H1  UNL     1      -8.809   8.468  63.004  1.00  0.00     0.000 HD 
ENDBRANCH  14  15
BRANCH  14  19
HETATM   19  N   UNL     1      -8.144   9.140  67.483  1.00  0.00    -0.104 NA 
HETATM   20  C   UNL     1      -8.408   7.975  68.192  1.00  0.00    -0.127 A  
HETATM   21  C   UNL     1      -7.337   7.767  69.027  1.00  0.00    -0.089 A  
HETATM   22  N   UNL     1      -6.368   8.694  68.805  1.00  0.00    -0.048 NA 
HETATM   23  C   UNL     1      -6.856   9.476  67.865  1.00  0.00    -0.074 A  
ENDBRANCH  14  19
ENDBRANCH   6   9
TORSDOF 3
ENDMDL
MODEL       54
REMARK 921   NORMALIZED FREE ENERGY PREDICTED BY IDOCK:   -4.36 KCAL/MOL
REMARK 922        TOTAL FREE ENERGY PREDICTED BY IDOCK:   -5.30 KCAL/MOL
REMARK 923 INTER-LIGAND FREE ENERGY PREDICTED BY IDOCK:   -4.89 KCAL/MOL
REMARK 924 INTRA-LIGAND FREE ENERGY PREDICTED BY IDOCK:   -0.40 KCAL/MOL
REMARK 927      BINDING AFFINITY PREDICTED BY RF-SCORE:    0.00 PKD
ROOT
HETATM    1 CL   UNL     1     -10.311  19.926  65.634  1.00  0.00    -0.507 Cl 
HETATM    2  C   UNL     1      -9.859  18.585  66.610  1.00  0.00    -0.354 A  
HETATM    3  C   UNL     1      -8.777  18.688  67.476  1.00  0.00    -0.284 A  
HETATM    4  C   UNL     1      -8.407  17.591  68.264  1.00  0.00    -0.265 A  
HETATM    5 CL   UNL     1      -7.018  17.798  69.277  1.00  0.00    -0.204 Cl 
HETATM    6  C   UNL     1      -9.123  16.379  68.214  1.00  0.00    -0.207 A  
HETATM    7  C   UNL     1     -10.209  16.309  67.316  1.00  0.00    -0.279 A  
HETATM    8  C   UNL     1     -10.573  17.399  66.523  1.00  0.00    -0.184 A  
ENDROOT
BRANCH   6   9
HETATM    9  C   UNL     1      -8.696  15.182  69.064  1.00  0.00    -0.215 C  
HETATM   10  C   UNL     1      -7.395  14.531  68.594  1.00  0.00    -0.128 C  
HETATM   11  S   UNL     1      -7.773  13.365  67.255  1.00  0.00    -0.006 SA 
HETATM   12  C   UNL     1      -9.357  12.876  67.834  1.00  0.00    -0.208 C  
HETATM   13  S   UNL     1      -9.937  13.841  69.188  1.00  0.00     0.297 SA 
HETATM   14  C   UNL     1     -10.048  11.812  67.354  1.00  0.00    -0.195 C  
BRANCH  14  15
HETATM   15  C   UNL     1     -11.330  11.397  68.058  1.00  0.00    -0.303 C  
HETATM   16  H2  UNL     1     -12.334  11.218  69.647  1.00  0.00     0.000 HD 
HETATM   17  N   UNL     1     -12.392  11.052  68.642  1.00  0.00    -0.737 NA 
HETATM   18  H1  UNL     1     -13.252  10.773  69.114  1.00  0.00     0.000 HD 
ENDBRANCH  14  15
BRANCH  14  19
HETATM   19  N   UNL     1      -9.665  10.977  66.278  1.00  0.00    -0.200 NA 
HETATM   20  C   UNL     1      -9.906  11.205  64.928  1.00  0.00    -0.266 A  
HETATM   21  C   UNL     1      -9.445  10.102  64.251  1.00  0.00    -0.305 A  
HETATM   22  N   UNL     1      -8.838   9.235  65.105  1.00  0.00    -0.188 NA 
HETATM   23  C   UNL     1      -8.954   9.790  66.292  1.00  0.00    -0.153 A  
ENDBRANCH  14  19
ENDBRANCH   6   9
TORSDOF 3
ENDMDL
MODEL       55
REMARK 921   NORMALIZED FREE ENERGY PREDICTED BY IDOCK:   -4.31 KCAL/MOL
REMARK 922        TOTAL FREE ENERGY PREDICTED BY IDOCK:   -5.24 KCAL/MOL
REMARK 923 INTER-LIGAND FREE ENERGY PREDICTED BY IDOCK:   -4.83 KCAL/MOL
REMARK 924 INTRA-LIGAND FREE ENERGY PREDICTED BY IDOCK:   -0.41 KCAL/MOL
REMARK 927      BINDING AFFINITY PREDICTED BY RF-SCORE:    0.00 PKD
ROOT
HETATM    1 CL   UNL     1     -14.095   9.033  72.675  1.00  0.00    -0.451 Cl 
HETATM    2  C   UNL     1     -12.841   9.514  71.604  1.00  0.00    -0.393 A  
HETATM    3  C   UNL     1     -12.810  10.810  71.105  1.00  0.00    -0.513 A  
HETATM    4  C   UNL     1     -11.790  11.197  70.226  1.00  0.00    -0.366 A  
HETATM    5 CL   UNL     1     -11.862  12.817  69.620  1.00  0.00    -0.389 Cl 
HETATM    6  C   UNL     1     -10.773  10.299  69.844  1.00  0.00    -0.344 A  
HETATM    7  C   UNL     1     -10.843   8.989  70.363  1.00  0.00    -0.284 A  
HETATM    8  C   UNL     1     -11.865   8.599  71.232  1.00  0.00    -0.344 A  
ENDROOT
BRANCH   6   9
HETATM    9  C   UNL     1      -9.678  10.726  68.868  1.00  0.00    -0.198 C  
HETATM   10  C   UNL     1     -10.148  10.798  67.415  1.00  0.00    -0.193 C  
HETATM   11  S   UNL     1     -10.060   9.137  66.688  1.00  0.00    -0.262 SA 
HETATM   12  C   UNL     1      -8.666   8.577  67.595  1.00  0.00    -0.136 C  
HETATM   13  S   UNL     1      -8.178   9.675  68.882  1.00  0.00    -0.116 SA 
HETATM   14  C   UNL     1      -7.968   7.450  67.301  1.00  0.00    -0.115 C  
BRANCH  14  15
HETATM   15  C   UNL     1      -6.682   7.170  68.060  1.00  0.00    -0.061 C  
HETATM   16  H2  UNL     1      -5.088   6.177  68.258  1.00  0.00     0.000 HD 
HETATM   17  N   UNL     1      -5.615   6.937  68.690  1.00  0.00    -0.017 NA 
HETATM   18  H1  UNL     1      -4.751   6.748  69.199  1.00  0.00     0.000 HD 
ENDBRANCH  14  15
BRANCH  14  19
HETATM   19  N   UNL     1      -8.277   6.511  66.290  1.00  0.00    -0.114 NA 
HETATM   20  C   UNL     1      -9.218   5.491  66.368  1.00  0.00    -0.150 A  
HETATM   21  C   UNL     1      -9.120   4.771  65.202  1.00  0.00    -0.155 A  
HETATM   22  N   UNL     1      -8.228   5.350  64.354  1.00  0.00    -0.130 NA 
HETATM   23  C   UNL     1      -7.767   6.394  65.008  1.00  0.00    -0.098 A  
ENDBRANCH  14  19
ENDBRANCH   6   9
TORSDOF 3
ENDMDL
MODEL       56
REMARK 921   NORMALIZED FREE ENERGY PREDICTED BY IDOCK:   -4.30 KCAL/MOL
REMARK 922        TOTAL FREE ENERGY PREDICTED BY IDOCK:   -5.23 KCAL/MOL
REMARK 923 INTER-LIGAND FREE ENERGY PREDICTED BY IDOCK:   -5.00 KCAL/MOL
REMARK 924 INTRA-LIGAND FREE ENERGY PREDICTED BY IDOCK:   -0.23 KCAL/MOL
REMARK 927      BINDING AFFINITY PREDICTED BY RF-SCORE:    0.00 PKD
ROOT
HETATM    1 CL   UNL     1     -13.759  15.535  72.522  1.00  0.00    -0.622 Cl 
HETATM    2  C   UNL     1     -12.934  14.641  71.309  1.00  0.00    -0.339 A  
HETATM    3  C   UNL     1     -12.391  15.295  70.209  1.00  0.00    -0.407 A  
HETATM    4  C   UNL     1     -11.726  14.563  69.219  1.00  0.00    -0.310 A  
HETATM    5 CL   UNL     1     -11.125  15.459  67.864  1.00  0.00    -0.313 Cl 
HETATM    6  C   UNL     1     -11.575  13.165  69.318  1.00  0.00    -0.370 A  
HETATM    7  C   UNL     1     -12.147  12.534  70.443  1.00  0.00    -0.380 A  
HETATM    8  C   UNL     1     -12.819  13.263  71.427  1.00  0.00    -0.411 A  
ENDROOT
BRANCH   6   9
HETATM    9  C   UNL     1     -10.865  12.374  68.220  1.00  0.00    -0.237 C  
HETATM   10  C   UNL     1     -11.479  10.997  67.963  1.00  0.00    -0.290 C  
HETATM   11  S   UNL     1     -10.798   9.820  69.164  1.00  0.00    -0.178 SA 
HETATM   12  C   UNL     1      -9.206  10.547  69.303  1.00  0.00    -0.148 C  
HETATM   13  S   UNL     1      -9.074  12.106  68.496  1.00  0.00    -0.024 SA 
HETATM   14  C   UNL     1      -8.145   9.949  69.901  1.00  0.00    -0.188 C  
BRANCH  14  15
HETATM   15  C   UNL     1      -6.782  10.615  69.803  1.00  0.00    -0.130 C  
HETATM   16  H2  UNL     1      -5.649  11.906  69.019  1.00  0.00     0.000 HD 
HETATM   17  N   UNL     1      -5.652  11.167  69.722  1.00  0.00    -0.055 NA 
HETATM   18  H1  UNL     1      -4.737  11.613  69.656  1.00  0.00     0.000 HD 
ENDBRANCH  14  15
BRANCH  14  19
HETATM   19  N   UNL     1      -8.149   8.703  70.570  1.00  0.00    -0.102 NA 
HETATM   20  C   UNL     1      -7.793   7.473  70.030  1.00  0.00    -0.099 A  
HETATM   21  C   UNL     1      -8.034   6.529  70.999  1.00  0.00    -0.111 A  
HETATM   22  N   UNL     1      -8.433   7.121  72.156  1.00  0.00    -0.110 NA 
HETATM   23  C   UNL     1      -8.463   8.409  71.886  1.00  0.00    -0.177 A  
ENDBRANCH  14  19
ENDBRANCH   6   9
TORSDOF 3
ENDMDL
MODEL       57
REMARK 921   NORMALIZED FREE ENERGY PREDICTED BY IDOCK:   -4.29 KCAL/MOL
REMARK 922        TOTAL FREE ENERGY PREDICTED BY IDOCK:   -5.22 KCAL/MOL
REMARK 923 INTER-LIGAND FREE ENERGY PREDICTED BY IDOCK:   -4.83 KCAL/MOL
REMARK 924 INTRA-LIGAND FREE ENERGY PREDICTED BY IDOCK:   -0.39 KCAL/MOL
REMARK 927      BINDING AFFINITY PREDICTED BY RF-SCORE:    0.00 PKD
ROOT
HETATM    1 CL   UNL     1      -5.841   6.824  74.371  1.00  0.00    -0.066 Cl 
HETATM    2  C   UNL     1      -7.376   6.962  73.611  1.00  0.00    -0.080 A  
HETATM    3  C   UNL     1      -8.059   5.820  73.209  1.00  0.00    -0.113 A  
HETATM    4  C   UNL     1      -9.306   5.936  72.583  1.00  0.00    -0.143 A  
HETATM    5 CL   UNL     1     -10.059   4.461  72.075  1.00  0.00    -0.254 Cl 
HETATM    6  C   UNL     1      -9.902   7.194  72.365  1.00  0.00    -0.174 A  
HETATM    7  C   UNL     1      -9.175   8.331  72.777  1.00  0.00    -0.336 A  
HETATM    8  C   UNL     1      -7.926   8.217  73.393  1.00  0.00    -0.215 A  
ENDROOT
BRANCH   6   9
HETATM    9  C   UNL     1     -11.254   7.309  71.661  1.00  0.00    -0.245 C  
HETATM   10  C   UNL     1     -11.209   6.927  70.182  1.00  0.00    -0.313 C  
HETATM   11  S   UNL     1     -10.659   8.365  69.222  1.00  0.00    -0.135 SA 
HETATM   12  C   UNL     1     -11.382   9.597  70.243  1.00  0.00    -0.257 C  
HETATM   13  S   UNL     1     -12.033   8.965  71.751  1.00  0.00    -0.385 SA 
HETATM   14  C   UNL     1     -11.509  10.901  69.889  1.00  0.00    -0.323 C  
BRANCH  14  15
HETATM   15  C   UNL     1     -12.305  11.828  70.793  1.00  0.00    -0.337 C  
HETATM   16  H2  UNL     1     -12.353  13.231  72.056  1.00  0.00     0.000 HD 
HETATM   17  N   UNL     1     -12.965  12.597  71.543  1.00  0.00    -0.344 NA 
HETATM   18  H1  UNL     1     -13.500  13.218  72.150  1.00  0.00     0.000 HD 
ENDBRANCH  14  15
BRANCH  14  19
HETATM   19  N   UNL     1     -11.025  11.501  68.703  1.00  0.00    -0.207 NA 
HETATM   20  C   UNL     1     -11.755  11.760  67.550  1.00  0.00    -0.240 A  
HETATM   21  C   UNL     1     -10.871  12.262  66.625  1.00  0.00    -0.258 A  
HETATM   22  N   UNL     1      -9.638  12.422  67.177  1.00  0.00    -0.202 NA 
HETATM   23  C   UNL     1      -9.763  11.994  68.415  1.00  0.00    -0.199 A  
ENDBRANCH  14  19
ENDBRANCH   6   9
TORSDOF 3
ENDMDL
MODEL       58
REMARK 921   NORMALIZED FREE ENERGY PREDICTED BY IDOCK:   -4.29 KCAL/MOL
REMARK 922        TOTAL FREE ENERGY PREDICTED BY IDOCK:   -5.21 KCAL/MOL
REMARK 923 INTER-LIGAND FREE ENERGY PREDICTED BY IDOCK:   -5.03 KCAL/MOL
REMARK 924 INTRA-LIGAND FREE ENERGY PREDICTED BY IDOCK:   -0.18 KCAL/MOL
REMARK 927      BINDING AFFINITY PREDICTED BY RF-SCORE:    0.00 PKD
ROOT
HETATM    1 CL   UNL     1     -12.274  13.331  63.241  1.00  0.00    -0.536 Cl 
HETATM    2  C   UNL     1     -11.701  12.881  64.797  1.00  0.00    -0.346 A  
HETATM    3  C   UNL     1     -11.853  13.747  65.873  1.00  0.00    -0.405 A  
HETATM    4  C   UNL     1     -11.378  13.380  67.137  1.00  0.00    -0.315 A  
HETATM    5 CL   UNL     1     -11.569  14.544  68.405  1.00  0.00    -0.336 Cl 
HETATM    6  C   UNL     1     -10.759  12.133  67.354  1.00  0.00    -0.268 A  
HETATM    7  C   UNL     1     -10.613  11.284  66.236  1.00  0.00    -0.315 A  
HETATM    8  C   UNL     1     -11.078  11.653  64.972  1.00  0.00    -0.312 A  
ENDROOT
BRANCH   6   9
HETATM    9  C   UNL     1     -10.225  11.753  68.735  1.00  0.00    -0.160 C  
HETATM   10  C   UNL     1      -8.706  11.591  68.780  1.00  0.00    -0.044 C  
HETATM   11  S   UNL     1      -8.277   9.918  68.224  1.00  0.00    -0.110 SA 
HETATM   12  C   UNL     1      -9.707   9.110  68.844  1.00  0.00    -0.162 C  
HETATM   13  S   UNL     1     -10.936  10.220  69.442  1.00  0.00    -0.261 SA 
HETATM   14  C   UNL     1      -9.841   7.763  68.938  1.00  0.00    -0.166 C  
BRANCH  14  15
HETATM   15  C   UNL     1     -11.059   7.198  69.650  1.00  0.00    -0.179 C  
HETATM   16  H2  UNL     1     -12.864   7.368  70.179  1.00  0.00     0.000 HD 
HETATM   17  N   UNL     1     -12.070   6.730  70.240  1.00  0.00    -0.617 NA 
HETATM   18  H1  UNL     1     -12.888   6.351  70.718  1.00  0.00     0.000 HD 
ENDBRANCH  14  15
BRANCH  14  19
HETATM   19  N   UNL     1      -8.912   6.793  68.492  1.00  0.00    -0.122 NA 
HETATM   20  C   UNL     1      -8.775   6.315  67.194  1.00  0.00    -0.109 A  
HETATM   21  C   UNL     1      -7.821   5.327  67.235  1.00  0.00    -0.100 A  
HETATM   22  N   UNL     1      -7.284   5.229  68.480  1.00  0.00    -0.062 NA 
HETATM   23  C   UNL     1      -7.924   6.127  69.197  1.00  0.00    -0.108 A  
ENDBRANCH  14  19
ENDBRANCH   6   9
TORSDOF 3
ENDMDL
MODEL       59
REMARK 921   NORMALIZED FREE ENERGY PREDICTED BY IDOCK:   -4.27 KCAL/MOL
REMARK 922        TOTAL FREE ENERGY PREDICTED BY IDOCK:   -5.19 KCAL/MOL
REMARK 923 INTER-LIGAND FREE ENERGY PREDICTED BY IDOCK:   -4.95 KCAL/MOL
REMARK 924 INTRA-LIGAND FREE ENERGY PREDICTED BY IDOCK:   -0.24 KCAL/MOL
REMARK 927      BINDING AFFINITY PREDICTED BY RF-SCORE:    0.00 PKD
ROOT
HETATM    1 CL   UNL     1     -13.274  15.416  70.889  1.00  0.00    -0.529 Cl 
HETATM    2  C   UNL     1     -12.211  14.837  69.669  1.00  0.00    -0.270 A  
HETATM    3  C   UNL     1     -11.728  15.706  68.698  1.00  0.00    -0.364 A  
HETATM    4  C   UNL     1     -10.868  15.230  67.700  1.00  0.00    -0.295 A  
HETATM    5 CL   UNL     1     -10.356  16.375  66.506  1.00  0.00    -0.300 Cl 
HETATM    6  C   UNL     1     -10.461  13.881  67.667  1.00  0.00    -0.245 A  
HETATM    7  C   UNL     1     -10.980  13.027  68.663  1.00  0.00    -0.297 A  
HETATM    8  C   UNL     1     -11.845  13.499  69.653  1.00  0.00    -0.398 A  
ENDROOT
BRANCH   6   9
HETATM    9  C   UNL     1      -9.539  13.369  66.561  1.00  0.00    -0.272 C  
HETATM   10  C   UNL     1     -10.284  12.717  65.396  1.00  0.00    -0.284 C  
HETATM   11  S   UNL     1     -10.633  10.987  65.819  1.00  0.00    -0.150 SA 
HETATM   12  C   UNL     1      -9.196  10.706  66.785  1.00  0.00    -0.156 C  
HETATM   13  S   UNL     1      -8.270  12.168  67.108  1.00  0.00    -0.172 SA 
HETATM   14  C   UNL     1      -8.776   9.479  67.187  1.00  0.00    -0.132 C  
BRANCH  14  15
HETATM   15  C   UNL     1      -7.426   9.358  67.874  1.00  0.00    -0.084 C  
HETATM   16  H2  UNL     1      -6.343   9.610  69.401  1.00  0.00     0.000 HD 
HETATM   17  N   UNL     1      -6.306   9.259  68.444  1.00  0.00    -0.053 NA 
HETATM   18  H1  UNL     1      -5.399   9.178  68.904  1.00  0.00     0.000 HD 
ENDBRANCH  14  15
BRANCH  14  19
HETATM   19  N   UNL     1      -9.445   8.251  66.975  1.00  0.00    -0.164 NA 
HETATM   20  C   UNL     1      -8.990   7.183  66.211  1.00  0.00    -0.155 A  
HETATM   21  C   UNL     1      -9.992   6.243  66.206  1.00  0.00     0.026 A  
HETATM   22  N   UNL     1     -11.016   6.630  67.013  1.00  0.00    -0.410 NA 
HETATM   23  C   UNL     1     -10.655   7.806  67.480  1.00  0.00    -0.248 A  
ENDBRANCH  14  19
ENDBRANCH   6   9
TORSDOF 3
ENDMDL
MODEL       60
REMARK 921   NORMALIZED FREE ENERGY PREDICTED BY IDOCK:   -4.25 KCAL/MOL
REMARK 922        TOTAL FREE ENERGY PREDICTED BY IDOCK:   -5.17 KCAL/MOL
REMARK 923 INTER-LIGAND FREE ENERGY PREDICTED BY IDOCK:   -4.84 KCAL/MOL
REMARK 924 INTRA-LIGAND FREE ENERGY PREDICTED BY IDOCK:   -0.33 KCAL/MOL
REMARK 927      BINDING AFFINITY PREDICTED BY RF-SCORE:    0.00 PKD
ROOT
HETATM    1 CL   UNL     1     -12.357  14.737  64.363  1.00  0.00    -0.478 Cl 
HETATM    2  C   UNL     1     -11.826  13.587  65.524  1.00  0.00    -0.363 A  
HETATM    3  C   UNL     1     -11.967  13.851  66.881  1.00  0.00    -0.467 A  
HETATM    4  C   UNL     1     -11.526  12.916  67.824  1.00  0.00    -0.323 A  
HETATM    5 CL   UNL     1     -11.700  13.353  69.491  1.00  0.00    -0.368 Cl 
HETATM    6  C   UNL     1     -10.953  11.691  67.428  1.00  0.00    -0.313 A  
HETATM    7  C   UNL     1     -10.816  11.462  66.043  1.00  0.00    -0.306 A  
HETATM    8  C   UNL     1     -11.248  12.399  65.101  1.00  0.00    -0.356 A  
ENDROOT
BRANCH   6   9
HETATM    9  C   UNL     1     -10.455  10.686  68.468  1.00  0.00    -0.191 C  
HETATM   10  C   UNL     1      -8.960  10.801  68.763  1.00  0.00    -0.170 C  
HETATM   11  S   UNL     1      -8.042   9.863  67.510  1.00  0.00    -0.110 SA 
HETATM   12  C   UNL     1      -9.242   8.607  67.257  1.00  0.00    -0.140 C  
HETATM   13  S   UNL     1     -10.775   8.930  68.059  1.00  0.00    -0.037 SA 
HETATM   14  C   UNL     1      -9.007   7.455  66.580  1.00  0.00    -0.159 C  
BRANCH  14  15
HETATM   15  C   UNL     1     -10.079   6.378  66.579  1.00  0.00    -0.092 C  
HETATM   16  H2  UNL     1     -10.871   4.863  67.382  1.00  0.00     0.000 HD 
HETATM   17  N   UNL     1     -10.969   5.484  66.578  1.00  0.00    -0.658 NA 
HETATM   18  H1  UNL     1     -11.688   4.761  66.578  1.00  0.00     0.000 HD 
ENDBRANCH  14  15
BRANCH  14  19
HETATM   19  N   UNL     1      -7.813   7.103  65.907  1.00  0.00    -0.100 NA 
HETATM   20  C   UNL     1      -6.770   6.340  66.419  1.00  0.00    -0.056 A  
HETATM   21  C   UNL     1      -5.783   6.327  65.463  1.00  0.00    -0.021 A  
HETATM   22  N   UNL     1      -6.197   6.966  64.336  1.00  0.00    -0.036 NA 
HETATM   23  C   UNL     1      -7.412   7.389  64.613  1.00  0.00    -0.093 A  
ENDBRANCH  14  19
ENDBRANCH   6   9
TORSDOF 3
ENDMDL
MODEL       61
REMARK 921   NORMALIZED FREE ENERGY PREDICTED BY IDOCK:   -4.22 KCAL/MOL
REMARK 922        TOTAL FREE ENERGY PREDICTED BY IDOCK:   -5.13 KCAL/MOL
REMARK 923 INTER-LIGAND FREE ENERGY PREDICTED BY IDOCK:   -4.89 KCAL/MOL
REMARK 924 INTRA-LIGAND FREE ENERGY PREDICTED BY IDOCK:   -0.24 KCAL/MOL
REMARK 927      BINDING AFFINITY PREDICTED BY RF-SCORE:    0.00 PKD
ROOT
HETATM    1 CL   UNL     1      -9.542   4.182  66.266  1.00  0.00    -0.192 Cl 
HETATM    2  C   UNL     1      -9.597   5.639  67.176  1.00  0.00    -0.131 A  
HETATM    3  C   UNL     1      -8.743   5.818  68.257  1.00  0.00    -0.111 A  
HETATM    4  C   UNL     1      -8.796   7.002  69.001  1.00  0.00    -0.134 A  
HETATM    5 CL   UNL     1      -7.727   7.114  70.359  1.00  0.00    -0.093 Cl 
HETATM    6  C   UNL     1      -9.691   8.038  68.666  1.00  0.00    -0.163 A  
HETATM    7  C   UNL     1     -10.550   7.817  67.568  1.00  0.00    -0.319 A  
HETATM    8  C   UNL     1     -10.504   6.632  66.831  1.00  0.00    -0.349 A  
ENDROOT
BRANCH   6   9
HETATM    9  C   UNL     1      -9.754   9.318  69.499  1.00  0.00    -0.173 C  
HETATM   10  C   UNL     1     -11.155   9.925  69.584  1.00  0.00    -0.241 C  
HETATM   11  S   UNL     1     -11.443  10.944  68.111  1.00  0.00    -0.243 SA 
HETATM   12  C   UNL     1      -9.786  11.481  67.892  1.00  0.00    -0.185 C  
HETATM   13  S   UNL     1      -8.637  10.658  68.941  1.00  0.00    -0.149 SA 
HETATM   14  C   UNL     1      -9.415  12.487  67.059  1.00  0.00    -0.217 C  
BRANCH  14  15
HETATM   15  C   UNL     1      -7.973  12.965  67.090  1.00  0.00    -0.099 C  
HETATM   16  H2  UNL     1      -6.624  14.122  66.451  1.00  0.00     0.000 HD 
HETATM   17  N   UNL     1      -6.777  13.363  67.116  1.00  0.00    -0.447 NA 
HETATM   18  H1  UNL     1      -5.809  13.684  67.136  1.00  0.00     0.000 HD 
ENDBRANCH  14  15
BRANCH  14  19
HETATM   19  N   UNL     1     -10.261  13.208  66.184  1.00  0.00    -0.284 NA 
HETATM   20  C   UNL     1     -10.963  14.369  66.482  1.00  0.00    -0.316 A  
HETATM   21  C   UNL     1     -11.721  14.670  65.376  1.00  0.00    -0.330 A  
HETATM   22  N   UNL     1     -11.452  13.806  64.361  1.00  0.00    -0.379 NA 
HETATM   23  C   UNL     1     -10.563  12.970  64.854  1.00  0.00    -0.337 A  
ENDBRANCH  14  19
ENDBRANCH   6   9
TORSDOF 3
ENDMDL
MODEL       62
REMARK 921   NORMALIZED FREE ENERGY PREDICTED BY IDOCK:   -4.20 KCAL/MOL
REMARK 922        TOTAL FREE ENERGY PREDICTED BY IDOCK:   -5.11 KCAL/MOL
REMARK 923 INTER-LIGAND FREE ENERGY PREDICTED BY IDOCK:   -5.35 KCAL/MOL
REMARK 924 INTRA-LIGAND FREE ENERGY PREDICTED BY IDOCK:    0.24 KCAL/MOL
REMARK 927      BINDING AFFINITY PREDICTED BY RF-SCORE:    0.00 PKD
ROOT
HETATM    1 CL   UNL     1      -5.128   6.212  72.212  1.00  0.00    -0.021 Cl 
HETATM    2  C   UNL     1      -6.691   6.343  71.508  1.00  0.00    -0.055 A  
HETATM    3  C   UNL     1      -6.936   5.801  70.251  1.00  0.00    -0.058 A  
HETATM    4  C   UNL     1      -8.208   5.916  69.677  1.00  0.00    -0.110 A  
HETATM    5 CL   UNL     1      -8.405   5.252  68.090  1.00  0.00    -0.098 Cl 
HETATM    6  C   UNL     1      -9.262   6.558  70.356  1.00  0.00    -0.156 A  
HETATM    7  C   UNL     1      -8.973   7.104  71.625  1.00  0.00    -0.136 A  
HETATM    8  C   UNL     1      -7.703   6.998  72.195  1.00  0.00    -0.092 A  
ENDROOT
BRANCH   6   9
HETATM    9  C   UNL     1     -10.641   6.695  69.710  1.00  0.00    -0.228 C  
HETATM   10  C   UNL     1     -10.673   7.681  68.542  1.00  0.00    -0.051 C  
HETATM   11  S   UNL     1     -10.883   9.360  69.198  1.00  0.00    -0.099 SA 
HETATM   12  C   UNL     1     -11.867   8.930  70.586  1.00  0.00    -0.128 C  
HETATM   13  S   UNL     1     -11.983   7.194  70.853  1.00  0.00    -0.314 SA 
HETATM   14  C   UNL     1     -12.547   9.826  71.345  1.00  0.00    -0.386 C  
BRANCH  14  15
HETATM   15  C   UNL     1     -13.497   9.307  72.412  1.00  0.00    -0.459 C  
HETATM   16  H2  UNL     1     -13.981   9.155  74.231  1.00  0.00     0.000 HD 
HETATM   17  N   UNL     1     -14.284   8.877  73.297  1.00  0.00    -1.237 NA 
HETATM   18  H1  UNL     1     -14.921   8.528  74.014  1.00  0.00     0.000 HD 
ENDBRANCH  14  15
BRANCH  14  19
HETATM   19  N   UNL     1     -12.522  11.234  71.207  1.00  0.00    -0.361 NA 
HETATM   20  C   UNL     1     -13.090  12.160  72.074  1.00  0.00    -0.357 A  
HETATM   21  C   UNL     1     -12.905  13.398  71.509  1.00  0.00    -0.337 A  
HETATM   22  N   UNL     1     -12.162  13.301  70.374  1.00  0.00    -0.353 NA 
HETATM   23  C   UNL     1     -11.922  12.015  70.235  1.00  0.00    -0.314 A  
ENDBRANCH  14  19
ENDBRANCH   6   9
TORSDOF 3
ENDMDL
MODEL       63
REMARK 921   NORMALIZED FREE ENERGY PREDICTED BY IDOCK:   -4.20 KCAL/MOL
REMARK 922        TOTAL FREE ENERGY PREDICTED BY IDOCK:   -5.11 KCAL/MOL
REMARK 923 INTER-LIGAND FREE ENERGY PREDICTED BY IDOCK:   -4.84 KCAL/MOL
REMARK 924 INTRA-LIGAND FREE ENERGY PREDICTED BY IDOCK:   -0.27 KCAL/MOL
REMARK 927      BINDING AFFINITY PREDICTED BY RF-SCORE:    0.00 PKD
ROOT
HETATM    1 CL   UNL     1     -10.556  13.569  65.007  1.00  0.00    -0.356 Cl 
HETATM    2  C   UNL     1     -10.558  12.096  65.893  1.00  0.00    -0.258 A  
HETATM    3  C   UNL     1     -11.187  12.029  67.130  1.00  0.00    -0.374 A  
HETATM    4  C   UNL     1     -11.180  10.830  67.853  1.00  0.00    -0.318 A  
HETATM    5 CL   UNL     1     -11.948  10.855  69.405  1.00  0.00    -0.391 Cl 
HETATM    6  C   UNL     1     -10.561   9.671  67.343  1.00  0.00    -0.333 A  
HETATM    7  C   UNL     1      -9.924   9.780  66.089  1.00  0.00    -0.338 A  
HETATM    8  C   UNL     1      -9.922  10.978  65.371  1.00  0.00    -0.313 A  
ENDROOT
BRANCH   6   9
HETATM    9  C   UNL     1     -10.542   8.373  68.151  1.00  0.00    -0.118 C  
HETATM   10  C   UNL     1      -9.197   8.088  68.819  1.00  0.00    -0.143 C  
HETATM   11  S   UNL     1      -8.105   7.280  67.616  1.00  0.00    -0.115 SA 
HETATM   12  C   UNL     1      -9.352   6.409  66.741  1.00  0.00    -0.147 C  
HETATM   13  S   UNL     1     -10.987   6.869  67.205  1.00  0.00    -0.291 SA 
HETATM   14  C   UNL     1      -9.105   5.417  65.848  1.00  0.00    -0.157 C  
BRANCH  14  15
HETATM   15  C   UNL     1     -10.278   4.630  65.288  1.00  0.00    -0.095 C  
HETATM   16  H2  UNL     1     -11.929   3.752  65.554  1.00  0.00     0.000 HD 
HETATM   17  N   UNL     1     -11.252   3.977  64.825  1.00  0.00    -0.849 NA 
HETATM   18  H1  UNL     1     -12.039   3.448  64.449  1.00  0.00     0.000 HD 
ENDBRANCH  14  15
BRANCH  14  19
HETATM   19  N   UNL     1      -7.833   4.975  65.414  1.00  0.00    -0.087 NA 
HETATM   20  C   UNL     1      -7.113   3.902  65.925  1.00  0.00    -0.067 A  
HETATM   21  C   UNL     1      -5.902   3.892  65.274  1.00  0.00    -0.022 A  
HETATM   22  N   UNL     1      -5.868   4.849  64.310  1.00  0.00    -0.017 NA 
HETATM   23  C   UNL     1      -7.033   5.455  64.392  1.00  0.00    -0.049 A  
ENDBRANCH  14  19
ENDBRANCH   6   9
TORSDOF 3
ENDMDL
MODEL       64
REMARK 921   NORMALIZED FREE ENERGY PREDICTED BY IDOCK:   -4.19 KCAL/MOL
REMARK 922        TOTAL FREE ENERGY PREDICTED BY IDOCK:   -5.10 KCAL/MOL
REMARK 923 INTER-LIGAND FREE ENERGY PREDICTED BY IDOCK:   -5.67 KCAL/MOL
REMARK 924 INTRA-LIGAND FREE ENERGY PREDICTED BY IDOCK:    0.58 KCAL/MOL
REMARK 927      BINDING AFFINITY PREDICTED BY RF-SCORE:    0.00 PKD
ROOT
HETATM    1 CL   UNL     1      -5.262  18.581  69.805  1.00  0.00    -0.186 Cl 
HETATM    2  C   UNL     1      -6.515  17.692  69.034  1.00  0.00    -0.228 A  
HETATM    3  C   UNL     1      -7.231  18.263  67.989  1.00  0.00    -0.240 A  
HETATM    4  C   UNL     1      -8.256  17.540  67.367  1.00  0.00    -0.207 A  
HETATM    5 CL   UNL     1      -9.124  18.351  66.107  1.00  0.00    -0.200 Cl 
HETATM    6  C   UNL     1      -8.571  16.225  67.767  1.00  0.00    -0.175 A  
HETATM    7  C   UNL     1      -7.829  15.683  68.838  1.00  0.00    -0.186 A  
HETATM    8  C   UNL     1      -6.813  16.407  69.464  1.00  0.00    -0.187 A  
ENDROOT
BRANCH   6   9
HETATM    9  C   UNL     1      -9.707  15.454  67.095  1.00  0.00    -0.216 C  
HETATM   10  C   UNL     1     -11.036  16.208  67.083  1.00  0.00    -0.053 C  
HETATM   11  S   UNL     1     -11.877  15.940  68.669  1.00  0.00    -0.079 SA 
HETATM   12  C   UNL     1     -11.290  14.310  68.952  1.00  0.00    -0.274 C  
HETATM   13  S   UNL     1     -10.048  13.803  67.812  1.00  0.00    -0.250 SA 
HETATM   14  C   UNL     1     -11.787  13.476  69.901  1.00  0.00    -0.316 C  
BRANCH  14  15
HETATM   15  C   UNL     1     -11.306  12.035  69.929  1.00  0.00    -0.065 C  
HETATM   16  H2  UNL     1      -9.889  10.787  69.911  1.00  0.00     0.000 HD 
HETATM   17  N   UNL     1     -10.907  10.839  69.953  1.00  0.00    -0.424 NA 
HETATM   18  H1  UNL     1     -10.584   9.872  69.971  1.00  0.00     0.000 HD 
ENDBRANCH  14  15
BRANCH  14  19
HETATM   19  N   UNL     1     -12.782  13.788  70.856  1.00  0.00    -0.336 NA 
HETATM   20  C   UNL     1     -13.442  15.003  70.997  1.00  0.00    -0.402 A  
HETATM   21  C   UNL     1     -14.253  14.889  72.100  1.00  0.00    -0.522 A  
HETATM   22  N   UNL     1     -14.205  13.626  72.602  1.00  0.00    -0.683 NA 
HETATM   23  C   UNL     1     -13.353  12.986  71.830  1.00  0.00    -0.446 A  
ENDBRANCH  14  19
ENDBRANCH   6   9
TORSDOF 3
ENDMDL
MODEL       65
REMARK 921   NORMALIZED FREE ENERGY PREDICTED BY IDOCK:   -4.14 KCAL/MOL
REMARK 922        TOTAL FREE ENERGY PREDICTED BY IDOCK:   -5.04 KCAL/MOL
REMARK 923 INTER-LIGAND FREE ENERGY PREDICTED BY IDOCK:   -4.69 KCAL/MOL
REMARK 924 INTRA-LIGAND FREE ENERGY PREDICTED BY IDOCK:   -0.35 KCAL/MOL
REMARK 927      BINDING AFFINITY PREDICTED BY RF-SCORE:    0.00 PKD
ROOT
HETATM    1 CL   UNL     1     -12.223  14.150  63.973  1.00  0.00    -0.453 Cl 
HETATM    2  C   UNL     1     -11.371  13.395  65.261  1.00  0.00    -0.296 A  
HETATM    3  C   UNL     1     -10.304  14.048  65.866  1.00  0.00    -0.327 A  
HETATM    4  C   UNL     1      -9.607  13.428  66.910  1.00  0.00    -0.257 A  
HETATM    5 CL   UNL     1      -8.262  14.298  67.569  1.00  0.00    -0.184 Cl 
HETATM    6  C   UNL     1      -9.975  12.151  67.380  1.00  0.00    -0.206 A  
HETATM    7  C   UNL     1     -11.057  11.516  66.734  1.00  0.00    -0.361 A  
HETATM    8  C   UNL     1     -11.747  12.130  65.687  1.00  0.00    -0.385 A  
ENDROOT
BRANCH   6   9
HETATM    9  C   UNL     1      -9.193  11.476  68.506  1.00  0.00    -0.167 C  
HETATM   10  C   UNL     1      -7.781  11.052  68.101  1.00  0.00    -0.105 C  
HETATM   11  S   UNL     1      -7.867   9.437  67.277  1.00  0.00    -0.098 SA 
HETATM   12  C   UNL     1      -9.223   8.799  68.192  1.00  0.00    -0.140 C  
HETATM   13  S   UNL     1      -9.998   9.996  69.224  1.00  0.00    -0.227 SA 
HETATM   14  C   UNL     1      -9.603   7.496  68.181  1.00  0.00    -0.148 C  
BRANCH  14  15
HETATM   15  C   UNL     1     -10.685   7.044  69.147  1.00  0.00    -0.218 C  
HETATM   16  H2  UNL     1     -11.315   5.809  70.429  1.00  0.00     0.000 HD 
HETATM   17  N   UNL     1     -11.582   6.668  69.949  1.00  0.00    -0.592 NA 
HETATM   18  H1  UNL     1     -12.309   6.365  70.598  1.00  0.00     0.000 HD 
ENDBRANCH  14  15
BRANCH  14  19
HETATM   19  N   UNL     1      -9.043   6.464  67.392  1.00  0.00    -0.112 NA 
HETATM   20  C   UNL     1      -9.230   6.270  66.029  1.00  0.00    -0.078 A  
HETATM   21  C   UNL     1      -8.580   5.105  65.701  1.00  0.00    -0.139 A  
HETATM   22  N   UNL     1      -7.912   4.610  66.776  1.00  0.00    -0.102 NA 
HETATM   23  C   UNL     1      -8.176   5.448  67.756  1.00  0.00    -0.100 A  
ENDBRANCH  14  19
ENDBRANCH   6   9
TORSDOF 3
ENDMDL
MODEL       66
REMARK 921   NORMALIZED FREE ENERGY PREDICTED BY IDOCK:   -4.12 KCAL/MOL
REMARK 922        TOTAL FREE ENERGY PREDICTED BY IDOCK:   -5.02 KCAL/MOL
REMARK 923 INTER-LIGAND FREE ENERGY PREDICTED BY IDOCK:   -5.32 KCAL/MOL
REMARK 924 INTRA-LIGAND FREE ENERGY PREDICTED BY IDOCK:    0.30 KCAL/MOL
REMARK 927      BINDING AFFINITY PREDICTED BY RF-SCORE:    0.00 PKD
ROOT
HETATM    1 CL   UNL     1      -5.412  20.502  70.246  1.00  0.00    -0.346 Cl 
HETATM    2  C   UNL     1      -6.478  19.683  69.175  1.00  0.00    -0.326 A  
HETATM    3  C   UNL     1      -5.982  19.070  68.031  1.00  0.00    -0.211 A  
HETATM    4  C   UNL     1      -6.854  18.410  67.157  1.00  0.00    -0.194 A  
HETATM    5 CL   UNL     1      -6.149  17.719  65.734  1.00  0.00    -0.226 Cl 
HETATM    6  C   UNL     1      -8.236  18.335  67.420  1.00  0.00    -0.237 A  
HETATM    7  C   UNL     1      -8.705  18.977  68.586  1.00  0.00    -0.387 A  
HETATM    8  C   UNL     1      -7.838  19.644  69.454  1.00  0.00    -0.008 A  
ENDROOT
BRANCH   6   9
HETATM    9  C   UNL     1      -9.181  17.630  66.447  1.00  0.00    -0.244 C  
HETATM   10  C   UNL     1     -10.656  17.751  66.831  1.00  0.00    -0.244 C  
HETATM   11  S   UNL     1     -11.053  16.466  68.049  1.00  0.00    -0.237 SA 
HETATM   12  C   UNL     1      -9.945  15.246  67.445  1.00  0.00    -0.223 C  
HETATM   13  S   UNL     1      -8.849  15.845  66.205  1.00  0.00    -0.265 SA 
HETATM   14  C   UNL     1      -9.966  13.943  67.824  1.00  0.00    -0.241 C  
BRANCH  14  15
HETATM   15  C   UNL     1      -9.065  12.957  67.099  1.00  0.00    -0.220 C  
HETATM   16  H2  UNL     1      -8.226  11.267  67.020  1.00  0.00     0.000 HD 
HETATM   17  N   UNL     1      -8.317  12.139  66.499  1.00  0.00    -0.388 NA 
HETATM   18  H1  UNL     1      -7.711  11.477  66.012  1.00  0.00     0.000 HD 
ENDBRANCH  14  15
BRANCH  14  19
HETATM   19  N   UNL     1     -10.808  13.366  68.804  1.00  0.00    -0.250 NA 
HETATM   20  C   UNL     1     -11.188  12.032  68.887  1.00  0.00    -0.261 A  
HETATM   21  C   UNL     1     -12.076  11.937  69.931  1.00  0.00    -0.272 A  
HETATM   22  N   UNL     1     -12.196  13.132  70.570  1.00  0.00    -0.361 NA 
HETATM   23  C   UNL     1     -11.412  13.953  69.903  1.00  0.00    -0.183 A  
ENDBRANCH  14  19
ENDBRANCH   6   9
TORSDOF 3
ENDMDL
MODEL       67
REMARK 921   NORMALIZED FREE ENERGY PREDICTED BY IDOCK:   -4.11 KCAL/MOL
REMARK 922        TOTAL FREE ENERGY PREDICTED BY IDOCK:   -5.00 KCAL/MOL
REMARK 923 INTER-LIGAND FREE ENERGY PREDICTED BY IDOCK:   -4.97 KCAL/MOL
REMARK 924 INTRA-LIGAND FREE ENERGY PREDICTED BY IDOCK:   -0.03 KCAL/MOL
REMARK 927      BINDING AFFINITY PREDICTED BY RF-SCORE:    0.00 PKD
ROOT
HETATM    1 CL   UNL     1     -11.105  11.120  63.205  1.00  0.00    -0.132 Cl 
HETATM    2  C   UNL     1     -10.862  11.773  64.776  1.00  0.00    -0.302 A  
HETATM    3  C   UNL     1     -10.623  10.927  65.853  1.00  0.00    -0.244 A  
HETATM    4  C   UNL     1     -10.432  11.462  67.132  1.00  0.00    -0.224 A  
HETATM    5 CL   UNL     1     -10.189  10.328  68.419  1.00  0.00    -0.178 Cl 
HETATM    6  C   UNL     1     -10.458  12.853  67.356  1.00  0.00    -0.235 A  
HETATM    7  C   UNL     1     -10.713  13.680  66.241  1.00  0.00    -0.285 A  
HETATM    8  C   UNL     1     -10.913  13.147  64.966  1.00  0.00    -0.322 A  
ENDROOT
BRANCH   6   9
HETATM    9  C   UNL     1     -10.270  13.424  68.762  1.00  0.00    -0.119 C  
HETATM   10  C   UNL     1     -11.461  14.247  69.252  1.00  0.00    -0.289 C  
HETATM   11  S   UNL     1     -11.309  15.938  68.614  1.00  0.00    -0.382 SA 
HETATM   12  C   UNL     1      -9.556  16.020  68.631  1.00  0.00    -0.222 C  
HETATM   13  S   UNL     1      -8.785  14.475  68.975  1.00  0.00     0.030 SA 
HETATM   14  C   UNL     1      -8.845  17.165  68.476  1.00  0.00    -0.265 C  
BRANCH  14  15
HETATM   15  C   UNL     1      -7.339  17.123  68.681  1.00  0.00    -0.238 C  
HETATM   16  H2  UNL     1      -5.594  17.105  67.959  1.00  0.00     0.000 HD 
HETATM   17  N   UNL     1      -6.091  17.088  68.851  1.00  0.00    -0.162 NA 
HETATM   18  H1  UNL     1      -5.080  17.059  68.988  1.00  0.00     0.000 HD 
ENDBRANCH  14  15
BRANCH  14  19
HETATM   19  N   UNL     1      -9.370  18.450  68.201  1.00  0.00    -0.306 NA 
HETATM   20  C   UNL     1      -9.157  19.202  67.052  1.00  0.00    -0.294 A  
HETATM   21  C   UNL     1      -9.777  20.412  67.250  1.00  0.00    -0.461 A  
HETATM   22  N   UNL     1     -10.452  20.418  68.430  1.00  0.00    -0.142 NA 
HETATM   23  C   UNL     1     -10.221  19.236  68.959  1.00  0.00    -0.201 A  
ENDBRANCH  14  19
ENDBRANCH   6   9
TORSDOF 3
ENDMDL
MODEL       68
REMARK 921   NORMALIZED FREE ENERGY PREDICTED BY IDOCK:   -4.10 KCAL/MOL
REMARK 922        TOTAL FREE ENERGY PREDICTED BY IDOCK:   -4.99 KCAL/MOL
REMARK 923 INTER-LIGAND FREE ENERGY PREDICTED BY IDOCK:   -4.73 KCAL/MOL
REMARK 924 INTRA-LIGAND FREE ENERGY PREDICTED BY IDOCK:   -0.26 KCAL/MOL
REMARK 927      BINDING AFFINITY PREDICTED BY RF-SCORE:    0.00 PKD
ROOT
HETATM    1 CL   UNL     1      -8.995   9.245  62.827  1.00  0.00    -0.204 Cl 
HETATM    2  C   UNL     1      -9.144   9.639  64.494  1.00  0.00    -0.236 A  
HETATM    3  C   UNL     1     -10.082  10.578  64.906  1.00  0.00    -0.403 A  
HETATM    4  C   UNL     1     -10.196  10.902  66.263  1.00  0.00    -0.247 A  
HETATM    5 CL   UNL     1     -11.358  12.118  66.675  1.00  0.00    -0.382 Cl 
HETATM    6  C   UNL     1      -9.388  10.279  67.235  1.00  0.00    -0.169 A  
HETATM    7  C   UNL     1      -8.441   9.337  66.778  1.00  0.00    -0.129 A  
HETATM    8  C   UNL     1      -8.320   9.020  65.424  1.00  0.00    -0.151 A  
ENDROOT
BRANCH   6   9
HETATM    9  C   UNL     1      -9.507  10.656  68.712  1.00  0.00    -0.183 C  
HETATM   10  C   UNL     1      -8.325  10.187  69.561  1.00  0.00    -0.168 C  
HETATM   11  S   UNL     1      -8.601   8.460  70.045  1.00  0.00    -0.134 SA 
HETATM   12  C   UNL     1     -10.351   8.542  70.154  1.00  0.00    -0.207 C  
HETATM   13  S   UNL     1     -11.022  10.050  69.543  1.00  0.00    -0.253 SA 
HETATM   14  C   UNL     1     -11.124   7.583  70.723  1.00  0.00    -0.265 C  
BRANCH  14  15
HETATM   15  C   UNL     1     -12.608   7.855  70.905  1.00  0.00     0.013 C  
HETATM   16  H2  UNL     1     -14.380   7.214  71.039  1.00  0.00     0.000 HD 
HETATM   17  N   UNL     1     -13.840   8.080  71.055  1.00  0.00    -0.581 NA 
HETATM   18  H1  UNL     1     -14.836   8.262  71.177  1.00  0.00     0.000 HD 
ENDBRANCH  14  15
BRANCH  14  19
HETATM   19  N   UNL     1     -10.680   6.344  71.244  1.00  0.00    -0.233 NA 
HETATM   20  C   UNL     1     -10.534   6.016  72.586  1.00  0.00    -0.205 A  
HETATM   21  C   UNL     1      -9.995   4.753  72.629  1.00  0.00    -0.164 A  
HETATM   22  N   UNL     1      -9.886   4.235  71.376  1.00  0.00    -0.187 NA 
HETATM   23  C   UNL     1     -10.327   5.183  70.577  1.00  0.00    -0.243 A  
ENDBRANCH  14  19
ENDBRANCH   6   9
TORSDOF 3
ENDMDL
MODEL       69
REMARK 921   NORMALIZED FREE ENERGY PREDICTED BY IDOCK:   -4.08 KCAL/MOL
REMARK 922        TOTAL FREE ENERGY PREDICTED BY IDOCK:   -4.97 KCAL/MOL
REMARK 923 INTER-LIGAND FREE ENERGY PREDICTED BY IDOCK:   -4.67 KCAL/MOL
REMARK 924 INTRA-LIGAND FREE ENERGY PREDICTED BY IDOCK:   -0.30 KCAL/MOL
REMARK 927      BINDING AFFINITY PREDICTED BY RF-SCORE:    0.00 PKD
ROOT
HETATM    1 CL   UNL     1      -6.439   5.426  65.673  1.00  0.00    -0.039 Cl 
HETATM    2  C   UNL     1      -7.090   6.677  66.655  1.00  0.00    -0.068 A  
HETATM    3  C   UNL     1      -7.626   6.376  67.902  1.00  0.00    -0.102 A  
HETATM    4  C   UNL     1      -8.162   7.397  68.696  1.00  0.00    -0.125 A  
HETATM    5 CL   UNL     1      -8.849   6.919  70.212  1.00  0.00    -0.148 Cl 
HETATM    6  C   UNL     1      -8.156   8.739  68.267  1.00  0.00    -0.114 A  
HETATM    7  C   UNL     1      -7.613   9.005  66.992  1.00  0.00    -0.091 A  
HETATM    8  C   UNL     1      -7.086   7.987  66.195  1.00  0.00    -0.062 A  
ENDROOT
BRANCH   6   9
HETATM    9  C   UNL     1      -8.763   9.841  69.135  1.00  0.00    -0.155 C  
HETATM   10  C   UNL     1     -10.290   9.797  69.199  1.00  0.00    -0.211 C  
HETATM   11  S   UNL     1     -10.962  10.656  67.749  1.00  0.00    -0.320 SA 
HETATM   12  C   UNL     1      -9.684  11.849  67.591  1.00  0.00    -0.185 C  
HETATM   13  S   UNL     1      -8.308  11.547  68.647  1.00  0.00    -0.080 SA 
HETATM   14  C   UNL     1      -9.761  12.948  66.798  1.00  0.00    -0.246 C  
BRANCH  14  15
HETATM   15  C   UNL     1      -8.656  13.987  66.883  1.00  0.00    -0.125 C  
HETATM   16  H2  UNL     1      -6.907  14.548  66.446  1.00  0.00     0.000 HD 
HETATM   17  N   UNL     1      -7.739  14.850  66.952  1.00  0.00    -0.298 NA 
HETATM   18  H1  UNL     1      -6.997  15.547  67.010  1.00  0.00     0.000 HD 
ENDBRANCH  14  15
BRANCH  14  19
HETATM   19  N   UNL     1     -10.821  13.279  65.922  1.00  0.00    -0.276 NA 
HETATM   20  C   UNL     1     -10.776  13.280  64.533  1.00  0.00    -0.411 A  
HETATM   21  C   UNL     1     -11.991  13.750  64.097  1.00  0.00    -0.432 A  
HETATM   22  N   UNL     1     -12.832  13.952  65.146  1.00  0.00    -0.748 NA 
HETATM   23  C   UNL     1     -12.127  13.637  66.211  1.00  0.00    -0.434 A  
ENDBRANCH  14  19
ENDBRANCH   6   9
TORSDOF 3
ENDMDL
MODEL       70
REMARK 921   NORMALIZED FREE ENERGY PREDICTED BY IDOCK:   -4.06 KCAL/MOL
REMARK 922        TOTAL FREE ENERGY PREDICTED BY IDOCK:   -4.94 KCAL/MOL
REMARK 923 INTER-LIGAND FREE ENERGY PREDICTED BY IDOCK:   -4.53 KCAL/MOL
REMARK 924 INTRA-LIGAND FREE ENERGY PREDICTED BY IDOCK:   -0.41 KCAL/MOL
REMARK 927      BINDING AFFINITY PREDICTED BY RF-SCORE:    0.00 PKD
ROOT
HETATM    1 CL   UNL     1      -7.267   8.490  63.587  1.00  0.00    -0.092 Cl 
HETATM    2  C   UNL     1      -7.679   7.639  65.022  1.00  0.00    -0.109 A  
HETATM    3  C   UNL     1      -7.890   6.266  64.980  1.00  0.00    -0.111 A  
HETATM    4  C   UNL     1      -8.232   5.576  66.150  1.00  0.00    -0.112 A  
HETATM    5 CL   UNL     1      -8.522   3.876  65.990  1.00  0.00    -0.109 Cl 
HETATM    6  C   UNL     1      -8.351   6.243  67.385  1.00  0.00    -0.109 A  
HETATM    7  C   UNL     1      -8.139   7.638  67.387  1.00  0.00    -0.119 A  
HETATM    8  C   UNL     1      -7.807   8.329  66.219  1.00  0.00    -0.098 A  
ENDROOT
BRANCH   6   9
HETATM    9  C   UNL     1      -8.747   5.482  68.651  1.00  0.00    -0.108 C  
HETATM   10  C   UNL     1     -10.225   5.097  68.696  1.00  0.00    -0.122 C  
HETATM   11  S   UNL     1     -11.180   6.507  69.322  1.00  0.00    -0.294 SA 
HETATM   12  C   UNL     1      -9.950   7.139  70.403  1.00  0.00    -0.187 C  
HETATM   13  S   UNL     1      -8.385   6.355  70.220  1.00  0.00    -0.127 SA 
HETATM   14  C   UNL     1     -10.180   8.084  71.349  1.00  0.00    -0.196 C  
BRANCH  14  15
HETATM   15  C   UNL     1      -9.070   8.420  72.331  1.00  0.00    -0.256 C  
HETATM   16  H2  UNL     1      -8.047   9.708  73.260  1.00  0.00     0.000 HD 
HETATM   17  N   UNL     1      -8.148   8.699  73.145  1.00  0.00    -0.415 NA 
HETATM   18  H1  UNL     1      -7.402   8.925  73.803  1.00  0.00     0.000 HD 
ENDBRANCH  14  15
BRANCH  14  19
HETATM   19  N   UNL     1     -11.398   8.768  71.576  1.00  0.00    -0.280 NA 
HETATM   20  C   UNL     1     -11.770   9.995  71.040  1.00  0.00    -0.392 A  
HETATM   21  C   UNL     1     -12.984  10.319  71.596  1.00  0.00    -0.465 A  
HETATM   22  N   UNL     1     -13.438   9.306  72.382  1.00  0.00    -0.471 NA 
HETATM   23  C   UNL     1     -12.497   8.387  72.328  1.00  0.00    -0.361 A  
ENDBRANCH  14  19
ENDBRANCH   6   9
TORSDOF 3
ENDMDL
MODEL       71
REMARK 921   NORMALIZED FREE ENERGY PREDICTED BY IDOCK:   -3.99 KCAL/MOL
REMARK 922        TOTAL FREE ENERGY PREDICTED BY IDOCK:   -4.86 KCAL/MOL
REMARK 923 INTER-LIGAND FREE ENERGY PREDICTED BY IDOCK:   -4.67 KCAL/MOL
REMARK 924 INTRA-LIGAND FREE ENERGY PREDICTED BY IDOCK:   -0.19 KCAL/MOL
REMARK 927      BINDING AFFINITY PREDICTED BY RF-SCORE:    0.00 PKD
ROOT
HETATM    1 CL   UNL     1     -11.308   6.413  72.246  1.00  0.00    -0.313 Cl 
HETATM    2  C   UNL     1     -10.997   7.161  70.731  1.00  0.00    -0.252 A  
HETATM    3  C   UNL     1     -11.065   6.417  69.559  1.00  0.00    -0.460 A  
HETATM    4  C   UNL     1     -10.805   7.028  68.327  1.00  0.00    -0.141 A  
HETATM    5 CL   UNL     1     -10.866   6.010  66.928  1.00  0.00    -0.401 Cl 
HETATM    6  C   UNL     1     -10.489   8.399  68.242  1.00  0.00    -0.214 A  
HETATM    7  C   UNL     1     -10.420   9.120  69.453  1.00  0.00    -0.226 A  
HETATM    8  C   UNL     1     -10.671   8.510  70.683  1.00  0.00    -0.251 A  
ENDROOT
BRANCH   6   9
HETATM    9  C   UNL     1     -10.186   9.050  66.892  1.00  0.00    -0.269 C  
HETATM   10  C   UNL     1      -8.696   9.293  66.651  1.00  0.00    -0.127 C  
HETATM   11  S   UNL     1      -8.221  10.856  67.441  1.00  0.00    -0.119 SA 
HETATM   12  C   UNL     1      -9.746  11.691  67.204  1.00  0.00    -0.181 C  
HETATM   13  S   UNL     1     -11.030  10.649  66.600  1.00  0.00     0.016 SA 
HETATM   14  C   UNL     1      -9.921  13.025  67.386  1.00  0.00    -0.228 C  
BRANCH  14  15
HETATM   15  C   UNL     1     -11.247  13.649  66.983  1.00  0.00    -0.312 C  
HETATM   16  H2  UNL     1     -13.036  13.452  66.413  1.00  0.00     0.000 HD 
HETATM   17  N   UNL     1     -12.347  14.166  66.649  1.00  0.00    -0.537 NA 
HETATM   18  H1  UNL     1     -13.237  14.585  66.378  1.00  0.00     0.000 HD 
ENDBRANCH  14  15
BRANCH  14  19
HETATM   19  N   UNL     1      -8.955  13.941  67.862  1.00  0.00    -0.181 NA 
HETATM   20  C   UNL     1      -8.911  14.515  69.127  1.00  0.00     0.034 A  
HETATM   21  C   UNL     1      -7.866  15.407  69.122  1.00  0.00    -0.212 A  
HETATM   22  N   UNL     1      -7.190  15.348  67.944  1.00  0.00    -0.132 NA 
HETATM   23  C   UNL     1      -7.834  14.451  67.228  1.00  0.00    -0.163 A  
ENDBRANCH  14  19
ENDBRANCH   6   9
TORSDOF 3
ENDMDL
MODEL       72
REMARK 921   NORMALIZED FREE ENERGY PREDICTED BY IDOCK:   -3.98 KCAL/MOL
REMARK 922        TOTAL FREE ENERGY PREDICTED BY IDOCK:   -4.86 KCAL/MOL
REMARK 923 INTER-LIGAND FREE ENERGY PREDICTED BY IDOCK:   -4.60 KCAL/MOL
REMARK 924 INTRA-LIGAND FREE ENERGY PREDICTED BY IDOCK:   -0.26 KCAL/MOL
REMARK 927      BINDING AFFINITY PREDICTED BY RF-SCORE:    0.00 PKD
ROOT
HETATM    1 CL   UNL     1     -12.885  15.673  70.464  1.00  0.00    -0.435 Cl 
HETATM    2  C   UNL     1     -11.915  14.662  69.468  1.00  0.00    -0.319 A  
HETATM    3  C   UNL     1     -11.353  15.167  68.302  1.00  0.00    -0.338 A  
HETATM    4  C   UNL     1     -10.569  14.339  67.489  1.00  0.00    -0.261 A  
HETATM    5 CL   UNL     1      -9.951  15.043  66.032  1.00  0.00    -0.311 Cl 
HETATM    6  C   UNL     1     -10.318  12.996  67.837  1.00  0.00    -0.233 A  
HETATM    7  C   UNL     1     -10.914  12.516  69.022  1.00  0.00    -0.237 A  
HETATM    8  C   UNL     1     -11.703  13.339  69.829  1.00  0.00    -0.354 A  
ENDROOT
BRANCH   6   9
HETATM    9  C   UNL     1      -9.479  12.096  66.930  1.00  0.00    -0.210 C  
HETATM   10  C   UNL     1     -10.313  11.144  66.072  1.00  0.00    -0.254 C  
HETATM   11  S   UNL     1     -10.715   9.672  67.054  1.00  0.00    -0.082 SA 
HETATM   12  C   UNL     1      -9.243   9.638  68.008  1.00  0.00    -0.125 C  
HETATM   13  S   UNL     1      -8.237  11.068  67.799  1.00  0.00    -0.120 SA 
HETATM   14  C   UNL     1      -8.858   8.588  68.778  1.00  0.00    -0.139 C  
BRANCH  14  15
HETATM   15  C   UNL     1      -7.480   8.620  69.418  1.00  0.00    -0.080 C  
HETATM   16  H2  UNL     1      -6.272   9.381  70.654  1.00  0.00     0.000 HD 
HETATM   17  N   UNL     1      -6.337   8.646  69.950  1.00  0.00    -0.037 NA 
HETATM   18  H1  UNL     1      -5.412   8.667  70.379  1.00  0.00     0.000 HD 
ENDBRANCH  14  15
BRANCH  14  19
HETATM   19  N   UNL     1      -9.590   7.400  69.006  1.00  0.00    -0.148 NA 
HETATM   20  C   UNL     1     -10.640   7.234  69.901  1.00  0.00    -0.231 A  
HETATM   21  C   UNL     1     -10.991   5.906  69.859  1.00  0.00    -0.374 A  
HETATM   22  N   UNL     1     -10.275   5.250  68.908  1.00  0.00    -0.192 NA 
HETATM   23  C   UNL     1      -9.476   6.162  68.396  1.00  0.00    -0.118 A  
ENDBRANCH  14  19
ENDBRANCH   6   9
TORSDOF 3
ENDMDL
MODEL       73
REMARK 921   NORMALIZED FREE ENERGY PREDICTED BY IDOCK:   -3.95 KCAL/MOL
REMARK 922        TOTAL FREE ENERGY PREDICTED BY IDOCK:   -4.82 KCAL/MOL
REMARK 923 INTER-LIGAND FREE ENERGY PREDICTED BY IDOCK:   -5.38 KCAL/MOL
REMARK 924 INTRA-LIGAND FREE ENERGY PREDICTED BY IDOCK:    0.56 KCAL/MOL
REMARK 927      BINDING AFFINITY PREDICTED BY RF-SCORE:    0.00 PKD
ROOT
HETATM    1 CL   UNL     1      -8.584  18.989  68.165  1.00  0.00    -0.341 Cl 
HETATM    2  C   UNL     1      -8.924  17.395  67.619  1.00  0.00    -0.233 A  
HETATM    3  C   UNL     1      -7.950  16.407  67.704  1.00  0.00    -0.165 A  
HETATM    4  C   UNL     1      -8.227  15.112  67.252  1.00  0.00    -0.208 A  
HETATM    5 CL   UNL     1      -6.937  13.962  67.355  1.00  0.00    -0.155 Cl 
HETATM    6  C   UNL     1      -9.490  14.775  66.723  1.00  0.00    -0.271 A  
HETATM    7  C   UNL     1     -10.450  15.806  66.643  1.00  0.00    -0.302 A  
HETATM    8  C   UNL     1     -10.171  17.101  67.086  1.00  0.00    -0.316 A  
ENDROOT
BRANCH   6   9
HETATM    9  C   UNL     1      -9.773  13.363  66.213  1.00  0.00    -0.272 C  
HETATM   10  C   UNL     1     -11.264  13.050  66.076  1.00  0.00    -0.292 C  
HETATM   11  S   UNL     1     -11.904  12.527  67.691  1.00  0.00    -0.237 SA 
HETATM   12  C   UNL     1     -10.441  11.743  68.261  1.00  0.00    -0.206 C  
HETATM   13  S   UNL     1      -9.047  12.017  67.221  1.00  0.00    -0.184 SA 
HETATM   14  C   UNL     1     -10.384  10.935  69.350  1.00  0.00    -0.145 C  
BRANCH  14  15
HETATM   15  C   UNL     1      -9.094  10.185  69.635  1.00  0.00    -0.174 C  
HETATM   16  H2  UNL     1      -8.149   8.882  70.623  1.00  0.00     0.000 HD 
HETATM   17  N   UNL     1      -8.024   9.562  69.873  1.00  0.00    -0.130 NA 
HETATM   18  H1  UNL     1      -7.158   9.059  70.065  1.00  0.00     0.000 HD 
ENDBRANCH  14  15
BRANCH  14  19
HETATM   19  N   UNL     1     -11.445  10.651  70.241  1.00  0.00    -0.318 NA 
HETATM   20  C   UNL     1     -12.345  11.565  70.774  1.00  0.00    -0.375 A  
HETATM   21  C   UNL     1     -13.141  10.872  71.655  1.00  0.00    -0.433 A  
HETATM   22  N   UNL     1     -12.845   9.545  71.626  1.00  0.00    -0.364 NA 
HETATM   23  C   UNL     1     -11.861   9.436  70.760  1.00  0.00    -0.256 A  
ENDBRANCH  14  19
ENDBRANCH   6   9
TORSDOF 3
ENDMDL
MODEL       74
REMARK 921   NORMALIZED FREE ENERGY PREDICTED BY IDOCK:   -3.94 KCAL/MOL
REMARK 922        TOTAL FREE ENERGY PREDICTED BY IDOCK:   -4.80 KCAL/MOL
REMARK 923 INTER-LIGAND FREE ENERGY PREDICTED BY IDOCK:   -4.55 KCAL/MOL
REMARK 924 INTRA-LIGAND FREE ENERGY PREDICTED BY IDOCK:   -0.25 KCAL/MOL
REMARK 927      BINDING AFFINITY PREDICTED BY RF-SCORE:    0.00 PKD
ROOT
HETATM    1 CL   UNL     1     -10.578  10.846  64.297  1.00  0.00    -0.414 Cl 
HETATM    2  C   UNL     1     -10.154  10.548  65.936  1.00  0.00    -0.260 A  
HETATM    3  C   UNL     1     -10.864  11.161  66.961  1.00  0.00    -0.338 A  
HETATM    4  C   UNL     1     -10.511  10.923  68.295  1.00  0.00    -0.179 A  
HETATM    5 CL   UNL     1     -11.421  11.768  69.501  1.00  0.00    -0.355 Cl 
HETATM    6  C   UNL     1      -9.454  10.052  68.628  1.00  0.00    -0.156 A  
HETATM    7  C   UNL     1      -8.750   9.456  67.561  1.00  0.00    -0.123 A  
HETATM    8  C   UNL     1      -9.095   9.700  66.230  1.00  0.00    -0.197 A  
ENDROOT
BRANCH   6   9
HETATM    9  C   UNL     1      -9.064   9.816  70.088  1.00  0.00    -0.197 C  
HETATM   10  C   UNL     1      -7.698   9.153  70.256  1.00  0.00    -0.113 C  
HETATM   11  S   UNL     1      -7.893   7.357  70.084  1.00  0.00    -0.100 SA 
HETATM   12  C   UNL     1      -9.504   7.247  70.771  1.00  0.00    -0.164 C  
HETATM   13  S   UNL     1     -10.256   8.814  71.052  1.00  0.00    -0.260 SA 
HETATM   14  C   UNL     1     -10.100   6.083  71.133  1.00  0.00    -0.194 C  
BRANCH  14  15
HETATM   15  C   UNL     1     -11.427   6.141  71.871  1.00  0.00    -0.300 C  
HETATM   16  H2  UNL     1     -12.454   5.770  73.412  1.00  0.00     0.000 HD 
HETATM   17  N   UNL     1     -12.527   6.189  72.485  1.00  0.00    -0.533 NA 
HETATM   18  H1  UNL     1     -13.418   6.227  72.980  1.00  0.00     0.000 HD 
ENDBRANCH  14  15
BRANCH  14  19
HETATM   19  N   UNL     1      -9.578   4.780  70.953  1.00  0.00    -0.164 NA 
HETATM   20  C   UNL     1      -9.594   4.038  69.778  1.00  0.00    -0.210 A  
HETATM   21  C   UNL     1      -9.067   2.805  70.080  1.00  0.00    -0.118 A  
HETATM   22  N   UNL     1      -8.632   2.773  71.368  1.00  0.00    -0.063 NA 
HETATM   23  C   UNL     1      -8.917   3.962  71.853  1.00  0.00    -0.114 A  
ENDBRANCH  14  19
ENDBRANCH   6   9
TORSDOF 3
ENDMDL
MODEL       75
REMARK 921   NORMALIZED FREE ENERGY PREDICTED BY IDOCK:   -3.93 KCAL/MOL
REMARK 922        TOTAL FREE ENERGY PREDICTED BY IDOCK:   -4.79 KCAL/MOL
REMARK 923 INTER-LIGAND FREE ENERGY PREDICTED BY IDOCK:   -4.60 KCAL/MOL
REMARK 924 INTRA-LIGAND FREE ENERGY PREDICTED BY IDOCK:   -0.18 KCAL/MOL
REMARK 927      BINDING AFFINITY PREDICTED BY RF-SCORE:    0.00 PKD
ROOT
HETATM    1 CL   UNL     1     -13.376  15.322  71.112  1.00  0.00    -0.541 Cl 
HETATM    2  C   UNL     1     -12.433  14.079  70.392  1.00  0.00    -0.350 A  
HETATM    3  C   UNL     1     -11.564  14.380  69.350  1.00  0.00    -0.349 A  
HETATM    4  C   UNL     1     -10.802  13.363  68.761  1.00  0.00    -0.246 A  
HETATM    5 CL   UNL     1      -9.785  13.825  67.438  1.00  0.00    -0.230 Cl 
HETATM    6  C   UNL     1     -10.881  12.032  69.215  1.00  0.00    -0.130 A  
HETATM    7  C   UNL     1     -11.781  11.763  70.268  1.00  0.00    -0.317 A  
HETATM    8  C   UNL     1     -12.548  12.774  70.851  1.00  0.00    -0.342 A  
ENDROOT
BRANCH   6   9
HETATM    9  C   UNL     1     -10.060  10.927  68.550  1.00  0.00    -0.183 C  
HETATM   10  C   UNL     1     -10.876   9.682  68.205  1.00  0.00    -0.190 C  
HETATM   11  S   UNL     1     -10.985   8.626  69.677  1.00  0.00    -0.013 SA 
HETATM   12  C   UNL     1      -9.414   9.027  70.348  1.00  0.00    -0.210 C  
HETATM   13  S   UNL     1      -8.612  10.354  69.514  1.00  0.00    -0.025 SA 
HETATM   14  C   UNL     1      -8.820   8.343  71.359  1.00  0.00    -0.181 C  
BRANCH  14  15
HETATM   15  C   UNL     1      -7.388   8.688  71.731  1.00  0.00    -0.080 C  
HETATM   16  H2  UNL     1      -5.761   9.558  71.326  1.00  0.00     0.000 HD 
HETATM   17  N   UNL     1      -6.199   8.974  72.039  1.00  0.00    -0.186 NA 
HETATM   18  H1  UNL     1      -5.238   9.206  72.288  1.00  0.00     0.000 HD 
ENDBRANCH  14  15
BRANCH  14  19
HETATM   19  N   UNL     1      -9.379   7.266  72.086  1.00  0.00    -0.136 NA 
HETATM   20  C   UNL     1      -9.216   5.912  71.815  1.00  0.00    -0.148 A  
HETATM   21  C   UNL     1     -10.003   5.231  72.712  1.00  0.00    -0.160 A  
HETATM   22  N   UNL     1     -10.576   6.089  73.596  1.00  0.00    -0.266 NA 
HETATM   23  C   UNL     1     -10.167   7.283  73.224  1.00  0.00    -0.319 A  
ENDBRANCH  14  19
ENDBRANCH   6   9
TORSDOF 3
ENDMDL
MODEL       76
REMARK 921   NORMALIZED FREE ENERGY PREDICTED BY IDOCK:   -3.88 KCAL/MOL
REMARK 922        TOTAL FREE ENERGY PREDICTED BY IDOCK:   -4.74 KCAL/MOL
REMARK 923 INTER-LIGAND FREE ENERGY PREDICTED BY IDOCK:   -4.51 KCAL/MOL
REMARK 924 INTRA-LIGAND FREE ENERGY PREDICTED BY IDOCK:   -0.23 KCAL/MOL
REMARK 927      BINDING AFFINITY PREDICTED BY RF-SCORE:    0.00 PKD
ROOT
HETATM    1 CL   UNL     1      -9.646   2.664  68.884  1.00  0.00    -0.150 Cl 
HETATM    2  C   UNL     1      -9.537   4.195  69.658  1.00  0.00    -0.207 A  
HETATM    3  C   UNL     1      -9.997   4.351  70.960  1.00  0.00    -0.242 A  
HETATM    4  C   UNL     1      -9.914   5.601  71.585  1.00  0.00    -0.174 A  
HETATM    5 CL   UNL     1     -10.555   5.710  73.190  1.00  0.00    -0.256 Cl 
HETATM    6  C   UNL     1      -9.353   6.713  70.926  1.00  0.00    -0.159 A  
HETATM    7  C   UNL     1      -8.906   6.519  69.602  1.00  0.00    -0.138 A  
HETATM    8  C   UNL     1      -8.997   5.275  68.974  1.00  0.00    -0.126 A  
ENDROOT
BRANCH   6   9
HETATM    9  C   UNL     1      -9.287   8.078  71.612  1.00  0.00    -0.160 C  
HETATM   10  C   UNL     1     -10.655   8.736  71.797  1.00  0.00    -0.347 C  
HETATM   11  S   UNL     1     -11.103   9.598  70.265  1.00  0.00    -0.293 SA 
HETATM   12  C   UNL     1      -9.477  10.053  69.787  1.00  0.00    -0.207 C  
HETATM   13  S   UNL     1      -8.222   9.311  70.775  1.00  0.00    -0.117 SA 
HETATM   14  C   UNL     1      -9.193  10.949  68.808  1.00  0.00    -0.183 C  
BRANCH  14  15
HETATM   15  C   UNL     1      -7.749  11.380  68.610  1.00  0.00    -0.137 C  
HETATM   16  H2  UNL     1      -6.340  11.884  67.458  1.00  0.00     0.000 HD 
HETATM   17  N   UNL     1      -6.551  11.738  68.446  1.00  0.00    -0.053 NA 
HETATM   18  H1  UNL     1      -5.582  12.027  68.313  1.00  0.00     0.000 HD 
ENDBRANCH  14  15
BRANCH  14  19
HETATM   19  N   UNL     1     -10.126  11.598  67.967  1.00  0.00    -0.184 NA 
HETATM   20  C   UNL     1     -10.253  12.968  67.774  1.00  0.00    -0.228 A  
HETATM   21  C   UNL     1     -11.338  13.155  66.953  1.00  0.00    -0.318 A  
HETATM   22  N   UNL     1     -11.840  11.960  66.542  1.00  0.00    -0.570 NA 
HETATM   23  C   UNL     1     -11.087  11.055  67.130  1.00  0.00    -0.267 A  
ENDBRANCH  14  19
ENDBRANCH   6   9
TORSDOF 3
ENDMDL
MODEL       77
REMARK 921   NORMALIZED FREE ENERGY PREDICTED BY IDOCK:   -3.87 KCAL/MOL
REMARK 922        TOTAL FREE ENERGY PREDICTED BY IDOCK:   -4.72 KCAL/MOL
REMARK 923 INTER-LIGAND FREE ENERGY PREDICTED BY IDOCK:   -4.54 KCAL/MOL
REMARK 924 INTRA-LIGAND FREE ENERGY PREDICTED BY IDOCK:   -0.18 KCAL/MOL
REMARK 927      BINDING AFFINITY PREDICTED BY RF-SCORE:    0.00 PKD
ROOT
HETATM    1 CL   UNL     1     -11.611  16.461  68.594  1.00  0.00    -0.238 Cl 
HETATM    2  C   UNL     1     -10.810  14.964  68.327  1.00  0.00    -0.257 A  
HETATM    3  C   UNL     1      -9.426  14.925  68.212  1.00  0.00    -0.210 A  
HETATM    4  C   UNL     1      -8.777  13.705  67.987  1.00  0.00    -0.176 A  
HETATM    5 CL   UNL     1      -7.056  13.763  67.810  1.00  0.00    -0.156 Cl 
HETATM    6  C   UNL     1      -9.499  12.499  67.891  1.00  0.00    -0.196 A  
HETATM    7  C   UNL     1     -10.904  12.578  68.003  1.00  0.00    -0.252 A  
HETATM    8  C   UNL     1     -11.553  13.796  68.218  1.00  0.00    -0.373 A  
ENDROOT
BRANCH   6   9
HETATM    9  C   UNL     1      -8.782  11.175  67.624  1.00  0.00    -0.129 C  
HETATM   10  C   UNL     1      -9.689  10.096  67.033  1.00  0.00    -0.180 C  
HETATM   11  S   UNL     1     -10.574   9.270  68.384  1.00  0.00    -0.152 SA 
HETATM   12  C   UNL     1      -9.308   9.410  69.592  1.00  0.00    -0.189 C  
HETATM   13  S   UNL     1      -7.966  10.431  69.086  1.00  0.00    -0.150 SA 
HETATM   14  C   UNL     1      -9.305   8.743  70.773  1.00  0.00    -0.208 C  
BRANCH  14  15
HETATM   15  C   UNL     1      -8.068   8.822  71.653  1.00  0.00    -0.096 C  
HETATM   16  H2  UNL     1      -6.362   8.169  72.132  1.00  0.00     0.000 HD 
HETATM   17  N   UNL     1      -7.042   8.888  72.382  1.00  0.00    -0.329 NA 
HETATM   18  H1  UNL     1      -6.212   8.941  72.973  1.00  0.00     0.000 HD 
ENDBRANCH  14  15
BRANCH  14  19
HETATM   19  N   UNL     1     -10.329   7.900  71.265  1.00  0.00    -0.191 NA 
HETATM   20  C   UNL     1     -10.219   6.545  71.551  1.00  0.00    -0.192 A  
HETATM   21  C   UNL     1     -11.472   6.113  71.914  1.00  0.00    -0.300 A  
HETATM   22  N   UNL     1     -12.343   7.156  71.963  1.00  0.00    -0.291 NA 
HETATM   23  C   UNL     1     -11.636   8.206  71.605  1.00  0.00    -0.279 A  
ENDBRANCH  14  19
ENDBRANCH   6   9
TORSDOF 3
ENDMDL
MODEL       78
REMARK 921   NORMALIZED FREE ENERGY PREDICTED BY IDOCK:   -3.85 KCAL/MOL
REMARK 922        TOTAL FREE ENERGY PREDICTED BY IDOCK:   -4.70 KCAL/MOL
REMARK 923 INTER-LIGAND FREE ENERGY PREDICTED BY IDOCK:   -4.37 KCAL/MOL
REMARK 924 INTRA-LIGAND FREE ENERGY PREDICTED BY IDOCK:   -0.32 KCAL/MOL
REMARK 927      BINDING AFFINITY PREDICTED BY RF-SCORE:    0.00 PKD
ROOT
HETATM    1 CL   UNL     1     -14.087   8.914  71.722  1.00  0.00    -0.436 Cl 
HETATM    2  C   UNL     1     -12.643   7.991  71.602  1.00  0.00    -0.322 A  
HETATM    3  C   UNL     1     -11.590   8.228  72.478  1.00  0.00    -0.454 A  
HETATM    4  C   UNL     1     -10.412   7.479  72.373  1.00  0.00    -0.243 A  
HETATM    5 CL   UNL     1      -9.139   7.878  73.477  1.00  0.00    -0.337 Cl 
HETATM    6  C   UNL     1     -10.271   6.468  71.402  1.00  0.00    -0.221 A  
HETATM    7  C   UNL     1     -11.356   6.263  70.524  1.00  0.00    -0.428 A  
HETATM    8  C   UNL     1     -12.529   7.015  70.622  1.00  0.00    -0.173 A  
ENDROOT
BRANCH   6   9
HETATM    9  C   UNL     1      -8.971   5.672  71.283  1.00  0.00    -0.139 C  
HETATM   10  C   UNL     1      -7.812   6.477  70.697  1.00  0.00    -0.106 C  
HETATM   11  S   UNL     1      -7.927   6.437  68.886  1.00  0.00    -0.111 SA 
HETATM   12  C   UNL     1      -8.617   4.829  68.748  1.00  0.00    -0.088 C  
HETATM   13  S   UNL     1      -9.095   4.135  70.294  1.00  0.00    -0.119 SA 
HETATM   14  C   UNL     1      -8.708   4.137  67.584  1.00  0.00    -0.107 C  
BRANCH  14  15
HETATM   15  C   UNL     1      -9.169   2.690  67.630  1.00  0.00    -0.190 C  
HETATM   16  H2  UNL     1      -9.780   1.143  66.736  1.00  0.00     0.000 HD 
HETATM   17  N   UNL     1      -9.551   1.489  67.668  1.00  0.00    -0.393 NA 
HETATM   18  H1  UNL     1      -9.861   0.518  67.699  1.00  0.00     0.000 HD 
ENDBRANCH  14  15
BRANCH  14  19
HETATM   19  N   UNL     1      -8.348   4.604  66.298  1.00  0.00    -0.110 NA 
HETATM   20  C   UNL     1      -7.058   4.795  65.819  1.00  0.00    -0.067 A  
HETATM   21  C   UNL     1      -7.178   5.343  64.564  1.00  0.00    -0.055 A  
HETATM   22  N   UNL     1      -8.485   5.414  64.195  1.00  0.00    -0.120 NA 
HETATM   23  C   UNL     1      -9.155   4.943  65.225  1.00  0.00    -0.153 A  
ENDBRANCH  14  19
ENDBRANCH   6   9
TORSDOF 3
ENDMDL
MODEL       79
REMARK 921   NORMALIZED FREE ENERGY PREDICTED BY IDOCK:   -3.85 KCAL/MOL
REMARK 922        TOTAL FREE ENERGY PREDICTED BY IDOCK:   -4.69 KCAL/MOL
REMARK 923 INTER-LIGAND FREE ENERGY PREDICTED BY IDOCK:   -4.48 KCAL/MOL
REMARK 924 INTRA-LIGAND FREE ENERGY PREDICTED BY IDOCK:   -0.22 KCAL/MOL
REMARK 927      BINDING AFFINITY PREDICTED BY RF-SCORE:    0.00 PKD
ROOT
HETATM    1 CL   UNL     1     -13.836   8.562  72.880  1.00  0.00    -0.099 Cl 
HETATM    2  C   UNL     1     -12.642   8.421  71.651  1.00  0.00    -0.332 A  
HETATM    3  C   UNL     1     -12.218   7.165  71.233  1.00  0.00    -0.403 A  
HETATM    4  C   UNL     1     -11.241   7.054  70.237  1.00  0.00    -0.298 A  
HETATM    5 CL   UNL     1     -10.742   5.450  69.815  1.00  0.00    -0.354 Cl 
HETATM    6  C   UNL     1     -10.683   8.196  69.628  1.00  0.00    -0.196 A  
HETATM    7  C   UNL     1     -11.130   9.453  70.086  1.00  0.00    -0.277 A  
HETATM    8  C   UNL     1     -12.099   9.566  71.086  1.00  0.00    -0.429 A  
ENDROOT
BRANCH   6   9
HETATM    9  C   UNL     1      -9.600   8.062  68.557  1.00  0.00    -0.155 C  
HETATM   10  C   UNL     1      -8.179   8.207  69.101  1.00  0.00    -0.123 C  
HETATM   11  S   UNL     1      -7.769   9.971  69.205  1.00  0.00    -0.131 SA 
HETATM   12  C   UNL     1      -8.707  10.495  67.818  1.00  0.00    -0.122 C  
HETATM   13  S   UNL     1      -9.748   9.237  67.159  1.00  0.00    -0.185 SA 
HETATM   14  C   UNL     1      -8.598  11.719  67.242  1.00  0.00    -0.162 C  
BRANCH  14  15
HETATM   15  C   UNL     1      -9.343  11.985  65.945  1.00  0.00    -0.157 C  
HETATM   16  H2  UNL     1      -9.809  11.456  64.193  1.00  0.00     0.000 HD 
HETATM   17  N   UNL     1      -9.962  12.205  64.868  1.00  0.00    -0.369 NA 
HETATM   18  H1  UNL     1     -10.462  12.383  63.997  1.00  0.00     0.000 HD 
ENDBRANCH  14  15
BRANCH  14  19
HETATM   19  N   UNL     1      -7.791  12.790  67.692  1.00  0.00    -0.152 NA 
HETATM   20  C   UNL     1      -6.405  12.868  67.621  1.00  0.00    -0.158 A  
HETATM   21  C   UNL     1      -6.040  14.032  68.254  1.00  0.00    -0.117 A  
HETATM   22  N   UNL     1      -7.140  14.737  68.633  1.00  0.00    -0.106 NA 
HETATM   23  C   UNL     1      -8.162  13.996  68.262  1.00  0.00    -0.153 A  
ENDBRANCH  14  19
ENDBRANCH   6   9
TORSDOF 3
ENDMDL
MODEL       80
REMARK 921   NORMALIZED FREE ENERGY PREDICTED BY IDOCK:   -3.82 KCAL/MOL
REMARK 922        TOTAL FREE ENERGY PREDICTED BY IDOCK:   -4.67 KCAL/MOL
REMARK 923 INTER-LIGAND FREE ENERGY PREDICTED BY IDOCK:   -4.38 KCAL/MOL
REMARK 924 INTRA-LIGAND FREE ENERGY PREDICTED BY IDOCK:   -0.29 KCAL/MOL
REMARK 927      BINDING AFFINITY PREDICTED BY RF-SCORE:    0.00 PKD
ROOT
HETATM    1 CL   UNL     1     -10.866  14.166  68.279  1.00  0.00    -0.249 Cl 
HETATM    2  C   UNL     1     -11.145  12.625  68.986  1.00  0.00    -0.238 A  
HETATM    3  C   UNL     1     -12.036  12.496  70.045  1.00  0.00    -0.372 A  
HETATM    4  C   UNL     1     -12.255  11.240  70.623  1.00  0.00    -0.393 A  
HETATM    5 CL   UNL     1     -13.346  11.185  71.968  1.00  0.00    -0.506 Cl 
HETATM    6  C   UNL     1     -11.602  10.087  70.142  1.00  0.00    -0.320 A  
HETATM    7  C   UNL     1     -10.698  10.259  69.072  1.00  0.00    -0.257 A  
HETATM    8  C   UNL     1     -10.471  11.513  68.500  1.00  0.00    -0.228 A  
ENDROOT
BRANCH   6   9
HETATM    9  C   UNL     1     -11.834   8.725  70.796  1.00  0.00    -0.178 C  
HETATM   10  C   UNL     1     -11.466   8.688  72.279  1.00  0.00    -0.353 C  
HETATM   11  S   UNL     1      -9.683   8.388  72.433  1.00  0.00    -0.295 SA 
HETATM   12  C   UNL     1      -9.509   7.379  71.007  1.00  0.00    -0.157 C  
HETATM   13  S   UNL     1     -10.954   7.329  70.003  1.00  0.00    -0.234 SA 
HETATM   14  C   UNL     1      -8.407   6.639  70.728  1.00  0.00    -0.129 C  
BRANCH  14  15
HETATM   15  C   UNL     1      -8.452   5.679  69.550  1.00  0.00    -0.110 C  
HETATM   16  H2  UNL     1      -8.726   3.937  68.875  1.00  0.00     0.000 HD 
HETATM   17  N   UNL     1      -8.489   4.882  68.574  1.00  0.00    -0.094 NA 
HETATM   18  H1  UNL     1      -8.519   4.238  67.784  1.00  0.00     0.000 HD 
ENDBRANCH  14  15
BRANCH  14  19
HETATM   19  N   UNL     1      -7.204   6.609  71.471  1.00  0.00    -0.080 NA 
HETATM   20  C   UNL     1      -6.861   5.688  72.454  1.00  0.00    -0.077 A  
HETATM   21  C   UNL     1      -5.653   6.089  72.970  1.00  0.00    -0.036 A  
HETATM   22  N   UNL     1      -5.174   7.165  72.290  1.00  0.00    -0.036 NA 
HETATM   23  C   UNL     1      -6.095   7.434  71.389  1.00  0.00    -0.036 A  
ENDBRANCH  14  19
ENDBRANCH   6   9
TORSDOF 3
ENDMDL
MODEL       81
REMARK 921   NORMALIZED FREE ENERGY PREDICTED BY IDOCK:   -3.82 KCAL/MOL
REMARK 922        TOTAL FREE ENERGY PREDICTED BY IDOCK:   -4.66 KCAL/MOL
REMARK 923 INTER-LIGAND FREE ENERGY PREDICTED BY IDOCK:   -5.31 KCAL/MOL
REMARK 924 INTRA-LIGAND FREE ENERGY PREDICTED BY IDOCK:    0.65 KCAL/MOL
REMARK 927      BINDING AFFINITY PREDICTED BY RF-SCORE:    0.00 PKD
ROOT
HETATM    1 CL   UNL     1     -10.395  18.796  66.391  1.00  0.00    -0.458 Cl 
HETATM    2  C   UNL     1     -10.199  17.102  66.173  1.00  0.00    -0.334 A  
HETATM    3  C   UNL     1      -9.148  16.437  66.793  1.00  0.00    -0.259 A  
HETATM    4  C   UNL     1      -8.987  15.059  66.607  1.00  0.00    -0.281 A  
HETATM    5 CL   UNL     1      -7.621  14.327  67.381  1.00  0.00    -0.203 Cl 
HETATM    6  C   UNL     1      -9.884  14.317  65.814  1.00  0.00    -0.314 A  
HETATM    7  C   UNL     1     -10.933  15.028  65.192  1.00  0.00    -0.417 A  
HETATM    8  C   UNL     1     -11.090  16.404  65.369  1.00  0.00    -0.055 A  
ENDROOT
BRANCH   6   9
HETATM    9  C   UNL     1      -9.686  12.816  65.602  1.00  0.00    -0.120 C  
HETATM   10  C   UNL     1     -10.995  12.042  65.447  1.00  0.00    -0.300 C  
HETATM   11  S   UNL     1     -11.647  11.658  67.097  1.00  0.00    -0.119 SA 
HETATM   12  C   UNL     1     -10.099  11.482  67.906  1.00  0.00    -0.189 C  
HETATM   13  S   UNL     1      -8.729  11.971  66.915  1.00  0.00    -0.189 SA 
HETATM   14  C   UNL     1      -9.944  10.947  69.144  1.00  0.00    -0.161 C  
BRANCH  14  15
HETATM   15  C   UNL     1      -8.536  10.696  69.658  1.00  0.00     0.126 C  
HETATM   16  H2  UNL     1      -7.113  11.159  70.810  1.00  0.00     0.000 HD 
HETATM   17  N   UNL     1      -7.368  10.488  70.086  1.00  0.00    -0.414 NA 
HETATM   18  H1  UNL     1      -6.423  10.319  70.431  1.00  0.00     0.000 HD 
ENDBRANCH  14  15
BRANCH  14  19
HETATM   19  N   UNL     1     -10.977  10.523  70.012  1.00  0.00    -0.291 NA 
HETATM   20  C   UNL     1     -11.159   9.240  70.515  1.00  0.00    -0.265 A  
HETATM   21  C   UNL     1     -12.329   9.260  71.236  1.00  0.00    -0.328 A  
HETATM   22  N   UNL     1     -12.839  10.519  71.288  1.00  0.00    -0.397 NA 
HETATM   23  C   UNL     1     -12.005  11.253  70.583  1.00  0.00    -0.336 A  
ENDBRANCH  14  19
ENDBRANCH   6   9
TORSDOF 3
ENDMDL
MODEL       82
REMARK 921   NORMALIZED FREE ENERGY PREDICTED BY IDOCK:   -3.81 KCAL/MOL
REMARK 922        TOTAL FREE ENERGY PREDICTED BY IDOCK:   -4.65 KCAL/MOL
REMARK 923 INTER-LIGAND FREE ENERGY PREDICTED BY IDOCK:   -4.41 KCAL/MOL
REMARK 924 INTRA-LIGAND FREE ENERGY PREDICTED BY IDOCK:   -0.24 KCAL/MOL
REMARK 927      BINDING AFFINITY PREDICTED BY RF-SCORE:    0.00 PKD
ROOT
HETATM    1 CL   UNL     1      -5.734   6.993  70.760  1.00  0.00    -0.027 Cl 
HETATM    2  C   UNL     1      -7.055   7.619  69.857  1.00  0.00    -0.063 A  
HETATM    3  C   UNL     1      -8.357   7.265  70.191  1.00  0.00    -0.137 A  
HETATM    4  C   UNL     1      -9.431   7.771  69.449  1.00  0.00    -0.156 A  
HETATM    5 CL   UNL     1     -11.012   7.237  69.910  1.00  0.00    -0.273 Cl 
HETATM    6  C   UNL     1      -9.224   8.654  68.371  1.00  0.00    -0.138 A  
HETATM    7  C   UNL     1      -7.889   8.983  68.054  1.00  0.00    -0.101 A  
HETATM    8  C   UNL     1      -6.816   8.472  68.789  1.00  0.00    -0.062 A  
ENDROOT
BRANCH   6   9
HETATM    9  C   UNL     1     -10.404   9.183  67.554  1.00  0.00    -0.261 C  
HETATM   10  C   UNL     1     -10.026   9.600  66.133  1.00  0.00    -0.276 C  
HETATM   11  S   UNL     1      -9.375  11.293  66.171  1.00  0.00    -0.216 SA 
HETATM   12  C   UNL     1     -10.369  11.877  67.495  1.00  0.00    -0.200 C  
HETATM   13  S   UNL     1     -11.283  10.606  68.300  1.00  0.00    -0.290 SA 
HETATM   14  C   UNL     1     -10.499  13.186  67.831  1.00  0.00    -0.240 C  
BRANCH  14  15
HETATM   15  C   UNL     1     -11.522  13.570  68.887  1.00  0.00    -0.306 C  
HETATM   16  H2  UNL     1     -11.978  13.818  70.702  1.00  0.00     0.000 HD 
HETATM   17  N   UNL     1     -12.370  13.890  69.763  1.00  0.00    -0.316 NA 
HETATM   18  H1  UNL     1     -13.057  14.147  70.472  1.00  0.00     0.000 HD 
ENDBRANCH  14  15
BRANCH  14  19
HETATM   19  N   UNL     1      -9.814  14.276  67.243  1.00  0.00    -0.241 NA 
HETATM   20  C   UNL     1     -10.359  15.238  66.402  1.00  0.00    -0.289 A  
HETATM   21  C   UNL     1      -9.322  16.045  65.999  1.00  0.00    -0.345 A  
HETATM   22  N   UNL     1      -8.168  15.693  66.626  1.00  0.00    -0.268 NA 
HETATM   23  C   UNL     1      -8.492  14.664  67.380  1.00  0.00    -0.204 A  
ENDBRANCH  14  19
ENDBRANCH   6   9
TORSDOF 3
ENDMDL
MODEL       83
REMARK 921   NORMALIZED FREE ENERGY PREDICTED BY IDOCK:   -3.81 KCAL/MOL
REMARK 922        TOTAL FREE ENERGY PREDICTED BY IDOCK:   -4.65 KCAL/MOL
REMARK 923 INTER-LIGAND FREE ENERGY PREDICTED BY IDOCK:   -4.41 KCAL/MOL
REMARK 924 INTRA-LIGAND FREE ENERGY PREDICTED BY IDOCK:   -0.24 KCAL/MOL
REMARK 927      BINDING AFFINITY PREDICTED BY RF-SCORE:    0.00 PKD
ROOT
HETATM    1 CL   UNL     1      -7.407  16.549  69.151  1.00  0.00    -0.225 Cl 
HETATM    2  C   UNL     1      -7.814  14.998  68.531  1.00  0.00    -0.137 A  
HETATM    3  C   UNL     1      -6.821  14.168  68.025  1.00  0.00    -0.149 A  
HETATM    4  C   UNL     1      -7.156  12.909  67.514  1.00  0.00    -0.152 A  
HETATM    5 CL   UNL     1      -5.858  11.966  66.861  1.00  0.00    -0.147 Cl 
HETATM    6  C   UNL     1      -8.488  12.448  67.517  1.00  0.00    -0.175 A  
HETATM    7  C   UNL     1      -9.470  13.322  68.029  1.00  0.00    -0.219 A  
HETATM    8  C   UNL     1      -9.138  14.582  68.531  1.00  0.00    -0.190 A  
ENDROOT
BRANCH   6   9
HETATM    9  C   UNL     1      -8.844  11.080  66.936  1.00  0.00    -0.149 C  
HETATM   10  C   UNL     1     -10.340  10.896  66.677  1.00  0.00    -0.239 C  
HETATM   11  S   UNL     1     -11.144  10.381  68.219  1.00  0.00    -0.263 SA 
HETATM   12  C   UNL     1      -9.798   9.462  68.870  1.00  0.00    -0.171 C  
HETATM   13  S   UNL     1      -8.309   9.649  67.948  1.00  0.00    -0.118 SA 
HETATM   14  C   UNL     1      -9.891   8.620  69.930  1.00  0.00    -0.183 C  
BRANCH  14  15
HETATM   15  C   UNL     1      -8.692   7.757  70.285  1.00  0.00    -0.143 C  
HETATM   16  H2  UNL     1      -7.432   6.436  69.801  1.00  0.00     0.000 HD 
HETATM   17  N   UNL     1      -7.697   7.041  70.579  1.00  0.00    -0.094 NA 
HETATM   18  H1  UNL     1      -6.892   6.461  70.817  1.00  0.00     0.000 HD 
ENDBRANCH  14  15
BRANCH  14  19
HETATM   19  N   UNL     1     -11.038   8.399  70.729  1.00  0.00    -0.254 NA 
HETATM   20  C   UNL     1     -11.844   7.267  70.722  1.00  0.00    -0.288 A  
HETATM   21  C   UNL     1     -12.887   7.519  71.581  1.00  0.00    -0.358 A  
HETATM   22  N   UNL     1     -12.720   8.718  72.200  1.00  0.00    -0.375 NA 
HETATM   23  C   UNL     1     -11.604   9.204  71.702  1.00  0.00    -0.379 A  
ENDBRANCH  14  19
ENDBRANCH   6   9
TORSDOF 3
ENDMDL
MODEL       84
REMARK 921   NORMALIZED FREE ENERGY PREDICTED BY IDOCK:   -3.79 KCAL/MOL
REMARK 922        TOTAL FREE ENERGY PREDICTED BY IDOCK:   -4.63 KCAL/MOL
REMARK 923 INTER-LIGAND FREE ENERGY PREDICTED BY IDOCK:   -4.56 KCAL/MOL
REMARK 924 INTRA-LIGAND FREE ENERGY PREDICTED BY IDOCK:   -0.07 KCAL/MOL
REMARK 927      BINDING AFFINITY PREDICTED BY RF-SCORE:    0.00 PKD
ROOT
HETATM    1 CL   UNL     1     -13.909  15.527  72.463  1.00  0.00    -0.645 Cl 
HETATM    2  C   UNL     1     -12.598  15.404  71.358  1.00  0.00    -0.405 A  
HETATM    3  C   UNL     1     -11.903  16.545  70.972  1.00  0.00     0.171 A  
HETATM    4  C   UNL     1     -10.841  16.442  70.066  1.00  0.00    -0.305 A  
HETATM    5 CL   UNL     1     -10.067  17.922  69.609  1.00  0.00     0.140 Cl 
HETATM    6  C   UNL     1     -10.442  15.196  69.543  1.00  0.00    -0.268 A  
HETATM    7  C   UNL     1     -11.178  14.062  69.949  1.00  0.00    -0.131 A  
HETATM    8  C   UNL     1     -12.243  14.164  70.846  1.00  0.00    -0.434 A  
ENDROOT
BRANCH   6   9
HETATM    9  C   UNL     1      -9.295  15.100  68.537  1.00  0.00    -0.192 C  
HETATM   10  C   UNL     1      -9.544  15.883  67.248  1.00  0.00    -0.217 C  
HETATM   11  S   UNL     1     -10.532  14.859  66.122  1.00  0.00    -0.322 SA 
HETATM   12  C   UNL     1      -9.881  13.305  66.615  1.00  0.00    -0.276 C  
HETATM   13  S   UNL     1      -8.847  13.396  68.037  1.00  0.00    -0.188 SA 
HETATM   14  C   UNL     1     -10.076  12.147  65.935  1.00  0.00    -0.245 C  
BRANCH  14  15
HETATM   15  C   UNL     1      -9.318  10.905  66.375  1.00  0.00    -0.176 C  
HETATM   16  H2  UNL     1      -7.739   9.869  66.365  1.00  0.00     0.000 HD 
HETATM   17  N   UNL     1      -8.688   9.876  66.739  1.00  0.00    -0.128 NA 
HETATM   18  H1  UNL     1      -8.179   9.042  67.034  1.00  0.00     0.000 HD 
ENDBRANCH  14  15
BRANCH  14  19
HETATM   19  N   UNL     1     -10.882  11.973  64.785  1.00  0.00    -0.295 NA 
HETATM   20  C   UNL     1     -12.223  12.311  64.656  1.00  0.00    -0.377 A  
HETATM   21  C   UNL     1     -12.622  11.886  63.412  1.00  0.00    -0.431 A  
HETATM   22  N   UNL     1     -11.567  11.384  62.716  1.00  0.00     0.583 NA 
HETATM   23  C   UNL     1     -10.544  11.475  63.538  1.00  0.00    -0.423 A  
ENDBRANCH  14  19
ENDBRANCH   6   9
TORSDOF 3
ENDMDL
MODEL       85
REMARK 921   NORMALIZED FREE ENERGY PREDICTED BY IDOCK:   -3.79 KCAL/MOL
REMARK 922        TOTAL FREE ENERGY PREDICTED BY IDOCK:   -4.63 KCAL/MOL
REMARK 923 INTER-LIGAND FREE ENERGY PREDICTED BY IDOCK:   -4.51 KCAL/MOL
REMARK 924 INTRA-LIGAND FREE ENERGY PREDICTED BY IDOCK:   -0.12 KCAL/MOL
REMARK 927      BINDING AFFINITY PREDICTED BY RF-SCORE:    0.00 PKD
ROOT
HETATM    1 CL   UNL     1     -12.952  14.191  65.467  1.00  0.00    -0.442 Cl 
HETATM    2  C   UNL     1     -11.571  13.190  65.677  1.00  0.00    -0.338 A  
HETATM    3  C   UNL     1     -10.479  13.653  66.400  1.00  0.00    -0.288 A  
HETATM    4  C   UNL     1      -9.352  12.838  66.563  1.00  0.00    -0.221 A  
HETATM    5 CL   UNL     1      -8.022  13.519  67.439  1.00  0.00    -0.174 Cl 
HETATM    6  C   UNL     1      -9.304  11.538  66.021  1.00  0.00    -0.239 A  
HETATM    7  C   UNL     1     -10.427  11.106  65.284  1.00  0.00    -0.326 A  
HETATM    8  C   UNL     1     -11.548  11.921  65.114  1.00  0.00    -0.278 A  
ENDROOT
BRANCH   6   9
HETATM    9  C   UNL     1      -8.060  10.666  66.188  1.00  0.00    -0.154 C  
HETATM   10  C   UNL     1      -8.187   9.288  65.536  1.00  0.00    -0.124 C  
HETATM   11  S   UNL     1      -9.044   8.174  66.683  1.00  0.00    -0.175 SA 
HETATM   12  C   UNL     1      -8.428   8.876  68.169  1.00  0.00    -0.129 C  
HETATM   13  S   UNL     1      -7.545  10.379  67.922  1.00  0.00    -0.088 SA 
HETATM   14  C   UNL     1      -8.541   8.295  69.390  1.00  0.00    -0.134 C  
BRANCH  14  15
HETATM   15  C   UNL     1      -7.816   8.925  70.568  1.00  0.00    -0.112 C  
HETATM   16  H2  UNL     1      -7.711   9.275  72.421  1.00  0.00     0.000 HD 
HETATM   17  N   UNL     1      -7.216   9.447  71.545  1.00  0.00    -0.319 NA 
HETATM   18  H1  UNL     1      -6.730   9.871  72.336  1.00  0.00     0.000 HD 
ENDBRANCH  14  15
BRANCH  14  19
HETATM   19  N   UNL     1      -9.224   7.093  69.688  1.00  0.00    -0.147 NA 
HETATM   20  C   UNL     1     -10.570   6.965  70.012  1.00  0.00    -0.226 A  
HETATM   21  C   UNL     1     -10.781   5.641  70.313  1.00  0.00    -0.294 A  
HETATM   22  N   UNL     1      -9.652   4.914  70.098  1.00  0.00    -0.174 NA 
HETATM   23  C   UNL     1      -8.755   5.790  69.699  1.00  0.00    -0.122 A  
ENDBRANCH  14  19
ENDBRANCH   6   9
TORSDOF 3
ENDMDL
MODEL       86
REMARK 921   NORMALIZED FREE ENERGY PREDICTED BY IDOCK:   -3.78 KCAL/MOL
REMARK 922        TOTAL FREE ENERGY PREDICTED BY IDOCK:   -4.61 KCAL/MOL
REMARK 923 INTER-LIGAND FREE ENERGY PREDICTED BY IDOCK:   -4.67 KCAL/MOL
REMARK 924 INTRA-LIGAND FREE ENERGY PREDICTED BY IDOCK:    0.05 KCAL/MOL
REMARK 927      BINDING AFFINITY PREDICTED BY RF-SCORE:    0.00 PKD
ROOT
HETATM    1 CL   UNL     1     -12.832   9.505  71.955  1.00  0.00    -0.485 Cl 
HETATM    2  C   UNL     1     -11.689   9.997  70.770  1.00  0.00    -0.350 A  
HETATM    3  C   UNL     1     -10.781   9.080  70.255  1.00  0.00    -0.262 A  
HETATM    4  C   UNL     1      -9.846   9.485  69.295  1.00  0.00    -0.181 A  
HETATM    5 CL   UNL     1      -8.725   8.284  68.748  1.00  0.00    -0.136 Cl 
HETATM    6  C   UNL     1      -9.815  10.811  68.818  1.00  0.00    -0.200 A  
HETATM    7  C   UNL     1     -10.745  11.717  69.371  1.00  0.00    -0.080 A  
HETATM    8  C   UNL     1     -11.672  11.315  70.335  1.00  0.00    -0.398 A  
ENDROOT
BRANCH   6   9
HETATM    9  C   UNL     1      -8.775  11.247  67.785  1.00  0.00    -0.134 C  
HETATM   10  C   UNL     1      -8.300  12.689  67.967  1.00  0.00    -0.175 C  
HETATM   11  S   UNL     1      -9.481  13.802  67.155  1.00  0.00    -0.252 SA 
HETATM   12  C   UNL     1      -9.938  12.720  65.851  1.00  0.00    -0.266 C  
HETATM   13  S   UNL     1      -9.308  11.087  66.040  1.00  0.00    -0.209 SA 
HETATM   14  C   UNL     1     -10.640  13.103  64.754  1.00  0.00    -0.372 C  
BRANCH  14  15
HETATM   15  C   UNL     1     -10.822  12.108  63.620  1.00  0.00    -0.464 C  
HETATM   16  H2  UNL     1     -10.884  11.736  61.770  1.00  0.00     0.000 HD 
HETATM   17  N   UNL     1     -10.973  11.282  62.679  1.00  0.00    -0.386 NA 
HETATM   18  H1  UNL     1     -11.096  10.614  61.918  1.00  0.00     0.000 HD 
ENDBRANCH  14  15
BRANCH  14  19
HETATM   19  N   UNL     1     -11.182  14.386  64.510  1.00  0.00    -0.342 NA 
HETATM   20  C   UNL     1     -12.496  14.676  64.160  1.00  0.00    -0.147 A  
HETATM   21  C   UNL     1     -12.556  16.030  63.932  1.00  0.00     1.277 A  
HETATM   22  N   UNL     1     -11.364  16.618  64.218  1.00  0.00    -1.093 NA 
HETATM   23  C   UNL     1     -10.578  15.629  64.587  1.00  0.00    -0.012 A  
ENDBRANCH  14  19
ENDBRANCH   6   9
TORSDOF 3
ENDMDL
MODEL       87
REMARK 921   NORMALIZED FREE ENERGY PREDICTED BY IDOCK:   -3.77 KCAL/MOL
REMARK 922        TOTAL FREE ENERGY PREDICTED BY IDOCK:   -4.60 KCAL/MOL
REMARK 923 INTER-LIGAND FREE ENERGY PREDICTED BY IDOCK:   -4.17 KCAL/MOL
REMARK 924 INTRA-LIGAND FREE ENERGY PREDICTED BY IDOCK:   -0.43 KCAL/MOL
REMARK 927      BINDING AFFINITY PREDICTED BY RF-SCORE:    0.00 PKD
ROOT
HETATM    1 CL   UNL     1      -5.738  14.248  68.823  1.00  0.00    -0.082 Cl 
HETATM    2  C   UNL     1      -7.173  13.328  68.599  1.00  0.00    -0.106 A  
HETATM    3  C   UNL     1      -8.355  13.960  68.234  1.00  0.00    -0.163 A  
HETATM    4  C   UNL     1      -9.524  13.209  68.059  1.00  0.00    -0.220 A  
HETATM    5 CL   UNL     1     -10.958  14.090  67.651  1.00  0.00    -0.273 Cl 
HETATM    6  C   UNL     1      -9.527  11.810  68.229  1.00  0.00    -0.193 A  
HETATM    7  C   UNL     1      -8.311  11.205  68.609  1.00  0.00    -0.154 A  
HETATM    8  C   UNL     1      -7.147  11.954  68.793  1.00  0.00    -0.111 A  
ENDROOT
BRANCH   6   9
HETATM    9  C   UNL     1     -10.815  11.004  68.056  1.00  0.00    -0.229 C  
HETATM   10  C   UNL     1     -11.750  11.079  69.263  1.00  0.00    -0.326 C  
HETATM   11  S   UNL     1     -11.221   9.853  70.492  1.00  0.00    -0.352 SA 
HETATM   12  C   UNL     1     -10.628   8.651  69.358  1.00  0.00    -0.199 C  
HETATM   13  S   UNL     1     -10.568   9.225  67.695  1.00  0.00    -0.217 SA 
HETATM   14  C   UNL     1     -10.316   7.374  69.695  1.00  0.00    -0.223 C  
BRANCH  14  15
HETATM   15  C   UNL     1      -9.976   6.390  68.589  1.00  0.00    -0.146 C  
HETATM   16  H2  UNL     1      -9.081   5.996  66.974  1.00  0.00     0.000 HD 
HETATM   17  N   UNL     1      -9.694   5.573  67.671  1.00  0.00    -0.123 NA 
HETATM   18  H1  UNL     1      -9.467   4.912  66.928  1.00  0.00     0.000 HD 
ENDBRANCH  14  15
BRANCH  14  19
HETATM   19  N   UNL     1     -10.336   6.820  70.997  1.00  0.00    -0.205 NA 
HETATM   20  C   UNL     1     -11.388   6.129  71.586  1.00  0.00    -0.284 A  
HETATM   21  C   UNL     1     -11.009   5.855  72.878  1.00  0.00    -0.268 A  
HETATM   22  N   UNL     1      -9.729   6.257  73.097  1.00  0.00    -0.157 NA 
HETATM   23  C   UNL     1      -9.342   6.796  71.961  1.00  0.00    -0.141 A  
ENDBRANCH  14  19
ENDBRANCH   6   9
TORSDOF 3
ENDMDL
MODEL       88
REMARK 921   NORMALIZED FREE ENERGY PREDICTED BY IDOCK:   -3.70 KCAL/MOL
REMARK 922        TOTAL FREE ENERGY PREDICTED BY IDOCK:   -4.52 KCAL/MOL
REMARK 923 INTER-LIGAND FREE ENERGY PREDICTED BY IDOCK:   -4.82 KCAL/MOL
REMARK 924 INTRA-LIGAND FREE ENERGY PREDICTED BY IDOCK:    0.30 KCAL/MOL
REMARK 927      BINDING AFFINITY PREDICTED BY RF-SCORE:    0.00 PKD
ROOT
HETATM    1 CL   UNL     1     -10.606   6.297  71.748  1.00  0.00    -0.255 Cl 
HETATM    2  C   UNL     1      -9.676   7.262  70.672  1.00  0.00    -0.175 A  
HETATM    3  C   UNL     1      -8.805   6.659  69.773  1.00  0.00    -0.144 A  
HETATM    4  C   UNL     1      -8.043   7.447  68.903  1.00  0.00    -0.127 A  
HETATM    5 CL   UNL     1      -6.951   6.609  67.851  1.00  0.00    -0.080 Cl 
HETATM    6  C   UNL     1      -8.151   8.852  68.903  1.00  0.00    -0.112 A  
HETATM    7  C   UNL     1      -9.037   9.429  69.837  1.00  0.00    -0.221 A  
HETATM    8  C   UNL     1      -9.792   8.644  70.712  1.00  0.00    -0.236 A  
ENDROOT
BRANCH   6   9
HETATM    9  C   UNL     1      -7.298   9.704  67.963  1.00  0.00    -0.082 C  
HETATM   10  C   UNL     1      -7.367  11.201  68.262  1.00  0.00    -0.090 C  
HETATM   11  S   UNL     1      -8.836  11.893  67.452  1.00  0.00    -0.179 SA 
HETATM   12  C   UNL     1      -8.838  10.827  66.058  1.00  0.00    -0.180 C  
HETATM   13  S   UNL     1      -7.680   9.507  66.183  1.00  0.00    -0.101 SA 
HETATM   14  C   UNL     1      -9.593  11.026  64.948  1.00  0.00    -0.245 C  
BRANCH  14  15
HETATM   15  C   UNL     1      -9.374  10.123  63.746  1.00  0.00    -0.288 C  
HETATM   16  H2  UNL     1      -8.368   9.656  62.217  1.00  0.00     0.000 HD 
HETATM   17  N   UNL     1      -9.192   9.374  62.748  1.00  0.00    -0.534 NA 
HETATM   18  H1  UNL     1      -9.046   8.768  61.940  1.00  0.00     0.000 HD 
ENDBRANCH  14  15
BRANCH  14  19
HETATM   19  N   UNL     1     -10.544  12.054  64.752  1.00  0.00    -0.283 NA 
HETATM   20  C   UNL     1     -11.682  11.988  63.957  1.00  0.00    -0.410 A  
HETATM   21  C   UNL     1     -12.261  13.234  63.987  1.00  0.00    -0.410 A  
HETATM   22  N   UNL     1     -11.592  14.053  64.842  1.00  0.00    -0.350 NA 
HETATM   23  C   UNL     1     -10.600  13.322  65.305  1.00  0.00    -0.315 A  
ENDBRANCH  14  19
ENDBRANCH   6   9
TORSDOF 3
ENDMDL
MODEL       89
REMARK 921   NORMALIZED FREE ENERGY PREDICTED BY IDOCK:   -3.69 KCAL/MOL
REMARK 922        TOTAL FREE ENERGY PREDICTED BY IDOCK:   -4.51 KCAL/MOL
REMARK 923 INTER-LIGAND FREE ENERGY PREDICTED BY IDOCK:   -4.28 KCAL/MOL
REMARK 924 INTRA-LIGAND FREE ENERGY PREDICTED BY IDOCK:   -0.24 KCAL/MOL
REMARK 927      BINDING AFFINITY PREDICTED BY RF-SCORE:    0.00 PKD
ROOT
HETATM    1 CL   UNL     1     -10.145   2.909  74.098  1.00  0.00    -0.164 Cl 
HETATM    2  C   UNL     1     -10.064   3.592  72.523  1.00  0.00    -0.165 A  
HETATM    3  C   UNL     1      -9.679   2.807  71.442  1.00  0.00    -0.218 A  
HETATM    4  C   UNL     1      -9.607   3.368  70.162  1.00  0.00    -0.140 A  
HETATM    5 CL   UNL     1      -9.073   2.325  68.887  1.00  0.00    -0.174 Cl 
HETATM    6  C   UNL     1      -9.936   4.719  69.935  1.00  0.00    -0.306 A  
HETATM    7  C   UNL     1     -10.312   5.488  71.057  1.00  0.00    -0.307 A  
HETATM    8  C   UNL     1     -10.376   4.931  72.336  1.00  0.00    -0.262 A  
ENDROOT
BRANCH   6   9
HETATM    9  C   UNL     1      -9.833   5.326  68.535  1.00  0.00    -0.152 C  
HETATM   10  C   UNL     1      -8.394   5.495  68.046  1.00  0.00    -0.099 C  
HETATM   11  S   UNL     1      -7.731   7.052  68.701  1.00  0.00    -0.122 SA 
HETATM   12  C   UNL     1      -9.239   7.950  68.693  1.00  0.00    -0.142 C  
HETATM   13  S   UNL     1     -10.647   6.954  68.338  1.00  0.00    -0.203 SA 
HETATM   14  C   UNL     1      -9.327   9.294  68.861  1.00  0.00    -0.150 C  
BRANCH  14  15
HETATM   15  C   UNL     1     -10.674   9.968  68.663  1.00  0.00    -0.226 C  
HETATM   16  H2  UNL     1     -12.527  10.048  69.019  1.00  0.00     0.000 HD 
HETATM   17  N   UNL     1     -11.792  10.527  68.498  1.00  0.00    -0.745 NA 
HETATM   18  H1  UNL     1     -12.697  10.980  68.365  1.00  0.00     0.000 HD 
ENDBRANCH  14  15
BRANCH  14  19
HETATM   19  N   UNL     1      -8.258  10.176  69.145  1.00  0.00    -0.133 NA 
HETATM   20  C   UNL     1      -7.906  11.309  68.421  1.00  0.00    -0.136 A  
HETATM   21  C   UNL     1      -6.762  11.807  68.996  1.00  0.00    -0.102 A  
HETATM   22  N   UNL     1      -6.435  11.096  70.108  1.00  0.00    -0.185 NA 
HETATM   23  C   UNL     1      -7.352  10.157  70.192  1.00  0.00    -0.147 A  
ENDBRANCH  14  19
ENDBRANCH   6   9
TORSDOF 3
ENDMDL
MODEL       90
REMARK 921   NORMALIZED FREE ENERGY PREDICTED BY IDOCK:   -3.69 KCAL/MOL
REMARK 922        TOTAL FREE ENERGY PREDICTED BY IDOCK:   -4.51 KCAL/MOL
REMARK 923 INTER-LIGAND FREE ENERGY PREDICTED BY IDOCK:   -4.26 KCAL/MOL
REMARK 924 INTRA-LIGAND FREE ENERGY PREDICTED BY IDOCK:   -0.25 KCAL/MOL
REMARK 927      BINDING AFFINITY PREDICTED BY RF-SCORE:    0.00 PKD
ROOT
HETATM    1 CL   UNL     1      -8.235   3.938  63.568  1.00  0.00    -0.089 Cl 
HETATM    2  C   UNL     1      -8.402   4.260  65.248  1.00  0.00    -0.110 A  
HETATM    3  C   UNL     1      -7.279   4.291  66.066  1.00  0.00    -0.072 A  
HETATM    4  C   UNL     1      -7.419   4.547  67.436  1.00  0.00    -0.074 A  
HETATM    5 CL   UNL     1      -5.969   4.518  68.382  1.00  0.00    -0.025 Cl 
HETATM    6  C   UNL     1      -8.682   4.794  68.009  1.00  0.00    -0.110 A  
HETATM    7  C   UNL     1      -9.800   4.745  67.149  1.00  0.00    -0.222 A  
HETATM    8  C   UNL     1      -9.663   4.481  65.785  1.00  0.00    -0.209 A  
ENDROOT
BRANCH   6   9
HETATM    9  C   UNL     1      -8.825   5.051  69.509  1.00  0.00    -0.095 C  
HETATM   10  C   UNL     1     -10.273   5.023  70.000  1.00  0.00    -0.269 C  
HETATM   11  S   UNL     1     -11.019   6.652  69.714  1.00  0.00    -0.340 SA 
HETATM   12  C   UNL     1      -9.564   7.603  69.957  1.00  0.00    -0.164 C  
HETATM   13  S   UNL     1      -8.104   6.630  70.094  1.00  0.00    -0.126 SA 
HETATM   14  C   UNL     1      -9.552   8.952  70.108  1.00  0.00    -0.180 C  
BRANCH  14  15
HETATM   15  C   UNL     1      -8.246   9.633  70.480  1.00  0.00    -0.098 C  
HETATM   16  H2  UNL     1      -6.566   9.580  71.341  1.00  0.00     0.000 HD 
HETATM   17  N   UNL     1      -7.162  10.198  70.790  1.00  0.00    -0.405 NA 
HETATM   18  H1  UNL     1      -6.285  10.655  71.041  1.00  0.00     0.000 HD 
ENDBRANCH  14  15
BRANCH  14  19
HETATM   19  N   UNL     1     -10.668   9.817  70.019  1.00  0.00    -0.261 NA 
HETATM   20  C   UNL     1     -11.525  10.171  71.054  1.00  0.00    -0.354 A  
HETATM   21  C   UNL     1     -12.513  10.951  70.503  1.00  0.00    -0.351 A  
HETATM   22  N   UNL     1     -12.261  11.185  69.187  1.00  0.00    -0.442 NA 
HETATM   23  C   UNL     1     -11.148  10.529  68.933  1.00  0.00    -0.261 A  
ENDBRANCH  14  19
ENDBRANCH   6   9
TORSDOF 3
ENDMDL
MODEL       91
REMARK 921   NORMALIZED FREE ENERGY PREDICTED BY IDOCK:   -3.66 KCAL/MOL
REMARK 922        TOTAL FREE ENERGY PREDICTED BY IDOCK:   -4.47 KCAL/MOL
REMARK 923 INTER-LIGAND FREE ENERGY PREDICTED BY IDOCK:   -4.12 KCAL/MOL
REMARK 924 INTRA-LIGAND FREE ENERGY PREDICTED BY IDOCK:   -0.35 KCAL/MOL
REMARK 927      BINDING AFFINITY PREDICTED BY RF-SCORE:    0.00 PKD
ROOT
HETATM    1 CL   UNL     1     -11.071   5.238  73.319  1.00  0.00    -0.364 Cl 
HETATM    2  C   UNL     1     -10.722   5.608  71.677  1.00  0.00    -0.251 A  
HETATM    3  C   UNL     1     -10.268   4.612  70.821  1.00  0.00    -0.214 A  
HETATM    4  C   UNL     1      -9.978   4.917  69.486  1.00  0.00    -0.225 A  
HETATM    5 CL   UNL     1      -9.373   3.623  68.507  1.00  0.00    -0.221 Cl 
HETATM    6  C   UNL     1     -10.155   6.220  68.977  1.00  0.00    -0.206 A  
HETATM    7  C   UNL     1     -10.608   7.207  69.879  1.00  0.00    -0.246 A  
HETATM    8  C   UNL     1     -10.889   6.905  71.213  1.00  0.00    -0.263 A  
ENDROOT
BRANCH   6   9
HETATM    9  C   UNL     1      -9.815   6.546  67.523  1.00  0.00    -0.124 C  
HETATM   10  C   UNL     1      -8.313   6.599  67.243  1.00  0.00    -0.120 C  
HETATM   11  S   UNL     1      -7.691   8.244  67.691  1.00  0.00    -0.100 SA 
HETATM   12  C   UNL     1      -9.140   9.144  67.278  1.00  0.00    -0.126 C  
HETATM   13  S   UNL     1     -10.520   8.117  66.899  1.00  0.00    -0.227 SA 
HETATM   14  C   UNL     1      -9.194  10.496  67.177  1.00  0.00    -0.143 C  
BRANCH  14  15
HETATM   15  C   UNL     1     -10.466  11.138  66.647  1.00  0.00    -0.250 C  
HETATM   16  H2  UNL     1     -12.293  11.563  66.865  1.00  0.00     0.000 HD 
HETATM   17  N   UNL     1     -11.521  11.670  66.207  1.00  0.00    -0.388 NA 
HETATM   18  H1  UNL     1     -12.374  12.100  65.851  1.00  0.00     0.000 HD 
ENDBRANCH  14  15
BRANCH  14  19
HETATM   19  N   UNL     1      -8.144  11.402  67.455  1.00  0.00    -0.136 NA 
HETATM   20  C   UNL     1      -8.031  12.218  68.574  1.00  0.00    -0.107 A  
HETATM   21  C   UNL     1      -6.912  12.994  68.387  1.00  0.00    -0.100 A  
HETATM   22  N   UNL     1      -6.262  12.633  67.248  1.00  0.00    -0.232 NA 
HETATM   23  C   UNL     1      -6.994  11.669  66.731  1.00  0.00    -0.080 A  
ENDBRANCH  14  19
ENDBRANCH   6   9
TORSDOF 3
ENDMDL
MODEL       92
REMARK 921   NORMALIZED FREE ENERGY PREDICTED BY IDOCK:   -3.65 KCAL/MOL
REMARK 922        TOTAL FREE ENERGY PREDICTED BY IDOCK:   -4.46 KCAL/MOL
REMARK 923 INTER-LIGAND FREE ENERGY PREDICTED BY IDOCK:   -4.06 KCAL/MOL
REMARK 924 INTRA-LIGAND FREE ENERGY PREDICTED BY IDOCK:   -0.41 KCAL/MOL
REMARK 927      BINDING AFFINITY PREDICTED BY RF-SCORE:    0.00 PKD
ROOT
HETATM    1 CL   UNL     1      -5.597   9.652  62.907  1.00  0.00    -0.088 Cl 
HETATM    2  C   UNL     1      -6.994   9.527  63.899  1.00  0.00    -0.105 A  
HETATM    3  C   UNL     1      -8.153  10.216  63.560  1.00  0.00    -0.162 A  
HETATM    4  C   UNL     1      -9.287  10.119  64.375  1.00  0.00    -0.293 A  
HETATM    5 CL   UNL     1     -10.667  11.050  63.898  1.00  0.00    -0.401 Cl 
HETATM    6  C   UNL     1      -9.290   9.315  65.533  1.00  0.00    -0.303 A  
HETATM    7  C   UNL     1      -8.093   8.639  65.850  1.00  0.00    -0.111 A  
HETATM    8  C   UNL     1      -6.958   8.743  65.043  1.00  0.00    -0.076 A  
ENDROOT
BRANCH   6   9
HETATM    9  C   UNL     1     -10.528   9.233  66.426  1.00  0.00    -0.087 C  
HETATM   10  C   UNL     1     -10.661  10.407  67.396  1.00  0.00    -0.283 C  
HETATM   11  S   UNL     1      -9.655  10.067  68.868  1.00  0.00    -0.191 SA 
HETATM   12  C   UNL     1      -9.860   8.324  68.873  1.00  0.00    -0.180 C  
HETATM   13  S   UNL     1     -10.656   7.707  67.429  1.00  0.00    -0.262 SA 
HETATM   14  C   UNL     1      -9.519   7.520  69.912  1.00  0.00    -0.160 C  
BRANCH  14  15
HETATM   15  C   UNL     1      -9.905   6.051  69.855  1.00  0.00    -0.170 C  
HETATM   16  H2  UNL     1     -11.227   4.707  69.955  1.00  0.00     0.000 HD 
HETATM   17  N   UNL     1     -10.226   4.833  69.808  1.00  0.00    -0.223 NA 
HETATM   18  H1  UNL     1     -10.485   3.847  69.771  1.00  0.00     0.000 HD 
ENDBRANCH  14  15
BRANCH  14  19
HETATM   19  N   UNL     1      -8.881   7.920  71.110  1.00  0.00    -0.135 NA 
HETATM   20  C   UNL     1      -7.516   7.898  71.367  1.00  0.00    -0.074 A  
HETATM   21  C   UNL     1      -7.353   8.282  72.677  1.00  0.00    -0.105 A  
HETATM   22  N   UNL     1      -8.546   8.638  73.224  1.00  0.00    -0.349 NA 
HETATM   23  C   UNL     1      -9.429   8.444  72.268  1.00  0.00    -0.297 A  
ENDBRANCH  14  19
ENDBRANCH   6   9
TORSDOF 3
ENDMDL
MODEL       93
REMARK 921   NORMALIZED FREE ENERGY PREDICTED BY IDOCK:   -3.62 KCAL/MOL
REMARK 922        TOTAL FREE ENERGY PREDICTED BY IDOCK:   -4.43 KCAL/MOL
REMARK 923 INTER-LIGAND FREE ENERGY PREDICTED BY IDOCK:   -5.67 KCAL/MOL
REMARK 924 INTRA-LIGAND FREE ENERGY PREDICTED BY IDOCK:    1.24 KCAL/MOL
REMARK 927      BINDING AFFINITY PREDICTED BY RF-SCORE:    0.00 PKD
ROOT
HETATM    1 CL   UNL     1     -12.792  10.498  72.134  1.00  0.00    -0.409 Cl 
HETATM    2  C   UNL     1     -12.301  11.312  70.702  1.00  0.00    -0.383 A  
HETATM    3  C   UNL     1     -12.299  12.701  70.657  1.00  0.00    -0.375 A  
HETATM    4  C   UNL     1     -11.906  13.361  69.486  1.00  0.00    -0.332 A  
HETATM    5 CL   UNL     1     -11.981  15.091  69.509  1.00  0.00    -0.343 Cl 
HETATM    6  C   UNL     1     -11.490  12.644  68.346  1.00  0.00    -0.350 A  
HETATM    7  C   UNL     1     -11.515  11.236  68.426  1.00  0.00    -0.377 A  
HETATM    8  C   UNL     1     -11.916  10.576  69.590  1.00  0.00    -0.279 A  
ENDROOT
BRANCH   6   9
HETATM    9  C   UNL     1     -11.083  13.376  67.067  1.00  0.00    -0.292 C  
HETATM   10  C   UNL     1      -9.724  12.941  66.519  1.00  0.00    -0.257 C  
HETATM   11  S   UNL     1      -8.422  13.862  67.385  1.00  0.00    -0.203 SA 
HETATM   12  C   UNL     1      -9.330  15.344  67.630  1.00  0.00    -0.203 C  
HETATM   13  S   UNL     1     -11.033  15.201  67.205  1.00  0.00    -0.324 SA 
HETATM   14  C   UNL     1      -8.780  16.518  68.030  1.00  0.00    -0.189 C  
BRANCH  14  15
HETATM   15  C   UNL     1      -9.647  17.765  68.040  1.00  0.00    -0.291 C  
HETATM   16  H2  UNL     1     -10.729  18.993  68.982  1.00  0.00     0.000 HD 
HETATM   17  N   UNL     1     -10.367  18.800  68.048  1.00  0.00    -0.389 NA 
HETATM   18  H1  UNL     1     -10.950  19.637  68.054  1.00  0.00     0.000 HD 
ENDBRANCH  14  15
BRANCH  14  19
HETATM   19  N   UNL     1      -7.428  16.733  68.389  1.00  0.00    -0.192 NA 
HETATM   20  C   UNL     1      -6.967  17.329  69.556  1.00  0.00    -0.026 A  
HETATM   21  C   UNL     1      -5.600  17.413  69.446  1.00  0.00    -0.201 A  
HETATM   22  N   UNL     1      -5.173  16.809  68.305  1.00  0.00    -0.112 NA 
HETATM   23  C   UNL     1      -6.270  16.387  67.713  1.00  0.00    -0.138 A  
ENDBRANCH  14  19
ENDBRANCH   6   9
TORSDOF 3
ENDMDL
MODEL       94
REMARK 921   NORMALIZED FREE ENERGY PREDICTED BY IDOCK:   -3.62 KCAL/MOL
REMARK 922        TOTAL FREE ENERGY PREDICTED BY IDOCK:   -4.42 KCAL/MOL
REMARK 923 INTER-LIGAND FREE ENERGY PREDICTED BY IDOCK:   -4.08 KCAL/MOL
REMARK 924 INTRA-LIGAND FREE ENERGY PREDICTED BY IDOCK:   -0.35 KCAL/MOL
REMARK 927      BINDING AFFINITY PREDICTED BY RF-SCORE:    0.00 PKD
ROOT
HETATM    1 CL   UNL     1     -10.524  17.185  66.048  1.00  0.00    -0.316 Cl 
HETATM    2  C   UNL     1      -9.802  15.767  66.698  1.00  0.00    -0.252 A  
HETATM    3  C   UNL     1      -8.921  15.862  67.768  1.00  0.00    -0.176 A  
HETATM    4  C   UNL     1      -8.329  14.706  68.291  1.00  0.00    -0.148 A  
HETATM    5 CL   UNL     1      -7.208  14.929  69.592  1.00  0.00    -0.180 Cl 
HETATM    6  C   UNL     1      -8.621  13.432  67.765  1.00  0.00    -0.194 A  
HETATM    7  C   UNL     1      -9.512  13.375  66.672  1.00  0.00    -0.264 A  
HETATM    8  C   UNL     1     -10.096  14.529  66.144  1.00  0.00    -0.319 A  
ENDROOT
BRANCH   6   9
HETATM    9  C   UNL     1      -7.951  12.179  68.330  1.00  0.00    -0.163 C  
HETATM   10  C   UNL     1      -6.598  11.868  67.691  1.00  0.00    -0.099 C  
HETATM   11  S   UNL     1      -6.875  10.948  66.151  1.00  0.00    -0.059 SA 
HETATM   12  C   UNL     1      -8.316  10.090  66.666  1.00  0.00    -0.125 C  
HETATM   13  S   UNL     1      -8.951  10.649  68.210  1.00  0.00    -0.149 SA 
HETATM   14  C   UNL     1      -8.860   9.043  65.996  1.00  0.00    -0.175 C  
BRANCH  14  15
HETATM   15  C   UNL     1     -10.008   8.282  66.639  1.00  0.00    -0.278 C  
HETATM   16  H2  UNL     1     -10.766   6.649  67.210  1.00  0.00     0.000 HD 
HETATM   17  N   UNL     1     -10.960   7.650  67.172  1.00  0.00    -0.514 NA 
HETATM   18  H1  UNL     1     -11.731   7.140  67.603  1.00  0.00     0.000 HD 
ENDBRANCH  14  15
BRANCH  14  19
HETATM   19  N   UNL     1      -8.422   8.520  64.757  1.00  0.00    -0.157 NA 
HETATM   20  C   UNL     1      -8.612   9.091  63.505  1.00  0.00    -0.133 A  
HETATM   21  C   UNL     1      -8.108   8.204  62.584  1.00  0.00    -0.161 A  
HETATM   22  N   UNL     1      -7.523   7.147  63.206  1.00  0.00    -0.086 NA 
HETATM   23  C   UNL     1      -7.694   7.372  64.491  1.00  0.00    -0.126 A  
ENDBRANCH  14  19
ENDBRANCH   6   9
TORSDOF 3
ENDMDL
MODEL       95
REMARK 921   NORMALIZED FREE ENERGY PREDICTED BY IDOCK:   -3.61 KCAL/MOL
REMARK 922        TOTAL FREE ENERGY PREDICTED BY IDOCK:   -4.41 KCAL/MOL
REMARK 923 INTER-LIGAND FREE ENERGY PREDICTED BY IDOCK:   -4.04 KCAL/MOL
REMARK 924 INTRA-LIGAND FREE ENERGY PREDICTED BY IDOCK:   -0.37 KCAL/MOL
REMARK 927      BINDING AFFINITY PREDICTED BY RF-SCORE:    0.00 PKD
ROOT
HETATM    1 CL   UNL     1      -9.614   9.996  64.913  1.00  0.00    -0.356 Cl 
HETATM    2  C   UNL     1     -10.072   9.549  66.508  1.00  0.00    -0.256 A  
HETATM    3  C   UNL     1     -10.717  10.465  67.330  1.00  0.00    -0.338 A  
HETATM    4  C   UNL     1     -11.082  10.100  68.631  1.00  0.00    -0.205 A  
HETATM    5 CL   UNL     1     -11.838  11.324  69.597  1.00  0.00    -0.391 Cl 
HETATM    6  C   UNL     1     -10.827   8.807  69.129  1.00  0.00    -0.074 A  
HETATM    7  C   UNL     1     -10.162   7.907  68.269  1.00  0.00    -0.240 A  
HETATM    8  C   UNL     1      -9.789   8.272  66.974  1.00  0.00    -0.298 A  
ENDROOT
BRANCH   6   9
HETATM    9  C   UNL     1     -11.211   8.427  70.559  1.00  0.00    -0.238 C  
HETATM   10  C   UNL     1     -10.414   9.177  71.626  1.00  0.00    -0.332 C  
HETATM   11  S   UNL     1      -8.837   8.320  71.890  1.00  0.00    -0.196 SA 
HETATM   12  C   UNL     1      -9.420   6.693  71.582  1.00  0.00    -0.159 C  
HETATM   13  S   UNL     1     -11.063   6.644  70.950  1.00  0.00    -0.305 SA 
HETATM   14  C   UNL     1      -8.721   5.566  71.869  1.00  0.00    -0.135 C  
BRANCH  14  15
HETATM   15  C   UNL     1      -9.409   4.220  71.710  1.00  0.00    -0.137 C  
HETATM   16  H2  UNL     1      -9.327   2.333  71.731  1.00  0.00     0.000 HD 
HETATM   17  N   UNL     1      -9.979   3.103  71.578  1.00  0.00    -0.128 NA 
HETATM   18  H1  UNL     1     -10.440   2.200  71.471  1.00  0.00     0.000 HD 
ENDBRANCH  14  15
BRANCH  14  19
HETATM   19  N   UNL     1      -7.403   5.502  72.380  1.00  0.00    -0.093 NA 
HETATM   20  C   UNL     1      -6.227   5.559  71.643  1.00  0.00    -0.038 A  
HETATM   21  C   UNL     1      -5.194   5.369  72.529  1.00  0.00    -0.017 A  
HETATM   22  N   UNL     1      -5.663   5.292  73.803  1.00  0.00    -0.023 NA 
HETATM   23  C   UNL     1      -6.969   5.404  73.691  1.00  0.00    -0.085 A  
ENDBRANCH  14  19
ENDBRANCH   6   9
TORSDOF 3
ENDMDL
MODEL       96
REMARK 921   NORMALIZED FREE ENERGY PREDICTED BY IDOCK:   -3.52 KCAL/MOL
REMARK 922        TOTAL FREE ENERGY PREDICTED BY IDOCK:   -4.31 KCAL/MOL
REMARK 923 INTER-LIGAND FREE ENERGY PREDICTED BY IDOCK:   -4.02 KCAL/MOL
REMARK 924 INTRA-LIGAND FREE ENERGY PREDICTED BY IDOCK:   -0.28 KCAL/MOL
REMARK 927      BINDING AFFINITY PREDICTED BY RF-SCORE:    0.00 PKD
ROOT
HETATM    1 CL   UNL     1     -14.339   7.205  71.781  1.00  0.00    -0.551 Cl 
HETATM    2  C   UNL     1     -12.671   7.193  71.367  1.00  0.00    -0.391 A  
HETATM    3  C   UNL     1     -11.724   7.636  72.282  1.00  0.00    -0.371 A  
HETATM    4  C   UNL     1     -10.366   7.632  71.939  1.00  0.00    -0.199 A  
HETATM    5 CL   UNL     1      -9.265   8.246  73.126  1.00  0.00    -0.322 Cl 
HETATM    6  C   UNL     1      -9.930   7.168  70.682  1.00  0.00    -0.195 A  
HETATM    7  C   UNL     1     -10.921   6.735  69.776  1.00  0.00    -0.345 A  
HETATM    8  C   UNL     1     -12.276   6.748  70.114  1.00  0.00    -0.011 A  
ENDROOT
BRANCH   6   9
HETATM    9  C   UNL     1      -8.447   7.188  70.312  1.00  0.00    -0.138 C  
HETATM   10  C   UNL     1      -7.878   8.597  70.144  1.00  0.00    -0.098 C  
HETATM   11  S   UNL     1      -8.240   9.180  68.465  1.00  0.00    -0.115 SA 
HETATM   12  C   UNL     1      -8.148   7.619  67.668  1.00  0.00    -0.121 C  
HETATM   13  S   UNL     1      -8.019   6.266  68.788  1.00  0.00    -0.102 SA 
HETATM   14  C   UNL     1      -8.097   7.452  66.322  1.00  0.00    -0.117 C  
BRANCH  14  15
HETATM   15  C   UNL     1      -7.847   6.059  65.768  1.00  0.00    -0.104 C  
HETATM   16  H2  UNL     1      -7.532   4.220  66.059  1.00  0.00     0.000 HD 
HETATM   17  N   UNL     1      -7.639   4.903  65.309  1.00  0.00    -0.077 NA 
HETATM   18  H1  UNL     1      -7.471   3.968  64.938  1.00  0.00     0.000 HD 
ENDBRANCH  14  15
BRANCH  14  19
HETATM   19  N   UNL     1      -8.188   8.471  65.345  1.00  0.00    -0.136 NA 
HETATM   20  C   UNL     1      -7.214   8.815  64.416  1.00  0.00    -0.094 A  
HETATM   21  C   UNL     1      -7.686   9.910  63.733  1.00  0.00    -0.143 A  
HETATM   22  N   UNL     1      -8.954  10.209  64.124  1.00  0.00    -0.216 NA 
HETATM   23  C   UNL     1      -9.239   9.325  65.056  1.00  0.00    -0.178 A  
ENDBRANCH  14  19
ENDBRANCH   6   9
TORSDOF 3
ENDMDL
MODEL       97
REMARK 921   NORMALIZED FREE ENERGY PREDICTED BY IDOCK:   -3.50 KCAL/MOL
REMARK 922        TOTAL FREE ENERGY PREDICTED BY IDOCK:   -4.29 KCAL/MOL
REMARK 923 INTER-LIGAND FREE ENERGY PREDICTED BY IDOCK:   -5.10 KCAL/MOL
REMARK 924 INTRA-LIGAND FREE ENERGY PREDICTED BY IDOCK:    0.81 KCAL/MOL
REMARK 927      BINDING AFFINITY PREDICTED BY RF-SCORE:    0.00 PKD
ROOT
HETATM    1 CL   UNL     1      -6.284  17.137  68.825  1.00  0.00    -0.159 Cl 
HETATM    2  C   UNL     1      -7.752  16.279  68.578  1.00  0.00    -0.189 A  
HETATM    3  C   UNL     1      -7.746  15.074  67.886  1.00  0.00    -0.145 A  
HETATM    4  C   UNL     1      -8.944  14.380  67.679  1.00  0.00    -0.192 A  
HETATM    5 CL   UNL     1      -8.844  12.913  66.765  1.00  0.00    -0.188 Cl 
HETATM    6  C   UNL     1     -10.169  14.870  68.177  1.00  0.00    -0.226 A  
HETATM    7  C   UNL     1     -10.137  16.101  68.865  1.00  0.00    -0.238 A  
HETATM    8  C   UNL     1      -8.943  16.798  69.064  1.00  0.00    -0.188 A  
ENDROOT
BRANCH   6   9
HETATM    9  C   UNL     1     -11.474  14.115  67.926  1.00  0.00    -0.312 C  
HETATM   10  C   UNL     1     -12.409  14.093  69.135  1.00  0.00    -0.138 C  
HETATM   11  S   UNL     1     -11.912  12.740  70.237  1.00  0.00    -0.191 SA 
HETATM   12  C   UNL     1     -11.345  11.642  68.991  1.00  0.00    -0.275 C  
HETATM   13  S   UNL     1     -11.268  12.375  67.392  1.00  0.00    -0.317 SA 
HETATM   14  C   UNL     1     -11.063  10.331  69.201  1.00  0.00    -0.235 C  
BRANCH  14  15
HETATM   15  C   UNL     1     -10.744   9.452  68.003  1.00  0.00    -0.190 C  
HETATM   16  H2  UNL     1      -9.502   8.430  67.014  1.00  0.00     0.000 HD 
HETATM   17  N   UNL     1     -10.479   8.723  67.010  1.00  0.00    -0.285 NA 
HETATM   18  H1  UNL     1     -10.265   8.133  66.205  1.00  0.00     0.000 HD 
ENDBRANCH  14  15
BRANCH  14  19
HETATM   19  N   UNL     1     -11.098   9.653  70.442  1.00  0.00    -0.268 NA 
HETATM   20  C   UNL     1     -10.010   9.133  71.131  1.00  0.00    -0.307 A  
HETATM   21  C   UNL     1     -10.512   8.484  72.234  1.00  0.00    -0.332 A  
HETATM   22  N   UNL     1     -11.858   8.656  72.320  1.00  0.00    -0.376 NA 
HETATM   23  C   UNL     1     -12.176   9.376  71.266  1.00  0.00    -0.345 A  
ENDBRANCH  14  19
ENDBRANCH   6   9
TORSDOF 3
ENDMDL
MODEL       98
REMARK 921   NORMALIZED FREE ENERGY PREDICTED BY IDOCK:   -3.49 KCAL/MOL
REMARK 922        TOTAL FREE ENERGY PREDICTED BY IDOCK:   -4.28 KCAL/MOL
REMARK 923 INTER-LIGAND FREE ENERGY PREDICTED BY IDOCK:   -4.79 KCAL/MOL
REMARK 924 INTRA-LIGAND FREE ENERGY PREDICTED BY IDOCK:    0.51 KCAL/MOL
REMARK 927      BINDING AFFINITY PREDICTED BY RF-SCORE:    0.00 PKD
ROOT
HETATM    1 CL   UNL     1      -5.451   8.259  73.288  1.00  0.00    -0.049 Cl 
HETATM    2  C   UNL     1      -7.013   8.350  72.576  1.00  0.00    -0.082 A  
HETATM    3  C   UNL     1      -8.114   7.826  73.243  1.00  0.00    -0.195 A  
HETATM    4  C   UNL     1      -9.384   7.895  72.658  1.00  0.00    -0.213 A  
HETATM    5 CL   UNL     1     -10.686   7.174  73.542  1.00  0.00    -0.411 Cl 
HETATM    6  C   UNL     1      -9.579   8.506  71.402  1.00  0.00    -0.282 A  
HETATM    7  C   UNL     1      -8.437   9.017  70.750  1.00  0.00    -0.238 A  
HETATM    8  C   UNL     1      -7.168   8.940  71.330  1.00  0.00    -0.111 A  
ENDROOT
BRANCH   6   9
HETATM    9  C   UNL     1     -10.967   8.556  70.764  1.00  0.00    -0.247 C  
HETATM   10  C   UNL     1     -11.104   7.665  69.529  1.00  0.00    -0.016 C  
HETATM   11  S   UNL     1     -10.476   8.565  68.084  1.00  0.00    -0.140 SA 
HETATM   12  C   UNL     1     -10.948  10.173  68.608  1.00  0.00    -0.230 C  
HETATM   13  S   UNL     1     -11.528  10.227  70.269  1.00  0.00    -0.337 SA 
HETATM   14  C   UNL     1     -10.949  11.266  67.804  1.00  0.00    -0.252 C  
BRANCH  14  15
HETATM   15  C   UNL     1     -11.541  12.561  68.334  1.00  0.00    -0.322 C  
HETATM   16  H2  UNL     1     -12.701  14.035  68.115  1.00  0.00     0.000 HD 
HETATM   17  N   UNL     1     -12.032  13.636  68.774  1.00  0.00    -0.360 NA 
HETATM   18  H1  UNL     1     -12.429  14.506  69.130  1.00  0.00     0.000 HD 
ENDBRANCH  14  15
BRANCH  14  19
HETATM   19  N   UNL     1     -10.508  11.322  66.461  1.00  0.00    -0.244 NA 
HETATM   20  C   UNL     1      -9.806  10.335  65.779  1.00  0.00    -0.257 A  
HETATM   21  C   UNL     1      -9.507  10.846  64.539  1.00  0.00    -0.244 A  
HETATM   22  N   UNL     1     -10.073  12.072  64.376  1.00  0.00    -0.279 NA 
HETATM   23  C   UNL     1     -10.685  12.317  65.514  1.00  0.00    -0.279 A  
ENDBRANCH  14  19
ENDBRANCH   6   9
TORSDOF 3
ENDMDL
MODEL       99
REMARK 921   NORMALIZED FREE ENERGY PREDICTED BY IDOCK:   -3.48 KCAL/MOL
REMARK 922        TOTAL FREE ENERGY PREDICTED BY IDOCK:   -4.26 KCAL/MOL
REMARK 923 INTER-LIGAND FREE ENERGY PREDICTED BY IDOCK:   -4.00 KCAL/MOL
REMARK 924 INTRA-LIGAND FREE ENERGY PREDICTED BY IDOCK:   -0.27 KCAL/MOL
REMARK 927      BINDING AFFINITY PREDICTED BY RF-SCORE:    0.00 PKD
ROOT
HETATM    1 CL   UNL     1      -9.853   2.552  64.308  1.00  0.00    -0.126 Cl 
HETATM    2  C   UNL     1      -9.581   3.863  65.385  1.00  0.00    -0.185 A  
HETATM    3  C   UNL     1      -8.334   4.031  65.976  1.00  0.00    -0.109 A  
HETATM    4  C   UNL     1      -8.117   5.097  66.858  1.00  0.00    -0.108 A  
HETATM    5 CL   UNL     1      -6.547   5.197  67.582  1.00  0.00    -0.052 Cl 
HETATM    6  C   UNL     1      -9.137   6.024  67.151  1.00  0.00    -0.113 A  
HETATM    7  C   UNL     1     -10.392   5.816  66.540  1.00  0.00    -0.265 A  
HETATM    8  C   UNL     1     -10.612   4.748  65.667  1.00  0.00    -0.220 A  
ENDROOT
BRANCH   6   9
HETATM    9  C   UNL     1      -8.894   7.171  68.133  1.00  0.00    -0.126 C  
HETATM   10  C   UNL     1     -10.174   7.887  68.565  1.00  0.00    -0.205 C  
HETATM   11  S   UNL     1     -10.600   9.131  67.315  1.00  0.00    -0.167 SA 
HETATM   12  C   UNL     1      -8.959   9.537  66.844  1.00  0.00    -0.131 C  
HETATM   13  S   UNL     1      -7.745   8.466  67.537  1.00  0.00    -0.099 SA 
HETATM   14  C   UNL     1      -8.628  10.613  66.086  1.00  0.00    -0.159 C  
BRANCH  14  15
HETATM   15  C   UNL     1      -7.157  10.944  65.893  1.00  0.00    -0.029 C  
HETATM   16  H2  UNL     1      -5.368  10.832  66.485  1.00  0.00     0.000 HD 
HETATM   17  N   UNL     1      -5.937  11.219  65.733  1.00  0.00    -0.442 NA 
HETATM   18  H1  UNL     1      -4.950  11.443  65.604  1.00  0.00     0.000 HD 
ENDBRANCH  14  15
BRANCH  14  19
HETATM   19  N   UNL     1      -9.526  11.529  65.490  1.00  0.00    -0.225 NA 
HETATM   20  C   UNL     1      -9.955  12.736  66.029  1.00  0.00    -0.271 A  
HETATM   21  C   UNL     1     -10.885  13.251  65.158  1.00  0.00    -0.310 A  
HETATM   22  N   UNL     1     -10.988  12.470  64.049  1.00  0.00    -0.365 NA 
HETATM   23  C   UNL     1     -10.151  11.476  64.256  1.00  0.00    -0.291 A  
ENDBRANCH  14  19
ENDBRANCH   6   9
TORSDOF 3
ENDMDL
MODEL      100
REMARK 921   NORMALIZED FREE ENERGY PREDICTED BY IDOCK:   -3.48 KCAL/MOL
REMARK 922        TOTAL FREE ENERGY PREDICTED BY IDOCK:   -4.26 KCAL/MOL
REMARK 923 INTER-LIGAND FREE ENERGY PREDICTED BY IDOCK:   -4.00 KCAL/MOL
REMARK 924 INTRA-LIGAND FREE ENERGY PREDICTED BY IDOCK:   -0.26 KCAL/MOL
REMARK 927      BINDING AFFINITY PREDICTED BY RF-SCORE:    0.00 PKD
ROOT
HETATM    1 CL   UNL     1     -12.773  13.043  64.866  1.00  0.00    -0.492 Cl 
HETATM    2  C   UNL     1     -11.306  12.181  65.106  1.00  0.00    -0.327 A  
HETATM    3  C   UNL     1     -10.521  12.438  66.224  1.00  0.00    -0.271 A  
HETATM    4  C   UNL     1      -9.323  11.739  66.413  1.00  0.00    -0.220 A  
HETATM    5 CL   UNL     1      -8.390  12.163  67.809  1.00  0.00    -0.149 Cl 
HETATM    6  C   UNL     1      -8.896  10.757  65.497  1.00  0.00    -0.203 A  
HETATM    7  C   UNL     1      -9.713  10.530  64.370  1.00  0.00    -0.388 A  
HETATM    8  C   UNL     1     -10.904  11.233  64.175  1.00  0.00    -0.407 A  
ENDROOT
BRANCH   6   9
HETATM    9  C   UNL     1      -7.575  10.016  65.704  1.00  0.00    -0.137 C  
HETATM   10  C   UNL     1      -7.055   9.330  64.440  1.00  0.00    -0.094 C  
HETATM   11  S   UNL     1      -7.863   7.714  64.275  1.00  0.00    -0.119 SA 
HETATM   12  C   UNL     1      -8.019   7.373  65.989  1.00  0.00    -0.115 C  
HETATM   13  S   UNL     1      -7.603   8.740  67.017  1.00  0.00    -0.088 SA 
HETATM   14  C   UNL     1      -8.348   6.158  66.497  1.00  0.00    -0.113 C  
BRANCH  14  15
HETATM   15  C   UNL     1      -8.282   5.954  68.002  1.00  0.00    -0.105 C  
HETATM   16  H2  UNL     1      -7.263   5.691  69.570  1.00  0.00     0.000 HD 
HETATM   17  N   UNL     1      -8.227   5.785  69.250  1.00  0.00    -0.104 NA 
HETATM   18  H1  UNL     1      -8.184   5.648  70.260  1.00  0.00     0.000 HD 
ENDBRANCH  14  15
BRANCH  14  19
HETATM   19  N   UNL     1      -8.693   5.003  65.757  1.00  0.00    -0.130 NA 
HETATM   20  C   UNL     1      -7.812   4.088  65.194  1.00  0.00    -0.089 A  
HETATM   21  C   UNL     1      -8.573   3.183  64.494  1.00  0.00    -0.094 A  
HETATM   22  N   UNL     1      -9.898   3.432  64.672  1.00  0.00    -0.164 NA 
HETATM   23  C   UNL     1      -9.943   4.494  65.448  1.00  0.00    -0.192 A  
ENDBRANCH  14  19
ENDBRANCH   6   9
TORSDOF 3
ENDMDL
MODEL      101
REMARK 921   NORMALIZED FREE ENERGY PREDICTED BY IDOCK:   -3.48 KCAL/MOL
REMARK 922        TOTAL FREE ENERGY PREDICTED BY IDOCK:   -4.26 KCAL/MOL
REMARK 923 INTER-LIGAND FREE ENERGY PREDICTED BY IDOCK:   -3.87 KCAL/MOL
REMARK 924 INTRA-LIGAND FREE ENERGY PREDICTED BY IDOCK:   -0.39 KCAL/MOL
REMARK 927      BINDING AFFINITY PREDICTED BY RF-SCORE:    0.00 PKD
ROOT
HETATM    1 CL   UNL     1     -12.773   8.029  71.787  1.00  0.00    -0.336 Cl 
HETATM    2  C   UNL     1     -11.695   6.814  71.225  1.00  0.00    -0.336 A  
HETATM    3  C   UNL     1     -11.085   5.952  72.128  1.00  0.00    -0.333 A  
HETATM    4  C   UNL     1     -10.201   4.969  71.667  1.00  0.00    -0.208 A  
HETATM    5 CL   UNL     1      -9.453   3.973  72.871  1.00  0.00    -0.147 Cl 
HETATM    6  C   UNL     1      -9.926   4.817  70.294  1.00  0.00    -0.320 A  
HETATM    7  C   UNL     1     -10.556   5.716  69.408  1.00  0.00    -0.374 A  
HETATM    8  C   UNL     1     -11.431   6.704  69.867  1.00  0.00    -0.414 A  
ENDROOT
BRANCH   6   9
HETATM    9  C   UNL     1      -8.944   3.753  69.805  1.00  0.00    -0.103 C  
HETATM   10  C   UNL     1      -7.490   4.226  69.783  1.00  0.00    -0.050 C  
HETATM   11  S   UNL     1      -7.189   5.124  68.235  1.00  0.00    -0.067 SA 
HETATM   12  C   UNL     1      -8.288   4.196  67.229  1.00  0.00    -0.099 C  
HETATM   13  S   UNL     1      -9.300   3.080  68.139  1.00  0.00    -0.171 SA 
HETATM   14  C   UNL     1      -8.315   4.257  65.873  1.00  0.00    -0.109 C  
BRANCH  14  15
HETATM   15  C   UNL     1      -9.195   3.277  65.116  1.00  0.00    -0.149 C  
HETATM   16  H2  UNL     1      -9.906   1.539  64.917  1.00  0.00     0.000 HD 
HETATM   17  N   UNL     1      -9.926   2.464  64.488  1.00  0.00    -0.350 NA 
HETATM   18  H1  UNL     1     -10.516   1.806  63.979  1.00  0.00     0.000 HD 
ENDBRANCH  14  15
BRANCH  14  19
HETATM   19  N   UNL     1      -7.541   5.114  65.055  1.00  0.00    -0.080 NA 
HETATM   20  C   UNL     1      -6.300   4.829  64.500  1.00  0.00    -0.034 A  
HETATM   21  C   UNL     1      -5.880   5.971  63.861  1.00  0.00    -0.022 A  
HETATM   22  N   UNL     1      -6.843   6.929  63.907  1.00  0.00    -0.052 NA 
HETATM   23  C   UNL     1      -7.828   6.387  64.592  1.00  0.00    -0.112 A  
ENDBRANCH  14  19
ENDBRANCH   6   9
TORSDOF 3
ENDMDL
MODEL      102
REMARK 921   NORMALIZED FREE ENERGY PREDICTED BY IDOCK:   -3.47 KCAL/MOL
REMARK 922        TOTAL FREE ENERGY PREDICTED BY IDOCK:   -4.25 KCAL/MOL
REMARK 923 INTER-LIGAND FREE ENERGY PREDICTED BY IDOCK:   -4.37 KCAL/MOL
REMARK 924 INTRA-LIGAND FREE ENERGY PREDICTED BY IDOCK:    0.12 KCAL/MOL
REMARK 927      BINDING AFFINITY PREDICTED BY RF-SCORE:    0.00 PKD
ROOT
HETATM    1 CL   UNL     1      -6.762  20.899  66.320  1.00  0.00    -0.271 Cl 
HETATM    2  C   UNL     1      -7.930  19.786  66.913  1.00  0.00    -0.293 A  
HETATM    3  C   UNL     1      -8.889  19.260  66.055  1.00  0.00    -0.134 A  
HETATM    4  C   UNL     1      -9.843  18.360  66.543  1.00  0.00    -0.359 A  
HETATM    5 CL   UNL     1     -11.027  17.796  65.411  1.00  0.00     0.014 Cl 
HETATM    6  C   UNL     1      -9.845  17.954  67.892  1.00  0.00    -0.309 A  
HETATM    7  C   UNL     1      -8.862  18.515  68.735  1.00  0.00    -0.268 A  
HETATM    8  C   UNL     1      -7.915  19.421  68.252  1.00  0.00    -0.366 A  
ENDROOT
BRANCH   6   9
HETATM    9  C   UNL     1     -10.905  16.986  68.417  1.00  0.00    -0.333 C  
HETATM   10  C   UNL     1     -10.599  16.442  69.813  1.00  0.00    -0.288 C  
HETATM   11  S   UNL     1      -9.476  15.025  69.656  1.00  0.00     0.077 SA 
HETATM   12  C   UNL     1     -10.080  14.438  68.116  1.00  0.00    -0.226 C  
HETATM   13  S   UNL     1     -11.223  15.534  67.347  1.00  0.00    -0.189 SA 
HETATM   14  C   UNL     1      -9.773  13.226  67.589  1.00  0.00    -0.219 C  
BRANCH  14  15
HETATM   15  C   UNL     1     -10.497  12.771  66.333  1.00  0.00    -0.250 C  
HETATM   16  H2  UNL     1     -11.706  11.597  65.481  1.00  0.00     0.000 HD 
HETATM   17  N   UNL     1     -11.098  12.394  65.291  1.00  0.00    -0.294 NA 
HETATM   18  H1  UNL     1     -11.583  12.088  64.447  1.00  0.00     0.000 HD 
ENDBRANCH  14  15
BRANCH  14  19
HETATM   19  N   UNL     1      -8.873  12.278  68.131  1.00  0.00    -0.184 NA 
HETATM   20  C   UNL     1      -7.486  12.357  68.125  1.00  0.00    -0.118 A  
HETATM   21  C   UNL     1      -7.020  11.185  68.672  1.00  0.00    -0.081 A  
HETATM   22  N   UNL     1      -8.052  10.416  69.110  1.00  0.00    -0.140 NA 
HETATM   23  C   UNL     1      -9.136  11.098  68.807  1.00  0.00    -0.139 A  
ENDBRANCH  14  19
ENDBRANCH   6   9
TORSDOF 3
ENDMDL
MODEL      103
REMARK 921   NORMALIZED FREE ENERGY PREDICTED BY IDOCK:   -3.43 KCAL/MOL
REMARK 922        TOTAL FREE ENERGY PREDICTED BY IDOCK:   -4.21 KCAL/MOL
REMARK 923 INTER-LIGAND FREE ENERGY PREDICTED BY IDOCK:   -4.29 KCAL/MOL
REMARK 924 INTRA-LIGAND FREE ENERGY PREDICTED BY IDOCK:    0.08 KCAL/MOL
REMARK 927      BINDING AFFINITY PREDICTED BY RF-SCORE:    0.00 PKD
ROOT
HETATM    1 CL   UNL     1      -8.004  16.130  67.856  1.00  0.00    -0.145 Cl 
HETATM    2  C   UNL     1      -8.925  14.679  67.845  1.00  0.00    -0.174 A  
HETATM    3  C   UNL     1      -8.574  13.637  66.996  1.00  0.00    -0.173 A  
HETATM    4  C   UNL     1      -9.331  12.459  66.985  1.00  0.00    -0.204 A  
HETATM    5 CL   UNL     1      -8.845  11.236  65.860  1.00  0.00    -0.193 Cl 
HETATM    6  C   UNL     1     -10.442  12.295  67.836  1.00  0.00    -0.227 A  
HETATM    7  C   UNL     1     -10.774  13.378  68.677  1.00  0.00    -0.275 A  
HETATM    8  C   UNL     1     -10.025  14.557  68.683  1.00  0.00    -0.237 A  
ENDROOT
BRANCH   6   9
HETATM    9  C   UNL     1     -11.273  11.013  67.800  1.00  0.00    -0.308 C  
HETATM   10  C   UNL     1     -12.285  10.907  68.941  1.00  0.00     0.030 C  
HETATM   11  S   UNL     1     -11.446  10.246  70.408  1.00  0.00    -0.354 SA 
HETATM   12  C   UNL     1     -10.305   9.217  69.561  1.00  0.00    -0.216 C  
HETATM   13  S   UNL     1     -10.300   9.461  67.817  1.00  0.00    -0.251 SA 
HETATM   14  C   UNL     1      -9.547   8.264  70.160  1.00  0.00    -0.167 C  
BRANCH  14  15
HETATM   15  C   UNL     1      -8.726   7.329  69.288  1.00  0.00    -0.137 C  
HETATM   16  H2  UNL     1      -7.068   6.532  68.862  1.00  0.00     0.000 HD 
HETATM   17  N   UNL     1      -8.044   6.554  68.565  1.00  0.00    -0.113 NA 
HETATM   18  H1  UNL     1      -7.492   5.926  67.980  1.00  0.00     0.000 HD 
ENDBRANCH  14  15
BRANCH  14  19
HETATM   19  N   UNL     1      -9.484   7.990  71.547  1.00  0.00    -0.153 NA 
HETATM   20  C   UNL     1     -10.409   7.267  72.290  1.00  0.00    -0.210 A  
HETATM   21  C   UNL     1     -10.000   7.329  73.600  1.00  0.00    -0.330 A  
HETATM   22  N   UNL     1      -8.808   7.975  73.701  1.00  0.00    -0.268 NA 
HETATM   23  C   UNL     1      -8.509   8.329  72.470  1.00  0.00    -0.187 A  
ENDBRANCH  14  19
ENDBRANCH   6   9
TORSDOF 3
ENDMDL
MODEL      104
REMARK 921   NORMALIZED FREE ENERGY PREDICTED BY IDOCK:   -3.40 KCAL/MOL
REMARK 922        TOTAL FREE ENERGY PREDICTED BY IDOCK:   -4.17 KCAL/MOL
REMARK 923 INTER-LIGAND FREE ENERGY PREDICTED BY IDOCK:   -3.83 KCAL/MOL
REMARK 924 INTRA-LIGAND FREE ENERGY PREDICTED BY IDOCK:   -0.34 KCAL/MOL
REMARK 927      BINDING AFFINITY PREDICTED BY RF-SCORE:    0.00 PKD
ROOT
HETATM    1 CL   UNL     1      -6.695  13.014  67.476  1.00  0.00    -0.160 Cl 
HETATM    2  C   UNL     1      -7.902  11.972  68.120  1.00  0.00    -0.145 A  
HETATM    3  C   UNL     1      -9.238  12.350  68.085  1.00  0.00    -0.205 A  
HETATM    4  C   UNL     1     -10.218  11.503  68.617  1.00  0.00    -0.208 A  
HETATM    5 CL   UNL     1     -11.850  12.081  68.572  1.00  0.00    -0.384 Cl 
HETATM    6  C   UNL     1      -9.881  10.254  69.176  1.00  0.00    -0.228 A  
HETATM    7  C   UNL     1      -8.513   9.909  69.203  1.00  0.00    -0.148 A  
HETATM    8  C   UNL     1      -7.534  10.757  68.681  1.00  0.00    -0.102 A  
ENDROOT
BRANCH   6   9
HETATM    9  C   UNL     1     -10.957   9.347  69.773  1.00  0.00    -0.215 C  
HETATM   10  C   UNL     1     -11.133   9.518  71.282  1.00  0.00    -0.379 C  
HETATM   11  S   UNL     1      -9.894   8.502  72.134  1.00  0.00    -0.315 SA 
HETATM   12  C   UNL     1      -9.828   7.205  70.954  1.00  0.00    -0.181 C  
HETATM   13  S   UNL     1     -10.712   7.558  69.473  1.00  0.00    -0.180 SA 
HETATM   14  C   UNL     1      -9.228   6.007  71.171  1.00  0.00    -0.150 C  
BRANCH  14  15
HETATM   15  C   UNL     1      -9.389   4.910  70.132  1.00  0.00    -0.154 C  
HETATM   16  H2  UNL     1      -8.943   3.191  69.491  1.00  0.00     0.000 HD 
HETATM   17  N   UNL     1      -9.523   4.000  69.270  1.00  0.00    -0.179 NA 
HETATM   18  H1  UNL     1      -9.631   3.265  68.571  1.00  0.00     0.000 HD 
ENDBRANCH  14  15
BRANCH  14  19
HETATM   19  N   UNL     1      -8.500   5.628  72.324  1.00  0.00    -0.119 NA 
HETATM   20  C   UNL     1      -9.006   4.984  73.447  1.00  0.00    -0.119 A  
HETATM   21  C   UNL     1      -7.975   4.896  74.351  1.00  0.00    -0.096 A  
HETATM   22  N   UNL     1      -6.821   5.368  73.811  1.00  0.00    -0.078 NA 
HETATM   23  C   UNL     1      -7.151   5.767  72.601  1.00  0.00    -0.085 A  
ENDBRANCH  14  19
ENDBRANCH   6   9
TORSDOF 3
ENDMDL
MODEL      105
REMARK 921   NORMALIZED FREE ENERGY PREDICTED BY IDOCK:   -3.39 KCAL/MOL
REMARK 922        TOTAL FREE ENERGY PREDICTED BY IDOCK:   -4.15 KCAL/MOL
REMARK 923 INTER-LIGAND FREE ENERGY PREDICTED BY IDOCK:   -4.87 KCAL/MOL
REMARK 924 INTRA-LIGAND FREE ENERGY PREDICTED BY IDOCK:    0.72 KCAL/MOL
REMARK 927      BINDING AFFINITY PREDICTED BY RF-SCORE:    0.00 PKD
ROOT
HETATM    1 CL   UNL     1     -13.029   9.245  72.508  1.00  0.00    -0.439 Cl 
HETATM    2  C   UNL     1     -12.047   9.540  71.129  1.00  0.00    -0.347 A  
HETATM    3  C   UNL     1     -12.335  10.605  70.284  1.00  0.00    -0.406 A  
HETATM    4  C   UNL     1     -11.537  10.838  69.157  1.00  0.00    -0.305 A  
HETATM    5 CL   UNL     1     -12.001  12.159  68.138  1.00  0.00    -0.344 Cl 
HETATM    6  C   UNL     1     -10.426  10.021  68.865  1.00  0.00    -0.229 A  
HETATM    7  C   UNL     1     -10.171   8.944  69.739  1.00  0.00    -0.207 A  
HETATM    8  C   UNL     1     -10.972   8.705  70.858  1.00  0.00    -0.301 A  
ENDROOT
BRANCH   6   9
HETATM    9  C   UNL     1      -9.576  10.273  67.619  1.00  0.00    -0.152 C  
HETATM   10  C   UNL     1      -8.074  10.132  67.866  1.00  0.00    -0.109 C  
HETATM   11  S   UNL     1      -7.441  11.695  68.537  1.00  0.00    -0.117 SA 
HETATM   12  C   UNL     1      -8.541  12.761  67.679  1.00  0.00    -0.181 C  
HETATM   13  S   UNL     1      -9.826  11.907  66.831  1.00  0.00    -0.205 SA 
HETATM   14  C   UNL     1      -8.389  14.107  67.597  1.00  0.00    -0.182 C  
BRANCH  14  15
HETATM   15  C   UNL     1      -9.315  14.892  66.683  1.00  0.00    -0.268 C  
HETATM   16  H2  UNL     1     -10.127  16.526  66.196  1.00  0.00     0.000 HD 
HETATM   17  N   UNL     1     -10.083  15.543  65.925  1.00  0.00    -0.321 NA 
HETATM   18  H1  UNL     1     -10.705  16.070  65.312  1.00  0.00     0.000 HD 
ENDBRANCH  14  15
BRANCH  14  19
HETATM   19  N   UNL     1      -7.391  14.880  68.236  1.00  0.00    -0.103 NA 
HETATM   20  C   UNL     1      -7.499  15.516  69.467  1.00  0.00    -0.200 A  
HETATM   21  C   UNL     1      -6.335  16.221  69.653  1.00  0.00    -0.198 A  
HETATM   22  N   UNL     1      -5.461  15.980  68.639  1.00  0.00    -0.100 NA 
HETATM   23  C   UNL     1      -6.097  15.160  67.830  1.00  0.00    -0.154 A  
ENDBRANCH  14  19
ENDBRANCH   6   9
TORSDOF 3
ENDMDL
MODEL      106
REMARK 921   NORMALIZED FREE ENERGY PREDICTED BY IDOCK:   -3.37 KCAL/MOL
REMARK 922        TOTAL FREE ENERGY PREDICTED BY IDOCK:   -4.13 KCAL/MOL
REMARK 923 INTER-LIGAND FREE ENERGY PREDICTED BY IDOCK:   -7.49 KCAL/MOL
REMARK 924 INTRA-LIGAND FREE ENERGY PREDICTED BY IDOCK:    3.36 KCAL/MOL
REMARK 927      BINDING AFFINITY PREDICTED BY RF-SCORE:    0.00 PKD
ROOT
HETATM    1 CL   UNL     1     -13.763  15.599  73.197  1.00  0.00    -0.555 Cl 
HETATM    2  C   UNL     1     -12.887  14.989  71.850  1.00  0.00    -0.337 A  
HETATM    3  C   UNL     1     -12.034  15.825  71.138  1.00  0.00    -0.469 A  
HETATM    4  C   UNL     1     -11.328  15.327  70.036  1.00  0.00    -0.290 A  
HETATM    5 CL   UNL     1     -10.328  16.454  69.183  1.00  0.00    -0.269 Cl 
HETATM    6  C   UNL     1     -11.447  13.981  69.637  1.00  0.00    -0.317 A  
HETATM    7  C   UNL     1     -12.329  13.165  70.378  1.00  0.00    -0.351 A  
HETATM    8  C   UNL     1     -13.041  13.663  71.471  1.00  0.00    -0.431 A  
ENDROOT
BRANCH   6   9
HETATM    9  C   UNL     1     -10.687  13.455  68.420  1.00  0.00    -0.256 C  
HETATM   10  C   UNL     1      -9.167  13.519  68.573  1.00  0.00    -0.101 C  
HETATM   11  S   UNL     1      -8.604  15.185  68.126  1.00  0.00    -0.162 SA 
HETATM   12  C   UNL     1      -9.819  15.504  66.900  1.00  0.00    -0.237 C  
HETATM   13  S   UNL     1     -11.090  14.288  66.839  1.00  0.00    -0.321 SA 
HETATM   14  C   UNL     1      -9.762  16.537  66.021  1.00  0.00    -0.301 C  
BRANCH  14  15
HETATM   15  C   UNL     1     -10.789  16.600  64.903  1.00  0.00    -0.142 C  
HETATM   16  H2  UNL     1     -11.330  17.267  63.220  1.00  0.00     0.000 HD 
HETATM   17  N   UNL     1     -11.640  16.654  63.974  1.00  0.00    -1.496 NA 
HETATM   18  H1  UNL     1     -12.330  16.697  63.224  1.00  0.00     0.000 HD 
ENDBRANCH  14  15
BRANCH  14  19
HETATM   19  N   UNL     1      -8.784  17.558  65.987  1.00  0.00    -0.524 NA 
HETATM   20  C   UNL     1      -8.985  18.905  66.261  1.00  0.00    -0.259 A  
HETATM   21  C   UNL     1      -7.791  19.542  66.018  1.00  0.00    -0.308 A  
HETATM   22  N   UNL     1      -6.824  18.642  65.699  1.00  0.00    -0.410 NA 
HETATM   23  C   UNL     1      -7.428  17.473  65.717  1.00  0.00     0.043 A  
ENDBRANCH  14  19
ENDBRANCH   6   9
TORSDOF 3
ENDMDL
MODEL      107
REMARK 921   NORMALIZED FREE ENERGY PREDICTED BY IDOCK:   -3.36 KCAL/MOL
REMARK 922        TOTAL FREE ENERGY PREDICTED BY IDOCK:   -4.12 KCAL/MOL
REMARK 923 INTER-LIGAND FREE ENERGY PREDICTED BY IDOCK:   -3.85 KCAL/MOL
REMARK 924 INTRA-LIGAND FREE ENERGY PREDICTED BY IDOCK:   -0.27 KCAL/MOL
REMARK 927      BINDING AFFINITY PREDICTED BY RF-SCORE:    0.00 PKD
ROOT
HETATM    1 CL   UNL     1      -9.420  10.783  62.713  1.00  0.00    -0.334 Cl 
HETATM    2  C   UNL     1      -9.831  10.515  64.360  1.00  0.00    -0.341 A  
HETATM    3  C   UNL     1     -10.582  11.457  65.052  1.00  0.00    -0.359 A  
HETATM    4  C   UNL     1     -10.909  11.240  66.396  1.00  0.00    -0.251 A  
HETATM    5 CL   UNL     1     -11.806  12.491  67.188  1.00  0.00    -0.432 Cl 
HETATM    6  C   UNL     1     -10.507  10.068  67.067  1.00  0.00    -0.302 A  
HETATM    7  C   UNL     1      -9.737   9.139  66.335  1.00  0.00    -0.330 A  
HETATM    8  C   UNL     1      -9.403   9.359  64.997  1.00  0.00    -0.258 A  
ENDROOT
BRANCH   6   9
HETATM    9  C   UNL     1     -10.852   9.852  68.541  1.00  0.00    -0.217 C  
HETATM   10  C   UNL     1      -9.906  10.571  69.502  1.00  0.00    -0.142 C  
HETATM   11  S   UNL     1      -8.436   9.538  69.760  1.00  0.00    -0.196 SA 
HETATM   12  C   UNL     1      -9.236   7.982  69.617  1.00  0.00    -0.152 C  
HETATM   13  S   UNL     1     -10.906   8.100  69.072  1.00  0.00     0.104 SA 
HETATM   14  C   UNL     1      -8.669   6.799  69.963  1.00  0.00    -0.141 C  
BRANCH  14  15
HETATM   15  C   UNL     1      -9.529   5.546  69.950  1.00  0.00    -0.157 C  
HETATM   16  H2  UNL     1     -11.085   4.641  69.379  1.00  0.00     0.000 HD 
HETATM   17  N   UNL     1     -10.242   4.507  69.938  1.00  0.00    -0.126 NA 
HETATM   18  H1  UNL     1     -10.819   3.666  69.930  1.00  0.00     0.000 HD 
ENDBRANCH  14  15
BRANCH  14  19
HETATM   19  N   UNL     1      -7.342   6.603  70.413  1.00  0.00    -0.080 NA 
HETATM   20  C   UNL     1      -6.179   6.886  69.707  1.00  0.00    -0.034 A  
HETATM   21  C   UNL     1      -5.130   6.457  70.484  1.00  0.00    -0.014 A  
HETATM   22  N   UNL     1      -5.576   6.006  71.687  1.00  0.00    -0.022 NA 
HETATM   23  C   UNL     1      -6.884   6.132  71.632  1.00  0.00    -0.068 A  
ENDBRANCH  14  19
ENDBRANCH   6   9
TORSDOF 3
ENDMDL
MODEL      108
REMARK 921   NORMALIZED FREE ENERGY PREDICTED BY IDOCK:   -3.28 KCAL/MOL
REMARK 922        TOTAL FREE ENERGY PREDICTED BY IDOCK:   -4.03 KCAL/MOL
REMARK 923 INTER-LIGAND FREE ENERGY PREDICTED BY IDOCK:   -3.68 KCAL/MOL
REMARK 924 INTRA-LIGAND FREE ENERGY PREDICTED BY IDOCK:   -0.36 KCAL/MOL
REMARK 927      BINDING AFFINITY PREDICTED BY RF-SCORE:    0.00 PKD
ROOT
HETATM    1 CL   UNL     1     -10.551   6.439  74.055  1.00  0.00    -0.265 Cl 
HETATM    2  C   UNL     1      -9.933   5.536  72.729  1.00  0.00    -0.170 A  
HETATM    3  C   UNL     1      -8.841   4.696  72.907  1.00  0.00    -0.118 A  
HETATM    4  C   UNL     1      -8.336   3.968  71.823  1.00  0.00    -0.094 A  
HETATM    5 CL   UNL     1      -6.944   2.985  72.131  1.00  0.00    -0.032 Cl 
HETATM    6  C   UNL     1      -8.925   4.053  70.546  1.00  0.00    -0.159 A  
HETATM    7  C   UNL     1     -10.026   4.923  70.401  1.00  0.00    -0.316 A  
HETATM    8  C   UNL     1     -10.525   5.657  71.480  1.00  0.00    -0.298 A  
ENDROOT
BRANCH   6   9
HETATM    9  C   UNL     1      -8.352   3.269  69.365  1.00  0.00    -0.059 C  
HETATM   10  C   UNL     1      -6.943   3.708  68.967  1.00  0.00    -0.046 C  
HETATM   11  S   UNL     1      -7.066   5.148  67.869  1.00  0.00    -0.067 SA 
HETATM   12  C   UNL     1      -8.575   4.701  67.093  1.00  0.00    -0.104 C  
HETATM   13  S   UNL     1      -9.366   3.317  67.841  1.00  0.00    -0.170 SA 
HETATM   14  C   UNL     1      -9.064   5.297  65.976  1.00  0.00    -0.152 C  
BRANCH  14  15
HETATM   15  C   UNL     1     -10.293   4.703  65.310  1.00  0.00    -0.090 C  
HETATM   16  H2  UNL     1     -12.172   4.583  65.162  1.00  0.00     0.000 HD 
HETATM   17  N   UNL     1     -11.314   4.210  64.757  1.00  0.00    -0.962 NA 
HETATM   18  H1  UNL     1     -12.139   3.810  64.310  1.00  0.00     0.000 HD 
ENDBRANCH  14  15
BRANCH  14  19
HETATM   19  N   UNL     1      -8.503   6.407  65.303  1.00  0.00    -0.133 NA 
HETATM   20  C   UNL     1      -8.727   7.748  65.588  1.00  0.00    -0.104 A  
HETATM   21  C   UNL     1      -8.057   8.475  64.633  1.00  0.00    -0.153 A  
HETATM   22  N   UNL     1      -7.343   7.653  63.819  1.00  0.00    -0.086 NA 
HETATM   23  C   UNL     1      -7.598   6.438  64.254  1.00  0.00    -0.099 A  
ENDBRANCH  14  19
ENDBRANCH   6   9
TORSDOF 3
ENDMDL
MODEL      109
REMARK 921   NORMALIZED FREE ENERGY PREDICTED BY IDOCK:   -3.28 KCAL/MOL
REMARK 922        TOTAL FREE ENERGY PREDICTED BY IDOCK:   -4.03 KCAL/MOL
REMARK 923 INTER-LIGAND FREE ENERGY PREDICTED BY IDOCK:   -3.75 KCAL/MOL
REMARK 924 INTRA-LIGAND FREE ENERGY PREDICTED BY IDOCK:   -0.27 KCAL/MOL
REMARK 927      BINDING AFFINITY PREDICTED BY RF-SCORE:    0.00 PKD
ROOT
HETATM    1 CL   UNL     1      -7.714   7.076  73.854  1.00  0.00    -0.115 Cl 
HETATM    2  C   UNL     1      -8.612   7.280  72.402  1.00  0.00    -0.115 A  
HETATM    3  C   UNL     1      -9.585   8.268  72.318  1.00  0.00    -0.355 A  
HETATM    4  C   UNL     1     -10.319   8.427  71.137  1.00  0.00    -0.212 A  
HETATM    5 CL   UNL     1     -11.543   9.652  71.143  1.00  0.00    -0.421 Cl 
HETATM    6  C   UNL     1     -10.081   7.613  70.012  1.00  0.00    -0.204 A  
HETATM    7  C   UNL     1      -9.093   6.614  70.137  1.00  0.00    -0.155 A  
HETATM    8  C   UNL     1      -8.366   6.448  71.318  1.00  0.00    -0.123 A  
ENDROOT
BRANCH   6   9
HETATM    9  C   UNL     1     -10.904   7.782  68.735  1.00  0.00     0.030 C  
HETATM   10  C   UNL     1     -10.795   6.596  67.775  1.00  0.00    -0.294 C  
HETATM   11  S   UNL     1      -9.302   6.796  66.764  1.00  0.00    -0.164 SA 
HETATM   12  C   UNL     1      -9.321   8.550  66.694  1.00  0.00    -0.189 C  
HETATM   13  S   UNL     1     -10.516   9.282  67.759  1.00  0.00    -0.245 SA 
HETATM   14  C   UNL     1      -8.554   9.287  65.851  1.00  0.00    -0.148 C  
BRANCH  14  15
HETATM   15  C   UNL     1      -8.790  10.786  65.772  1.00  0.00    -0.188 C  
HETATM   16  H2  UNL     1      -9.438  12.379  66.553  1.00  0.00     0.000 HD 
HETATM   17  N   UNL     1      -8.985  12.030  65.708  1.00  0.00    -0.423 NA 
HETATM   18  H1  UNL     1      -9.144  13.036  65.655  1.00  0.00     0.000 HD 
ENDBRANCH  14  15
BRANCH  14  19
HETATM   19  N   UNL     1      -7.573   8.793  64.959  1.00  0.00    -0.097 NA 
HETATM   20  C   UNL     1      -6.218   8.636  65.225  1.00  0.00    -0.056 A  
HETATM   21  C   UNL     1      -5.630   8.218  64.055  1.00  0.00    -0.056 A  
HETATM   22  N   UNL     1      -6.570   8.011  63.093  1.00  0.00    -0.079 NA 
HETATM   23  C   UNL     1      -7.713   8.329  63.662  1.00  0.00    -0.146 A  
ENDBRANCH  14  19
ENDBRANCH   6   9
TORSDOF 3
ENDMDL
MODEL      110
REMARK 921   NORMALIZED FREE ENERGY PREDICTED BY IDOCK:   -3.23 KCAL/MOL
REMARK 922        TOTAL FREE ENERGY PREDICTED BY IDOCK:   -3.97 KCAL/MOL
REMARK 923 INTER-LIGAND FREE ENERGY PREDICTED BY IDOCK:   -3.88 KCAL/MOL
REMARK 924 INTRA-LIGAND FREE ENERGY PREDICTED BY IDOCK:   -0.10 KCAL/MOL
REMARK 927      BINDING AFFINITY PREDICTED BY RF-SCORE:    0.00 PKD
ROOT
HETATM    1 CL   UNL     1      -9.514  17.136  68.689  1.00  0.00    -0.269 Cl 
HETATM    2  C   UNL     1     -10.215  15.573  68.555  1.00  0.00    -0.215 A  
HETATM    3  C   UNL     1     -10.522  15.052  67.303  1.00  0.00    -0.265 A  
HETATM    4  C   UNL     1     -11.100  13.782  67.197  1.00  0.00    -0.302 A  
HETATM    5 CL   UNL     1     -11.491  13.238  65.600  1.00  0.00    -0.331 Cl 
HETATM    6  C   UNL     1     -11.365  13.000  68.340  1.00  0.00    -0.326 A  
HETATM    7  C   UNL     1     -11.050  13.565  69.594  1.00  0.00    -0.043 A  
HETATM    8  C   UNL     1     -10.481  14.837  69.701  1.00  0.00    -0.130 A  
ENDROOT
BRANCH   6   9
HETATM    9  C   UNL     1     -12.016  11.623  68.212  1.00  0.00    -0.166 C  
HETATM   10  C   UNL     1     -12.183  10.899  69.549  1.00  0.00    -0.261 C  
HETATM   11  S   UNL     1     -10.628  10.057  69.957  1.00  0.00    -0.303 SA 
HETATM   12  C   UNL     1     -10.143   9.688  68.311  1.00  0.00    -0.177 C  
HETATM   13  S   UNL     1     -11.151  10.461  67.092  1.00  0.00     0.001 SA 
HETATM   14  C   UNL     1      -9.142   8.831  67.986  1.00  0.00    -0.140 C  
BRANCH  14  15
HETATM   15  C   UNL     1      -8.936   8.471  66.524  1.00  0.00    -0.161 C  
HETATM   16  H2  UNL     1      -8.462   8.982  64.769  1.00  0.00     0.000 HD 
HETATM   17  N   UNL     1      -8.765   8.173  65.311  1.00  0.00    -0.349 NA 
HETATM   18  H1  UNL     1      -8.627   7.931  64.330  1.00  0.00     0.000 HD 
ENDBRANCH  14  15
BRANCH  14  19
HETATM   19  N   UNL     1      -8.283   8.162  68.888  1.00  0.00    -0.123 NA 
HETATM   20  C   UNL     1      -8.415   6.854  69.341  1.00  0.00    -0.133 A  
HETATM   21  C   UNL     1      -7.420   6.652  70.267  1.00  0.00    -0.094 A  
HETATM   22  N   UNL     1      -6.609   7.741  70.344  1.00  0.00    -0.038 NA 
HETATM   23  C   UNL     1      -7.122   8.608  69.497  1.00  0.00    -0.055 A  
ENDBRANCH  14  19
ENDBRANCH   6   9
TORSDOF 3
ENDMDL
MODEL      111
REMARK 921   NORMALIZED FREE ENERGY PREDICTED BY IDOCK:   -3.20 KCAL/MOL
REMARK 922        TOTAL FREE ENERGY PREDICTED BY IDOCK:   -3.94 KCAL/MOL
REMARK 923 INTER-LIGAND FREE ENERGY PREDICTED BY IDOCK:   -3.77 KCAL/MOL
REMARK 924 INTRA-LIGAND FREE ENERGY PREDICTED BY IDOCK:   -0.17 KCAL/MOL
REMARK 927      BINDING AFFINITY PREDICTED BY RF-SCORE:    0.00 PKD
ROOT
HETATM    1 CL   UNL     1      -5.587   8.400  72.577  1.00  0.00    -0.044 Cl 
HETATM    2  C   UNL     1      -5.864   9.244  71.106  1.00  0.00    -0.064 A  
HETATM    3  C   UNL     1      -6.452   8.591  70.029  1.00  0.00    -0.038 A  
HETATM    4  C   UNL     1      -6.670   9.279  68.829  1.00  0.00    -0.053 A  
HETATM    5 CL   UNL     1      -7.364   8.370  67.529  1.00  0.00    -0.091 Cl 
HETATM    6  C   UNL     1      -6.320  10.637  68.690  1.00  0.00    -0.046 A  
HETATM    7  C   UNL     1      -5.716  11.264  69.801  1.00  0.00    -0.077 A  
HETATM    8  C   UNL     1      -5.490  10.576  70.995  1.00  0.00    -0.093 A  
ENDROOT
BRANCH   6   9
HETATM    9  C   UNL     1      -6.544  11.372  67.368  1.00  0.00    -0.090 C  
HETATM   10  C   UNL     1      -5.958  12.784  67.346  1.00  0.00    -0.107 C  
HETATM   11  S   UNL     1      -7.147  13.923  68.107  1.00  0.00    -0.139 SA 
HETATM   12  C   UNL     1      -8.605  13.094  67.589  1.00  0.00    -0.193 C  
HETATM   13  S   UNL     1      -8.295  11.524  66.856  1.00  0.00    -0.169 SA 
HETATM   14  C   UNL     1      -9.851  13.625  67.664  1.00  0.00    -0.228 C  
BRANCH  14  15
HETATM   15  C   UNL     1     -11.006  12.871  67.025  1.00  0.00    -0.262 C  
HETATM   16  H2  UNL     1     -12.811  12.813  66.476  1.00  0.00     0.000 HD 
HETATM   17  N   UNL     1     -11.964  12.246  66.496  1.00  0.00    -0.626 NA 
HETATM   18  H1  UNL     1     -12.739  11.739  66.067  1.00  0.00     0.000 HD 
ENDBRANCH  14  15
BRANCH  14  19
HETATM   19  N   UNL     1     -10.200  14.874  68.229  1.00  0.00    -0.221 NA 
HETATM   20  C   UNL     1     -10.075  16.119  67.625  1.00  0.00    -0.248 A  
HETATM   21  C   UNL     1     -10.443  17.054  68.562  1.00  0.00    -0.373 A  
HETATM   22  N   UNL     1     -10.886  16.448  69.696  1.00  0.00    -0.338 NA 
HETATM   23  C   UNL     1     -10.761  15.159  69.462  1.00  0.00    -0.266 A  
ENDBRANCH  14  19
ENDBRANCH   6   9
TORSDOF 3
ENDMDL
MODEL      112
REMARK 921   NORMALIZED FREE ENERGY PREDICTED BY IDOCK:   -3.19 KCAL/MOL
REMARK 922        TOTAL FREE ENERGY PREDICTED BY IDOCK:   -3.92 KCAL/MOL
REMARK 923 INTER-LIGAND FREE ENERGY PREDICTED BY IDOCK:   -3.66 KCAL/MOL
REMARK 924 INTRA-LIGAND FREE ENERGY PREDICTED BY IDOCK:   -0.27 KCAL/MOL
REMARK 927      BINDING AFFINITY PREDICTED BY RF-SCORE:    0.00 PKD
ROOT
HETATM    1 CL   UNL     1     -10.766   2.908  72.720  1.00  0.00    -0.177 Cl 
HETATM    2  C   UNL     1      -9.748   4.080  71.983  1.00  0.00    -0.165 A  
HETATM    3  C   UNL     1      -8.847   3.697  70.997  1.00  0.00    -0.136 A  
HETATM    4  C   UNL     1      -8.014   4.653  70.403  1.00  0.00    -0.064 A  
HETATM    5 CL   UNL     1      -6.890   4.074  69.219  1.00  0.00    -0.045 Cl 
HETATM    6  C   UNL     1      -8.080   6.012  70.770  1.00  0.00    -0.120 A  
HETATM    7  C   UNL     1      -9.000   6.361  71.782  1.00  0.00    -0.139 A  
HETATM    8  C   UNL     1      -9.825   5.407  72.381  1.00  0.00    -0.195 A  
ENDROOT
BRANCH   6   9
HETATM    9  C   UNL     1      -7.150   7.043  70.130  1.00  0.00    -0.067 C  
HETATM   10  C   UNL     1      -7.125   8.383  70.864  1.00  0.00    -0.057 C  
HETATM   11  S   UNL     1      -8.526   9.388  70.298  1.00  0.00    -0.222 SA 
HETATM   12  C   UNL     1      -8.569   8.791  68.648  1.00  0.00    -0.134 C  
HETATM   13  S   UNL     1      -7.506   7.415  68.372  1.00  0.00    -0.108 SA 
HETATM   14  C   UNL     1      -9.283   9.366  67.648  1.00  0.00    -0.127 C  
BRANCH  14  15
HETATM   15  C   UNL     1      -9.099   8.851  66.230  1.00  0.00    -0.190 C  
HETATM   16  H2  UNL     1      -8.164   8.886  64.590  1.00  0.00     0.000 HD 
HETATM   17  N   UNL     1      -8.947   8.424  65.054  1.00  0.00    -0.413 NA 
HETATM   18  H1  UNL     1      -8.824   8.078  64.102  1.00  0.00     0.000 HD 
ENDBRANCH  14  15
BRANCH  14  19
HETATM   19  N   UNL     1     -10.158  10.471  67.769  1.00  0.00    -0.170 NA 
HETATM   20  C   UNL     1      -9.863  11.796  67.472  1.00  0.00    -0.186 A  
HETATM   21  C   UNL     1     -10.967  12.536  67.822  1.00  0.00    -0.234 A  
HETATM   22  N   UNL     1     -11.978  11.725  68.232  1.00  0.00    -0.528 NA 
HETATM   23  C   UNL     1     -11.485  10.507  68.162  1.00  0.00    -0.179 A  
ENDBRANCH  14  19
ENDBRANCH   6   9
TORSDOF 3
ENDMDL
MODEL      113
REMARK 921   NORMALIZED FREE ENERGY PREDICTED BY IDOCK:   -3.19 KCAL/MOL
REMARK 922        TOTAL FREE ENERGY PREDICTED BY IDOCK:   -3.92 KCAL/MOL
REMARK 923 INTER-LIGAND FREE ENERGY PREDICTED BY IDOCK:   -3.53 KCAL/MOL
REMARK 924 INTRA-LIGAND FREE ENERGY PREDICTED BY IDOCK:   -0.39 KCAL/MOL
REMARK 927      BINDING AFFINITY PREDICTED BY RF-SCORE:    0.00 PKD
ROOT
HETATM    1 CL   UNL     1      -5.149   7.673  74.062  1.00  0.00    -0.045 Cl 
HETATM    2  C   UNL     1      -6.647   7.737  73.223  1.00  0.00    -0.074 A  
HETATM    3  C   UNL     1      -7.843   7.619  73.922  1.00  0.00    -0.189 A  
HETATM    4  C   UNL     1      -9.061   7.664  73.234  1.00  0.00    -0.215 A  
HETATM    5 CL   UNL     1     -10.496   7.461  74.183  1.00  0.00     0.048 Cl 
HETATM    6  C   UNL     1      -9.108   7.846  71.837  1.00  0.00    -0.192 A  
HETATM    7  C   UNL     1      -7.874   7.952  71.160  1.00  0.00    -0.086 A  
HETATM    8  C   UNL     1      -6.658   7.898  71.844  1.00  0.00    -0.050 A  
ENDROOT
BRANCH   6   9
HETATM    9  C   UNL     1     -10.444   7.872  71.095  1.00  0.00    -0.204 C  
HETATM   10  C   UNL     1     -11.114   6.502  70.994  1.00  0.00    -0.288 C  
HETATM   11  S   UNL     1     -10.416   5.610  69.576  1.00  0.00    -0.311 SA 
HETATM   12  C   UNL     1     -10.125   7.011  68.561  1.00  0.00    -0.165 C  
HETATM   13  S   UNL     1     -10.368   8.544  69.392  1.00  0.00    -0.214 SA 
HETATM   14  C   UNL     1      -9.819   6.945  67.240  1.00  0.00    -0.152 C  
BRANCH  14  15
HETATM   15  C   UNL     1      -9.759   8.235  66.439  1.00  0.00    -0.230 C  
HETATM   16  H2  UNL     1      -9.727  10.122  66.385  1.00  0.00     0.000 HD 
HETATM   17  N   UNL     1      -9.709   9.305  65.775  1.00  0.00    -0.359 NA 
HETATM   18  H1  UNL     1      -9.669  10.171  65.237  1.00  0.00     0.000 HD 
ENDBRANCH  14  15
BRANCH  14  19
HETATM   19  N   UNL     1      -9.608   5.767  66.485  1.00  0.00    -0.152 NA 
HETATM   20  C   UNL     1      -8.381   5.191  66.177  1.00  0.00    -0.114 A  
HETATM   21  C   UNL     1      -8.641   4.121  65.355  1.00  0.00    -0.118 A  
HETATM   22  N   UNL     1      -9.981   3.940  65.212  1.00  0.00    -0.178 NA 
HETATM   23  C   UNL     1     -10.531   4.907  65.915  1.00  0.00    -0.239 A  
ENDBRANCH  14  19
ENDBRANCH   6   9
TORSDOF 3
ENDMDL
MODEL      114
REMARK 921   NORMALIZED FREE ENERGY PREDICTED BY IDOCK:   -3.16 KCAL/MOL
REMARK 922        TOTAL FREE ENERGY PREDICTED BY IDOCK:   -3.89 KCAL/MOL
REMARK 923 INTER-LIGAND FREE ENERGY PREDICTED BY IDOCK:   -3.55 KCAL/MOL
REMARK 924 INTRA-LIGAND FREE ENERGY PREDICTED BY IDOCK:   -0.34 KCAL/MOL
REMARK 927      BINDING AFFINITY PREDICTED BY RF-SCORE:    0.00 PKD
ROOT
HETATM    1 CL   UNL     1     -10.151  20.838  64.728  1.00  0.00     1.256 Cl 
HETATM    2  C   UNL     1      -9.886  19.850  66.109  1.00  0.00    -0.458 A  
HETATM    3  C   UNL     1      -8.838  20.131  66.976  1.00  0.00    -0.439 A  
HETATM    4  C   UNL     1      -8.620  19.320  68.096  1.00  0.00    -0.327 A  
HETATM    5 CL   UNL     1      -7.261  19.721  69.092  1.00  0.00    -0.358 Cl 
HETATM    6  C   UNL     1      -9.458  18.223  68.379  1.00  0.00    -0.336 A  
HETATM    7  C   UNL     1     -10.506  17.962  67.471  1.00  0.00    -0.398 A  
HETATM    8  C   UNL     1     -10.718  18.765  66.349  1.00  0.00    -0.324 A  
ENDROOT
BRANCH   6   9
HETATM    9  C   UNL     1      -9.198  17.332  69.594  1.00  0.00     0.719 C  
HETATM   10  C   UNL     1      -8.183  16.219  69.330  1.00  0.00    -0.148 C  
HETATM   11  S   UNL     1      -9.038  14.815  68.562  1.00  0.00    -0.189 SA 
HETATM   12  C   UNL     1     -10.578  15.027  69.378  1.00  0.00    -0.256 C  
HETATM   13  S   UNL     1     -10.686  16.526  70.294  1.00  0.00     0.078 SA 
HETATM   14  C   UNL     1     -11.571  14.102  69.382  1.00  0.00    -0.304 C  
BRANCH  14  15
HETATM   15  C   UNL     1     -12.784  14.338  70.266  1.00  0.00    -0.249 C  
HETATM   16  H2  UNL     1     -13.518  14.902  71.913  1.00  0.00     0.000 HD 
HETATM   17  N   UNL     1     -13.790  14.534  71.001  1.00  0.00    -0.454 NA 
HETATM   18  H1  UNL     1     -14.604  14.692  71.595  1.00  0.00     0.000 HD 
ENDBRANCH  14  15
BRANCH  14  19
HETATM   19  N   UNL     1     -11.577  12.872  68.684  1.00  0.00    -0.294 NA 
HETATM   20  C   UNL     1     -11.707  12.700  67.311  1.00  0.00    -0.370 A  
HETATM   21  C   UNL     1     -11.752  11.346  67.083  1.00  0.00     0.030 A  
HETATM   22  N   UNL     1     -11.558  10.658  68.240  1.00  0.00    -0.431 NA 
HETATM   23  C   UNL     1     -11.427  11.583  69.167  1.00  0.00    -0.297 A  
ENDBRANCH  14  19
ENDBRANCH   6   9
TORSDOF 3
ENDMDL
MODEL      115
REMARK 921   NORMALIZED FREE ENERGY PREDICTED BY IDOCK:   -3.13 KCAL/MOL
REMARK 922        TOTAL FREE ENERGY PREDICTED BY IDOCK:   -3.86 KCAL/MOL
REMARK 923 INTER-LIGAND FREE ENERGY PREDICTED BY IDOCK:   -3.91 KCAL/MOL
REMARK 924 INTRA-LIGAND FREE ENERGY PREDICTED BY IDOCK:    0.05 KCAL/MOL
REMARK 927      BINDING AFFINITY PREDICTED BY RF-SCORE:    0.00 PKD
ROOT
HETATM    1 CL   UNL     1      -9.384  15.680  65.697  1.00  0.00    -0.294 Cl 
HETATM    2  C   UNL     1      -9.288  14.276  66.683  1.00  0.00    -0.284 A  
HETATM    3  C   UNL     1     -10.443  13.574  67.010  1.00  0.00    -0.265 A  
HETATM    4  C   UNL     1     -10.362  12.435  67.819  1.00  0.00    -0.216 A  
HETATM    5 CL   UNL     1     -11.858  11.654  68.211  1.00  0.00    -0.367 Cl 
HETATM    6  C   UNL     1      -9.124  11.965  68.302  1.00  0.00    -0.183 A  
HETATM    7  C   UNL     1      -7.975  12.709  67.959  1.00  0.00    -0.155 A  
HETATM    8  C   UNL     1      -8.056  13.851  67.158  1.00  0.00    -0.103 A  
ENDROOT
BRANCH   6   9
HETATM    9  C   UNL     1      -9.052  10.732  69.203  1.00  0.00    -0.095 C  
HETATM   10  C   UNL     1      -7.628  10.222  69.428  1.00  0.00    -0.137 C  
HETATM   11  S   UNL     1      -7.161   9.155  68.037  1.00  0.00    -0.079 SA 
HETATM   12  C   UNL     1      -8.759   8.503  67.718  1.00  0.00    -0.137 C  
HETATM   13  S   UNL     1     -10.037   9.299  68.630  1.00  0.00    -0.195 SA 
HETATM   14  C   UNL     1      -9.000   7.438  66.912  1.00  0.00    -0.135 C  
BRANCH  14  15
HETATM   15  C   UNL     1     -10.408   6.869  66.855  1.00  0.00    -0.262 C  
HETATM   16  H2  UNL     1     -11.770   5.978  65.898  1.00  0.00     0.000 HD 
HETATM   17  N   UNL     1     -11.576   6.397  66.808  1.00  0.00    -0.628 NA 
HETATM   18  H1  UNL     1     -12.521   6.016  66.770  1.00  0.00     0.000 HD 
ENDBRANCH  14  15
BRANCH  14  19
HETATM   19  N   UNL     1      -8.044   6.732  66.144  1.00  0.00    -0.110 NA 
HETATM   20  C   UNL     1      -7.658   7.016  64.840  1.00  0.00    -0.106 A  
HETATM   21  C   UNL     1      -6.781   6.028  64.461  1.00  0.00    -0.046 A  
HETATM   22  N   UNL     1      -6.524   5.190  65.501  1.00  0.00    -0.035 NA 
HETATM   23  C   UNL     1      -7.259   5.646  66.493  1.00  0.00    -0.077 A  
ENDBRANCH  14  19
ENDBRANCH   6   9
TORSDOF 3
ENDMDL
MODEL      116
REMARK 921   NORMALIZED FREE ENERGY PREDICTED BY IDOCK:   -3.12 KCAL/MOL
REMARK 922        TOTAL FREE ENERGY PREDICTED BY IDOCK:   -3.84 KCAL/MOL
REMARK 923 INTER-LIGAND FREE ENERGY PREDICTED BY IDOCK:   -3.56 KCAL/MOL
REMARK 924 INTRA-LIGAND FREE ENERGY PREDICTED BY IDOCK:   -0.28 KCAL/MOL
REMARK 927      BINDING AFFINITY PREDICTED BY RF-SCORE:    0.00 PKD
ROOT
HETATM    1 CL   UNL     1      -6.241  13.345  67.587  1.00  0.00    -0.161 Cl 
HETATM    2  C   UNL     1      -7.376  12.186  68.153  1.00  0.00    -0.103 A  
HETATM    3  C   UNL     1      -8.715  12.291  67.797  1.00  0.00    -0.174 A  
HETATM    4  C   UNL     1      -9.639  11.350  68.266  1.00  0.00    -0.192 A  
HETATM    5 CL   UNL     1     -11.292  11.590  67.808  1.00  0.00    -0.347 Cl 
HETATM    6  C   UNL     1      -9.238  10.276  69.086  1.00  0.00    -0.203 A  
HETATM    7  C   UNL     1      -7.872  10.208  69.435  1.00  0.00    -0.150 A  
HETATM    8  C   UNL     1      -6.951  11.151  68.975  1.00  0.00    -0.101 A  
ENDROOT
BRANCH   6   9
HETATM    9  C   UNL     1     -10.259   9.266  69.609  1.00  0.00    -0.208 C  
HETATM   10  C   UNL     1      -9.791   8.512  70.854  1.00  0.00    -0.189 C  
HETATM   11  S   UNL     1      -8.764   7.108  70.337  1.00  0.00    -0.151 SA 
HETATM   12  C   UNL     1      -9.597   6.773  68.829  1.00  0.00    -0.132 C  
HETATM   13  S   UNL     1     -10.784   7.999  68.395  1.00  0.00     0.067 SA 
HETATM   14  C   UNL     1      -9.419   5.646  68.094  1.00  0.00    -0.110 C  
BRANCH  14  15
HETATM   15  C   UNL     1     -10.326   5.402  66.900  1.00  0.00    -0.260 C  
HETATM   16  H2  UNL     1     -11.065   4.219  65.626  1.00  0.00     0.000 HD 
HETATM   17  N   UNL     1     -11.079   5.199  65.909  1.00  0.00    -0.803 NA 
HETATM   18  H1  UNL     1     -11.688   5.036  65.107  1.00  0.00     0.000 HD 
ENDBRANCH  14  15
BRANCH  14  19
HETATM   19  N   UNL     1      -8.497   4.606  68.361  1.00  0.00    -0.090 NA 
HETATM   20  C   UNL     1      -7.163   4.564  67.973  1.00  0.00    -0.065 A  
HETATM   21  C   UNL     1      -6.676   3.339  68.362  1.00  0.00    -0.045 A  
HETATM   22  N   UNL     1      -7.616   2.650  69.063  1.00  0.00    -0.047 NA 
HETATM   23  C   UNL     1      -8.673   3.433  69.075  1.00  0.00    -0.095 A  
ENDBRANCH  14  19
ENDBRANCH   6   9
TORSDOF 3
ENDMDL
MODEL      117
REMARK 921   NORMALIZED FREE ENERGY PREDICTED BY IDOCK:   -3.09 KCAL/MOL
REMARK 922        TOTAL FREE ENERGY PREDICTED BY IDOCK:   -3.81 KCAL/MOL
REMARK 923 INTER-LIGAND FREE ENERGY PREDICTED BY IDOCK:   -3.99 KCAL/MOL
REMARK 924 INTRA-LIGAND FREE ENERGY PREDICTED BY IDOCK:    0.19 KCAL/MOL
REMARK 927      BINDING AFFINITY PREDICTED BY RF-SCORE:    0.00 PKD
ROOT
HETATM    1 CL   UNL     1      -6.945   7.450  63.883  1.00  0.00    -0.056 Cl 
HETATM    2  C   UNL     1      -7.496   8.502  65.125  1.00  0.00    -0.091 A  
HETATM    3  C   UNL     1      -7.679   8.019  66.416  1.00  0.00    -0.092 A  
HETATM    4  C   UNL     1      -8.135   8.877  67.424  1.00  0.00    -0.108 A  
HETATM    5 CL   UNL     1      -8.379   8.174  68.988  1.00  0.00    -0.127 Cl 
HETATM    6  C   UNL     1      -8.399  10.237  67.165  1.00  0.00    -0.122 A  
HETATM    7  C   UNL     1      -8.211  10.688  65.841  1.00  0.00    -0.159 A  
HETATM    8  C   UNL     1      -7.765   9.831  64.833  1.00  0.00    -0.127 A  
ENDROOT
BRANCH   6   9
HETATM    9  C   UNL     1      -8.916  11.158  68.269  1.00  0.00    -0.166 C  
HETATM   10  C   UNL     1     -10.403  11.492  68.140  1.00  0.00    -0.195 C  
HETATM   11  S   UNL     1     -10.594  12.877  66.983  1.00  0.00    -0.254 SA 
HETATM   12  C   UNL     1      -9.089  13.693  67.371  1.00  0.00    -0.222 C  
HETATM   13  S   UNL     1      -8.032  12.755  68.420  1.00  0.00    -0.108 SA 
HETATM   14  C   UNL     1      -8.783  14.955  66.977  1.00  0.00    -0.238 C  
BRANCH  14  15
HETATM   15  C   UNL     1      -7.522  15.605  67.522  1.00  0.00    -0.179 C  
HETATM   16  H2  UNL     1      -5.876  16.479  67.220  1.00  0.00     0.000 HD 
HETATM   17  N   UNL     1      -6.476  16.144  67.974  1.00  0.00    -0.123 NA 
HETATM   18  H1  UNL     1      -5.629  16.579  68.340  1.00  0.00     0.000 HD 
ENDBRANCH  14  15
BRANCH  14  19
HETATM   19  N   UNL     1      -9.565  15.787  66.141  1.00  0.00    -0.304 NA 
HETATM   20  C   UNL     1      -9.625  17.175  66.178  1.00  0.00    -0.218 A  
HETATM   21  C   UNL     1     -10.572  17.556  65.259  1.00  0.00     0.132 A  
HETATM   22  N   UNL     1     -11.040  16.477  64.577  1.00  0.00    -0.866 NA 
HETATM   23  C   UNL     1     -10.406  15.447  65.096  1.00  0.00    -0.374 A  
ENDBRANCH  14  19
ENDBRANCH   6   9
TORSDOF 3
ENDMDL
MODEL      118
REMARK 921   NORMALIZED FREE ENERGY PREDICTED BY IDOCK:   -3.08 KCAL/MOL
REMARK 922        TOTAL FREE ENERGY PREDICTED BY IDOCK:   -3.80 KCAL/MOL
REMARK 923 INTER-LIGAND FREE ENERGY PREDICTED BY IDOCK:   -4.00 KCAL/MOL
REMARK 924 INTRA-LIGAND FREE ENERGY PREDICTED BY IDOCK:    0.20 KCAL/MOL
REMARK 927      BINDING AFFINITY PREDICTED BY RF-SCORE:    0.00 PKD
ROOT
HETATM    1 CL   UNL     1     -14.313   8.931  72.630  1.00  0.00    -0.365 Cl 
HETATM    2  C   UNL     1     -12.834   9.164  71.786  1.00  0.00    -0.377 A  
HETATM    3  C   UNL     1     -12.632  10.319  71.041  1.00  0.00    -0.487 A  
HETATM    4  C   UNL     1     -11.429  10.503  70.349  1.00  0.00    -0.341 A  
HETATM    5 CL   UNL     1     -11.287  11.951  69.410  1.00  0.00    -0.330 Cl 
HETATM    6  C   UNL     1     -10.399   9.542  70.403  1.00  0.00    -0.334 A  
HETATM    7  C   UNL     1     -10.644   8.377  71.160  1.00  0.00    -0.266 A  
HETATM    8  C   UNL     1     -11.847   8.189  71.844  1.00  0.00    -0.366 A  
ENDROOT
BRANCH   6   9
HETATM    9  C   UNL     1      -9.098   9.744  69.625  1.00  0.00    -0.220 C  
HETATM   10  C   UNL     1      -9.220   9.419  68.136  1.00  0.00    -0.130 C  
HETATM   11  S   UNL     1      -9.005   7.632  67.907  1.00  0.00    -0.127 SA 
HETATM   12  C   UNL     1      -7.871   7.379  69.223  1.00  0.00    -0.116 C  
HETATM   13  S   UNL     1      -7.667   8.791  70.254  1.00  0.00    -0.096 SA 
HETATM   14  C   UNL     1      -7.150   6.243  69.399  1.00  0.00    -0.073 C  
BRANCH  14  15
HETATM   15  C   UNL     1      -6.080   6.218  70.478  1.00  0.00    -0.034 C  
HETATM   16  H2  UNL     1      -4.262   6.072  70.970  1.00  0.00     0.000 HD 
HETATM   17  N   UNL     1      -5.192   6.197  71.372  1.00  0.00    -0.017 NA 
HETATM   18  H1  UNL     1      -4.473   6.179  72.097  1.00  0.00     0.000 HD 
ENDBRANCH  14  15
BRANCH  14  19
HETATM   19  N   UNL     1      -7.239   5.062  68.625  1.00  0.00    -0.061 NA 
HETATM   20  C   UNL     1      -8.317   4.666  67.842  1.00  0.00    -0.099 A  
HETATM   21  C   UNL     1      -8.010   3.422  67.345  1.00  0.00    -0.081 A  
HETATM   22  N   UNL     1      -6.748   3.061  67.702  1.00  0.00    -0.044 NA 
HETATM   23  C   UNL     1      -6.303   4.061  68.432  1.00  0.00    -0.036 A  
ENDBRANCH  14  19
ENDBRANCH   6   9
TORSDOF 3
ENDMDL
MODEL      119
REMARK 921   NORMALIZED FREE ENERGY PREDICTED BY IDOCK:   -3.07 KCAL/MOL
REMARK 922        TOTAL FREE ENERGY PREDICTED BY IDOCK:   -3.78 KCAL/MOL
REMARK 923 INTER-LIGAND FREE ENERGY PREDICTED BY IDOCK:   -3.70 KCAL/MOL
REMARK 924 INTRA-LIGAND FREE ENERGY PREDICTED BY IDOCK:   -0.08 KCAL/MOL
REMARK 927      BINDING AFFINITY PREDICTED BY RF-SCORE:    0.00 PKD
ROOT
HETATM    1 CL   UNL     1      -5.151  13.821  74.261  1.00  0.00    -0.230 Cl 
HETATM    2  C   UNL     1      -5.199  13.912  72.545  1.00  0.00    -0.196 A  
HETATM    3  C   UNL     1      -5.131  15.146  71.911  1.00  0.00    -0.110 A  
HETATM    4  C   UNL     1      -5.178  15.217  70.513  1.00  0.00    -0.135 A  
HETATM    5 CL   UNL     1      -5.135  16.802  69.815  1.00  0.00    -0.151 Cl 
HETATM    6  C   UNL     1      -5.276  14.054  69.724  1.00  0.00    -0.092 A  
HETATM    7  C   UNL     1      -5.352  12.820  70.403  1.00  0.00    -0.134 A  
HETATM    8  C   UNL     1      -5.315  12.748  71.797  1.00  0.00     0.046 A  
ENDROOT
BRANCH   6   9
HETATM    9  C   UNL     1      -5.347  14.146  68.200  1.00  0.00    -0.120 C  
HETATM   10  C   UNL     1      -6.360  15.174  67.696  1.00  0.00    -0.139 C  
HETATM   11  S   UNL     1      -8.006  14.410  67.664  1.00  0.00    -0.194 SA 
HETATM   12  C   UNL     1      -7.480  12.780  67.278  1.00  0.00    -0.097 C  
HETATM   13  S   UNL     1      -5.734  12.571  67.349  1.00  0.00    -0.085 SA 
HETATM   14  C   UNL     1      -8.314  11.785  66.883  1.00  0.00    -0.170 C  
BRANCH  14  15
HETATM   15  C   UNL     1      -7.711  10.470  66.416  1.00  0.00    -0.135 C  
HETATM   16  H2  UNL     1      -7.894   8.819  65.519  1.00  0.00     0.000 HD 
HETATM   17  N   UNL     1      -7.211   9.380  66.029  1.00  0.00    -0.091 NA 
HETATM   18  H1  UNL     1      -6.807   8.497  65.715  1.00  0.00     0.000 HD 
ENDBRANCH  14  15
BRANCH  14  19
HETATM   19  N   UNL     1      -9.724  11.856  66.792  1.00  0.00    -0.200 NA 
HETATM   20  C   UNL     1     -10.460  12.285  65.694  1.00  0.00    -0.261 A  
HETATM   21  C   UNL     1     -11.781  12.277  66.075  1.00  0.00    -0.388 A  
HETATM   22  N   UNL     1     -11.915  11.769  67.329  1.00  0.00    -0.607 NA 
HETATM   23  C   UNL     1     -10.688  11.499  67.719  1.00  0.00    -0.207 A  
ENDBRANCH  14  19
ENDBRANCH   6   9
TORSDOF 3
ENDMDL
MODEL      120
REMARK 921   NORMALIZED FREE ENERGY PREDICTED BY IDOCK:   -3.01 KCAL/MOL
REMARK 922        TOTAL FREE ENERGY PREDICTED BY IDOCK:   -3.71 KCAL/MOL
REMARK 923 INTER-LIGAND FREE ENERGY PREDICTED BY IDOCK:   -3.35 KCAL/MOL
REMARK 924 INTRA-LIGAND FREE ENERGY PREDICTED BY IDOCK:   -0.36 KCAL/MOL
REMARK 927      BINDING AFFINITY PREDICTED BY RF-SCORE:    0.00 PKD
ROOT
HETATM    1 CL   UNL     1      -5.188  14.978  71.492  1.00  0.00    -0.129 Cl 
HETATM    2  C   UNL     1      -6.077  14.113  70.302  1.00  0.00    -0.164 A  
HETATM    3  C   UNL     1      -6.862  14.800  69.383  1.00  0.00    -0.162 A  
HETATM    4  C   UNL     1      -7.590  14.092  68.420  1.00  0.00    -0.130 A  
HETATM    5 CL   UNL     1      -8.577  15.031  67.350  1.00  0.00    -0.192 Cl 
HETATM    6  C   UNL     1      -7.533  12.686  68.345  1.00  0.00    -0.127 A  
HETATM    7  C   UNL     1      -6.734  12.023  69.300  1.00  0.00    -0.093 A  
HETATM    8  C   UNL     1      -6.013  12.727  70.267  1.00  0.00    -0.127 A  
ENDROOT
BRANCH   6   9
HETATM    9  C   UNL     1      -8.350  11.924  67.302  1.00  0.00    -0.169 C  
HETATM   10  C   UNL     1      -9.844  11.861  67.621  1.00  0.00    -0.187 C  
HETATM   11  S   UNL     1     -10.141  10.486  68.767  1.00  0.00    -0.201 SA 
HETATM   12  C   UNL     1      -8.877   9.426  68.168  1.00  0.00    -0.124 C  
HETATM   13  S   UNL     1      -7.806  10.200  67.005  1.00  0.00    -0.103 SA 
HETATM   14  C   UNL     1      -8.765   8.114  68.493  1.00  0.00    -0.134 C  
BRANCH  14  15
HETATM   15  C   UNL     1      -7.728   7.269  67.773  1.00  0.00    -0.112 C  
HETATM   16  H2  UNL     1      -7.306   5.815  66.644  1.00  0.00     0.000 HD 
HETATM   17  N   UNL     1      -6.867   6.568  67.175  1.00  0.00    -0.064 NA 
HETATM   18  H1  UNL     1      -6.171   6.000  66.692  1.00  0.00     0.000 HD 
ENDBRANCH  14  15
BRANCH  14  19
HETATM   19  N   UNL     1      -9.576   7.403  69.409  1.00  0.00    -0.155 NA 
HETATM   20  C   UNL     1      -9.223   7.013  70.696  1.00  0.00    -0.158 A  
HETATM   21  C   UNL     1     -10.272   6.274  71.188  1.00  0.00    -0.198 A  
HETATM   22  N   UNL     1     -11.307   6.265  70.306  1.00  0.00    -0.384 NA 
HETATM   23  C   UNL     1     -10.883   6.965  69.276  1.00  0.00    -0.237 A  
ENDBRANCH  14  19
ENDBRANCH   6   9
TORSDOF 3
ENDMDL
MODEL      121
REMARK 921   NORMALIZED FREE ENERGY PREDICTED BY IDOCK:   -3.00 KCAL/MOL
REMARK 922        TOTAL FREE ENERGY PREDICTED BY IDOCK:   -3.70 KCAL/MOL
REMARK 923 INTER-LIGAND FREE ENERGY PREDICTED BY IDOCK:   -3.29 KCAL/MOL
REMARK 924 INTRA-LIGAND FREE ENERGY PREDICTED BY IDOCK:   -0.41 KCAL/MOL
REMARK 927      BINDING AFFINITY PREDICTED BY RF-SCORE:    0.00 PKD
ROOT
HETATM    1 CL   UNL     1      -6.391  10.074  64.249  1.00  0.00    -0.126 Cl 
HETATM    2  C   UNL     1      -7.609   9.681  65.396  1.00  0.00    -0.111 A  
HETATM    3  C   UNL     1      -8.729  10.494  65.528  1.00  0.00    -0.197 A  
HETATM    4  C   UNL     1      -9.716  10.175  66.468  1.00  0.00    -0.200 A  
HETATM    5 CL   UNL     1     -11.050  11.273  66.594  1.00  0.00    -0.330 Cl 
HETATM    6  C   UNL     1      -9.612   9.028  67.280  1.00  0.00    -0.206 A  
HETATM    7  C   UNL     1      -8.457   8.232  67.124  1.00  0.00    -0.123 A  
HETATM    8  C   UNL     1      -7.467   8.554  66.193  1.00  0.00    -0.089 A  
ENDROOT
BRANCH   6   9
HETATM    9  C   UNL     1     -10.686   8.702  68.317  1.00  0.00    -0.052 C  
HETATM   10  C   UNL     1     -10.681   9.646  69.520  1.00  0.00    -0.232 C  
HETATM   11  S   UNL     1      -9.443   9.067  70.714  1.00  0.00    -0.272 SA 
HETATM   12  C   UNL     1      -9.612   7.351  70.386  1.00  0.00    -0.165 C  
HETATM   13  S   UNL     1     -10.621   6.999  68.987  1.00  0.00    -0.208 SA 
HETATM   14  C   UNL     1      -9.091   6.371  71.168  1.00  0.00    -0.150 C  
BRANCH  14  15
HETATM   15  C   UNL     1      -9.454   4.927  70.867  1.00  0.00    -0.165 C  
HETATM   16  H2  UNL     1     -10.634   3.666  70.101  1.00  0.00     0.000 HD 
HETATM   17  N   UNL     1      -9.756   3.728  70.617  1.00  0.00    -0.187 NA 
HETATM   18  H1  UNL     1     -10.000   2.759  70.415  1.00  0.00     0.000 HD 
ENDBRANCH  14  15
BRANCH  14  19
HETATM   19  N   UNL     1      -8.275   6.552  72.309  1.00  0.00    -0.106 NA 
HETATM   20  C   UNL     1      -8.705   6.651  73.627  1.00  0.00    -0.125 A  
HETATM   21  C   UNL     1      -7.592   6.911  74.389  1.00  0.00    -0.113 A  
HETATM   22  N   UNL     1      -6.469   6.882  73.624  1.00  0.00    -0.067 NA 
HETATM   23  C   UNL     1      -6.896   6.637  72.403  1.00  0.00    -0.068 A  
ENDBRANCH  14  19
ENDBRANCH   6   9
TORSDOF 3
ENDMDL
MODEL      122
REMARK 921   NORMALIZED FREE ENERGY PREDICTED BY IDOCK:   -2.98 KCAL/MOL
REMARK 922        TOTAL FREE ENERGY PREDICTED BY IDOCK:   -3.67 KCAL/MOL
REMARK 923 INTER-LIGAND FREE ENERGY PREDICTED BY IDOCK:   -3.51 KCAL/MOL
REMARK 924 INTRA-LIGAND FREE ENERGY PREDICTED BY IDOCK:   -0.17 KCAL/MOL
REMARK 927      BINDING AFFINITY PREDICTED BY RF-SCORE:    0.00 PKD
ROOT
HETATM    1 CL   UNL     1      -7.213   6.294  63.272  1.00  0.00    -0.053 Cl 
HETATM    2  C   UNL     1      -7.673   7.066  64.737  1.00  0.00    -0.115 A  
HETATM    3  C   UNL     1      -7.372   6.477  65.959  1.00  0.00    -0.080 A  
HETATM    4  C   UNL     1      -7.755   7.105  67.150  1.00  0.00    -0.108 A  
HETATM    5 CL   UNL     1      -7.378   6.272  68.621  1.00  0.00    -0.084 Cl 
HETATM    6  C   UNL     1      -8.430   8.342  67.142  1.00  0.00    -0.123 A  
HETATM    7  C   UNL     1      -8.727   8.905  65.883  1.00  0.00    -0.197 A  
HETATM    8  C   UNL     1      -8.354   8.275  64.693  1.00  0.00    -0.115 A  
ENDROOT
BRANCH   6   9
HETATM    9  C   UNL     1      -8.861   9.007  68.449  1.00  0.00    -0.134 C  
HETATM   10  C   UNL     1     -10.347   9.363  68.493  1.00  0.00    -0.209 C  
HETATM   11  S   UNL     1     -10.591  10.963  67.672  1.00  0.00    -0.243 SA 
HETATM   12  C   UNL     1      -9.051  11.675  68.125  1.00  0.00    -0.183 C  
HETATM   13  S   UNL     1      -7.944  10.533  68.878  1.00  0.00    -0.137 SA 
HETATM   14  C   UNL     1      -8.752  12.992  67.990  1.00  0.00    -0.187 C  
BRANCH  14  15
HETATM   15  C   UNL     1      -7.449  13.508  68.577  1.00  0.00    -0.122 C  
HETATM   16  H2  UNL     1      -6.516  14.792  69.600  1.00  0.00     0.000 HD 
HETATM   17  N   UNL     1      -6.368  13.937  69.064  1.00  0.00    -0.093 NA 
HETATM   18  H1  UNL     1      -5.493  14.284  69.457  1.00  0.00     0.000 HD 
ENDBRANCH  14  15
BRANCH  14  19
HETATM   19  N   UNL     1      -9.573  13.984  67.404  1.00  0.00    -0.222 NA 
HETATM   20  C   UNL     1     -10.544  14.741  68.048  1.00  0.00    -0.244 A  
HETATM   21  C   UNL     1     -11.153  15.509  67.085  1.00  0.00    -0.256 A  
HETATM   22  N   UNL     1     -10.543  15.340  65.881  1.00  0.00    -0.318 NA 
HETATM   23  C   UNL     1      -9.593  14.458  66.103  1.00  0.00    -0.283 A  
ENDBRANCH  14  19
ENDBRANCH   6   9
TORSDOF 3
ENDMDL
MODEL      123
REMARK 921   NORMALIZED FREE ENERGY PREDICTED BY IDOCK:   -2.97 KCAL/MOL
REMARK 922        TOTAL FREE ENERGY PREDICTED BY IDOCK:   -3.67 KCAL/MOL
REMARK 923 INTER-LIGAND FREE ENERGY PREDICTED BY IDOCK:   -4.66 KCAL/MOL
REMARK 924 INTRA-LIGAND FREE ENERGY PREDICTED BY IDOCK:    1.00 KCAL/MOL
REMARK 927      BINDING AFFINITY PREDICTED BY RF-SCORE:    0.00 PKD
ROOT
HETATM    1 CL   UNL     1     -12.218   7.567  72.289  1.00  0.00    -0.270 Cl 
HETATM    2  C   UNL     1     -11.747   8.889  71.298  1.00  0.00    -0.306 A  
HETATM    3  C   UNL     1     -10.452   8.959  70.799  1.00  0.00    -0.283 A  
HETATM    4  C   UNL     1     -10.070  10.041  69.997  1.00  0.00    -0.239 A  
HETATM    5 CL   UNL     1      -8.423  10.066  69.462  1.00  0.00    -0.170 Cl 
HETATM    6  C   UNL     1     -10.980  11.064  69.665  1.00  0.00    -0.286 A  
HETATM    7  C   UNL     1     -12.283  10.965  70.198  1.00  0.00    -0.423 A  
HETATM    8  C   UNL     1     -12.663   9.890  71.005  1.00  0.00    -0.425 A  
ENDROOT
BRANCH   6   9
HETATM    9  C   UNL     1     -10.544  12.252  68.807  1.00  0.00    -0.194 C  
HETATM   10  C   UNL     1     -11.478  12.530  67.628  1.00  0.00    -0.334 C  
HETATM   11  S   UNL     1     -11.019  11.445  66.248  1.00  0.00    -0.201 SA 
HETATM   12  C   UNL     1      -9.296  11.390  66.579  1.00  0.00    -0.189 C  
HETATM   13  S   UNL     1      -8.853  12.126  68.116  1.00  0.00    -0.184 SA 
HETATM   14  C   UNL     1      -8.369  10.905  65.715  1.00  0.00    -0.133 C  
BRANCH  14  15
HETATM   15  C   UNL     1      -6.897  11.072  66.054  1.00  0.00    -0.017 C  
HETATM   16  H2  UNL     1      -5.529  11.239  67.345  1.00  0.00     0.000 HD 
HETATM   17  N   UNL     1      -5.676  11.210  66.336  1.00  0.00    -0.134 NA 
HETATM   18  H1  UNL     1      -4.688  11.322  66.563  1.00  0.00     0.000 HD 
ENDBRANCH  14  15
BRANCH  14  19
HETATM   19  N   UNL     1      -8.624  10.301  64.461  1.00  0.00    -0.179 NA 
HETATM   20  C   UNL     1      -9.020  10.948  63.297  1.00  0.00    -0.202 A  
HETATM   21  C   UNL     1      -9.239   9.972  62.355  1.00  0.00    -0.296 A  
HETATM   22  N   UNL     1      -8.905   8.748  62.846  1.00  0.00    -0.030 NA 
HETATM   23  C   UNL     1      -8.515   8.974  64.082  1.00  0.00    -0.170 A  
ENDBRANCH  14  19
ENDBRANCH   6   9
TORSDOF 3
ENDMDL
MODEL      124
REMARK 921   NORMALIZED FREE ENERGY PREDICTED BY IDOCK:   -2.96 KCAL/MOL
REMARK 922        TOTAL FREE ENERGY PREDICTED BY IDOCK:   -3.65 KCAL/MOL
REMARK 923 INTER-LIGAND FREE ENERGY PREDICTED BY IDOCK:   -3.49 KCAL/MOL
REMARK 924 INTRA-LIGAND FREE ENERGY PREDICTED BY IDOCK:   -0.16 KCAL/MOL
REMARK 927      BINDING AFFINITY PREDICTED BY RF-SCORE:    0.00 PKD
ROOT
HETATM    1 CL   UNL     1     -10.724  17.289  68.099  1.00  0.00    -0.383 Cl 
HETATM    2  C   UNL     1      -9.540  16.046  68.176  1.00  0.00    -0.209 A  
HETATM    3  C   UNL     1      -8.208  16.366  68.409  1.00  0.00    -0.190 A  
HETATM    4  C   UNL     1      -7.245  15.351  68.463  1.00  0.00    -0.114 A  
HETATM    5 CL   UNL     1      -5.605  15.851  68.710  1.00  0.00    -0.103 Cl 
HETATM    6  C   UNL     1      -7.598  13.996  68.305  1.00  0.00    -0.135 A  
HETATM    7  C   UNL     1      -8.958  13.711  68.061  1.00  0.00    -0.188 A  
HETATM    8  C   UNL     1      -9.919  14.723  67.997  1.00  0.00    -0.218 A  
ENDROOT
BRANCH   6   9
HETATM    9  C   UNL     1      -6.535  12.899  68.345  1.00  0.00    -0.082 C  
HETATM   10  C   UNL     1      -6.336  12.190  67.006  1.00  0.00    -0.095 C  
HETATM   11  S   UNL     1      -7.586  10.884  66.844  1.00  0.00    -0.135 SA 
HETATM   12  C   UNL     1      -7.695  10.476  68.547  1.00  0.00    -0.104 C  
HETATM   13  S   UNL     1      -6.823  11.590  69.594  1.00  0.00     0.031 SA 
HETATM   14  C   UNL     1      -8.318   9.369  69.027  1.00  0.00    -0.124 C  
BRANCH  14  15
HETATM   15  C   UNL     1      -8.194   9.045  70.506  1.00  0.00    -0.168 C  
HETATM   16  H2  UNL     1      -9.006   8.625  72.158  1.00  0.00     0.000 HD 
HETATM   17  N   UNL     1      -8.091   8.777  71.734  1.00  0.00    -0.310 NA 
HETATM   18  H1  UNL     1      -8.008   8.560  72.727  1.00  0.00     0.000 HD 
ENDBRANCH  14  15
BRANCH  14  19
HETATM   19  N   UNL     1      -9.039   8.416  68.270  1.00  0.00    -0.139 NA 
HETATM   20  C   UNL     1     -10.312   8.576  67.735  1.00  0.00    -0.237 A  
HETATM   21  C   UNL     1     -10.655   7.376  67.161  1.00  0.00    -0.342 A  
HETATM   22  N   UNL     1      -9.616   6.500  67.224  1.00  0.00    -0.123 NA 
HETATM   23  C   UNL     1      -8.663   7.149  67.857  1.00  0.00    -0.126 A  
ENDBRANCH  14  19
ENDBRANCH   6   9
TORSDOF 3
ENDMDL
MODEL      125
REMARK 921   NORMALIZED FREE ENERGY PREDICTED BY IDOCK:   -2.96 KCAL/MOL
REMARK 922        TOTAL FREE ENERGY PREDICTED BY IDOCK:   -3.65 KCAL/MOL
REMARK 923 INTER-LIGAND FREE ENERGY PREDICTED BY IDOCK:   -3.26 KCAL/MOL
REMARK 924 INTRA-LIGAND FREE ENERGY PREDICTED BY IDOCK:   -0.39 KCAL/MOL
REMARK 927      BINDING AFFINITY PREDICTED BY RF-SCORE:    0.00 PKD
ROOT
HETATM    1 CL   UNL     1      -5.482  10.836  65.563  1.00  0.00    -0.137 Cl 
HETATM    2  C   UNL     1      -6.880   9.978  66.076  1.00  0.00    -0.105 A  
HETATM    3  C   UNL     1      -8.104  10.630  66.162  1.00  0.00    -0.154 A  
HETATM    4  C   UNL     1      -9.240   9.931  66.588  1.00  0.00    -0.153 A  
HETATM    5 CL   UNL     1     -10.710  10.839  66.709  1.00  0.00    -0.307 Cl 
HETATM    6  C   UNL     1      -9.176   8.562  66.917  1.00  0.00    -0.197 A  
HETATM    7  C   UNL     1      -7.915   7.936  66.828  1.00  0.00    -0.107 A  
HETATM    8  C   UNL     1      -6.779   8.636  66.412  1.00  0.00    -0.070 A  
ENDROOT
BRANCH   6   9
HETATM    9  C   UNL     1     -10.419   7.815  67.401  1.00  0.00    -0.292 C  
HETATM   10  C   UNL     1     -10.785   8.113  68.855  1.00  0.00    -0.064 C  
HETATM   11  S   UNL     1      -9.797   7.045  69.940  1.00  0.00    -0.170 SA 
HETATM   12  C   UNL     1      -9.709   5.663  68.861  1.00  0.00    -0.138 C  
HETATM   13  S   UNL     1     -10.331   5.992  67.247  1.00  0.00    -0.257 SA 
HETATM   14  C   UNL     1      -9.281   4.431  69.235  1.00  0.00    -0.139 C  
BRANCH  14  15
HETATM   15  C   UNL     1      -9.414   3.282  68.249  1.00  0.00    -0.152 C  
HETATM   16  H2  UNL     1      -9.717   2.669  66.489  1.00  0.00     0.000 HD 
HETATM   17  N   UNL     1      -9.524   2.329  67.431  1.00  0.00    -0.399 NA 
HETATM   18  H1  UNL     1      -9.614   1.557  66.769  1.00  0.00     0.000 HD 
ENDBRANCH  14  15
BRANCH  14  19
HETATM   19  N   UNL     1      -8.768   4.068  70.502  1.00  0.00    -0.073 NA 
HETATM   20  C   UNL     1      -9.408   3.293  71.462  1.00  0.00    -0.134 A  
HETATM   21  C   UNL     1      -8.589   3.272  72.565  1.00  0.00    -0.084 A  
HETATM   22  N   UNL     1      -7.420   3.917  72.307  1.00  0.00    -0.063 NA 
HETATM   23  C   UNL     1      -7.538   4.352  71.071  1.00  0.00    -0.063 A  
ENDBRANCH  14  19
ENDBRANCH   6   9
TORSDOF 3
ENDMDL
MODEL      126
REMARK 921   NORMALIZED FREE ENERGY PREDICTED BY IDOCK:   -2.96 KCAL/MOL
REMARK 922        TOTAL FREE ENERGY PREDICTED BY IDOCK:   -3.65 KCAL/MOL
REMARK 923 INTER-LIGAND FREE ENERGY PREDICTED BY IDOCK:   -3.37 KCAL/MOL
REMARK 924 INTRA-LIGAND FREE ENERGY PREDICTED BY IDOCK:   -0.27 KCAL/MOL
REMARK 927      BINDING AFFINITY PREDICTED BY RF-SCORE:    0.00 PKD
ROOT
HETATM    1 CL   UNL     1      -7.595  16.296  68.005  1.00  0.00    -0.138 Cl 
HETATM    2  C   UNL     1      -8.383  14.783  67.794  1.00  0.00    -0.159 A  
HETATM    3  C   UNL     1      -9.579  14.713  67.091  1.00  0.00    -0.236 A  
HETATM    4  C   UNL     1     -10.223  13.481  66.928  1.00  0.00    -0.256 A  
HETATM    5 CL   UNL     1     -11.732  13.500  66.078  1.00  0.00    -0.366 Cl 
HETATM    6  C   UNL     1      -9.672  12.293  67.449  1.00  0.00    -0.185 A  
HETATM    7  C   UNL     1      -8.462  12.404  68.166  1.00  0.00    -0.180 A  
HETATM    8  C   UNL     1      -7.824  13.635  68.337  1.00  0.00    -0.140 A  
ENDROOT
BRANCH   6   9
HETATM    9  C   UNL     1     -10.395  10.956  67.282  1.00  0.00    -0.216 C  
HETATM   10  C   UNL     1     -11.167  10.519  68.528  1.00  0.00    -0.274 C  
HETATM   11  S   UNL     1     -10.023   9.687  69.664  1.00  0.00    -0.237 SA 
HETATM   12  C   UNL     1      -8.982   8.976  68.443  1.00  0.00    -0.133 C  
HETATM   13  S   UNL     1      -9.319   9.550  66.813  1.00  0.00    -0.161 SA 
HETATM   14  C   UNL     1      -8.055   8.017  68.695  1.00  0.00    -0.125 C  
BRANCH  14  15
HETATM   15  C   UNL     1      -7.340   7.366  67.523  1.00  0.00    -0.102 C  
HETATM   16  H2  UNL     1      -7.402   6.332  65.944  1.00  0.00     0.000 HD 
HETATM   17  N   UNL     1      -6.747   6.827  66.550  1.00  0.00    -0.048 NA 
HETATM   18  H1  UNL     1      -6.267   6.389  65.763  1.00  0.00     0.000 HD 
ENDBRANCH  14  15
BRANCH  14  19
HETATM   19  N   UNL     1      -7.716   7.490  69.963  1.00  0.00    -0.092 NA 
HETATM   20  C   UNL     1      -6.697   7.934  70.797  1.00  0.00    -0.037 A  
HETATM   21  C   UNL     1      -6.668   7.082  71.876  1.00  0.00    -0.056 A  
HETATM   22  N   UNL     1      -7.685   6.183  71.804  1.00  0.00    -0.100 NA 
HETATM   23  C   UNL     1      -8.309   6.465  70.681  1.00  0.00    -0.133 A  
ENDBRANCH  14  19
ENDBRANCH   6   9
TORSDOF 3
ENDMDL
MODEL      127
REMARK 921   NORMALIZED FREE ENERGY PREDICTED BY IDOCK:   -2.95 KCAL/MOL
REMARK 922        TOTAL FREE ENERGY PREDICTED BY IDOCK:   -3.64 KCAL/MOL
REMARK 923 INTER-LIGAND FREE ENERGY PREDICTED BY IDOCK:   -3.46 KCAL/MOL
REMARK 924 INTRA-LIGAND FREE ENERGY PREDICTED BY IDOCK:   -0.18 KCAL/MOL
REMARK 927      BINDING AFFINITY PREDICTED BY RF-SCORE:    0.00 PKD
ROOT
HETATM    1 CL   UNL     1      -7.304   2.816  65.529  1.00  0.00    -0.070 Cl 
HETATM    2  C   UNL     1      -7.707   3.094  67.176  1.00  0.00    -0.075 A  
HETATM    3  C   UNL     1      -6.724   3.017  68.156  1.00  0.00    -0.044 A  
HETATM    4  C   UNL     1      -7.057   3.237  69.498  1.00  0.00    -0.041 A  
HETATM    5 CL   UNL     1      -5.776   3.072  70.652  1.00  0.00    -0.016 Cl 
HETATM    6  C   UNL     1      -8.375   3.556  69.883  1.00  0.00    -0.080 A  
HETATM    7  C   UNL     1      -9.347   3.616  68.862  1.00  0.00    -0.235 A  
HETATM    8  C   UNL     1      -9.018   3.388  67.524  1.00  0.00    -0.173 A  
ENDROOT
BRANCH   6   9
HETATM    9  C   UNL     1      -8.730   3.773  71.354  1.00  0.00    -0.093 C  
HETATM   10  C   UNL     1     -10.234   3.765  71.628  1.00  0.00     0.007 C  
HETATM   11  S   UNL     1     -10.900   5.418  71.289  1.00  0.00    -0.062 SA 
HETATM   12  C   UNL     1      -9.479   6.328  71.770  1.00  0.00    -0.150 C  
HETATM   13  S   UNL     1      -8.073   5.317  72.087  1.00  0.00    -0.115 SA 
HETATM   14  C   UNL     1      -9.464   7.671  71.964  1.00  0.00    -0.153 C  
BRANCH  14  15
HETATM   15  C   UNL     1      -8.213   8.311  72.544  1.00  0.00    -0.164 C  
HETATM   16  H2  UNL     1      -6.493   9.050  72.295  1.00  0.00     0.000 HD 
HETATM   17  N   UNL     1      -7.175   8.841  73.025  1.00  0.00    -0.348 NA 
HETATM   18  H1  UNL     1      -6.336   9.270  73.414  1.00  0.00     0.000 HD 
ENDBRANCH  14  15
BRANCH  14  19
HETATM   19  N   UNL     1     -10.538   8.564  71.741  1.00  0.00    -0.274 NA 
HETATM   20  C   UNL     1     -10.646   9.487  70.708  1.00  0.00    -0.317 A  
HETATM   21  C   UNL     1     -11.799  10.200  70.932  1.00  0.00    -0.374 A  
HETATM   22  N   UNL     1     -12.470   9.702  72.004  1.00  0.00    -0.358 NA 
HETATM   23  C   UNL     1     -11.720   8.716  72.446  1.00  0.00    -0.323 A  
ENDBRANCH  14  19
ENDBRANCH   6   9
TORSDOF 3
ENDMDL
MODEL      128
REMARK 921   NORMALIZED FREE ENERGY PREDICTED BY IDOCK:   -2.90 KCAL/MOL
REMARK 922        TOTAL FREE ENERGY PREDICTED BY IDOCK:   -3.58 KCAL/MOL
REMARK 923 INTER-LIGAND FREE ENERGY PREDICTED BY IDOCK:   -3.23 KCAL/MOL
REMARK 924 INTRA-LIGAND FREE ENERGY PREDICTED BY IDOCK:   -0.35 KCAL/MOL
REMARK 927      BINDING AFFINITY PREDICTED BY RF-SCORE:    0.00 PKD
ROOT
HETATM    1 CL   UNL     1      -9.573   2.626  68.132  1.00  0.00    -0.206 Cl 
HETATM    2  C   UNL     1      -8.809   4.073  68.659  1.00  0.00    -0.106 A  
HETATM    3  C   UNL     1      -8.060   4.079  69.829  1.00  0.00    -0.060 A  
HETATM    4  C   UNL     1      -7.445   5.260  70.260  1.00  0.00    -0.071 A  
HETATM    5 CL   UNL     1      -6.573   5.182  71.754  1.00  0.00    -0.038 Cl 
HETATM    6  C   UNL     1      -7.551   6.454  69.517  1.00  0.00    -0.095 A  
HETATM    7  C   UNL     1      -8.327   6.412  68.340  1.00  0.00    -0.116 A  
HETATM    8  C   UNL     1      -8.949   5.236  67.914  1.00  0.00    -0.112 A  
ENDROOT
BRANCH   6   9
HETATM    9  C   UNL     1      -6.893   7.743  70.008  1.00  0.00    -0.049 C  
HETATM   10  C   UNL     1      -7.713   8.485  71.064  1.00  0.00    -0.097 C  
HETATM   11  S   UNL     1      -8.953   9.512  70.228  1.00  0.00    -0.226 SA 
HETATM   12  C   UNL     1      -8.002   9.881  68.800  1.00  0.00    -0.093 C  
HETATM   13  S   UNL     1      -6.505   8.960  68.696  1.00  0.00    -0.054 SA 
HETATM   14  C   UNL     1      -8.329  10.836  67.892  1.00  0.00    -0.117 C  
BRANCH  14  15
HETATM   15  C   UNL     1      -7.333  11.171  66.794  1.00  0.00    -0.146 C  
HETATM   16  H2  UNL     1      -5.707  10.814  65.902  1.00  0.00     0.000 HD 
HETATM   17  N   UNL     1      -6.507  11.448  65.883  1.00  0.00    -0.352 NA 
HETATM   18  H1  UNL     1      -5.838  11.673  65.146  1.00  0.00     0.000 HD 
ENDBRANCH  14  15
BRANCH  14  19
HETATM   19  N   UNL     1      -9.501  11.628  67.891  1.00  0.00    -0.175 NA 
HETATM   20  C   UNL     1      -9.570  13.003  68.076  1.00  0.00    -0.224 A  
HETATM   21  C   UNL     1     -10.904  13.335  68.090  1.00  0.00    -0.251 A  
HETATM   22  N   UNL     1     -11.672  12.245  67.824  1.00  0.00    -0.407 NA 
HETATM   23  C   UNL     1     -10.818  11.255  67.680  1.00  0.00    -0.238 A  
ENDBRANCH  14  19
ENDBRANCH   6   9
TORSDOF 3
ENDMDL
MODEL      129
REMARK 921   NORMALIZED FREE ENERGY PREDICTED BY IDOCK:   -2.86 KCAL/MOL
REMARK 922        TOTAL FREE ENERGY PREDICTED BY IDOCK:   -3.53 KCAL/MOL
REMARK 923 INTER-LIGAND FREE ENERGY PREDICTED BY IDOCK:   -3.12 KCAL/MOL
REMARK 924 INTRA-LIGAND FREE ENERGY PREDICTED BY IDOCK:   -0.42 KCAL/MOL
REMARK 927      BINDING AFFINITY PREDICTED BY RF-SCORE:    0.00 PKD
ROOT
HETATM    1 CL   UNL     1      -6.484  10.933  70.168  1.00  0.00    -0.153 Cl 
HETATM    2  C   UNL     1      -7.248   9.395  70.115  1.00  0.00    -0.096 A  
HETATM    3  C   UNL     1      -7.535   8.719  71.295  1.00  0.00    -0.127 A  
HETATM    4  C   UNL     1      -8.151   7.462  71.248  1.00  0.00    -0.100 A  
HETATM    5 CL   UNL     1      -8.426   6.676  72.767  1.00  0.00    -0.119 Cl 
HETATM    6  C   UNL     1      -8.507   6.866  70.022  1.00  0.00    -0.140 A  
HETATM    7  C   UNL     1      -8.190   7.577  68.845  1.00  0.00    -0.128 A  
HETATM    8  C   UNL     1      -7.568   8.827  68.890  1.00  0.00    -0.091 A  
ENDROOT
BRANCH   6   9
HETATM    9  C   UNL     1      -9.159   5.484  69.983  1.00  0.00    -0.135 C  
HETATM   10  C   UNL     1      -8.164   4.334  70.140  1.00  0.00    -0.058 C  
HETATM   11  S   UNL     1      -7.434   3.965  68.520  1.00  0.00    -0.054 SA 
HETATM   12  C   UNL     1      -8.842   4.367  67.551  1.00  0.00    -0.108 C  
HETATM   13  S   UNL     1     -10.132   5.133  68.472  1.00  0.00    -0.112 SA 
HETATM   14  C   UNL     1      -8.977   4.055  66.237  1.00  0.00    -0.127 C  
BRANCH  14  15
HETATM   15  C   UNL     1     -10.313   4.308  65.560  1.00  0.00    -0.188 C  
HETATM   16  H2  UNL     1     -11.334   5.205  64.249  1.00  0.00     0.000 HD 
HETATM   17  N   UNL     1     -11.422   4.519  64.998  1.00  0.00    -1.108 NA 
HETATM   18  H1  UNL     1     -12.320   4.690  64.545  1.00  0.00     0.000 HD 
ENDBRANCH  14  15
BRANCH  14  19
HETATM   19  N   UNL     1      -8.003   3.439  65.415  1.00  0.00    -0.089 NA 
HETATM   20  C   UNL     1      -7.959   2.100  65.048  1.00  0.00    -0.078 A  
HETATM   21  C   UNL     1      -6.802   1.925  64.327  1.00  0.00    -0.031 A  
HETATM   22  N   UNL     1      -6.168   3.114  64.141  1.00  0.00    -0.022 NA 
HETATM   23  C   UNL     1      -6.914   3.998  64.768  1.00  0.00    -0.050 A  
ENDBRANCH  14  19
ENDBRANCH   6   9
TORSDOF 3
ENDMDL
MODEL      130
REMARK 921   NORMALIZED FREE ENERGY PREDICTED BY IDOCK:   -2.84 KCAL/MOL
REMARK 922        TOTAL FREE ENERGY PREDICTED BY IDOCK:   -3.52 KCAL/MOL
REMARK 923 INTER-LIGAND FREE ENERGY PREDICTED BY IDOCK:   -3.30 KCAL/MOL
REMARK 924 INTRA-LIGAND FREE ENERGY PREDICTED BY IDOCK:   -0.21 KCAL/MOL
REMARK 927      BINDING AFFINITY PREDICTED BY RF-SCORE:    0.00 PKD
ROOT
HETATM    1 CL   UNL     1      -6.001   4.560  71.354  1.00  0.00    -0.016 Cl 
HETATM    2  C   UNL     1      -7.016   5.421  70.266  1.00  0.00    -0.060 A  
HETATM    3  C   UNL     1      -8.395   5.397  70.434  1.00  0.00    -0.113 A  
HETATM    4  C   UNL     1      -9.220   6.093  69.542  1.00  0.00    -0.138 A  
HETATM    5 CL   UNL     1     -10.927   5.965  69.804  1.00  0.00    -0.448 Cl 
HETATM    6  C   UNL     1      -8.680   6.840  68.476  1.00  0.00    -0.124 A  
HETATM    7  C   UNL     1      -7.276   6.833  68.331  1.00  0.00    -0.085 A  
HETATM    8  C   UNL     1      -6.453   6.132  69.215  1.00  0.00    -0.043 A  
ENDROOT
BRANCH   6   9
HETATM    9  C   UNL     1      -9.592   7.578  67.496  1.00  0.00    -0.142 C  
HETATM   10  C   UNL     1      -8.856   8.136  66.278  1.00  0.00    -0.164 C  
HETATM   11  S   UNL     1      -8.131   9.741  66.714  1.00  0.00    -0.120 SA 
HETATM   12  C   UNL     1      -9.378  10.242  67.843  1.00  0.00    -0.138 C  
HETATM   13  S   UNL     1     -10.536   8.971  68.220  1.00  0.00    -0.170 SA 
HETATM   14  C   UNL     1      -9.504  11.504  68.328  1.00  0.00    -0.189 C  
BRANCH  14  15
HETATM   15  C   UNL     1     -10.726  11.845  69.164  1.00  0.00    -0.097 C  
HETATM   16  H2  UNL     1     -11.920  13.134  69.858  1.00  0.00     0.000 HD 
HETATM   17  N   UNL     1     -11.740  12.130  69.857  1.00  0.00    -0.454 NA 
HETATM   18  H1  UNL     1     -12.561  12.359  70.419  1.00  0.00     0.000 HD 
ENDBRANCH  14  15
BRANCH  14  19
HETATM   19  N   UNL     1      -8.632  12.590  68.082  1.00  0.00    -0.184 NA 
HETATM   20  C   UNL     1      -7.404  12.820  68.691  1.00  0.00    -0.099 A  
HETATM   21  C   UNL     1      -6.948  14.027  68.221  1.00  0.00    -0.107 A  
HETATM   22  N   UNL     1      -7.786  14.520  67.270  1.00  0.00    -0.195 NA 
HETATM   23  C   UNL     1      -8.758  13.637  67.184  1.00  0.00    -0.216 A  
ENDBRANCH  14  19
ENDBRANCH   6   9
TORSDOF 3
ENDMDL
MODEL      131
REMARK 921   NORMALIZED FREE ENERGY PREDICTED BY IDOCK:   -2.76 KCAL/MOL
REMARK 922        TOTAL FREE ENERGY PREDICTED BY IDOCK:   -3.41 KCAL/MOL
REMARK 923 INTER-LIGAND FREE ENERGY PREDICTED BY IDOCK:   -3.72 KCAL/MOL
REMARK 924 INTRA-LIGAND FREE ENERGY PREDICTED BY IDOCK:    0.30 KCAL/MOL
REMARK 927      BINDING AFFINITY PREDICTED BY RF-SCORE:    0.00 PKD
ROOT
HETATM    1 CL   UNL     1      -7.270   9.078  66.712  1.00  0.00    -0.085 Cl 
HETATM    2  C   UNL     1      -7.926  10.561  67.279  1.00  0.00    -0.114 A  
HETATM    3  C   UNL     1      -9.268  10.855  67.069  1.00  0.00    -0.165 A  
HETATM    4  C   UNL     1      -9.798  12.068  67.526  1.00  0.00    -0.186 A  
HETATM    5 CL   UNL     1     -11.468  12.366  67.175  1.00  0.00    -0.395 Cl 
HETATM    6  C   UNL     1      -9.000  13.001  68.218  1.00  0.00    -0.177 A  
HETATM    7  C   UNL     1      -7.641  12.673  68.404  1.00  0.00    -0.132 A  
HETATM    8  C   UNL     1      -7.109  11.467  67.940  1.00  0.00    -0.076 A  
ENDROOT
BRANCH   6   9
HETATM    9  C   UNL     1      -9.585  14.331  68.693  1.00  0.00    -0.192 C  
HETATM   10  C   UNL     1     -10.236  15.147  67.576  1.00  0.00    -0.238 C  
HETATM   11  S   UNL     1      -8.948  16.093  66.715  1.00  0.00    -0.267 SA 
HETATM   12  C   UNL     1      -7.907  16.356  68.103  1.00  0.00    -0.158 C  
HETATM   13  S   UNL     1      -8.394  15.443  69.528  1.00  0.00    -0.121 SA 
HETATM   14  C   UNL     1      -6.872  17.233  68.124  1.00  0.00    -0.182 C  
BRANCH  14  15
HETATM   15  C   UNL     1      -6.158  17.488  69.441  1.00  0.00    -0.245 C  
HETATM   16  H2  UNL     1      -5.113  18.616  70.539  1.00  0.00     0.000 HD 
HETATM   17  N   UNL     1      -5.565  17.701  70.533  1.00  0.00    -0.231 NA 
HETATM   18  H1  UNL     1      -5.085  17.872  71.417  1.00  0.00     0.000 HD 
ENDBRANCH  14  15
BRANCH  14  19
HETATM   19  N   UNL     1      -6.408  18.011  67.037  1.00  0.00    -0.165 NA 
HETATM   20  C   UNL     1      -6.450  17.663  65.693  1.00  0.00    -0.014 A  
HETATM   21  C   UNL     1      -5.814  18.666  65.003  1.00  0.00    -0.245 A  
HETATM   22  N   UNL     1      -5.461  19.676  65.842  1.00  0.00    -0.155 NA 
HETATM   23  C   UNL     1      -5.851  19.279  67.034  1.00  0.00    -0.174 A  
ENDBRANCH  14  19
ENDBRANCH   6   9
TORSDOF 3
ENDMDL
MODEL      132
REMARK 921   NORMALIZED FREE ENERGY PREDICTED BY IDOCK:   -2.73 KCAL/MOL
REMARK 922        TOTAL FREE ENERGY PREDICTED BY IDOCK:   -3.38 KCAL/MOL
REMARK 923 INTER-LIGAND FREE ENERGY PREDICTED BY IDOCK:   -3.18 KCAL/MOL
REMARK 924 INTRA-LIGAND FREE ENERGY PREDICTED BY IDOCK:   -0.19 KCAL/MOL
REMARK 927      BINDING AFFINITY PREDICTED BY RF-SCORE:    0.00 PKD
ROOT
HETATM    1 CL   UNL     1     -12.839  12.512  62.968  1.00  0.00     0.009 Cl 
HETATM    2  C   UNL     1     -11.895  12.691  64.393  1.00  0.00    -0.387 A  
HETATM    3  C   UNL     1     -12.302  13.566  65.393  1.00  0.00    -0.517 A  
HETATM    4  C   UNL     1     -11.527  13.715  66.549  1.00  0.00    -0.335 A  
HETATM    5 CL   UNL     1     -12.090  14.863  67.717  1.00  0.00    -0.195 Cl 
HETATM    6  C   UNL     1     -10.340  12.978  66.735  1.00  0.00    -0.256 A  
HETATM    7  C   UNL     1      -9.953  12.108  65.694  1.00  0.00    -0.271 A  
HETATM    8  C   UNL     1     -10.721  11.965  64.536  1.00  0.00    -0.361 A  
ENDROOT
BRANCH   6   9
HETATM    9  C   UNL     1      -9.491  13.166  67.992  1.00  0.00    -0.220 C  
HETATM   10  C   UNL     1      -7.987  13.188  67.717  1.00  0.00    -0.162 C  
HETATM   11  S   UNL     1      -7.381  11.479  67.639  1.00  0.00    -0.113 SA 
HETATM   12  C   UNL     1      -8.496  10.799  68.812  1.00  0.00    -0.148 C  
HETATM   13  S   UNL     1      -9.766  11.916  69.302  1.00  0.00     0.687 SA 
HETATM   14  C   UNL     1      -8.365   9.565  69.361  1.00  0.00    -0.140 C  
BRANCH  14  15
HETATM   15  C   UNL     1      -9.302   9.165  70.489  1.00  0.00    -0.240 C  
HETATM   16  H2  UNL     1     -10.016   9.484  72.207  1.00  0.00     0.000 HD 
HETATM   17  N   UNL     1     -10.079   8.833  71.424  1.00  0.00    -0.255 NA 
HETATM   18  H1  UNL     1     -10.707   8.564  72.182  1.00  0.00     0.000 HD 
ENDBRANCH  14  15
BRANCH  14  19
HETATM   19  N   UNL     1      -7.381   8.601  69.037  1.00  0.00    -0.076 NA 
HETATM   20  C   UNL     1      -6.101   8.515  69.570  1.00  0.00    -0.036 A  
HETATM   21  C   UNL     1      -5.463   7.494  68.908  1.00  0.00    -0.022 A  
HETATM   22  N   UNL     1      -6.317   6.871  68.052  1.00  0.00    -0.040 NA 
HETATM   23  C   UNL     1      -7.452   7.524  68.170  1.00  0.00    -0.105 A  
ENDBRANCH  14  19
ENDBRANCH   6   9
TORSDOF 3
ENDMDL
MODEL      133
REMARK 921   NORMALIZED FREE ENERGY PREDICTED BY IDOCK:   -2.68 KCAL/MOL
REMARK 922        TOTAL FREE ENERGY PREDICTED BY IDOCK:   -3.32 KCAL/MOL
REMARK 923 INTER-LIGAND FREE ENERGY PREDICTED BY IDOCK:   -3.05 KCAL/MOL
REMARK 924 INTRA-LIGAND FREE ENERGY PREDICTED BY IDOCK:   -0.27 KCAL/MOL
REMARK 927      BINDING AFFINITY PREDICTED BY RF-SCORE:    0.00 PKD
ROOT
HETATM    1 CL   UNL     1     -11.189  11.518  64.350  1.00  0.00    -0.363 Cl 
HETATM    2  C   UNL     1     -10.407  11.139  65.833  1.00  0.00    -0.259 A  
HETATM    3  C   UNL     1     -11.007  11.472  67.042  1.00  0.00    -0.347 A  
HETATM    4  C   UNL     1     -10.365  11.169  68.248  1.00  0.00    -0.180 A  
HETATM    5 CL   UNL     1     -11.167  11.666  69.700  1.00  0.00    -0.283 Cl 
HETATM    6  C   UNL     1      -9.119  10.510  68.269  1.00  0.00    -0.146 A  
HETATM    7  C   UNL     1      -8.536  10.195  67.023  1.00  0.00    -0.129 A  
HETATM    8  C   UNL     1      -9.172  10.506  65.819  1.00  0.00    -0.215 A  
ENDROOT
BRANCH   6   9
HETATM    9  C   UNL     1      -8.418  10.203  69.592  1.00  0.00    -0.157 C  
HETATM   10  C   UNL     1      -6.897  10.105  69.469  1.00  0.00    -0.079 C  
HETATM   11  S   UNL     1      -6.459   8.432  68.922  1.00  0.00    -0.049 SA 
HETATM   12  C   UNL     1      -7.772   7.590  69.726  1.00  0.00    -0.095 C  
HETATM   13  S   UNL     1      -8.975   8.669  70.423  1.00  0.00    -0.171 SA 
HETATM   14  C   UNL     1      -7.833   6.242  69.877  1.00  0.00    -0.110 C  
BRANCH  14  15
HETATM   15  C   UNL     1      -8.937   5.654  70.740  1.00  0.00    -0.143 C  
HETATM   16  H2  UNL     1      -9.942   4.160  71.309  1.00  0.00     0.000 HD 
HETATM   17  N   UNL     1      -9.853   5.166  71.456  1.00  0.00    -0.169 NA 
HETATM   18  H1  UNL     1     -10.595   4.771  72.035  1.00  0.00     0.000 HD 
ENDBRANCH  14  15
BRANCH  14  19
HETATM   19  N   UNL     1      -6.918   5.296  69.359  1.00  0.00    -0.054 NA 
HETATM   20  C   UNL     1      -5.794   4.794  70.004  1.00  0.00    -0.017 A  
HETATM   21  C   UNL     1      -5.151   3.979  69.104  1.00  0.00    -0.004 A  
HETATM   22  N   UNL     1      -5.872   3.869  67.957  1.00  0.00    -0.025 NA 
HETATM   23  C   UNL     1      -6.928   4.632  68.144  1.00  0.00    -0.056 A  
ENDBRANCH  14  19
ENDBRANCH   6   9
TORSDOF 3
ENDMDL
MODEL      134
REMARK 921   NORMALIZED FREE ENERGY PREDICTED BY IDOCK:   -2.67 KCAL/MOL
REMARK 922        TOTAL FREE ENERGY PREDICTED BY IDOCK:   -3.31 KCAL/MOL
REMARK 923 INTER-LIGAND FREE ENERGY PREDICTED BY IDOCK:   -3.11 KCAL/MOL
REMARK 924 INTRA-LIGAND FREE ENERGY PREDICTED BY IDOCK:   -0.20 KCAL/MOL
REMARK 927      BINDING AFFINITY PREDICTED BY RF-SCORE:    0.00 PKD
ROOT
HETATM    1 CL   UNL     1      -9.092  15.710  66.271  1.00  0.00    -0.352 Cl 
HETATM    2  C   UNL     1      -8.688  14.303  67.173  1.00  0.00    -0.227 A  
HETATM    3  C   UNL     1      -7.510  14.262  67.908  1.00  0.00    -0.157 A  
HETATM    4  C   UNL     1      -7.180  13.113  68.636  1.00  0.00    -0.106 A  
HETATM    5 CL   UNL     1      -5.670  13.137  69.483  1.00  0.00    -0.088 Cl 
HETATM    6  C   UNL     1      -8.031  11.990  68.656  1.00  0.00    -0.082 A  
HETATM    7  C   UNL     1      -9.214  12.064  67.890  1.00  0.00    -0.190 A  
HETATM    8  C   UNL     1      -9.539  13.207  67.156  1.00  0.00    -0.235 A  
ENDROOT
BRANCH   6   9
HETATM    9  C   UNL     1      -7.650  10.732  69.437  1.00  0.00    -0.112 C  
HETATM   10  C   UNL     1      -6.272  10.180  69.072  1.00  0.00    -0.043 C  
HETATM   11  S   UNL     1      -6.430   9.138  67.595  1.00  0.00    -0.064 SA 
HETATM   12  C   UNL     1      -8.045   8.535  67.927  1.00  0.00    -0.115 C  
HETATM   13  S   UNL     1      -8.829   9.340  69.282  1.00  0.00    -0.153 SA 
HETATM   14  C   UNL     1      -8.621   7.498  67.268  1.00  0.00    -0.118 C  
BRANCH  14  15
HETATM   15  C   UNL     1      -9.954   6.967  67.766  1.00  0.00    -0.152 C  
HETATM   16  H2  UNL     1     -11.463   7.142  68.889  1.00  0.00     0.000 HD 
HETATM   17  N   UNL     1     -11.061   6.528  68.180  1.00  0.00    -0.501 NA 
HETATM   18  H1  UNL     1     -11.956   6.171  68.515  1.00  0.00     0.000 HD 
ENDBRANCH  14  15
BRANCH  14  19
HETATM   19  N   UNL     1      -8.072   6.788  66.174  1.00  0.00    -0.110 NA 
HETATM   20  C   UNL     1      -7.360   5.596  66.235  1.00  0.00    -0.078 A  
HETATM   21  C   UNL     1      -6.941   5.318  64.956  1.00  0.00    -0.057 A  
HETATM   22  N   UNL     1      -7.441   6.229  64.079  1.00  0.00    -0.076 NA 
HETATM   23  C   UNL     1      -8.131   7.070  64.820  1.00  0.00    -0.096 A  
ENDBRANCH  14  19
ENDBRANCH   6   9
TORSDOF 3
ENDMDL
MODEL      135
REMARK 921   NORMALIZED FREE ENERGY PREDICTED BY IDOCK:   -2.60 KCAL/MOL
REMARK 922        TOTAL FREE ENERGY PREDICTED BY IDOCK:   -3.23 KCAL/MOL
REMARK 923 INTER-LIGAND FREE ENERGY PREDICTED BY IDOCK:   -4.15 KCAL/MOL
REMARK 924 INTRA-LIGAND FREE ENERGY PREDICTED BY IDOCK:    0.93 KCAL/MOL
REMARK 927      BINDING AFFINITY PREDICTED BY RF-SCORE:    0.00 PKD
ROOT
HETATM    1 CL   UNL     1      -5.650  16.020  70.348  1.00  0.00    -0.166 Cl 
HETATM    2  C   UNL     1      -6.698  14.919  69.545  1.00  0.00    -0.165 A  
HETATM    3  C   UNL     1      -6.324  13.590  69.390  1.00  0.00    -0.110 A  
HETATM    4  C   UNL     1      -7.177  12.698  68.728  1.00  0.00    -0.083 A  
HETATM    5 CL   UNL     1      -6.605  11.074  68.541  1.00  0.00    -0.057 Cl 
HETATM    6  C   UNL     1      -8.426  13.114  68.227  1.00  0.00    -0.161 A  
HETATM    7  C   UNL     1      -8.767  14.473  68.395  1.00  0.00    -0.175 A  
HETATM    8  C   UNL     1      -7.914  15.366  69.046  1.00  0.00    -0.202 A  
ENDROOT
BRANCH   6   9
HETATM    9  C   UNL     1      -9.339  12.135  67.488  1.00  0.00    -0.181 C  
HETATM   10  C   UNL     1     -10.818  12.516  67.545  1.00  0.00    -0.232 C  
HETATM   11  S   UNL     1     -11.523  11.902  69.099  1.00  0.00    -0.319 SA 
HETATM   12  C   UNL     1     -10.528  10.462  69.235  1.00  0.00    -0.234 C  
HETATM   13  S   UNL     1      -9.225  10.396  68.053  1.00  0.00    -0.141 SA 
HETATM   14  C   UNL     1     -10.769   9.448  70.104  1.00  0.00    -0.243 C  
BRANCH  14  15
HETATM   15  C   UNL     1      -9.932   8.184  70.002  1.00  0.00    -0.192 C  
HETATM   16  H2  UNL     1      -8.419   7.280  69.324  1.00  0.00     0.000 HD 
HETATM   17  N   UNL     1      -9.236   7.136  69.917  1.00  0.00    -0.142 NA 
HETATM   18  H1  UNL     1      -8.674   6.288  69.848  1.00  0.00     0.000 HD 
ENDBRANCH  14  15
BRANCH  14  19
HETATM   19  N   UNL     1     -11.789   9.406  71.084  1.00  0.00    -0.315 NA 
HETATM   20  C   UNL     1     -13.048   9.988  70.993  1.00  0.00    -0.356 A  
HETATM   21  C   UNL     1     -13.670   9.776  72.200  1.00  0.00    -0.266 A  
HETATM   22  N   UNL     1     -12.898   9.003  73.009  1.00  0.00    -0.079 NA 
HETATM   23  C   UNL     1     -11.804   8.772  72.315  1.00  0.00    -0.333 A  
ENDBRANCH  14  19
ENDBRANCH   6   9
TORSDOF 3
ENDMDL
MODEL      136
REMARK 921   NORMALIZED FREE ENERGY PREDICTED BY IDOCK:   -2.59 KCAL/MOL
REMARK 922        TOTAL FREE ENERGY PREDICTED BY IDOCK:   -3.22 KCAL/MOL
REMARK 923 INTER-LIGAND FREE ENERGY PREDICTED BY IDOCK:   -2.84 KCAL/MOL
REMARK 924 INTRA-LIGAND FREE ENERGY PREDICTED BY IDOCK:   -0.38 KCAL/MOL
REMARK 927      BINDING AFFINITY PREDICTED BY RF-SCORE:    0.00 PKD
ROOT
HETATM    1 CL   UNL     1      -9.119   5.093  69.612  1.00  0.00    -0.143 Cl 
HETATM    2  C   UNL     1      -9.595   6.740  69.732  1.00  0.00    -0.150 A  
HETATM    3  C   UNL     1     -10.537   7.125  70.679  1.00  0.00    -0.243 A  
HETATM    4  C   UNL     1     -10.928   8.467  70.769  1.00  0.00    -0.247 A  
HETATM    5 CL   UNL     1     -12.141   8.843  71.946  1.00  0.00    -0.417 Cl 
HETATM    6  C   UNL     1     -10.371   9.450  69.927  1.00  0.00    -0.252 A  
HETATM    7  C   UNL     1      -9.426   9.020  68.972  1.00  0.00    -0.155 A  
HETATM    8  C   UNL     1      -9.042   7.680  68.875  1.00  0.00    -0.140 A  
ENDROOT
BRANCH   6   9
HETATM    9  C   UNL     1     -10.822  10.908  70.021  1.00  0.00    -0.072 C  
HETATM   10  C   UNL     1     -12.230  11.149  69.476  1.00  0.00    -0.277 C  
HETATM   11  S   UNL     1     -12.134  11.361  67.676  1.00  0.00     0.681 SA 
HETATM   12  C   UNL     1     -10.555  12.127  67.632  1.00  0.00    -0.210 C  
HETATM   13  S   UNL     1      -9.724  12.111  69.184  1.00  0.00     0.588 SA 
HETATM   14  C   UNL     1     -10.040  12.748  66.541  1.00  0.00    -0.258 C  
BRANCH  14  15
HETATM   15  C   UNL     1      -8.737  13.517  66.686  1.00  0.00     0.003 C  
HETATM   16  H2  UNL     1      -6.850  13.534  66.736  1.00  0.00     0.000 HD 
HETATM   17  N   UNL     1      -7.656  14.155  66.806  1.00  0.00    -0.205 NA 
HETATM   18  H1  UNL     1      -6.782  14.671  66.904  1.00  0.00     0.000 HD 
ENDBRANCH  14  15
BRANCH  14  19
HETATM   19  N   UNL     1     -10.630  12.818  65.257  1.00  0.00    -0.284 NA 
HETATM   20  C   UNL     1     -10.328  12.016  64.163  1.00  0.00    -0.347 A  
HETATM   21  C   UNL     1     -11.069  12.490  63.107  1.00  0.00    -0.006 A  
HETATM   22  N   UNL     1     -11.896  13.490  63.513  1.00  0.00    -0.349 NA 
HETATM   23  C   UNL     1     -11.640  13.644  64.794  1.00  0.00    -0.355 A  
ENDBRANCH  14  19
ENDBRANCH   6   9
TORSDOF 3
ENDMDL
MODEL      137
REMARK 921   NORMALIZED FREE ENERGY PREDICTED BY IDOCK:   -2.56 KCAL/MOL
REMARK 922        TOTAL FREE ENERGY PREDICTED BY IDOCK:   -3.18 KCAL/MOL
REMARK 923 INTER-LIGAND FREE ENERGY PREDICTED BY IDOCK:   -2.95 KCAL/MOL
REMARK 924 INTRA-LIGAND FREE ENERGY PREDICTED BY IDOCK:   -0.23 KCAL/MOL
REMARK 927      BINDING AFFINITY PREDICTED BY RF-SCORE:    0.00 PKD
ROOT
HETATM    1 CL   UNL     1     -10.467  19.455  66.702  1.00  0.00    -0.529 Cl 
HETATM    2  C   UNL     1      -9.400  18.396  67.534  1.00  0.00    -0.265 A  
HETATM    3  C   UNL     1      -8.335  18.912  68.262  1.00  0.00    -0.364 A  
HETATM    4  C   UNL     1      -7.463  18.046  68.934  1.00  0.00    -0.227 A  
HETATM    5 CL   UNL     1      -6.137  18.779  69.774  1.00  0.00    -0.274 Cl 
HETATM    6  C   UNL     1      -7.651  16.650  68.905  1.00  0.00    -0.240 A  
HETATM    7  C   UNL     1      -8.737  16.162  68.148  1.00  0.00    -0.175 A  
HETATM    8  C   UNL     1      -9.602  17.024  67.470  1.00  0.00    -0.249 A  
ENDROOT
BRANCH   6   9
HETATM    9  C   UNL     1      -6.680  15.714  69.625  1.00  0.00    -0.178 C  
HETATM   10  C   UNL     1      -5.329  15.578  68.923  1.00  0.00    -0.099 C  
HETATM   11  S   UNL     1      -5.469  14.325  67.618  1.00  0.00     0.182 SA 
HETATM   12  C   UNL     1      -6.643  13.301  68.426  1.00  0.00    -0.093 C  
HETATM   13  S   UNL     1      -7.304  14.013  69.894  1.00  0.00     0.584 SA 
HETATM   14  C   UNL     1      -6.966  12.046  68.021  1.00  0.00    -0.084 C  
BRANCH  14  15
HETATM   15  C   UNL     1      -7.869  11.203  68.906  1.00  0.00    -0.131 C  
HETATM   16  H2  UNL     1      -9.277   9.958  69.084  1.00  0.00     0.000 HD 
HETATM   17  N   UNL     1      -8.619  10.504  69.640  1.00  0.00    -0.386 NA 
HETATM   18  H1  UNL     1      -9.226   9.939  70.234  1.00  0.00     0.000 HD 
ENDBRANCH  14  15
BRANCH  14  19
HETATM   19  N   UNL     1      -6.488  11.387  66.864  1.00  0.00    -0.125 NA 
HETATM   20  C   UNL     1      -5.169  11.044  66.593  1.00  0.00    -0.088 A  
HETATM   21  C   UNL     1      -5.150  10.508  65.328  1.00  0.00    -0.115 A  
HETATM   22  N   UNL     1      -6.412  10.409  64.831  1.00  0.00    -0.107 NA 
HETATM   23  C   UNL     1      -7.187  10.907  65.770  1.00  0.00     0.014 A  
ENDBRANCH  14  19
ENDBRANCH   6   9
TORSDOF 3
ENDMDL
MODEL      138
REMARK 921   NORMALIZED FREE ENERGY PREDICTED BY IDOCK:   -2.49 KCAL/MOL
REMARK 922        TOTAL FREE ENERGY PREDICTED BY IDOCK:   -3.10 KCAL/MOL
REMARK 923 INTER-LIGAND FREE ENERGY PREDICTED BY IDOCK:   -2.69 KCAL/MOL
REMARK 924 INTRA-LIGAND FREE ENERGY PREDICTED BY IDOCK:   -0.41 KCAL/MOL
REMARK 927      BINDING AFFINITY PREDICTED BY RF-SCORE:    0.00 PKD
ROOT
HETATM    1 CL   UNL     1      -5.466   7.746  74.178  1.00  0.00    -0.060 Cl 
HETATM    2  C   UNL     1      -6.459   6.670  73.278  1.00  0.00    -0.064 A  
HETATM    3  C   UNL     1      -6.651   5.366  73.718  1.00  0.00    -0.074 A  
HETATM    4  C   UNL     1      -7.455   4.490  72.979  1.00  0.00    -0.085 A  
HETATM    5 CL   UNL     1      -7.596   2.872  73.580  1.00  0.00    -0.051 Cl 
HETATM    6  C   UNL     1      -8.096   4.907  71.796  1.00  0.00    -0.113 A  
HETATM    7  C   UNL     1      -7.870   6.235  71.374  1.00  0.00    -0.104 A  
HETATM    8  C   UNL     1      -7.062   7.107  72.106  1.00  0.00    -0.068 A  
ENDROOT
BRANCH   6   9
HETATM    9  C   UNL     1      -8.954   3.935  70.985  1.00  0.00    -0.101 C  
HETATM   10  C   UNL     1      -8.143   2.860  70.262  1.00  0.00    -0.041 C  
HETATM   11  S   UNL     1      -7.540   3.539  68.691  1.00  0.00    -0.052 SA 
HETATM   12  C   UNL     1      -8.905   4.595  68.373  1.00  0.00    -0.105 C  
HETATM   13  S   UNL     1     -10.027   4.719  69.724  1.00  0.00    -0.216 SA 
HETATM   14  C   UNL     1      -9.136   5.205  67.182  1.00  0.00    -0.112 C  
BRANCH  14  15
HETATM   15  C   UNL     1     -10.442   5.956  66.988  1.00  0.00    -0.278 C  
HETATM   16  H2  UNL     1     -12.319   5.938  66.779  1.00  0.00     0.000 HD 
HETATM   17  N   UNL     1     -11.527   6.579  66.827  1.00  0.00    -0.760 NA 
HETATM   18  H1  UNL     1     -12.404   7.083  66.696  1.00  0.00     0.000 HD 
ENDBRANCH  14  15
BRANCH  14  19
HETATM   19  N   UNL     1      -8.300   5.163  66.041  1.00  0.00    -0.114 NA 
HETATM   20  C   UNL     1      -8.440   4.321  64.945  1.00  0.00    -0.118 A  
HETATM   21  C   UNL     1      -7.364   4.559  64.123  1.00  0.00    -0.059 A  
HETATM   22  N   UNL     1      -6.608   5.580  64.607  1.00  0.00    -0.041 NA 
HETATM   23  C   UNL     1      -7.199   5.941  65.725  1.00  0.00    -0.075 A  
ENDBRANCH  14  19
ENDBRANCH   6   9
TORSDOF 3
ENDMDL
MODEL      139
REMARK 921   NORMALIZED FREE ENERGY PREDICTED BY IDOCK:   -2.34 KCAL/MOL
REMARK 922        TOTAL FREE ENERGY PREDICTED BY IDOCK:   -2.93 KCAL/MOL
REMARK 923 INTER-LIGAND FREE ENERGY PREDICTED BY IDOCK:   -3.00 KCAL/MOL
REMARK 924 INTRA-LIGAND FREE ENERGY PREDICTED BY IDOCK:    0.07 KCAL/MOL
REMARK 927      BINDING AFFINITY PREDICTED BY RF-SCORE:    0.00 PKD
ROOT
HETATM    1 CL   UNL     1      -9.094  10.949  67.276  1.00  0.00    -0.143 Cl 
HETATM    2  C   UNL     1      -9.135  10.293  68.864  1.00  0.00    -0.168 A  
HETATM    3  C   UNL     1     -10.343  10.194  69.545  1.00  0.00    -0.263 A  
HETATM    4  C   UNL     1     -10.373   9.666  70.841  1.00  0.00    -0.264 A  
HETATM    5 CL   UNL     1     -11.916   9.626  71.627  1.00  0.00    -0.464 Cl 
HETATM    6  C   UNL     1      -9.199   9.212  71.474  1.00  0.00    -0.156 A  
HETATM    7  C   UNL     1      -7.990   9.338  70.756  1.00  0.00    -0.187 A  
HETATM    8  C   UNL     1      -7.958   9.873  69.466  1.00  0.00    -0.149 A  
ENDROOT
BRANCH   6   9
HETATM    9  C   UNL     1      -9.241   8.658  72.898  1.00  0.00     0.042 C  
HETATM   10  C   UNL     1      -7.940   7.981  73.330  1.00  0.00    -0.178 C  
HETATM   11  S   UNL     1      -7.942   6.268  72.731  1.00  0.00    -0.105 SA 
HETATM   12  C   UNL     1      -9.672   5.998  72.856  1.00  0.00    -0.155 C  
HETATM   13  S   UNL     1     -10.586   7.458  73.220  1.00  0.00    -0.378 SA 
HETATM   14  C   UNL     1     -10.261   4.778  72.764  1.00  0.00    -0.182 C  
BRANCH  14  15
HETATM   15  C   UNL     1     -11.747   4.662  73.059  1.00  0.00    -0.047 C  
HETATM   16  H2  UNL     1     -13.184   3.734  73.860  1.00  0.00     0.000 HD 
HETATM   17  N   UNL     1     -12.980   4.564  73.305  1.00  0.00     0.275 NA 
HETATM   18  H1  UNL     1     -13.978   4.486  73.502  1.00  0.00     0.000 HD 
ENDBRANCH  14  15
BRANCH  14  19
HETATM   19  N   UNL     1      -9.615   3.552  72.480  1.00  0.00    -0.128 NA 
HETATM   20  C   UNL     1      -9.458   2.971  71.228  1.00  0.00    -0.149 A  
HETATM   21  C   UNL     1      -8.857   1.751  71.430  1.00  0.00    -0.062 A  
HETATM   22  N   UNL     1      -8.542   1.583  72.742  1.00  0.00    -0.057 NA 
HETATM   23  C   UNL     1      -8.972   2.675  73.337  1.00  0.00    -0.081 A  
ENDBRANCH  14  19
ENDBRANCH   6   9
TORSDOF 3
ENDMDL
MODEL      140
REMARK 921   NORMALIZED FREE ENERGY PREDICTED BY IDOCK:   -2.34 KCAL/MOL
REMARK 922        TOTAL FREE ENERGY PREDICTED BY IDOCK:   -2.93 KCAL/MOL
REMARK 923 INTER-LIGAND FREE ENERGY PREDICTED BY IDOCK:   -3.79 KCAL/MOL
REMARK 924 INTRA-LIGAND FREE ENERGY PREDICTED BY IDOCK:    0.86 KCAL/MOL
REMARK 927      BINDING AFFINITY PREDICTED BY RF-SCORE:    0.00 PKD
ROOT
HETATM    1 CL   UNL     1     -10.511  16.269  65.466  1.00  0.00    -0.396 Cl 
HETATM    2  C   UNL     1     -10.801  14.668  66.019  1.00  0.00    -0.318 A  
HETATM    3  C   UNL     1     -11.361  14.455  67.273  1.00  0.00    -0.357 A  
HETATM    4  C   UNL     1     -11.589  13.149  67.723  1.00  0.00    -0.337 A  
HETATM    5 CL   UNL     1     -12.246  12.982  69.317  1.00  0.00    -0.221 Cl 
HETATM    6  C   UNL     1     -11.279  12.033  66.921  1.00  0.00    -0.375 A  
HETATM    7  C   UNL     1     -10.703  12.288  65.658  1.00  0.00    -0.302 A  
HETATM    8  C   UNL     1     -10.466  13.590  65.212  1.00  0.00    -0.345 A  
ENDROOT
BRANCH   6   9
HETATM    9  C   UNL     1     -11.513  10.612  67.433  1.00  0.00     0.064 C  
HETATM   10  C   UNL     1     -11.491  10.499  68.957  1.00  0.00    -0.237 C  
HETATM   11  S   UNL     1      -9.770  10.347  69.510  1.00  0.00    -0.117 SA 
HETATM   12  C   UNL     1      -9.172   9.464  68.115  1.00  0.00    -0.130 C  
HETATM   13  S   UNL     1     -10.336   9.360  66.799  1.00  0.00    -0.203 SA 
HETATM   14  C   UNL     1      -7.964   8.846  68.065  1.00  0.00    -0.102 C  
BRANCH  14  15
HETATM   15  C   UNL     1      -7.640   7.975  66.863  1.00  0.00    -0.095 C  
HETATM   16  H2  UNL     1      -7.650   6.283  66.024  1.00  0.00     0.000 HD 
HETATM   17  N   UNL     1      -7.371   7.251  65.866  1.00  0.00    -0.073 NA 
HETATM   18  H1  UNL     1      -7.153   6.666  65.059  1.00  0.00     0.000 HD 
ENDBRANCH  14  15
BRANCH  14  19
HETATM   19  N   UNL     1      -6.967   8.869  69.068  1.00  0.00    -0.063 NA 
HETATM   20  C   UNL     1      -6.612   9.956  69.857  1.00  0.00    -0.080 A  
HETATM   21  C   UNL     1      -5.544   9.557  70.624  1.00  0.00    -0.049 A  
HETATM   22  N   UNL     1      -5.274   8.239  70.424  1.00  0.00    -0.023 NA 
HETATM   23  C   UNL     1      -6.149   7.847  69.522  1.00  0.00    -0.033 A  
ENDBRANCH  14  19
ENDBRANCH   6   9
TORSDOF 3
ENDMDL
MODEL      141
REMARK 921   NORMALIZED FREE ENERGY PREDICTED BY IDOCK:   -2.30 KCAL/MOL
REMARK 922        TOTAL FREE ENERGY PREDICTED BY IDOCK:   -2.88 KCAL/MOL
REMARK 923 INTER-LIGAND FREE ENERGY PREDICTED BY IDOCK:   -2.60 KCAL/MOL
REMARK 924 INTRA-LIGAND FREE ENERGY PREDICTED BY IDOCK:   -0.28 KCAL/MOL
REMARK 927      BINDING AFFINITY PREDICTED BY RF-SCORE:    0.00 PKD
ROOT
HETATM    1 CL   UNL     1     -11.897  12.134  65.779  1.00  0.00    -0.413 Cl 
HETATM    2  C   UNL     1     -10.372  11.340  65.778  1.00  0.00    -0.258 A  
HETATM    3  C   UNL     1      -9.552  11.405  66.898  1.00  0.00    -0.203 A  
HETATM    4  C   UNL     1      -8.308  10.764  66.891  1.00  0.00    -0.132 A  
HETATM    5 CL   UNL     1      -7.336  10.939  68.314  1.00  0.00    -0.084 Cl 
HETATM    6  C   UNL     1      -7.868  10.031  65.770  1.00  0.00    -0.128 A  
HETATM    7  C   UNL     1      -8.722   9.997  64.648  1.00  0.00    -0.210 A  
HETATM    8  C   UNL     1      -9.960  10.643  64.650  1.00  0.00    -0.401 A  
ENDROOT
BRANCH   6   9
HETATM    9  C   UNL     1      -6.497   9.353  65.766  1.00  0.00    -0.069 C  
HETATM   10  C   UNL     1      -5.924   9.141  64.365  1.00  0.00    -0.070 C  
HETATM   11  S   UNL     1      -6.613   7.610  63.676  1.00  0.00    -0.058 SA 
HETATM   12  C   UNL     1      -6.750   6.733  65.190  1.00  0.00    -0.050 C  
HETATM   13  S   UNL     1      -6.438   7.728  66.609  1.00  0.00    -0.051 SA 
HETATM   14  C   UNL     1      -6.993   5.400  65.280  1.00  0.00    -0.064 C  
BRANCH  14  15
HETATM   15  C   UNL     1      -6.918   4.735  66.644  1.00  0.00    -0.067 C  
HETATM   16  H2  UNL     1      -7.530   4.592  68.425  1.00  0.00     0.000 HD 
HETATM   17  N   UNL     1      -6.857   4.184  67.776  1.00  0.00    -0.051 NA 
HETATM   18  H1  UNL     1      -6.806   3.738  68.692  1.00  0.00     0.000 HD 
ENDBRANCH  14  15
BRANCH  14  19
HETATM   19  N   UNL     1      -7.251   4.519  64.204  1.00  0.00    -0.053 NA 
HETATM   20  C   UNL     1      -6.329   3.694  63.571  1.00  0.00    -0.025 A  
HETATM   21  C   UNL     1      -6.989   3.086  62.531  1.00  0.00    -0.031 A  
HETATM   22  N   UNL     1      -8.308   3.417  62.541  1.00  0.00    -0.073 NA 
HETATM   23  C   UNL     1      -8.443   4.241  63.558  1.00  0.00    -0.105 A  
ENDBRANCH  14  19
ENDBRANCH   6   9
TORSDOF 3
ENDMDL
MODEL      142
REMARK 921   NORMALIZED FREE ENERGY PREDICTED BY IDOCK:   -2.26 KCAL/MOL
REMARK 922        TOTAL FREE ENERGY PREDICTED BY IDOCK:   -2.83 KCAL/MOL
REMARK 923 INTER-LIGAND FREE ENERGY PREDICTED BY IDOCK:   -2.62 KCAL/MOL
REMARK 924 INTRA-LIGAND FREE ENERGY PREDICTED BY IDOCK:   -0.21 KCAL/MOL
REMARK 927      BINDING AFFINITY PREDICTED BY RF-SCORE:    0.00 PKD
ROOT
HETATM    1 CL   UNL     1     -12.030  14.271  65.881  1.00  0.00    -0.393 Cl 
HETATM    2  C   UNL     1     -10.515  13.768  66.518  1.00  0.00    -0.282 A  
HETATM    3  C   UNL     1      -9.652  14.700  67.080  1.00  0.00    -0.246 A  
HETATM    4  C   UNL     1      -8.415  14.288  67.591  1.00  0.00    -0.180 A  
HETATM    5 CL   UNL     1      -7.387  15.528  68.227  1.00  0.00    -0.112 Cl 
HETATM    6  C   UNL     1      -8.027  12.934  67.566  1.00  0.00    -0.178 A  
HETATM    7  C   UNL     1      -8.925  12.017  66.980  1.00  0.00    -0.198 A  
HETATM    8  C   UNL     1     -10.155  12.428  66.461  1.00  0.00    -0.246 A  
ENDROOT
BRANCH   6   9
HETATM    9  C   UNL     1      -6.665  12.499  68.108  1.00  0.00    -0.078 C  
HETATM   10  C   UNL     1      -5.670  12.107  67.017  1.00  0.00    -0.086 C  
HETATM   11  S   UNL     1      -5.963  10.379  66.548  1.00  0.00    -0.078 SA 
HETATM   12  C   UNL     1      -6.479   9.811  68.127  1.00  0.00    -0.056 C  
HETATM   13  S   UNL     1      -6.716  11.106  69.296  1.00  0.00    -0.115 SA 
HETATM   14  C   UNL     1      -6.610   8.502  68.460  1.00  0.00    -0.059 C  
BRANCH  14  15
HETATM   15  C   UNL     1      -6.899   8.142  69.908  1.00  0.00    -0.044 C  
HETATM   16  H2  UNL     1      -7.847   7.113  71.175  1.00  0.00     0.000 HD 
HETATM   17  N   UNL     1      -7.138   7.844  71.109  1.00  0.00    -0.052 NA 
HETATM   18  H1  UNL     1      -7.333   7.603  72.081  1.00  0.00     0.000 HD 
ENDBRANCH  14  15
BRANCH  14  19
HETATM   19  N   UNL     1      -6.438   7.394  67.597  1.00  0.00    -0.054 NA 
HETATM   20  C   UNL     1      -5.233   6.790  67.256  1.00  0.00    -0.009 A  
HETATM   21  C   UNL     1      -5.525   5.819  66.329  1.00  0.00    -0.013 A  
HETATM   22  N   UNL     1      -6.869   5.720  66.144  1.00  0.00    -0.057 NA 
HETATM   23  C   UNL     1      -7.388   6.640  66.929  1.00  0.00    -0.082 A  
ENDBRANCH  14  19
ENDBRANCH   6   9
TORSDOF 3
ENDMDL
MODEL      143
REMARK 921   NORMALIZED FREE ENERGY PREDICTED BY IDOCK:   -2.24 KCAL/MOL
REMARK 922        TOTAL FREE ENERGY PREDICTED BY IDOCK:   -2.81 KCAL/MOL
REMARK 923 INTER-LIGAND FREE ENERGY PREDICTED BY IDOCK:   -2.60 KCAL/MOL
REMARK 924 INTRA-LIGAND FREE ENERGY PREDICTED BY IDOCK:   -0.21 KCAL/MOL
REMARK 927      BINDING AFFINITY PREDICTED BY RF-SCORE:    0.00 PKD
ROOT
HETATM    1 CL   UNL     1      -7.056   6.142  74.312  1.00  0.00    -0.087 Cl 
HETATM    2  C   UNL     1      -7.902   6.538  72.869  1.00  0.00    -0.101 A  
HETATM    3  C   UNL     1      -7.691   7.765  72.253  1.00  0.00    -0.115 A  
HETATM    4  C   UNL     1      -8.387   8.088  71.082  1.00  0.00    -0.114 A  
HETATM    5 CL   UNL     1      -8.093   9.658  70.412  1.00  0.00    -0.211 Cl 
HETATM    6  C   UNL     1      -9.294   7.182  70.496  1.00  0.00    -0.158 A  
HETATM    7  C   UNL     1      -9.491   5.950  71.156  1.00  0.00    -0.183 A  
HETATM    8  C   UNL     1      -8.803   5.631  72.329  1.00  0.00    -0.132 A  
ENDROOT
BRANCH   6   9
HETATM    9  C   UNL     1     -10.065   7.554  69.229  1.00  0.00    -0.188 C  
HETATM   10  C   UNL     1     -11.108   6.515  68.820  1.00  0.00    -0.283 C  
HETATM   11  S   UNL     1     -10.291   5.208  67.863  1.00  0.00    -0.029 SA 
HETATM   12  C   UNL     1      -9.075   6.223  67.105  1.00  0.00    -0.119 C  
HETATM   13  S   UNL     1      -9.023   7.858  67.754  1.00  0.00    -0.127 SA 
HETATM   14  C   UNL     1      -8.295   5.830  66.066  1.00  0.00    -0.126 C  
BRANCH  14  15
HETATM   15  C   UNL     1      -7.403   6.860  65.394  1.00  0.00    -0.080 C  
HETATM   16  H2  UNL     1      -5.925   8.033  65.465  1.00  0.00     0.000 HD 
HETATM   17  N   UNL     1      -6.663   7.715  64.836  1.00  0.00    -0.050 NA 
HETATM   18  H1  UNL     1      -6.064   8.407  64.385  1.00  0.00     0.000 HD 
ENDBRANCH  14  15
BRANCH  14  19
HETATM   19  N   UNL     1      -8.267   4.545  65.475  1.00  0.00    -0.109 NA 
HETATM   20  C   UNL     1      -9.008   4.123  64.378  1.00  0.00    -0.143 A  
HETATM   21  C   UNL     1      -8.736   2.787  64.207  1.00  0.00    -0.096 A  
HETATM   22  N   UNL     1      -7.784   2.374  65.086  1.00  0.00    -0.076 NA 
HETATM   23  C   UNL     1      -7.501   3.440  65.804  1.00  0.00    -0.077 A  
ENDBRANCH  14  19
ENDBRANCH   6   9
TORSDOF 3
ENDMDL
MODEL      144
REMARK 921   NORMALIZED FREE ENERGY PREDICTED BY IDOCK:   -2.21 KCAL/MOL
REMARK 922        TOTAL FREE ENERGY PREDICTED BY IDOCK:   -2.77 KCAL/MOL
REMARK 923 INTER-LIGAND FREE ENERGY PREDICTED BY IDOCK:   -2.89 KCAL/MOL
REMARK 924 INTRA-LIGAND FREE ENERGY PREDICTED BY IDOCK:    0.11 KCAL/MOL
REMARK 927      BINDING AFFINITY PREDICTED BY RF-SCORE:    0.00 PKD
ROOT
HETATM    1 CL   UNL     1      -5.710  12.913  67.827  1.00  0.00    -0.123 Cl 
HETATM    2  C   UNL     1      -6.817  11.603  67.722  1.00  0.00    -0.079 A  
HETATM    3  C   UNL     1      -7.956  11.715  66.935  1.00  0.00    -0.161 A  
HETATM    4  C   UNL     1      -8.860  10.649  66.857  1.00  0.00    -0.138 A  
HETATM    5 CL   UNL     1     -10.275  10.900  65.890  1.00  0.00    -0.304 Cl 
HETATM    6  C   UNL     1      -8.632   9.444  67.551  1.00  0.00    -0.122 A  
HETATM    7  C   UNL     1      -7.470   9.370  68.348  1.00  0.00    -0.078 A  
HETATM    8  C   UNL     1      -6.572  10.436  68.433  1.00  0.00    -0.059 A  
ENDROOT
BRANCH   6   9
HETATM    9  C   UNL     1      -9.637   8.294  67.476  1.00  0.00    -0.154 C  
HETATM   10  C   UNL     1     -10.962   8.594  68.177  1.00  0.00     0.173 C  
HETATM   11  S   UNL     1     -10.783   8.236  69.947  1.00  0.00    -0.208 SA 
HETATM   12  C   UNL     1      -9.649   6.906  69.786  1.00  0.00    -0.154 C  
HETATM   13  S   UNL     1      -9.038   6.700  68.148  1.00  0.00    -0.117 SA 
HETATM   14  C   UNL     1      -9.321   6.058  70.793  1.00  0.00    -0.154 C  
BRANCH  14  15
HETATM   15  C   UNL     1      -8.459   4.848  70.477  1.00  0.00    -0.097 C  
HETATM   16  H2  UNL     1      -7.900   3.515  69.261  1.00  0.00     0.000 HD 
HETATM   17  N   UNL     1      -7.743   3.843  70.214  1.00  0.00    -0.048 NA 
HETATM   18  H1  UNL     1      -7.164   3.031  70.001  1.00  0.00     0.000 HD 
ENDBRANCH  14  15
BRANCH  14  19
HETATM   19  N   UNL     1      -9.761   6.138  72.136  1.00  0.00    -0.155 NA 
HETATM   20  C   UNL     1     -10.043   7.299  72.845  1.00  0.00    -0.227 A  
HETATM   21  C   UNL     1     -10.345   6.915  74.130  1.00  0.00    -0.243 A  
HETATM   22  N   UNL     1     -10.360   5.559  74.234  1.00  0.00    -0.271 NA 
HETATM   23  C   UNL     1     -10.042   5.123  73.034  1.00  0.00    -0.169 A  
ENDBRANCH  14  19
ENDBRANCH   6   9
TORSDOF 3
ENDMDL
MODEL      145
REMARK 921   NORMALIZED FREE ENERGY PREDICTED BY IDOCK:   -2.21 KCAL/MOL
REMARK 922        TOTAL FREE ENERGY PREDICTED BY IDOCK:   -2.77 KCAL/MOL
REMARK 923 INTER-LIGAND FREE ENERGY PREDICTED BY IDOCK:   -2.73 KCAL/MOL
REMARK 924 INTRA-LIGAND FREE ENERGY PREDICTED BY IDOCK:   -0.04 KCAL/MOL
REMARK 927      BINDING AFFINITY PREDICTED BY RF-SCORE:    0.00 PKD
ROOT
HETATM    1 CL   UNL     1      -9.805  11.731  67.283  1.00  0.00    -0.194 Cl 
HETATM    2  C   UNL     1      -9.297  10.786  68.626  1.00  0.00    -0.184 A  
HETATM    3  C   UNL     1     -10.235  10.298  69.528  1.00  0.00    -0.261 A  
HETATM    4  C   UNL     1      -9.818   9.534  70.625  1.00  0.00    -0.262 A  
HETATM    5 CL   UNL     1     -11.054   9.010  71.720  1.00  0.00    -0.427 Cl 
HETATM    6  C   UNL     1      -8.458   9.229  70.830  1.00  0.00    -0.244 A  
HETATM    7  C   UNL     1      -7.534   9.750  69.899  1.00  0.00    -0.142 A  
HETATM    8  C   UNL     1      -7.948  10.520  68.810  1.00  0.00    -0.127 A  
ENDROOT
BRANCH   6   9
HETATM    9  C   UNL     1      -8.013   8.413  72.043  1.00  0.00    -0.135 C  
HETATM   10  C   UNL     1      -6.512   8.121  72.067  1.00  0.00    -0.060 C  
HETATM   11  S   UNL     1      -6.183   6.660  71.042  1.00  0.00    -0.041 SA 
HETATM   12  C   UNL     1      -7.693   5.825  71.364  1.00  0.00    -0.107 C  
HETATM   13  S   UNL     1      -8.862   6.803  72.244  1.00  0.00    -0.131 SA 
HETATM   14  C   UNL     1      -7.928   4.526  71.046  1.00  0.00    -0.077 C  
BRANCH  14  15
HETATM   15  C   UNL     1      -9.213   3.877  71.533  1.00  0.00    -0.125 C  
HETATM   16  H2  UNL     1     -10.138   2.349  72.146  1.00  0.00     0.000 HD 
HETATM   17  N   UNL     1     -10.279   3.338  71.936  1.00  0.00    -0.076 NA 
HETATM   18  H1  UNL     1     -11.141   2.902  72.262  1.00  0.00     0.000 HD 
ENDBRANCH  14  15
BRANCH  14  19
HETATM   19  N   UNL     1      -7.054   3.661  70.348  1.00  0.00    -0.037 NA 
HETATM   20  C   UNL     1      -5.950   3.000  70.872  1.00  0.00    -0.018 A  
HETATM   21  C   UNL     1      -5.344   2.347  69.826  1.00  0.00    -0.012 A  
HETATM   22  N   UNL     1      -6.072   2.488  68.686  1.00  0.00    -0.024 NA 
HETATM   23  C   UNL     1      -7.094   3.243  69.028  1.00  0.00    -0.049 A  
ENDBRANCH  14  19
ENDBRANCH   6   9
TORSDOF 3
ENDMDL
MODEL      146
REMARK 921   NORMALIZED FREE ENERGY PREDICTED BY IDOCK:   -2.07 KCAL/MOL
REMARK 922        TOTAL FREE ENERGY PREDICTED BY IDOCK:   -2.61 KCAL/MOL
REMARK 923 INTER-LIGAND FREE ENERGY PREDICTED BY IDOCK:   -2.51 KCAL/MOL
REMARK 924 INTRA-LIGAND FREE ENERGY PREDICTED BY IDOCK:   -0.10 KCAL/MOL
REMARK 927      BINDING AFFINITY PREDICTED BY RF-SCORE:    0.00 PKD
ROOT
HETATM    1 CL   UNL     1      -5.579   9.384  64.064  1.00  0.00    -0.069 Cl 
HETATM    2  C   UNL     1      -6.216   8.089  64.998  1.00  0.00    -0.045 A  
HETATM    3  C   UNL     1      -5.700   6.807  64.853  1.00  0.00    -0.031 A  
HETATM    4  C   UNL     1      -6.226   5.753  65.610  1.00  0.00    -0.037 A  
HETATM    5 CL   UNL     1      -5.552   4.183  65.327  1.00  0.00    -0.013 Cl 
HETATM    6  C   UNL     1      -7.264   5.965  66.540  1.00  0.00    -0.074 A  
HETATM    7  C   UNL     1      -7.768   7.278  66.652  1.00  0.00    -0.101 A  
HETATM    8  C   UNL     1      -7.251   8.328  65.891  1.00  0.00    -0.072 A  
ENDROOT
BRANCH   6   9
HETATM    9  C   UNL     1      -7.843   4.802  67.345  1.00  0.00    -0.094 C  
HETATM   10  C   UNL     1      -9.372   4.764  67.351  1.00  0.00    -0.137 C  
HETATM   11  S   UNL     1      -9.981   5.881  68.644  1.00  0.00    -0.161 SA 
HETATM   12  C   UNL     1      -8.654   5.655  69.770  1.00  0.00    -0.121 C  
HETATM   13  S   UNL     1      -7.312   4.736  69.097  1.00  0.00    -0.053 SA 
HETATM   14  C   UNL     1      -8.672   6.068  71.062  1.00  0.00    -0.132 C  
BRANCH  14  15
HETATM   15  C   UNL     1      -7.528   5.660  71.976  1.00  0.00    -0.095 C  
HETATM   16  H2  UNL     1      -6.159   6.132  73.187  1.00  0.00     0.000 HD 
HETATM   17  N   UNL     1      -6.579   5.321  72.734  1.00  0.00    -0.066 NA 
HETATM   18  H1  UNL     1      -5.811   5.047  73.346  1.00  0.00     0.000 HD 
ENDBRANCH  14  15
BRANCH  14  19
HETATM   19  N   UNL     1      -9.701   6.806  71.694  1.00  0.00    -0.163 NA 
HETATM   20  C   UNL     1     -10.028   8.136  71.461  1.00  0.00    -0.182 A  
HETATM   21  C   UNL     1     -11.020   8.463  72.353  1.00  0.00    -0.355 A  
HETATM   22  N   UNL     1     -11.399   7.371  73.070  1.00  0.00    -0.284 NA 
HETATM   23  C   UNL     1     -10.626   6.398  72.640  1.00  0.00    -0.224 A  
ENDBRANCH  14  19
ENDBRANCH   6   9
TORSDOF 3
ENDMDL
MODEL      147
REMARK 921   NORMALIZED FREE ENERGY PREDICTED BY IDOCK:   -1.71 KCAL/MOL
REMARK 922        TOTAL FREE ENERGY PREDICTED BY IDOCK:   -2.19 KCAL/MOL
REMARK 923 INTER-LIGAND FREE ENERGY PREDICTED BY IDOCK:   -2.94 KCAL/MOL
REMARK 924 INTRA-LIGAND FREE ENERGY PREDICTED BY IDOCK:    0.75 KCAL/MOL
REMARK 927      BINDING AFFINITY PREDICTED BY RF-SCORE:    0.00 PKD
ROOT
HETATM    1 CL   UNL     1      -6.970   2.384  71.056  1.00  0.00    -0.032 Cl 
HETATM    2  C   UNL     1      -7.829   3.361  69.933  1.00  0.00    -0.046 A  
HETATM    3  C   UNL     1      -8.737   4.310  70.387  1.00  0.00    -0.118 A  
HETATM    4  C   UNL     1      -9.441   5.099  69.469  1.00  0.00    -0.146 A  
HETATM    5 CL   UNL     1     -10.585   6.220  70.127  1.00  0.00    -0.281 Cl 
HETATM    6  C   UNL     1      -9.235   4.967  68.081  1.00  0.00    -0.151 A  
HETATM    7  C   UNL     1      -8.313   3.987  67.657  1.00  0.00    -0.096 A  
HETATM    8  C   UNL     1      -7.617   3.193  68.571  1.00  0.00    -0.048 A  
ENDROOT
BRANCH   6   9
HETATM    9  C   UNL     1     -10.025   5.820  67.088  1.00  0.00    -0.159 C  
HETATM   10  C   UNL     1      -9.176   6.363  65.939  1.00  0.00    -0.003 C  
HETATM   11  S   UNL     1      -8.349   7.882  66.488  1.00  0.00    -0.132 SA 
HETATM   12  C   UNL     1      -9.614   8.440  67.569  1.00  0.00    -0.154 C  
HETATM   13  S   UNL     1     -10.892   7.256  67.823  1.00  0.00    -0.096 SA 
HETATM   14  C   UNL     1      -9.664   9.686  68.105  1.00  0.00    -0.146 C  
BRANCH  14  15
HETATM   15  C   UNL     1     -10.901  10.094  68.888  1.00  0.00    -0.223 C  
HETATM   16  H2  UNL     1     -12.593  10.932  68.945  1.00  0.00     0.000 HD 
HETATM   17  N   UNL     1     -11.927  10.433  69.537  1.00  0.00    -0.497 NA 
HETATM   18  H1  UNL     1     -12.757  10.708  70.062  1.00  0.00     0.000 HD 
ENDBRANCH  14  15
BRANCH  14  19
HETATM   19  N   UNL     1      -8.693  10.703  67.957  1.00  0.00    -0.124 NA 
HETATM   20  C   UNL     1      -8.547  11.555  66.869  1.00  0.00    -0.163 A  
HETATM   21  C   UNL     1      -7.428  12.317  67.109  1.00  0.00    -0.113 A  
HETATM   22  N   UNL     1      -6.922  12.050  68.342  1.00  0.00    -0.074 NA 
HETATM   23  C   UNL     1      -7.706  11.115  68.836  1.00  0.00    -0.137 A  
ENDBRANCH  14  19
ENDBRANCH   6   9
TORSDOF 3
ENDMDL
MODEL      148
REMARK 921   NORMALIZED FREE ENERGY PREDICTED BY IDOCK:   -1.60 KCAL/MOL
REMARK 922        TOTAL FREE ENERGY PREDICTED BY IDOCK:   -2.06 KCAL/MOL
REMARK 923 INTER-LIGAND FREE ENERGY PREDICTED BY IDOCK:   -4.17 KCAL/MOL
REMARK 924 INTRA-LIGAND FREE ENERGY PREDICTED BY IDOCK:    2.12 KCAL/MOL
REMARK 927      BINDING AFFINITY PREDICTED BY RF-SCORE:    0.00 PKD
ROOT
HETATM    1 CL   UNL     1      -5.372  14.089  73.904  1.00  0.00    -0.352 Cl 
HETATM    2  C   UNL     1      -5.479  14.308  72.203  1.00  0.00    -0.163 A  
HETATM    3  C   UNL     1      -5.266  15.564  71.648  1.00  0.00     0.006 A  
HETATM    4  C   UNL     1      -5.362  15.741  70.262  1.00  0.00    -0.146 A  
HETATM    5 CL   UNL     1      -5.126  17.350  69.668  1.00  0.00    -0.161 Cl 
HETATM    6  C   UNL     1      -5.655  14.661  69.405  1.00  0.00    -0.094 A  
HETATM    7  C   UNL     1      -5.875  13.404  70.005  1.00  0.00    -0.132 A  
HETATM    8  C   UNL     1      -5.789  13.228  71.388  1.00  0.00     0.159 A  
ENDROOT
BRANCH   6   9
HETATM    9  C   UNL     1      -5.778  14.871  67.895  1.00  0.00    -0.125 C  
HETATM   10  C   UNL     1      -5.362  16.269  67.437  1.00  0.00    -0.111 C  
HETATM   11  S   UNL     1      -6.769  17.396  67.644  1.00  0.00    -0.157 SA 
HETATM   12  C   UNL     1      -8.035  16.225  67.319  1.00  0.00    -0.167 C  
HETATM   13  S   UNL     1      -7.448  14.569  67.208  1.00  0.00     0.011 SA 
HETATM   14  C   UNL     1      -9.334  16.550  67.092  1.00  0.00    -0.233 C  
BRANCH  14  15
HETATM   15  C   UNL     1     -10.294  15.456  66.655  1.00  0.00    -0.280 C  
HETATM   16  H2  UNL     1     -12.003  14.933  66.046  1.00  0.00     0.000 HD 
HETATM   17  N   UNL     1     -11.091  14.549  66.292  1.00  0.00    -0.327 NA 
HETATM   18  H1  UNL     1     -11.735  13.814  65.999  1.00  0.00     0.000 HD 
ENDBRANCH  14  15
BRANCH  14  19
HETATM   19  N   UNL     1      -9.899  17.845  67.154  1.00  0.00    -0.297 NA 
HETATM   20  C   UNL     1     -10.384  18.588  66.084  1.00  0.00    -0.426 A  
HETATM   21  C   UNL     1     -10.752  19.813  66.586  1.00  0.00    -0.404 A  
HETATM   22  N   UNL     1     -10.611  19.839  67.939  1.00  0.00    -0.389 NA 
HETATM   23  C   UNL     1     -10.135  18.653  68.253  1.00  0.00    -0.389 A  
ENDBRANCH  14  19
ENDBRANCH   6   9
TORSDOF 3
ENDMDL
MODEL      149
REMARK 921   NORMALIZED FREE ENERGY PREDICTED BY IDOCK:   -1.16 KCAL/MOL
REMARK 922        TOTAL FREE ENERGY PREDICTED BY IDOCK:   -1.54 KCAL/MOL
REMARK 923 INTER-LIGAND FREE ENERGY PREDICTED BY IDOCK:   -2.29 KCAL/MOL
REMARK 924 INTRA-LIGAND FREE ENERGY PREDICTED BY IDOCK:    0.75 KCAL/MOL
REMARK 927      BINDING AFFINITY PREDICTED BY RF-SCORE:    0.00 PKD
ROOT
HETATM    1 CL   UNL     1      -8.750   5.552  67.363  1.00  0.00    -0.108 Cl 
HETATM    2  C   UNL     1      -9.316   7.117  66.933  1.00  0.00    -0.155 A  
HETATM    3  C   UNL     1     -10.048   7.868  67.846  1.00  0.00    -0.240 A  
HETATM    4  C   UNL     1     -10.514   9.139  67.490  1.00  0.00    -0.270 A  
HETATM    5 CL   UNL     1     -11.457   9.979  68.675  1.00  0.00    -0.112 Cl 
HETATM    6  C   UNL     1     -10.241   9.691  66.222  1.00  0.00    -0.286 A  
HETATM    7  C   UNL     1      -9.504   8.896  65.319  1.00  0.00     0.001 A  
HETATM    8  C   UNL     1      -9.046   7.623  65.670  1.00  0.00     0.032 A  
ENDROOT
BRANCH   6   9
HETATM    9  C   UNL     1     -10.773  11.071  65.838  1.00  0.00    -0.160 C  
HETATM   10  C   UNL     1      -9.858  11.835  64.881  1.00  0.00    -0.223 C  
HETATM   11  S   UNL     1      -8.568  12.671  65.845  1.00  0.00     0.976 SA 
HETATM   12  C   UNL     1      -9.535  12.986  67.275  1.00  0.00    -0.224 C  
HETATM   13  S   UNL     1     -11.105  12.190  67.249  1.00  0.00    -0.306 SA 
HETATM   14  C   UNL     1      -9.163  13.821  68.278  1.00  0.00    -0.204 C  
BRANCH  14  15
HETATM   15  C   UNL     1     -10.166  14.137  69.375  1.00  0.00     0.141 C  
HETATM   16  H2  UNL     1     -10.751  13.933  71.159  1.00  0.00     0.000 HD 
HETATM   17  N   UNL     1     -10.998  14.398  70.286  1.00  0.00    -0.474 NA 
HETATM   18  H1  UNL     1     -11.672  14.610  71.022  1.00  0.00     0.000 HD 
ENDBRANCH  14  15
BRANCH  14  19
HETATM   19  N   UNL     1      -7.930  14.507  68.387  1.00  0.00    -0.133 NA 
HETATM   20  C   UNL     1      -7.034  14.433  69.446  1.00  0.00    -0.129 A  
HETATM   21  C   UNL     1      -6.025  15.325  69.175  1.00  0.00    -0.101 A  
HETATM   22  N   UNL     1      -6.197  15.885  67.948  1.00  0.00    -0.124 NA 
HETATM   23  C   UNL     1      -7.314  15.362  67.489  1.00  0.00    -0.195 A  
ENDBRANCH  14  19
ENDBRANCH   6   9
TORSDOF 3
ENDMDL
MODEL      150
REMARK 921   NORMALIZED FREE ENERGY PREDICTED BY IDOCK:   -0.87 KCAL/MOL
REMARK 922        TOTAL FREE ENERGY PREDICTED BY IDOCK:   -1.19 KCAL/MOL
REMARK 923 INTER-LIGAND FREE ENERGY PREDICTED BY IDOCK:   -2.22 KCAL/MOL
REMARK 924 INTRA-LIGAND FREE ENERGY PREDICTED BY IDOCK:    1.03 KCAL/MOL
REMARK 927      BINDING AFFINITY PREDICTED BY RF-SCORE:    0.00 PKD
ROOT
HETATM    1 CL   UNL     1     -11.060  14.032  66.244  1.00  0.00    -0.304 Cl 
HETATM    2  C   UNL     1      -9.773  13.126  66.934  1.00  0.00    -0.243 A  
HETATM    3  C   UNL     1     -10.046  11.998  67.699  1.00  0.00    -0.205 A  
HETATM    4  C   UNL     1      -8.996  11.267  68.266  1.00  0.00    -0.172 A  
HETATM    5 CL   UNL     1      -9.436   9.906  69.241  1.00  0.00    -0.202 Cl 
HETATM    6  C   UNL     1      -7.652  11.639  68.064  1.00  0.00    -0.117 A  
HETATM    7  C   UNL     1      -7.413  12.795  67.291  1.00  0.00    -0.101 A  
HETATM    8  C   UNL     1      -8.461  13.531  66.732  1.00  0.00     0.013 A  
ENDROOT
BRANCH   6   9
HETATM    9  C   UNL     1      -6.514  10.845  68.706  1.00  0.00    -0.053 C  
HETATM   10  C   UNL     1      -5.410  10.455  67.724  1.00  0.00    -0.040 C  
HETATM   11  S   UNL     1      -5.901   8.934  66.864  1.00  0.00    -0.049 SA 
HETATM   12  C   UNL     1      -6.799   8.216  68.189  1.00  0.00    -0.076 C  
HETATM   13  S   UNL     1      -7.030   9.305  69.553  1.00  0.00    -0.054 SA 
HETATM   14  C   UNL     1      -7.215   6.924  68.216  1.00  0.00    -0.091 C  
BRANCH  14  15
HETATM   15  C   UNL     1      -7.833   6.382  69.494  1.00  0.00    -0.101 C  
HETATM   16  H2  UNL     1      -7.690   5.337  71.060  1.00  0.00     0.000 HD 
HETATM   17  N   UNL     1      -8.345   5.933  70.555  1.00  0.00    -0.121 NA 
HETATM   18  H1  UNL     1      -8.760   5.569  71.413  1.00  0.00     0.000 HD 
ENDBRANCH  14  15
BRANCH  14  19
HETATM   19  N   UNL     1      -7.074   5.974  67.177  1.00  0.00    -0.069 NA 
HETATM   20  C   UNL     1      -8.098   5.418  66.420  1.00  0.00    -0.105 A  
HETATM   21  C   UNL     1      -7.519   4.483  65.596  1.00  0.00    -0.081 A  
HETATM   22  N   UNL     1      -6.166   4.496  65.732  1.00  0.00    -0.027 NA 
HETATM   23  C   UNL     1      -5.926   5.407  66.650  1.00  0.00    -0.022 A  
ENDBRANCH  14  19
ENDBRANCH   6   9
TORSDOF 3
ENDMDL
MODEL      151
REMARK 921   NORMALIZED FREE ENERGY PREDICTED BY IDOCK:   -0.68 KCAL/MOL
REMARK 922        TOTAL FREE ENERGY PREDICTED BY IDOCK:   -0.97 KCAL/MOL
REMARK 923 INTER-LIGAND FREE ENERGY PREDICTED BY IDOCK:   -4.18 KCAL/MOL
REMARK 924 INTRA-LIGAND FREE ENERGY PREDICTED BY IDOCK:    3.20 KCAL/MOL
REMARK 927      BINDING AFFINITY PREDICTED BY RF-SCORE:    0.00 PKD
ROOT
HETATM    1 CL   UNL     1      -9.334   1.699  71.046  1.00  0.00    -0.166 Cl 
HETATM    2  C   UNL     1      -9.570   3.310  71.595  1.00  0.00    -0.160 A  
HETATM    3  C   UNL     1     -10.262   4.221  70.806  1.00  0.00    -0.035 A  
HETATM    4  C   UNL     1     -10.446   5.534  71.253  1.00  0.00    -0.239 A  
HETATM    5 CL   UNL     1     -11.279   6.609  70.181  1.00  0.00    -0.383 Cl 
HETATM    6  C   UNL     1      -9.957   5.957  72.506  1.00  0.00    -0.198 A  
HETATM    7  C   UNL     1      -9.250   5.008  73.275  1.00  0.00    -0.131 A  
HETATM    8  C   UNL     1      -9.058   3.699  72.825  1.00  0.00    -0.119 A  
ENDROOT
BRANCH   6   9
HETATM    9  C   UNL     1     -10.145   7.400  72.974  1.00  0.00    -0.273 C  
HETATM   10  C   UNL     1     -11.539   7.959  72.687  1.00  0.00    -0.377 C  
HETATM   11  S   UNL     1     -11.584   8.573  70.980  1.00  0.00    -0.269 SA 
HETATM   12  C   UNL     1      -9.911   9.097  70.894  1.00  0.00    -0.291 C  
HETATM   13  S   UNL     1      -8.947   8.599  72.280  1.00  0.00    -0.074 SA 
HETATM   14  C   UNL     1      -9.407   9.879  69.905  1.00  0.00    -0.216 C  
BRANCH  14  15
HETATM   15  C   UNL     1      -7.986  10.401  70.039  1.00  0.00     0.113 C  
HETATM   16  H2  UNL     1      -6.781  11.853  70.107  1.00  0.00     0.000 HD 
HETATM   17  N   UNL     1      -6.807  10.834  70.151  1.00  0.00    -0.343 NA 
HETATM   18  H1  UNL     1      -5.853  11.184  70.240  1.00  0.00     0.000 HD 
ENDBRANCH  14  15
BRANCH  14  19
HETATM   19  N   UNL     1     -10.099  10.333  68.758  1.00  0.00    -0.178 NA 
HETATM   20  C   UNL     1     -10.600  11.611  68.546  1.00  0.00    -0.215 A  
HETATM   21  C   UNL     1     -11.272  11.580  67.348  1.00  0.00    -0.304 A  
HETATM   22  N   UNL     1     -11.134  10.366  66.751  1.00  0.00    -0.081 NA 
HETATM   23  C   UNL     1     -10.410   9.657  67.590  1.00  0.00    -0.237 A  
ENDBRANCH  14  19
ENDBRANCH   6   9
TORSDOF 3
ENDMDL
MODEL      152
REMARK 921   NORMALIZED FREE ENERGY PREDICTED BY IDOCK:   -0.62 KCAL/MOL
REMARK 922        TOTAL FREE ENERGY PREDICTED BY IDOCK:   -0.90 KCAL/MOL
REMARK 923 INTER-LIGAND FREE ENERGY PREDICTED BY IDOCK:   -3.92 KCAL/MOL
REMARK 924 INTRA-LIGAND FREE ENERGY PREDICTED BY IDOCK:    3.02 KCAL/MOL
REMARK 927      BINDING AFFINITY PREDICTED BY RF-SCORE:    0.00 PKD
ROOT
HETATM    1 CL   UNL     1      -6.511  10.051  63.895  1.00  0.00    -0.128 Cl 
HETATM    2  C   UNL     1      -7.124   8.756  64.843  1.00  0.00    -0.077 A  
HETATM    3  C   UNL     1      -8.421   8.810  65.341  1.00  0.00    -0.186 A  
HETATM    4  C   UNL     1      -8.915   7.756  66.119  1.00  0.00    -0.163 A  
HETATM    5 CL   UNL     1     -10.524   7.935  66.734  1.00  0.00    -0.380 Cl 
HETATM    6  C   UNL     1      -8.128   6.621  66.399  1.00  0.00    -0.113 A  
HETATM    7  C   UNL     1      -6.814   6.606  65.886  1.00  0.00    -0.053 A  
HETATM    8  C   UNL     1      -6.317   7.660  65.117  1.00  0.00    -0.038 A  
ENDROOT
BRANCH   6   9
HETATM    9  C   UNL     1      -8.672   5.487  67.268  1.00  0.00    -0.107 C  
HETATM   10  C   UNL     1     -10.182   5.288  67.139  1.00  0.00    -0.220 C  
HETATM   11  S   UNL     1     -11.024   6.454  68.245  1.00  0.00    -0.274 SA 
HETATM   12  C   UNL     1      -9.802   6.479  69.505  1.00  0.00    -0.151 C  
HETATM   13  S   UNL     1      -8.316   5.647  69.058  1.00  0.00    -0.099 SA 
HETATM   14  C   UNL     1      -9.990   7.012  70.739  1.00  0.00    -0.190 C  
BRANCH  14  15
HETATM   15  C   UNL     1      -8.911   6.817  71.790  1.00  0.00    -0.128 C  
HETATM   16  H2  UNL     1      -8.327   6.023  73.401  1.00  0.00     0.000 HD 
HETATM   17  N   UNL     1      -8.016   6.655  72.663  1.00  0.00    -0.102 NA 
HETATM   18  H1  UNL     1      -7.291   6.525  73.369  1.00  0.00     0.000 HD 
ENDBRANCH  14  15
BRANCH  14  19
HETATM   19  N   UNL     1     -11.144   7.694  71.192  1.00  0.00    -0.247 NA 
HETATM   20  C   UNL     1     -12.237   7.130  71.838  1.00  0.00    -0.323 A  
HETATM   21  C   UNL     1     -13.157   8.136  72.012  1.00  0.00    -0.293 A  
HETATM   22  N   UNL     1     -12.651   9.326  71.593  1.00  0.00    -0.342 NA 
HETATM   23  C   UNL     1     -11.448   9.043  71.141  1.00  0.00    -0.308 A  
ENDBRANCH  14  19
ENDBRANCH   6   9
TORSDOF 3
ENDMDL
MODEL      153
REMARK 921   NORMALIZED FREE ENERGY PREDICTED BY IDOCK:   -0.34 KCAL/MOL
REMARK 922        TOTAL FREE ENERGY PREDICTED BY IDOCK:   -0.57 KCAL/MOL
REMARK 923 INTER-LIGAND FREE ENERGY PREDICTED BY IDOCK:   -3.79 KCAL/MOL
REMARK 924 INTRA-LIGAND FREE ENERGY PREDICTED BY IDOCK:    3.22 KCAL/MOL
REMARK 927      BINDING AFFINITY PREDICTED BY RF-SCORE:    0.00 PKD
ROOT
HETATM    1 CL   UNL     1     -10.653   4.815  73.144  1.00  0.00    -0.252 Cl 
HETATM    2  C   UNL     1     -10.525   6.288  72.268  1.00  0.00    -0.199 A  
HETATM    3  C   UNL     1     -10.046   6.282  70.963  1.00  0.00    -0.221 A  
HETATM    4  C   UNL     1      -9.936   7.485  70.255  1.00  0.00    -0.192 A  
HETATM    5 CL   UNL     1      -9.284   7.384  68.653  1.00  0.00    -0.144 Cl 
HETATM    6  C   UNL     1     -10.320   8.712  70.831  1.00  0.00    -0.262 A  
HETATM    7  C   UNL     1     -10.792   8.680  72.160  1.00  0.00    -0.424 A  
HETATM    8  C   UNL     1     -10.894   7.482  72.871  1.00  0.00    -0.425 A  
ENDROOT
BRANCH   6   9
HETATM    9  C   UNL     1     -10.175  10.021  70.054  1.00  0.00    -0.255 C  
HETATM   10  C   UNL     1     -11.156  10.153  68.889  1.00  0.00    -0.207 C  
HETATM   11  S   UNL     1     -10.470   9.294  67.445  1.00  0.00    -0.253 SA 
HETATM   12  C   UNL     1      -8.778   9.614  67.785  1.00  0.00    -0.122 C  
HETATM   13  S   UNL     1      -8.505  10.331  69.370  1.00  0.00    -0.135 SA 
HETATM   14  C   UNL     1      -7.771   9.412  66.898  1.00  0.00    -0.091 C  
BRANCH  14  15
HETATM   15  C   UNL     1      -6.374   9.890  67.259  1.00  0.00    -0.068 C  
HETATM   16  H2  UNL     1      -4.634  10.394  66.726  1.00  0.00     0.000 HD 
HETATM   17  N   UNL     1      -5.215  10.287  67.557  1.00  0.00    -0.040 NA 
HETATM   18  H1  UNL     1      -4.277  10.607  67.799  1.00  0.00     0.000 HD 
ENDBRANCH  14  15
BRANCH  14  19
HETATM   19  N   UNL     1      -7.890   8.848  65.606  1.00  0.00    -0.094 NA 
HETATM   20  C   UNL     1      -8.407   9.471  64.477  1.00  0.00    -0.164 A  
HETATM   21  C   UNL     1      -8.414   8.531  63.475  1.00  0.00    -0.028 A  
HETATM   22  N   UNL     1      -7.835   7.375  63.896  1.00  0.00    -0.130 NA 
HETATM   23  C   UNL     1      -7.506   7.599  65.150  1.00  0.00    -0.088 A  
ENDBRANCH  14  19
ENDBRANCH   6   9
TORSDOF 3
ENDMDL
MODEL      154
REMARK 921   NORMALIZED FREE ENERGY PREDICTED BY IDOCK:    0.07 KCAL/MOL
REMARK 922        TOTAL FREE ENERGY PREDICTED BY IDOCK:   -0.10 KCAL/MOL
REMARK 923 INTER-LIGAND FREE ENERGY PREDICTED BY IDOCK:   -2.35 KCAL/MOL
REMARK 924 INTRA-LIGAND FREE ENERGY PREDICTED BY IDOCK:    2.25 KCAL/MOL
REMARK 927      BINDING AFFINITY PREDICTED BY RF-SCORE:    0.00 PKD
ROOT
HETATM    1 CL   UNL     1      -6.114  10.182  66.540  1.00  0.00    -0.064 Cl 
HETATM    2  C   UNL     1      -6.399   9.741  68.176  1.00  0.00    -0.055 A  
HETATM    3  C   UNL     1      -7.552   9.044  68.519  1.00  0.00    -0.093 A  
HETATM    4  C   UNL     1      -7.785   8.693  69.854  1.00  0.00    -0.084 A  
HETATM    5 CL   UNL     1      -9.271   7.869  70.191  1.00  0.00    -0.153 Cl 
HETATM    6  C   UNL     1      -6.861   9.015  70.868  1.00  0.00    -0.088 A  
HETATM    7  C   UNL     1      -5.707   9.731  70.484  1.00  0.00    -0.057 A  
HETATM    8  C   UNL     1      -5.478  10.090  69.153  1.00  0.00    -0.035 A  
ENDROOT
BRANCH   6   9
HETATM    9  C   UNL     1      -7.137   8.644  72.325  1.00  0.00    -0.011 C  
HETATM   10  C   UNL     1      -6.198   7.568  72.870  1.00  0.00    -0.059 C  
HETATM   11  S   UNL     1      -6.839   5.937  72.401  1.00  0.00    -0.075 SA 
HETATM   12  C   UNL     1      -8.544   6.350  72.458  1.00  0.00    -0.123 C  
HETATM   13  S   UNL     1      -8.843   8.072  72.666  1.00  0.00    -0.225 SA 
HETATM   14  C   UNL     1      -9.550   5.439  72.427  1.00  0.00    -0.150 C  
BRANCH  14  15
HETATM   15  C   UNL     1     -10.975   5.917  72.655  1.00  0.00    -0.264 C  
HETATM   16  H2  UNL     1     -12.229   7.326  72.739  1.00  0.00     0.000 HD 
HETATM   17  N   UNL     1     -12.156   6.314  72.844  1.00  0.00    -0.340 NA 
HETATM   18  H1  UNL     1     -13.112   6.635  72.998  1.00  0.00     0.000 HD 
ENDBRANCH  14  15
BRANCH  14  19
HETATM   19  N   UNL     1      -9.412   4.040  72.268  1.00  0.00    -0.125 NA 
HETATM   20  C   UNL     1      -8.268   3.363  71.865  1.00  0.00    -0.063 A  
HETATM   21  C   UNL     1      -8.610   2.036  71.759  1.00  0.00    -0.059 A  
HETATM   22  N   UNL     1      -9.890   1.836  72.171  1.00  0.00    -0.116 NA 
HETATM   23  C   UNL     1     -10.333   3.031  72.496  1.00  0.00    -0.109 A  
ENDBRANCH  14  19
ENDBRANCH   6   9
TORSDOF 3
ENDMDL
MODEL      155
REMARK 921   NORMALIZED FREE ENERGY PREDICTED BY IDOCK:    0.17 KCAL/MOL
REMARK 922        TOTAL FREE ENERGY PREDICTED BY IDOCK:    0.03 KCAL/MOL
REMARK 923 INTER-LIGAND FREE ENERGY PREDICTED BY IDOCK:   -3.36 KCAL/MOL
REMARK 924 INTRA-LIGAND FREE ENERGY PREDICTED BY IDOCK:    3.39 KCAL/MOL
REMARK 927      BINDING AFFINITY PREDICTED BY RF-SCORE:    0.00 PKD
ROOT
HETATM    1 CL   UNL     1      -7.620   6.697  63.099  1.00  0.00    -0.082 Cl 
HETATM    2  C   UNL     1      -8.268   7.884  64.159  1.00  0.00    -0.027 A  
HETATM    3  C   UNL     1      -8.502   7.573  65.493  1.00  0.00    -0.129 A  
HETATM    4  C   UNL     1      -9.037   8.540  66.352  1.00  0.00    -0.184 A  
HETATM    5 CL   UNL     1      -9.338   8.046  67.985  1.00  0.00    -0.142 Cl 
HETATM    6  C   UNL     1      -9.330   9.842  65.898  1.00  0.00    -0.260 A  
HETATM    7  C   UNL     1      -9.089  10.118  64.536  1.00  0.00    -0.280 A  
HETATM    8  C   UNL     1      -8.564   9.151  63.675  1.00  0.00    -0.180 A  
ENDROOT
BRANCH   6   9
HETATM    9  C   UNL     1      -9.934  10.883  66.841  1.00  0.00    -0.194 C  
HETATM   10  C   UNL     1      -8.891  11.641  67.663  1.00  0.00    -0.159 C  
HETATM   11  S   UNL     1      -8.467  10.655  69.125  1.00  0.00    -0.087 SA 
HETATM   12  C   UNL     1     -10.043   9.918  69.355  1.00  0.00    -0.212 C  
HETATM   13  S   UNL     1     -11.162  10.226  68.031  1.00  0.00    -0.139 SA 
HETATM   14  C   UNL     1     -10.412   9.240  70.472  1.00  0.00    -0.255 C  
BRANCH  14  15
HETATM   15  C   UNL     1     -11.859   8.799  70.613  1.00  0.00    -0.112 C  
HETATM   16  H2  UNL     1     -13.430   8.665  71.653  1.00  0.00     0.000 HD 
HETATM   17  N   UNL     1     -13.060   8.433  70.731  1.00  0.00    -0.310 NA 
HETATM   18  H1  UNL     1     -14.031   8.137  70.826  1.00  0.00     0.000 HD 
ENDBRANCH  14  15
BRANCH  14  19
HETATM   19  N   UNL     1      -9.591   8.946  71.585  1.00  0.00    -0.295 NA 
HETATM   20  C   UNL     1      -9.995   8.361  72.779  1.00  0.00    -0.215 A  
HETATM   21  C   UNL     1      -8.897   8.347  73.606  1.00  0.00    -0.040 A  
HETATM   22  N   UNL     1      -7.798   8.808  72.951  1.00  0.00    -0.377 NA 
HETATM   23  C   UNL     1      -8.228   9.126  71.749  1.00  0.00     0.319 A  
ENDBRANCH  14  19
ENDBRANCH   6   9
TORSDOF 3
ENDMDL
MODEL      156
REMARK 921   NORMALIZED FREE ENERGY PREDICTED BY IDOCK:    0.48 KCAL/MOL
REMARK 922        TOTAL FREE ENERGY PREDICTED BY IDOCK:    0.39 KCAL/MOL
REMARK 923 INTER-LIGAND FREE ENERGY PREDICTED BY IDOCK:   -0.14 KCAL/MOL
REMARK 924 INTRA-LIGAND FREE ENERGY PREDICTED BY IDOCK:    0.52 KCAL/MOL
REMARK 927      BINDING AFFINITY PREDICTED BY RF-SCORE:    0.00 PKD
ROOT
HETATM    1 CL   UNL     1     -11.201  12.806  63.748  1.00  0.00    -0.480 Cl 
HETATM    2  C   UNL     1     -10.543  11.521  64.680  1.00  0.00    -0.311 A  
HETATM    3  C   UNL     1     -10.949  11.336  65.996  1.00  0.00    -0.237 A  
HETATM    4  C   UNL     1     -10.406  10.293  66.756  1.00  0.00    -0.227 A  
HETATM    5 CL   UNL     1     -10.938  10.171  68.399  1.00  0.00    -0.293 Cl 
HETATM    6  C   UNL     1      -9.460   9.404  66.207  1.00  0.00    -0.273 A  
HETATM    7  C   UNL     1      -9.063   9.629  64.872  1.00  0.00    -0.284 A  
HETATM    8  C   UNL     1      -9.598  10.675  64.116  1.00  0.00    -0.353 A  
ENDROOT
BRANCH   6   9
HETATM    9  C   UNL     1      -8.858   8.282  67.053  1.00  0.00    -0.135 C  
HETATM   10  C   UNL     1      -7.401   7.971  66.710  1.00  0.00    -0.089 C  
HETATM   11  S   UNL     1      -7.361   6.839  65.293  1.00  0.00    -0.089 SA 
HETATM   12  C   UNL     1      -8.840   5.971  65.667  1.00  0.00    -0.109 C  
HETATM   13  S   UNL     1      -9.763   6.691  66.981  1.00  0.00    -0.165 SA 
HETATM   14  C   UNL     1      -9.214   4.811  65.069  1.00  0.00    -0.133 C  
BRANCH  14  15
HETATM   15  C   UNL     1     -10.431   4.074  65.605  1.00  0.00     0.101 C  
HETATM   16  H2  UNL     1     -11.457   2.494  65.729  1.00  0.00     0.000 HD 
HETATM   17  N   UNL     1     -11.440   3.462  66.049  1.00  0.00     3.296 NA 
HETATM   18  H1  UNL     1     -12.256   2.968  66.408  1.00  0.00     0.000 HD 
ENDBRANCH  14  15
BRANCH  14  19
HETATM   19  N   UNL     1      -8.541   4.155  64.012  1.00  0.00    -0.106 NA 
HETATM   20  C   UNL     1      -7.325   4.525  63.450  1.00  0.00    -0.053 A  
HETATM   21  C   UNL     1      -7.096   3.667  62.401  1.00  0.00    -0.036 A  
HETATM   22  N   UNL     1      -8.065   2.715  62.340  1.00  0.00    -0.070 NA 
HETATM   23  C   UNL     1      -8.890   3.007  63.322  1.00  0.00    -0.092 A  
ENDBRANCH  14  19
ENDBRANCH   6   9
TORSDOF 3
ENDMDL
MODEL      157
REMARK 921   NORMALIZED FREE ENERGY PREDICTED BY IDOCK:    0.99 KCAL/MOL
REMARK 922        TOTAL FREE ENERGY PREDICTED BY IDOCK:    0.99 KCAL/MOL
REMARK 923 INTER-LIGAND FREE ENERGY PREDICTED BY IDOCK:   -0.19 KCAL/MOL
REMARK 924 INTRA-LIGAND FREE ENERGY PREDICTED BY IDOCK:    1.18 KCAL/MOL
REMARK 927      BINDING AFFINITY PREDICTED BY RF-SCORE:    0.00 PKD
ROOT
HETATM    1 CL   UNL     1      -9.975   4.012  71.657  1.00  0.00    -0.252 Cl 
HETATM    2  C   UNL     1     -10.348   5.331  70.621  1.00  0.00    -0.254 A  
HETATM    3  C   UNL     1     -10.559   5.114  69.265  1.00  0.00    -0.089 A  
HETATM    4  C   UNL     1     -10.856   6.192  68.422  1.00  0.00    -0.305 A  
HETATM    5 CL   UNL     1     -11.055   5.830  66.740  1.00  0.00    -0.230 Cl 
HETATM    6  C   UNL     1     -10.966   7.505  68.924  1.00  0.00     0.029 A  
HETATM    7  C   UNL     1     -10.736   7.688  70.303  1.00  0.00    -0.244 A  
HETATM    8  C   UNL     1     -10.430   6.615  71.143  1.00  0.00    -0.247 A  
ENDROOT
BRANCH   6   9
HETATM    9  C   UNL     1     -11.270   8.676  67.990  1.00  0.00     0.599 C  
HETATM   10  C   UNL     1     -11.161   8.321  66.507  1.00  0.00     1.399 C  
HETATM   11  S   UNL     1      -9.424   8.450  66.000  1.00  0.00    -0.097 SA 
HETATM   12  C   UNL     1      -8.980   9.763  67.075  1.00  0.00    -0.138 C  
HETATM   13  S   UNL     1     -10.229  10.161  68.251  1.00  0.00    -0.175 SA 
HETATM   14  C   UNL     1      -7.826  10.471  66.977  1.00  0.00    -0.114 C  
BRANCH  14  15
HETATM   15  C   UNL     1      -7.641  11.692  67.863  1.00  0.00    -0.115 C  
HETATM   16  H2  UNL     1      -6.611  13.183  68.392  1.00  0.00     0.000 HD 
HETATM   17  N   UNL     1      -7.488  12.705  68.598  1.00  0.00    -0.173 NA 
HETATM   18  H1  UNL     1      -7.364  13.525  69.193  1.00  0.00     0.000 HD 
ENDBRANCH  14  15
BRANCH  14  19
HETATM   19  N   UNL     1      -6.768  10.233  66.069  1.00  0.00    -0.106 NA 
HETATM   20  C   UNL     1      -6.267  11.127  65.130  1.00  0.00     0.557 A  
HETATM   21  C   UNL     1      -5.315  10.450  64.407  1.00  0.00    -0.143 A  
HETATM   22  N   UNL     1      -5.126   9.202  64.912  1.00  0.00    -0.040 NA 
HETATM   23  C   UNL     1      -5.975   9.109  65.913  1.00  0.00    -0.051 A  
ENDBRANCH  14  19
ENDBRANCH   6   9
TORSDOF 3
ENDMDL
MODEL      158
REMARK 921   NORMALIZED FREE ENERGY PREDICTED BY IDOCK:    1.77 KCAL/MOL
REMARK 922        TOTAL FREE ENERGY PREDICTED BY IDOCK:    1.91 KCAL/MOL
REMARK 923 INTER-LIGAND FREE ENERGY PREDICTED BY IDOCK:    1.62 KCAL/MOL
REMARK 924 INTRA-LIGAND FREE ENERGY PREDICTED BY IDOCK:    0.29 KCAL/MOL
REMARK 927      BINDING AFFINITY PREDICTED BY RF-SCORE:    0.00 PKD
ROOT
HETATM    1 CL   UNL     1     -12.659  16.363  71.228  1.00  0.00     0.391 Cl 
HETATM    2  C   UNL     1     -11.379  16.073  70.118  1.00  0.00    -0.365 A  
HETATM    3  C   UNL     1     -10.110  15.756  70.586  1.00  0.00     0.525 A  
HETATM    4  C   UNL     1      -9.067  15.528  69.679  1.00  0.00    -0.187 A  
HETATM    5 CL   UNL     1      -7.511  15.186  70.357  1.00  0.00     0.366 Cl 
HETATM    6  C   UNL     1      -9.280  15.595  68.287  1.00  0.00    -0.188 A  
HETATM    7  C   UNL     1     -10.579  15.929  67.850  1.00  0.00    -0.300 A  
HETATM    8  C   UNL     1     -11.617  16.166  68.753  1.00  0.00    -0.297 A  
ENDROOT
BRANCH   6   9
HETATM    9  C   UNL     1      -8.129  15.365  67.308  1.00  0.00    -0.200 C  
HETATM   10  C   UNL     1      -8.574  15.296  65.847  1.00  0.00     0.605 C  
HETATM   11  S   UNL     1      -9.135  13.609  65.485  1.00  0.00     1.096 SA 
HETATM   12  C   UNL     1      -8.033  12.776  66.567  1.00  0.00     0.502 C  
HETATM   13  S   UNL     1      -7.135  13.859  67.625  1.00  0.00    -0.163 SA 
HETATM   14  C   UNL     1      -7.818  11.436  66.552  1.00  0.00    -0.105 C  
BRANCH  14  15
HETATM   15  C   UNL     1      -6.713  10.864  67.425  1.00  0.00    -0.078 C  
HETATM   16  H2  UNL     1      -5.702   9.383  68.015  1.00  0.00     0.000 HD 
HETATM   17  N   UNL     1      -5.796  10.389  68.149  1.00  0.00    -0.044 NA 
HETATM   18  H1  UNL     1      -5.055  10.006  68.735  1.00  0.00     0.000 HD 
ENDBRANCH  14  15
BRANCH  14  19
HETATM   19  N   UNL     1      -8.483  10.487  65.740  1.00  0.00    -0.169 NA 
HETATM   20  C   UNL     1      -9.090   9.313  66.168  1.00  0.00    -0.179 A  
HETATM   21  C   UNL     1      -9.526   8.658  65.042  1.00  0.00     0.525 A  
HETATM   22  N   UNL     1      -9.307   9.414  63.933  1.00  0.00     0.059 NA 
HETATM   23  C   UNL     1      -8.718  10.503  64.375  1.00  0.00    -0.177 A  
ENDBRANCH  14  19
ENDBRANCH   6   9
TORSDOF 3
ENDMDL
MODEL      159
REMARK 921   NORMALIZED FREE ENERGY PREDICTED BY IDOCK:    2.60 KCAL/MOL
REMARK 922        TOTAL FREE ENERGY PREDICTED BY IDOCK:    2.89 KCAL/MOL
REMARK 923 INTER-LIGAND FREE ENERGY PREDICTED BY IDOCK:    1.51 KCAL/MOL
REMARK 924 INTRA-LIGAND FREE ENERGY PREDICTED BY IDOCK:    1.38 KCAL/MOL
REMARK 927      BINDING AFFINITY PREDICTED BY RF-SCORE:    0.00 PKD
ROOT
HETATM    1 CL   UNL     1     -12.047  17.130  74.353  1.00  0.00    -0.209 Cl 
HETATM    2  C   UNL     1     -11.915  16.167  72.935  1.00  0.00    -0.520 A  
HETATM    3  C   UNL     1     -13.049  15.587  72.379  1.00  0.00    -0.527 A  
HETATM    4  C   UNL     1     -12.937  14.797  71.229  1.00  0.00    -0.346 A  
HETATM    5 CL   UNL     1     -14.397  14.079  70.636  1.00  0.00     1.028 Cl 
HETATM    6  C   UNL     1     -11.692  14.587  70.603  1.00  0.00    -0.330 A  
HETATM    7  C   UNL     1     -10.561  15.182  71.202  1.00  0.00     0.228 A  
HETATM    8  C   UNL     1     -10.671  15.963  72.355  1.00  0.00     1.633 A  
ENDROOT
BRANCH   6   9
HETATM    9  C   UNL     1     -11.579  13.704  69.360  1.00  0.00    -0.312 C  
HETATM   10  C   UNL     1     -12.860  12.934  69.039  1.00  0.00     1.329 C  
HETATM   11  S   UNL     1     -12.897  11.417  70.034  1.00  0.00     0.316 SA 
HETATM   12  C   UNL     1     -11.165  11.137  70.067  1.00  0.00    -0.181 C  
HETATM   13  S   UNL     1     -10.225  12.472  69.408  1.00  0.00     0.793 SA 
HETATM   14  C   UNL     1     -10.588   9.981  70.481  1.00  0.00    -0.246 C  
BRANCH  14  15
HETATM   15  C   UNL     1      -9.089   9.807  70.299  1.00  0.00    -0.157 C  
HETATM   16  H2  UNL     1      -7.606   8.690  69.951  1.00  0.00     0.000 HD 
HETATM   17  N   UNL     1      -7.846   9.662  70.149  1.00  0.00    -0.160 NA 
HETATM   18  H1  UNL     1      -6.840   9.545  70.027  1.00  0.00     0.000 HD 
ENDBRANCH  14  15
BRANCH  14  19
HETATM   19  N   UNL     1     -11.254   8.855  71.020  1.00  0.00    -0.264 NA 
HETATM   20  C   UNL     1     -12.240   8.101  70.396  1.00  0.00     0.376 A  
HETATM   21  C   UNL     1     -12.667   7.170  71.312  1.00  0.00    -0.366 A  
HETATM   22  N   UNL     1     -11.925   7.241  72.450  1.00  0.00    -0.214 NA 
HETATM   23  C   UNL     1     -11.076   8.225  72.240  1.00  0.00    -0.359 A  
ENDBRANCH  14  19
ENDBRANCH   6   9
TORSDOF 3
ENDMDL
MODEL      160
REMARK 921   NORMALIZED FREE ENERGY PREDICTED BY IDOCK:    4.51 KCAL/MOL
REMARK 922        TOTAL FREE ENERGY PREDICTED BY IDOCK:    5.13 KCAL/MOL
REMARK 923 INTER-LIGAND FREE ENERGY PREDICTED BY IDOCK:    2.89 KCAL/MOL
REMARK 924 INTRA-LIGAND FREE ENERGY PREDICTED BY IDOCK:    2.24 KCAL/MOL
REMARK 927      BINDING AFFINITY PREDICTED BY RF-SCORE:    0.00 PKD
ROOT
HETATM    1 CL   UNL     1      -6.077  11.264  64.455  1.00  0.00     0.950 Cl 
HETATM    2  C   UNL     1      -6.730  12.037  65.844  1.00  0.00     1.644 A  
HETATM    3  C   UNL     1      -7.977  12.647  65.779  1.00  0.00     1.978 A  
HETATM    4  C   UNL     1      -8.504  13.283  66.910  1.00  0.00    -0.060 A  
HETATM    5 CL   UNL     1     -10.041  14.057  66.719  1.00  0.00    -0.259 Cl 
HETATM    6  C   UNL     1      -7.801  13.304  68.132  1.00  0.00    -0.145 A  
HETATM    7  C   UNL     1      -6.535  12.683  68.157  1.00  0.00    -0.080 A  
HETATM    8  C   UNL     1      -6.005  12.056  67.027  1.00  0.00    -0.135 A  
ENDROOT
BRANCH   6   9
HETATM    9  C   UNL     1      -8.377  14.020  69.354  1.00  0.00     0.517 C  
HETATM   10  C   UNL     1      -9.727  14.688  69.091  1.00  0.00    -0.103 C  
HETATM   11  S   UNL     1      -9.439  16.319  68.351  1.00  0.00    -0.223 SA 
HETATM   12  C   UNL     1      -7.934  16.672  69.181  1.00  0.00    -0.154 C  
HETATM   13  S   UNL     1      -7.290  15.302  70.080  1.00  0.00     0.364 SA 
HETATM   14  C   UNL     1      -7.347  17.896  69.208  1.00  0.00    -0.024 C  
BRANCH  14  15
HETATM   15  C   UNL     1      -6.138  18.106  70.103  1.00  0.00    -0.041 C  
HETATM   16  H2  UNL     1      -5.117  19.225  71.232  1.00  0.00     0.000 HD 
HETATM   17  N   UNL     1      -5.134  18.281  70.846  1.00  0.00    -0.273 NA 
HETATM   18  H1  UNL     1      -4.322  18.422  71.447  1.00  0.00     0.000 HD 
ENDBRANCH  14  15
BRANCH  14  19
HETATM   19  N   UNL     1      -7.788  19.054  68.525  1.00  0.00    -0.327 NA 
HETATM   20  C   UNL     1      -7.058  20.218  68.316  1.00  0.00    -0.231 A  
HETATM   21  C   UNL     1      -7.901  21.108  67.694  1.00  0.00     0.169 A  
HETATM   22  N   UNL     1      -9.096  20.522  67.415  1.00  0.00    -0.364 NA 
HETATM   23  C   UNL     1      -8.993  19.298  67.889  1.00  0.00    -0.311 A  
ENDBRANCH  14  19
ENDBRANCH   6   9
TORSDOF 3
ENDMDL
MODEL      161
REMARK 921   NORMALIZED FREE ENERGY PREDICTED BY IDOCK:   10.91 KCAL/MOL
REMARK 922        TOTAL FREE ENERGY PREDICTED BY IDOCK:   12.65 KCAL/MOL
REMARK 923 INTER-LIGAND FREE ENERGY PREDICTED BY IDOCK:   12.86 KCAL/MOL
REMARK 924 INTRA-LIGAND FREE ENERGY PREDICTED BY IDOCK:   -0.21 KCAL/MOL
REMARK 927      BINDING AFFINITY PREDICTED BY RF-SCORE:    0.00 PKD
ROOT
HETATM    1 CL   UNL     1     -10.412  15.260  71.687  1.00  0.00     0.482 Cl 
HETATM    2  C   UNL     1      -9.393  14.460  70.558  1.00  0.00     2.281 A  
HETATM    3  C   UNL     1      -9.066  15.077  69.356  1.00  0.00    -0.118 A  
HETATM    4  C   UNL     1      -8.242  14.420  68.435  1.00  0.00    -0.145 A  
HETATM    5 CL   UNL     1      -7.929  15.248  66.946  1.00  0.00    -0.241 Cl 
HETATM    6  C   UNL     1      -7.715  13.142  68.706  1.00  0.00    -0.006 A  
HETATM    7  C   UNL     1      -8.076  12.543  69.931  1.00  0.00     2.310 A  
HETATM    8  C   UNL     1      -8.906  13.193  70.847  1.00  0.00     8.934 A  
ENDROOT
BRANCH   6   9
HETATM    9  C   UNL     1      -6.833  12.426  67.683  1.00  0.00    -0.132 C  
HETATM   10  C   UNL     1      -7.517  12.207  66.333  1.00  0.00     0.488 C  
HETATM   11  S   UNL     1      -8.525  10.701  66.424  1.00  0.00    -0.157 SA 
HETATM   12  C   UNL     1      -7.496   9.817  67.537  1.00  0.00    -0.091 C  
HETATM   13  S   UNL     1      -6.199  10.793  68.219  1.00  0.00    -0.053 SA 
HETATM   14  C   UNL     1      -7.620   8.492  67.801  1.00  0.00    -0.098 C  
BRANCH  14  15
HETATM   15  C   UNL     1      -6.560   7.815  68.653  1.00  0.00    -0.057 C  
HETATM   16  H2  UNL     1      -5.468   7.802  70.194  1.00  0.00     0.000 HD 
HETATM   17  N   UNL     1      -5.680   7.254  69.361  1.00  0.00    -0.022 NA 
HETATM   18  H1  UNL     1      -4.967   6.799  69.932  1.00  0.00     0.000 HD 
ENDBRANCH  14  15
BRANCH  14  19
HETATM   19  N   UNL     1      -8.621   7.626  67.302  1.00  0.00    -0.120 NA 
HETATM   20  C   UNL     1      -9.725   7.149  67.999  1.00  0.00    -0.138 A  
HETATM   21  C   UNL     1     -10.374   6.274  67.163  1.00  0.00    -0.229 A  
HETATM   22  N   UNL     1      -9.785   6.254  65.938  1.00  0.00     0.120 NA 
HETATM   23  C   UNL     1      -8.769   7.085  66.036  1.00  0.00    -0.144 A  
ENDBRANCH  14  19
ENDBRANCH   6   9
TORSDOF 3
ENDMDL
MODEL      162
REMARK 921   NORMALIZED FREE ENERGY PREDICTED BY IDOCK:   11.89 KCAL/MOL
REMARK 922        TOTAL FREE ENERGY PREDICTED BY IDOCK:   13.80 KCAL/MOL
REMARK 923 INTER-LIGAND FREE ENERGY PREDICTED BY IDOCK:   10.52 KCAL/MOL
REMARK 924 INTRA-LIGAND FREE ENERGY PREDICTED BY IDOCK:    3.28 KCAL/MOL
REMARK 927      BINDING AFFINITY PREDICTED BY RF-SCORE:    0.00 PKD
ROOT
HETATM    1 CL   UNL     1     -10.170  11.316  63.019  1.00  0.00    -0.328 Cl 
HETATM    2  C   UNL     1      -9.720  11.269  64.677  1.00  0.00    -0.253 A  
HETATM    3  C   UNL     1     -10.693  11.365  65.665  1.00  0.00    -0.301 A  
HETATM    4  C   UNL     1     -10.322  11.334  67.015  1.00  0.00    -0.227 A  
HETATM    5 CL   UNL     1     -11.598  11.507  68.173  1.00  0.00    -0.377 Cl 
HETATM    6  C   UNL     1      -8.975  11.188  67.402  1.00  0.00    -0.139 A  
HETATM    7  C   UNL     1      -8.015  11.104  66.371  1.00  0.00    -0.147 A  
HETATM    8  C   UNL     1      -8.382  11.144  65.024  1.00  0.00     0.237 A  
ENDROOT
BRANCH   6   9
HETATM    9  C   UNL     1      -8.581  11.177  68.879  1.00  0.00    -0.087 C  
HETATM   10  C   UNL     1      -9.642  10.558  69.790  1.00  0.00     0.069 C  
HETATM   11  S   UNL     1     -10.877  11.825  70.194  1.00  0.00     1.112 SA 
HETATM   12  C   UNL     1      -9.788  13.201  70.186  1.00  0.00     3.092 C  
HETATM   13  S   UNL     1      -8.178  12.819  69.582  1.00  0.00     2.021 SA 
HETATM   14  C   UNL     1     -10.108  14.429  70.666  1.00  0.00     1.626 C  
BRANCH  14  15
HETATM   15  C   UNL     1      -9.019  15.485  70.755  1.00  0.00     2.094 C  
HETATM   16  H2  UNL     1      -8.421  17.164  71.379  1.00  0.00     0.000 HD 
HETATM   17  N   UNL     1      -8.115  16.361  70.828  1.00  0.00     3.373 NA 
HETATM   18  H1  UNL     1      -7.384  17.071  70.887  1.00  0.00     0.000 HD 
ENDBRANCH  14  15
BRANCH  14  19
HETATM   19  N   UNL     1     -11.366  14.831  71.173  1.00  0.00    -0.205 NA 
HETATM   20  C   UNL     1     -12.046  14.264  72.244  1.00  0.00     0.073 A  
HETATM   21  C   UNL     1     -13.259  14.904  72.327  1.00  0.00    -0.374 A  
HETATM   22  N   UNL     1     -13.332  15.913  71.419  1.00  0.00    -0.402 NA 
HETATM   23  C   UNL     1     -12.189  15.870  70.770  1.00  0.00    -0.333 A  
ENDBRANCH  14  19
ENDBRANCH   6   9
TORSDOF 3
ENDMDL
MODEL      163
REMARK 921   NORMALIZED FREE ENERGY PREDICTED BY IDOCK:   12.55 KCAL/MOL
REMARK 922        TOTAL FREE ENERGY PREDICTED BY IDOCK:   14.58 KCAL/MOL
REMARK 923 INTER-LIGAND FREE ENERGY PREDICTED BY IDOCK:   14.75 KCAL/MOL
REMARK 924 INTRA-LIGAND FREE ENERGY PREDICTED BY IDOCK:   -0.17 KCAL/MOL
REMARK 927      BINDING AFFINITY PREDICTED BY RF-SCORE:    0.00 PKD
ROOT
HETATM    1 CL   UNL     1     -10.287  13.873  62.528  1.00  0.00     7.701 Cl 
HETATM    2  C   UNL     1     -10.697  13.868  64.197  1.00  0.00     0.070 A  
HETATM    3  C   UNL     1     -12.031  13.839  64.587  1.00  0.00    -0.445 A  
HETATM    4  C   UNL     1     -12.361  13.842  65.947  1.00  0.00    -0.483 A  
HETATM    5 CL   UNL     1     -14.049  13.853  66.335  1.00  0.00     5.239 Cl 
HETATM    6  C   UNL     1     -11.364  13.857  66.943  1.00  0.00    -0.343 A  
HETATM    7  C   UNL     1     -10.022  13.896  66.510  1.00  0.00    -0.288 A  
HETATM    8  C   UNL     1      -9.691  13.902  65.153  1.00  0.00     0.016 A  
ENDROOT
BRANCH   6   9
HETATM    9  C   UNL     1     -11.738  13.882  68.425  1.00  0.00    -0.356 C  
HETATM   10  C   UNL     1     -10.614  14.383  69.331  1.00  0.00    -0.121 C  
HETATM   11  S   UNL     1      -9.499  12.999  69.701  1.00  0.00     2.163 SA 
HETATM   12  C   UNL     1     -10.713  11.732  69.687  1.00  0.00     0.215 C  
HETATM   13  S   UNL     1     -12.286  12.274  69.110  1.00  0.00     0.346 SA 
HETATM   14  C   UNL     1     -10.505  10.472  70.146  1.00  0.00    -0.026 C  
BRANCH  14  15
HETATM   15  C   UNL     1     -11.688   9.522  70.233  1.00  0.00    -0.117 C  
HETATM   16  H2  UNL     1     -12.464   7.941  70.914  1.00  0.00     0.000 HD 
HETATM   17  N   UNL     1     -12.669   8.734  70.305  1.00  0.00     0.160 NA 
HETATM   18  H1  UNL     1     -13.463   8.096  70.363  1.00  0.00     0.000 HD 
ENDBRANCH  14  15
BRANCH  14  19
HETATM   19  N   UNL     1      -9.285   9.945  70.630  1.00  0.00     0.014 NA 
HETATM   20  C   UNL     1      -9.048   9.442  71.903  1.00  0.00     0.840 A  
HETATM   21  C   UNL     1      -7.712   9.127  71.964  1.00  0.00     0.457 A  
HETATM   22  N   UNL     1      -7.119   9.318  70.755  1.00  0.00    -0.108 NA 
HETATM   23  C   UNL     1      -8.077   9.772  69.975  1.00  0.00    -0.189 A  
ENDBRANCH  14  19
ENDBRANCH   6   9
TORSDOF 3
ENDMDL
MODEL      164
REMARK 921   NORMALIZED FREE ENERGY PREDICTED BY IDOCK:   16.04 KCAL/MOL
REMARK 922        TOTAL FREE ENERGY PREDICTED BY IDOCK:   18.68 KCAL/MOL
REMARK 923 INTER-LIGAND FREE ENERGY PREDICTED BY IDOCK:   18.62 KCAL/MOL
REMARK 924 INTRA-LIGAND FREE ENERGY PREDICTED BY IDOCK:    0.06 KCAL/MOL
REMARK 927      BINDING AFFINITY PREDICTED BY RF-SCORE:    0.00 PKD
ROOT
HETATM    1 CL   UNL     1     -12.396  19.021  74.481  1.00  0.00     4.617 Cl 
HETATM    2  C   UNL     1     -12.374  18.016  73.087  1.00  0.00     4.154 A  
HETATM    3  C   UNL     1     -13.202  16.902  73.019  1.00  0.00     1.558 A  
HETATM    4  C   UNL     1     -13.177  16.081  71.885  1.00  0.00    -0.078 A  
HETATM    5 CL   UNL     1     -14.209  14.690  71.911  1.00  0.00    -0.573 Cl 
HETATM    6  C   UNL     1     -12.336  16.368  70.791  1.00  0.00     0.708 A  
HETATM    7  C   UNL     1     -11.502  17.501  70.901  1.00  0.00     2.434 A  
HETATM    8  C   UNL     1     -11.520  18.316  72.035  1.00  0.00     4.053 A  
ENDROOT
BRANCH   6   9
HETATM    9  C   UNL     1     -12.301  15.452  69.568  1.00  0.00    -0.174 C  
HETATM   10  C   UNL     1     -12.321  13.964  69.918  1.00  0.00    -0.300 C  
HETATM   11  S   UNL     1     -10.629  13.426  70.289  1.00  0.00     2.047 SA 
HETATM   12  C   UNL     1      -9.808  14.507  69.176  1.00  0.00    -0.080 C  
HETATM   13  S   UNL     1     -10.872  15.708  68.452  1.00  0.00    -0.305 SA 
HETATM   14  C   UNL     1      -8.501  14.395  68.830  1.00  0.00    -0.120 C  
BRANCH  14  15
HETATM   15  C   UNL     1      -7.958  15.289  67.728  1.00  0.00    -0.146 C  
HETATM   16  H2  UNL     1      -6.791  15.553  66.267  1.00  0.00     0.000 HD 
HETATM   17  N   UNL     1      -7.508  16.031  66.813  1.00  0.00    -0.216 NA 
HETATM   18  H1  UNL     1      -7.143  16.631  66.073  1.00  0.00     0.000 HD 
ENDBRANCH  14  15
BRANCH  14  19
HETATM   19  N   UNL     1      -7.571  13.465  69.350  1.00  0.00     0.331 NA 
HETATM   20  C   UNL     1      -6.897  13.558  70.562  1.00  0.00     0.889 A  
HETATM   21  C   UNL     1      -6.033  12.491  70.619  1.00  0.00     0.028 A  
HETATM   22  N   UNL     1      -6.203  11.678  69.542  1.00  0.00    -0.100 NA 
HETATM   23  C   UNL     1      -7.139  12.259  68.823  1.00  0.00    -0.107 A  
ENDBRANCH  14  19
ENDBRANCH   6   9
TORSDOF 3
ENDMDL
MODEL      165
REMARK 921   NORMALIZED FREE ENERGY PREDICTED BY IDOCK:   18.66 KCAL/MOL
REMARK 922        TOTAL FREE ENERGY PREDICTED BY IDOCK:   21.76 KCAL/MOL
REMARK 923 INTER-LIGAND FREE ENERGY PREDICTED BY IDOCK:   17.96 KCAL/MOL
REMARK 924 INTRA-LIGAND FREE ENERGY PREDICTED BY IDOCK:    3.81 KCAL/MOL
REMARK 927      BINDING AFFINITY PREDICTED BY RF-SCORE:    0.00 PKD
ROOT
HETATM    1 CL   UNL     1      -6.266  10.828  66.487  1.00  0.00    -0.095 Cl 
HETATM    2  C   UNL     1      -6.652  10.519  68.132  1.00  0.00    -0.063 A  
HETATM    3  C   UNL     1      -7.814   9.828  68.457  1.00  0.00    -0.081 A  
HETATM    4  C   UNL     1      -8.130   9.584  69.799  1.00  0.00    -0.140 A  
HETATM    5 CL   UNL     1      -9.621   8.759  70.107  1.00  0.00    -0.175 Cl 
HETATM    6  C   UNL     1      -7.281  10.009  70.840  1.00  0.00     0.324 A  
HETATM    7  C   UNL     1      -6.115  10.715  70.473  1.00  0.00    -0.113 A  
HETATM    8  C   UNL     1      -5.804  10.967  69.135  1.00  0.00    -0.041 A  
ENDROOT
BRANCH   6   9
HETATM    9  C   UNL     1      -7.647   9.754  72.302  1.00  0.00     2.246 C  
HETATM   10  C   UNL     1      -7.476   8.297  72.731  1.00  0.00    -0.108 C  
HETATM   11  S   UNL     1      -8.964   7.370  72.263  1.00  0.00    -0.131 SA 
HETATM   12  C   UNL     1     -10.112   8.680  72.477  1.00  0.00    -0.172 C  
HETATM   13  S   UNL     1      -9.350  10.240  72.767  1.00  0.00    10.239 SA 
HETATM   14  C   UNL     1     -11.459   8.516  72.501  1.00  0.00    -0.298 C  
BRANCH  14  15
HETATM   15  C   UNL     1     -12.333   9.705  72.864  1.00  0.00     1.336 C  
HETATM   16  H2  UNL     1     -13.000  10.904  74.162  1.00  0.00     0.000 HD 
HETATM   17  N   UNL     1     -13.057  10.692  73.166  1.00  0.00     1.637 NA 
HETATM   18  H1  UNL     1     -13.644  11.490  73.409  1.00  0.00     0.000 HD 
ENDBRANCH  14  15
BRANCH  14  19
HETATM   19  N   UNL     1     -12.163   7.308  72.285  1.00  0.00    -0.209 NA 
HETATM   20  C   UNL     1     -11.626   6.108  71.833  1.00  0.00    -0.296 A  
HETATM   21  C   UNL     1     -12.677   5.236  71.682  1.00  0.00     2.653 A  
HETATM   22  N   UNL     1     -13.837   5.802  72.111  1.00  0.00     0.823 NA 
HETATM   23  C   UNL     1     -13.500   7.017  72.491  1.00  0.00     0.619 A  
ENDBRANCH  14  19
ENDBRANCH   6   9
TORSDOF 3
ENDMDL
MODEL      166
REMARK 921   NORMALIZED FREE ENERGY PREDICTED BY IDOCK:   26.98 KCAL/MOL
REMARK 922        TOTAL FREE ENERGY PREDICTED BY IDOCK:   31.54 KCAL/MOL
REMARK 923 INTER-LIGAND FREE ENERGY PREDICTED BY IDOCK:   31.42 KCAL/MOL
REMARK 924 INTRA-LIGAND FREE ENERGY PREDICTED BY IDOCK:    0.13 KCAL/MOL
REMARK 927      BINDING AFFINITY PREDICTED BY RF-SCORE:    0.00 PKD
ROOT
HETATM    1 CL   UNL     1     -11.131   7.549  68.870  1.00  0.00     0.051 Cl 
HETATM    2  C   UNL     1     -10.945   9.253  68.749  1.00  0.00    -0.007 A  
HETATM    3  C   UNL     1     -11.230   9.902  67.554  1.00  0.00     0.010 A  
HETATM    4  C   UNL     1     -11.071  11.290  67.457  1.00  0.00    -0.286 A  
HETATM    5 CL   UNL     1     -11.405  12.003  65.914  1.00  0.00    -0.388 Cl 
HETATM    6  C   UNL     1     -10.641  12.056  68.558  1.00  0.00    -0.252 A  
HETATM    7  C   UNL     1     -10.352  11.362  69.752  1.00  0.00     0.438 A  
HETATM    8  C   UNL     1     -10.502   9.977  69.847  1.00  0.00    -0.317 A  
ENDROOT
BRANCH   6   9
HETATM    9  C   UNL     1     -10.451  13.568  68.434  1.00  0.00    -0.246 C  
HETATM   10  C   UNL     1      -9.017  13.978  68.096  1.00  0.00    -0.183 C  
HETATM   11  S   UNL     1      -8.051  14.047  69.630  1.00  0.00     0.924 SA 
HETATM   12  C   UNL     1      -9.355  14.563  70.685  1.00  0.00     2.313 C  
HETATM   13  S   UNL     1     -10.936  14.532  69.913  1.00  0.00    -0.038 SA 
HETATM   14  C   UNL     1      -9.175  15.022  71.950  1.00  0.00     4.969 C  
BRANCH  14  15
HETATM   15  C   UNL     1     -10.369  15.596  72.694  1.00  0.00     3.357 C  
HETATM   16  H2  UNL     1     -12.236  15.680  72.966  1.00  0.00     0.000 HD 
HETATM   17  N   UNL     1     -11.360  16.072  73.312  1.00  0.00     0.394 NA 
HETATM   18  H1  UNL     1     -12.161  16.458  73.811  1.00  0.00     0.000 HD 
ENDBRANCH  14  15
BRANCH  14  19
HETATM   19  N   UNL     1      -7.949  15.090  72.653  1.00  0.00     5.973 NA 
HETATM   20  C   UNL     1      -7.763  14.875  74.013  1.00  0.00     8.120 A  
HETATM   21  C   UNL     1      -6.440  15.132  74.278  1.00  0.00     3.279 A  
HETATM   22  N   UNL     1      -5.764  15.403  73.129  1.00  0.00     0.804 NA 
HETATM   23  C   UNL     1      -6.673  15.341  72.179  1.00  0.00     2.502 A  
ENDBRANCH  14  19
ENDBRANCH   6   9
TORSDOF 3
ENDMDL
MODEL      167
REMARK 921   NORMALIZED FREE ENERGY PREDICTED BY IDOCK:   28.37 KCAL/MOL
REMARK 922        TOTAL FREE ENERGY PREDICTED BY IDOCK:   33.17 KCAL/MOL
REMARK 923 INTER-LIGAND FREE ENERGY PREDICTED BY IDOCK:   29.46 KCAL/MOL
REMARK 924 INTRA-LIGAND FREE ENERGY PREDICTED BY IDOCK:    3.70 KCAL/MOL
REMARK 927      BINDING AFFINITY PREDICTED BY RF-SCORE:    0.00 PKD
ROOT
HETATM    1 CL   UNL     1     -11.335   3.446  72.823  1.00  0.00     0.185 Cl 
HETATM    2  C   UNL     1     -11.359   5.165  72.862  1.00  0.00    -0.282 A  
HETATM    3  C   UNL     1     -10.845   5.892  71.795  1.00  0.00    -0.316 A  
HETATM    4  C   UNL     1     -10.859   7.291  71.832  1.00  0.00    -0.226 A  
HETATM    5 CL   UNL     1     -10.155   8.111  70.479  1.00  0.00    -0.193 Cl 
HETATM    6  C   UNL     1     -11.404   7.989  72.929  1.00  0.00    -0.364 A  
HETATM    7  C   UNL     1     -11.907   7.217  73.998  1.00  0.00     3.632 A  
HETATM    8  C   UNL     1     -11.885   5.821  73.965  1.00  0.00     2.676 A  
ENDROOT
BRANCH   6   9
HETATM    9  C   UNL     1     -11.394   9.517  72.967  1.00  0.00     3.147 C  
HETATM   10  C   UNL     1     -12.196  10.163  71.837  1.00  0.00    -0.125 C  
HETATM   11  S   UNL     1     -11.150  10.257  70.357  1.00  0.00    -0.296 SA 
HETATM   12  C   UNL     1      -9.620  10.488  71.186  1.00  0.00     3.163 C  
HETATM   13  S   UNL     1      -9.729  10.280  72.931  1.00  0.00    10.622 SA 
HETATM   14  C   UNL     1      -8.471  10.870  70.573  1.00  0.00     2.619 C  
BRANCH  14  15
HETATM   15  C   UNL     1      -7.261  11.199  71.430  1.00  0.00     4.343 C  
HETATM   16  H2  UNL     1      -5.492  11.845  71.577  1.00  0.00     0.000 HD 
HETATM   17  N   UNL     1      -6.256  11.472  72.141  1.00  0.00     1.516 NA 
HETATM   18  H1  UNL     1      -5.443  11.693  72.717  1.00  0.00     0.000 HD 
ENDBRANCH  14  15
BRANCH  14  19
HETATM   19  N   UNL     1      -8.285  11.066  69.184  1.00  0.00    -0.097 NA 
HETATM   20  C   UNL     1      -9.179  11.668  68.307  1.00  0.00    -0.187 A  
HETATM   21  C   UNL     1      -8.633  11.563  67.050  1.00  0.00    -0.161 A  
HETATM   22  N   UNL     1      -7.393  11.009  67.111  1.00  0.00    -0.109 NA 
HETATM   23  C   UNL     1      -7.198  10.753  68.387  1.00  0.00    -0.085 A  
ENDBRANCH  14  19
ENDBRANCH   6   9
TORSDOF 3
ENDMDL
MODEL      168
REMARK 921   NORMALIZED FREE ENERGY PREDICTED BY IDOCK:   49.68 KCAL/MOL
REMARK 922        TOTAL FREE ENERGY PREDICTED BY IDOCK:   58.21 KCAL/MOL
REMARK 923 INTER-LIGAND FREE ENERGY PREDICTED BY IDOCK:   57.69 KCAL/MOL
REMARK 924 INTRA-LIGAND FREE ENERGY PREDICTED BY IDOCK:    0.52 KCAL/MOL
REMARK 927      BINDING AFFINITY PREDICTED BY RF-SCORE:    0.00 PKD
ROOT
HETATM    1 CL   UNL     1     -11.610   9.463  71.396  1.00  0.00    -0.422 Cl 
HETATM    2  C   UNL     1     -11.500  11.020  70.678  1.00  0.00    -0.034 A  
HETATM    3  C   UNL     1     -11.417  12.152  71.480  1.00  0.00     2.823 A  
HETATM    4  C   UNL     1     -11.334  13.420  70.891  1.00  0.00     1.238 A  
HETATM    5 CL   UNL     1     -11.283  14.774  71.970  1.00  0.00     0.043 Cl 
HETATM    6  C   UNL     1     -11.315  13.578  69.491  1.00  0.00    -0.265 A  
HETATM    7  C   UNL     1     -11.411  12.407  68.710  1.00  0.00    -0.350 A  
HETATM    8  C   UNL     1     -11.502  11.142  69.296  1.00  0.00    -0.363 A  
ENDROOT
BRANCH   6   9
HETATM    9  C   UNL     1     -11.247  14.969  68.861  1.00  0.00    -0.277 C  
HETATM   10  C   UNL     1     -12.198  15.152  67.678  1.00  0.00     0.353 C  
HETATM   11  S   UNL     1     -11.403  14.504  66.181  1.00  0.00    -0.350 SA 
HETATM   12  C   UNL     1      -9.752  14.909  66.619  1.00  0.00    -0.261 C  
HETATM   13  S   UNL     1      -9.584  15.471  68.279  1.00  0.00    -0.203 SA 
HETATM   14  C   UNL     1      -8.706  14.876  65.756  1.00  0.00     0.924 C  
BRANCH  14  15
HETATM   15  C   UNL     1      -7.361  15.414  66.218  1.00  0.00     1.640 C  
HETATM   16  H2  UNL     1      -5.535  15.753  65.878  1.00  0.00     0.000 HD 
HETATM   17  N   UNL     1      -6.246  15.859  66.602  1.00  0.00    -0.010 NA 
HETATM   18  H1  UNL     1      -5.344  16.219  66.912  1.00  0.00     0.000 HD 
ENDBRANCH  14  15
BRANCH  14  19
HETATM   19  N   UNL     1      -8.740  14.446  64.409  1.00  0.00     5.024 NA 
HETATM   20  C   UNL     1      -9.875  14.261  63.628  1.00  0.00     4.611 A  
HETATM   21  C   UNL     1      -9.450  13.753  62.425  1.00  0.00    12.653 A  
HETATM   22  N   UNL     1      -8.092  13.701  62.378  1.00  0.00    12.255 NA 
HETATM   23  C   UNL     1      -7.695  14.145  63.551  1.00  0.00    18.661 A  
ENDBRANCH  14  19
ENDBRANCH   6   9
TORSDOF 3
ENDMDL
MODEL      169
REMARK 921   NORMALIZED FREE ENERGY PREDICTED BY IDOCK:   62.07 KCAL/MOL
REMARK 922        TOTAL FREE ENERGY PREDICTED BY IDOCK:   72.78 KCAL/MOL
REMARK 923 INTER-LIGAND FREE ENERGY PREDICTED BY IDOCK:   72.49 KCAL/MOL
REMARK 924 INTRA-LIGAND FREE ENERGY PREDICTED BY IDOCK:    0.30 KCAL/MOL
REMARK 927      BINDING AFFINITY PREDICTED BY RF-SCORE:    0.00 PKD
ROOT
HETATM    1 CL   UNL     1      -8.878  14.859  63.401  1.00  0.00    13.036 Cl 
HETATM    2  C   UNL     1      -9.385  15.286  64.986  1.00  0.00     1.015 A  
HETATM    3  C   UNL     1     -10.644  15.838  65.190  1.00  0.00    -0.436 A  
HETATM    4  C   UNL     1     -11.051  16.192  66.482  1.00  0.00     0.068 A  
HETATM    5 CL   UNL     1     -12.616  16.917  66.631  1.00  0.00     4.280 Cl 
HETATM    6  C   UNL     1     -10.213  15.983  67.597  1.00  0.00    -0.262 A  
HETATM    7  C   UNL     1      -8.939  15.429  67.350  1.00  0.00    -0.202 A  
HETATM    8  C   UNL     1      -8.529  15.085  66.060  1.00  0.00     0.691 A  
ENDROOT
BRANCH   6   9
HETATM    9  C   UNL     1     -10.661  16.393  69.000  1.00  0.00    -0.308 C  
HETATM   10  C   UNL     1      -9.539  16.345  70.037  1.00  0.00     0.655 C  
HETATM   11  S   UNL     1      -9.381  14.646  70.653  1.00  0.00     2.480 SA 
HETATM   12  C   UNL     1     -11.077  14.210  70.525  1.00  0.00     0.339 C  
HETATM   13  S   UNL     1     -12.049  15.413  69.684  1.00  0.00    -0.289 SA 
HETATM   14  C   UNL     1     -11.622  13.099  71.082  1.00  0.00     1.267 C  
BRANCH  14  15
HETATM   15  C   UNL     1     -13.132  12.929  71.042  1.00  0.00     0.003 C  
HETATM   16  H2  UNL     1     -14.697  12.091  71.686  1.00  0.00     0.000 HD 
HETATM   17  N   UNL     1     -14.384  12.786  71.008  1.00  0.00     2.609 NA 
HETATM   18  H1  UNL     1     -15.397  12.671  70.980  1.00  0.00     0.000 HD 
ENDBRANCH  14  15
BRANCH  14  19
HETATM   19  N   UNL     1     -10.929  12.081  71.778  1.00  0.00     5.476 NA 
HETATM   20  C   UNL     1     -11.481  11.156  72.656  1.00  0.00     6.575 A  
HETATM   21  C   UNL     1     -10.437  10.422  73.165  1.00  0.00    10.437 A  
HETATM   22  N   UNL     1      -9.265  10.779  72.574  1.00  0.00    10.587 NA 
HETATM   23  C   UNL     1      -9.588  11.740  71.736  1.00  0.00    14.466 A  
ENDBRANCH  14  19
ENDBRANCH   6   9
TORSDOF 3
ENDMDL
MODEL      170
REMARK 921   NORMALIZED FREE ENERGY PREDICTED BY IDOCK:   69.48 KCAL/MOL
REMARK 922        TOTAL FREE ENERGY PREDICTED BY IDOCK:   81.49 KCAL/MOL
REMARK 923 INTER-LIGAND FREE ENERGY PREDICTED BY IDOCK:   81.49 KCAL/MOL
REMARK 924 INTRA-LIGAND FREE ENERGY PREDICTED BY IDOCK:    0.00 KCAL/MOL
REMARK 927      BINDING AFFINITY PREDICTED BY RF-SCORE:    0.00 PKD
ROOT
HETATM    1 CL   UNL     1      -9.443   9.633  63.969  1.00  0.00    -0.141 Cl 
HETATM    2  C   UNL     1     -10.062   8.937  65.413  1.00  0.00     0.855 A  
HETATM    3  C   UNL     1     -11.358   8.437  65.444  1.00  0.00     7.376 A  
HETATM    4  C   UNL     1     -11.863   7.877  66.624  1.00  0.00     4.637 A  
HETATM    5 CL   UNL     1     -13.503   7.324  66.581  1.00  0.00    15.196 Cl 
HETATM    6  C   UNL     1     -11.074   7.790  67.789  1.00  0.00     0.187 A  
HETATM    7  C   UNL     1      -9.767   8.317  67.722  1.00  0.00    -0.194 A  
HETATM    8  C   UNL     1      -9.266   8.884  66.548  1.00  0.00    -0.231 A  
ENDROOT
BRANCH   6   9
HETATM    9  C   UNL     1     -11.643   7.196  69.077  1.00  0.00     0.456 C  
HETATM   10  C   UNL     1     -13.005   7.771  69.467  1.00  0.00     3.810 C  
HETATM   11  S   UNL     1     -12.748   9.323  70.371  1.00  0.00     0.620 SA 
HETATM   12  C   UNL     1     -11.237   8.877  71.144  1.00  0.00    -0.284 C  
HETATM   13  S   UNL     1     -10.563   7.364  70.547  1.00  0.00    -0.228 SA 
HETATM   14  C   UNL     1     -10.666   9.573  72.160  1.00  0.00     0.746 C  
BRANCH  14  15
HETATM   15  C   UNL     1      -9.447   8.986  72.852  1.00  0.00     1.042 C  
HETATM   16  H2  UNL     1      -7.992   7.782  72.852  1.00  0.00     0.000 HD 
HETATM   17  N   UNL     1      -8.436   8.498  73.426  1.00  0.00    -0.377 NA 
HETATM   18  H1  UNL     1      -7.618   8.104  73.891  1.00  0.00     0.000 HD 
ENDBRANCH  14  15
BRANCH  14  19
HETATM   19  N   UNL     1     -11.130  10.791  72.709  1.00  0.00     6.396 NA 
HETATM   20  C   UNL     1     -12.270  10.968  73.484  1.00  0.00     9.990 A  
HETATM   21  C   UNL     1     -12.384  12.316  73.720  1.00  0.00     9.968 A  
HETATM   22  N   UNL     1     -11.314  12.985  73.211  1.00  0.00     6.688 NA 
HETATM   23  C   UNL     1     -10.572  12.057  72.646  1.00  0.00    14.980 A  
ENDBRANCH  14  19
ENDBRANCH   6   9
TORSDOF 3
ENDMDL
