MODEL        1
REMARK 921   NORMALIZED FREE ENERGY PREDICTED BY IDOCK:   -8.79 KCAL/MOL
REMARK 922        TOTAL FREE ENERGY PREDICTED BY IDOCK:  -11.99 KCAL/MOL
REMARK 923 INTER-LIGAND FREE ENERGY PREDICTED BY IDOCK:  -10.85 KCAL/MOL
REMARK 924 INTRA-LIGAND FREE ENERGY PREDICTED BY IDOCK:   -1.14 KCAL/MOL
REMARK 927      BINDING AFFINITY PREDICTED BY RF-SCORE:    0.00 PKD
ROOT
HETATM    1  C   UNL     1     -11.654  15.032  68.033  1.00  0.00    -0.356 C  
HETATM    2  C   UNL     1     -11.882  13.623  68.497  1.00  0.00    -0.406 A  
HETATM    3  C   UNL     1     -12.115  13.426  69.867  1.00  0.00    -0.389 A  
HETATM    4  C   UNL     1     -12.254  12.144  70.382  1.00  0.00    -0.378 A  
HETATM    5  C   UNL     1     -12.145  11.073  69.515  1.00  0.00    -0.329 A  
HETATM    6  N   UNL     1     -11.974  11.242  68.194  1.00  0.00    -0.641 NA 
HETATM    7  C   UNL     1     -11.864  12.493  67.666  1.00  0.00    -0.317 A  
ENDROOT
BRANCH   5   8
HETATM    8  N   UNL     1     -12.209   9.792  70.069  1.00  0.00    -0.463 N  
HETATM    9  C   UNL     1     -11.145   9.109  70.605  1.00  0.00    -0.265 C  
HETATM   10  H   UNL     1     -13.118   9.328  70.078  1.00  0.00     0.000 HD 
HETATM   11  O   UNL     1      -9.983   9.471  70.724  1.00  0.00    -0.278 OA 
BRANCH   9  12
HETATM   12  C   UNL     1     -11.530   7.718  71.075  1.00  0.00    -0.298 C  
HETATM   13  C   UNL     1     -12.807   7.553  71.893  1.00  0.00    -0.306 C  
HETATM   14  C   UNL     1     -11.482   7.479  72.579  1.00  0.00    -0.376 C  
BRANCH  12  15
HETATM   15  C   UNL     1     -11.082   6.598  70.133  1.00  0.00    -0.384 A  
HETATM   16  C   UNL     1      -9.781   4.522  69.826  1.00  0.00    -0.285 A  
HETATM   17  C   UNL     1     -10.380   5.479  70.653  1.00  0.00    -0.332 A  
HETATM   18  C   UNL     1      -9.903   4.693  68.468  1.00  0.00    -0.111 A  
HETATM   19  O   UNL     1      -9.341   3.905  67.513  1.00  0.00    -0.162 OA 
HETATM   20  C   UNL     1      -9.748   4.617  66.339  1.00  0.00    -0.202 C  
HETATM   21  F   UNL     1      -8.637   5.052  65.688  1.00  0.00    -0.118 F  
HETATM   22  F   UNL     1     -10.392   3.756  65.514  1.00  0.00    -0.129 F  
HETATM   23  O   UNL     1     -10.600   5.745  66.577  1.00  0.00    -0.258 OA 
HETATM   24  C   UNL     1     -10.614   5.743  67.938  1.00  0.00    -0.231 A  
HETATM   25  C   UNL     1     -11.217   6.696  68.734  1.00  0.00    -0.256 A  
ENDBRANCH  12  15
ENDBRANCH   9  12
ENDBRANCH   5   8
BRANCH   7  26
HETATM   26  C   UNL     1     -11.713  12.481  66.183  1.00  0.00    -0.466 A  
HETATM   27  C   UNL     1     -12.511  13.321  65.376  1.00  0.00    -0.543 A  
HETATM   28  C   UNL     1     -10.638  11.715  64.108  1.00  0.00    -0.411 A  
HETATM   29  O   UNL     1      -9.082  11.269  62.362  1.00  0.00    -0.317 OA 
HETATM   30  C   UNL     1     -10.757  11.703  65.509  1.00  0.00    -0.333 A  
HETATM   31  C   UNL     1     -11.470  12.533  63.340  1.00  0.00    -0.523 A  
HETATM   32  C   UNL     1      -9.644  10.799  63.494  1.00  0.00    -0.320 C  
HETATM   33  O   UNL     1      -9.344   9.728  63.991  1.00  0.00    -0.264 OA 
HETATM   34  C   UNL     1     -12.394  13.351  63.978  1.00  0.00    -0.402 A  
ENDBRANCH   7  26
TORSDOF 4
ENDMDL
MODEL        2
REMARK 921   NORMALIZED FREE ENERGY PREDICTED BY IDOCK:   -8.57 KCAL/MOL
REMARK 922        TOTAL FREE ENERGY PREDICTED BY IDOCK:  -11.72 KCAL/MOL
REMARK 923 INTER-LIGAND FREE ENERGY PREDICTED BY IDOCK:  -11.05 KCAL/MOL
REMARK 924 INTRA-LIGAND FREE ENERGY PREDICTED BY IDOCK:   -0.67 KCAL/MOL
REMARK 927      BINDING AFFINITY PREDICTED BY RF-SCORE:    0.00 PKD
ROOT
HETATM    1  C   UNL     1     -11.866  15.267  69.567  1.00  0.00    -0.368 C  
HETATM    2  C   UNL     1     -12.091  13.791  69.716  1.00  0.00    -0.400 A  
HETATM    3  C   UNL     1     -12.415  13.315  70.997  1.00  0.00    -0.422 A  
HETATM    4  C   UNL     1     -12.558  11.954  71.228  1.00  0.00    -0.383 A  
HETATM    5  C   UNL     1     -12.362  11.084  70.171  1.00  0.00    -0.311 A  
HETATM    6  N   UNL     1     -12.103  11.522  68.929  1.00  0.00    -0.430 NA 
HETATM    7  C   UNL     1     -11.987  12.856  68.677  1.00  0.00    -0.247 A  
ENDROOT
BRANCH   5   8
HETATM    8  N   UNL     1     -12.433   9.716  70.447  1.00  0.00    -0.484 N  
HETATM    9  C   UNL     1     -11.352   8.877  70.567  1.00  0.00    -0.234 C  
HETATM   10  H   UNL     1     -13.361   9.309  70.569  1.00  0.00     0.000 HD 
HETATM   11  O   UNL     1     -10.162   9.144  70.485  1.00  0.00    -0.202 OA 
BRANCH   9  12
HETATM   12  C   UNL     1     -11.764   7.437  70.814  1.00  0.00    -0.305 C  
HETATM   13  C   UNL     1     -13.146   7.166  71.402  1.00  0.00    -0.408 C  
HETATM   14  C   UNL     1     -11.939   7.029  72.272  1.00  0.00    -0.250 C  
BRANCH  12  15
HETATM   15  C   UNL     1     -11.147   6.438  69.834  1.00  0.00    -0.444 A  
HETATM   16  C   UNL     1      -9.547   4.594  69.461  1.00  0.00    -0.258 A  
HETATM   17  C   UNL     1     -10.288   5.415  70.318  1.00  0.00    -0.357 A  
HETATM   18  C   UNL     1      -9.684   4.802  68.109  1.00  0.00    -0.143 A  
HETATM   19  O   UNL     1      -9.003   4.148  67.131  1.00  0.00    -0.114 OA 
HETATM   20  C   UNL     1      -9.504   4.839  65.981  1.00  0.00    -0.165 C  
HETATM   21  F   UNL     1      -8.466   5.463  65.363  1.00  0.00    -0.120 F  
HETATM   22  F   UNL     1     -10.005   3.927  65.113  1.00  0.00    -0.169 F  
HETATM   23  O   UNL     1     -10.517   5.816  66.254  1.00  0.00    -0.164 OA 
HETATM   24  C   UNL     1     -10.540   5.755  67.612  1.00  0.00    -0.239 A  
HETATM   25  C   UNL     1     -11.285   6.573  68.439  1.00  0.00    -0.274 A  
ENDBRANCH  12  15
ENDBRANCH   9  12
ENDBRANCH   5   8
BRANCH   7  26
HETATM   26  C   UNL     1     -11.731  13.149  67.237  1.00  0.00    -0.425 A  
HETATM   27  C   UNL     1     -11.697  12.102  66.289  1.00  0.00    -0.389 A  
HETATM   28  C   UNL     1     -11.334  14.692  65.364  1.00  0.00    -0.344 A  
HETATM   29  O   UNL     1     -11.548  16.387  63.705  1.00  0.00    -1.055 OA 
HETATM   30  C   UNL     1     -11.571  14.449  66.729  1.00  0.00    -0.399 A  
HETATM   31  C   UNL     1     -11.271  13.629  64.462  1.00  0.00    -0.395 A  
HETATM   32  C   UNL     1     -11.105  16.099  64.947  1.00  0.00    -0.325 C  
HETATM   33  O   UNL     1     -10.591  16.926  65.678  1.00  0.00    -0.444 OA 
HETATM   34  C   UNL     1     -11.473  12.333  64.924  1.00  0.00    -0.382 A  
ENDBRANCH   7  26
TORSDOF 4
ENDMDL
MODEL        3
REMARK 921   NORMALIZED FREE ENERGY PREDICTED BY IDOCK:   -8.53 KCAL/MOL
REMARK 922        TOTAL FREE ENERGY PREDICTED BY IDOCK:  -11.66 KCAL/MOL
REMARK 923 INTER-LIGAND FREE ENERGY PREDICTED BY IDOCK:  -10.58 KCAL/MOL
REMARK 924 INTRA-LIGAND FREE ENERGY PREDICTED BY IDOCK:   -1.09 KCAL/MOL
REMARK 927      BINDING AFFINITY PREDICTED BY RF-SCORE:    0.00 PKD
ROOT
HETATM    1  C   UNL     1     -12.372  14.866  70.364  1.00  0.00    -0.401 C  
HETATM    2  C   UNL     1     -12.408  13.366  70.426  1.00  0.00    -0.382 A  
HETATM    3  C   UNL     1     -12.973  12.783  71.571  1.00  0.00    -0.388 A  
HETATM    4  C   UNL     1     -12.967  11.404  71.736  1.00  0.00    -0.519 A  
HETATM    5  C   UNL     1     -12.384  10.628  70.752  1.00  0.00    -0.376 A  
HETATM    6  N   UNL     1     -11.886  11.163  69.627  1.00  0.00    -0.318 NA 
HETATM    7  C   UNL     1     -11.907  12.511  69.435  1.00  0.00    -0.308 A  
ENDROOT
BRANCH   5   8
HETATM    8  N   UNL     1     -12.321   9.250  70.979  1.00  0.00    -0.418 N  
HETATM    9  C   UNL     1     -11.170   8.500  70.966  1.00  0.00    -0.268 C  
HETATM   10  H   UNL     1     -13.197   8.764  71.168  1.00  0.00     0.000 HD 
HETATM   11  O   UNL     1     -10.017   8.866  70.788  1.00  0.00    -0.194 OA 
BRANCH   9  12
HETATM   12  C   UNL     1     -11.442   7.024  71.192  1.00  0.00    -0.333 C  
HETATM   13  C   UNL     1     -12.641   6.627  72.047  1.00  0.00    -0.251 C  
HETATM   14  C   UNL     1     -11.265   6.518  72.618  1.00  0.00    -0.284 C  
BRANCH  12  15
HETATM   15  C   UNL     1     -11.009   6.128  70.030  1.00  0.00    -0.441 A  
HETATM   16  C   UNL     1      -9.645   4.219  69.259  1.00  0.00    -0.261 A  
HETATM   17  C   UNL     1     -10.228   4.969  70.286  1.00  0.00    -0.328 A  
HETATM   18  C   UNL     1      -9.860   4.638  67.967  1.00  0.00    -0.113 A  
HETATM   19  O   UNL     1      -9.328   4.076  66.850  1.00  0.00    -0.154 OA 
HETATM   20  C   UNL     1      -9.839   4.974  65.858  1.00  0.00    -0.164 C  
HETATM   21  F   UNL     1      -8.791   5.583  65.243  1.00  0.00    -0.152 F  
HETATM   22  F   UNL     1     -10.497   4.251  64.920  1.00  0.00    -0.225 F  
HETATM   23  O   UNL     1     -10.721   5.989  66.355  1.00  0.00    -0.186 OA 
HETATM   24  C   UNL     1     -10.647   5.730  67.688  1.00  0.00    -0.239 A  
HETATM   25  C   UNL     1     -11.237   6.481  68.685  1.00  0.00    -0.302 A  
ENDBRANCH  12  15
ENDBRANCH   9  12
ENDBRANCH   5   8
BRANCH   7  26
HETATM   26  C   UNL     1     -11.340  12.914  68.115  1.00  0.00    -0.327 A  
HETATM   27  C   UNL     1     -10.158  13.684  68.049  1.00  0.00    -0.250 A  
HETATM   28  C   UNL     1     -11.331  12.914  65.656  1.00  0.00    -0.344 A  
HETATM   29  O   UNL     1     -11.221  12.278  63.364  1.00  0.00    -0.438 OA 
HETATM   30  C   UNL     1     -11.891  12.519  66.884  1.00  0.00    -0.404 A  
HETATM   31  C   UNL     1     -10.181  13.705  65.631  1.00  0.00    -0.316 A  
HETATM   32  C   UNL     1     -12.036  12.502  64.416  1.00  0.00    -0.404 C  
HETATM   33  O   UNL     1     -13.243  12.351  64.365  1.00  0.00    -0.816 OA 
HETATM   34  C   UNL     1      -9.584  14.074  66.830  1.00  0.00    -0.275 A  
ENDBRANCH   7  26
TORSDOF 4
ENDMDL
MODEL        4
REMARK 921   NORMALIZED FREE ENERGY PREDICTED BY IDOCK:   -8.51 KCAL/MOL
REMARK 922        TOTAL FREE ENERGY PREDICTED BY IDOCK:  -11.64 KCAL/MOL
REMARK 923 INTER-LIGAND FREE ENERGY PREDICTED BY IDOCK:  -10.35 KCAL/MOL
REMARK 924 INTRA-LIGAND FREE ENERGY PREDICTED BY IDOCK:   -1.29 KCAL/MOL
REMARK 927      BINDING AFFINITY PREDICTED BY RF-SCORE:    0.00 PKD
ROOT
HETATM    1  C   UNL     1      -8.903   6.231  67.924  1.00  0.00    -0.112 C  
HETATM    2  C   UNL     1      -9.596   7.556  67.788  1.00  0.00    -0.166 A  
HETATM    3  C   UNL     1      -9.551   8.180  66.532  1.00  0.00    -0.303 A  
HETATM    4  C   UNL     1     -10.099   9.443  66.351  1.00  0.00    -0.332 A  
HETATM    5  C   UNL     1     -10.676  10.069  67.440  1.00  0.00    -0.274 A  
HETATM    6  N   UNL     1     -10.775   9.469  68.636  1.00  0.00    -0.210 NA 
HETATM    7  C   UNL     1     -10.268   8.218  68.825  1.00  0.00    -0.210 A  
ENDROOT
BRANCH   5   8
HETATM    8  N   UNL     1     -11.150  11.371  67.252  1.00  0.00    -0.287 N  
HETATM    9  C   UNL     1     -10.453  12.516  67.553  1.00  0.00    -0.219 C  
HETATM   10  H   UNL     1     -12.086  11.479  66.861  1.00  0.00     0.000 HD 
HETATM   11  O   UNL     1      -9.321  12.629  68.002  1.00  0.00    -0.197 OA 
BRANCH   9  12
HETATM   12  C   UNL     1     -11.263  13.771  67.285  1.00  0.00    -0.329 C  
HETATM   13  C   UNL     1     -12.244  13.769  66.117  1.00  0.00    -0.499 C  
HETATM   14  C   UNL     1     -10.952  14.508  65.989  1.00  0.00    -0.324 C  
BRANCH  12  15
HETATM   15  C   UNL     1     -11.580  14.585  68.541  1.00  0.00    -0.344 A  
HETATM   16  C   UNL     1     -10.933  16.421  70.061  1.00  0.00    -0.322 A  
HETATM   17  C   UNL     1     -10.820  15.746  68.840  1.00  0.00    -0.260 A  
HETATM   18  C   UNL     1     -11.828  15.924  70.978  1.00  0.00    -0.428 A  
HETATM   19  O   UNL     1     -12.030  16.406  72.233  1.00  0.00    -0.524 OA 
HETATM   20  C   UNL     1     -12.989  15.453  72.709  1.00  0.00    -0.448 C  
HETATM   21  F   UNL     1     -12.454  14.792  73.769  1.00  0.00    -0.557 F  
HETATM   22  F   UNL     1     -14.078  16.124  73.155  1.00  0.00    -0.690 F  
HETATM   23  O   UNL     1     -13.413  14.485  71.741  1.00  0.00    -0.330 OA 
HETATM   24  C   UNL     1     -12.608  14.828  70.699  1.00  0.00    -0.354 A  
HETATM   25  C   UNL     1     -12.517  14.150  69.500  1.00  0.00    -0.165 A  
ENDBRANCH  12  15
ENDBRANCH   9  12
ENDBRANCH   5   8
BRANCH   7  26
HETATM   26  C   UNL     1     -10.502   7.705  70.206  1.00  0.00    -0.224 A  
HETATM   27  C   UNL     1     -11.663   6.957  70.504  1.00  0.00    -0.401 A  
HETATM   28  C   UNL     1      -9.836   7.373  72.549  1.00  0.00    -0.213 A  
HETATM   29  O   UNL     1      -8.716   6.706  74.542  1.00  0.00    -0.149 OA 
HETATM   30  C   UNL     1      -9.587   7.871  71.258  1.00  0.00    -0.186 A  
HETATM   31  C   UNL     1     -11.012   6.669  72.815  1.00  0.00    -0.291 A  
HETATM   32  C   UNL     1      -8.836   7.670  73.606  1.00  0.00    -0.243 C  
HETATM   33  O   UNL     1      -8.162   8.685  73.606  1.00  0.00    -0.395 OA 
HETATM   34  C   UNL     1     -11.917   6.445  71.784  1.00  0.00    -0.370 A  
ENDBRANCH   7  26
TORSDOF 4
ENDMDL
MODEL        5
REMARK 921   NORMALIZED FREE ENERGY PREDICTED BY IDOCK:   -8.43 KCAL/MOL
REMARK 922        TOTAL FREE ENERGY PREDICTED BY IDOCK:  -11.54 KCAL/MOL
REMARK 923 INTER-LIGAND FREE ENERGY PREDICTED BY IDOCK:  -10.75 KCAL/MOL
REMARK 924 INTRA-LIGAND FREE ENERGY PREDICTED BY IDOCK:   -0.79 KCAL/MOL
REMARK 927      BINDING AFFINITY PREDICTED BY RF-SCORE:    0.00 PKD
ROOT
HETATM    1  C   UNL     1     -13.816   8.783  72.560  1.00  0.00    -0.431 C  
HETATM    2  C   UNL     1     -12.886   9.578  71.690  1.00  0.00    -0.483 A  
HETATM    3  C   UNL     1     -13.137  10.953  71.567  1.00  0.00    -0.503 A  
HETATM    4  C   UNL     1     -12.369  11.737  70.716  1.00  0.00    -0.433 A  
HETATM    5  C   UNL     1     -11.365  11.126  69.989  1.00  0.00    -0.243 A  
HETATM    6  N   UNL     1     -11.076   9.823  70.130  1.00  0.00    -0.267 NA 
HETATM    7  C   UNL     1     -11.800   9.044  70.981  1.00  0.00    -0.285 A  
ENDROOT
BRANCH   5   8
HETATM    8  N   UNL     1     -10.659  11.921  69.081  1.00  0.00    -0.406 N  
HETATM    9  C   UNL     1     -11.157  12.391  67.890  1.00  0.00    -0.239 C  
HETATM   10  H   UNL     1      -9.700  12.171  69.322  1.00  0.00     0.000 HD 
HETATM   11  O   UNL     1     -12.271  12.240  67.411  1.00  0.00    -0.478 OA 
BRANCH   9  12
HETATM   12  C   UNL     1     -10.124  13.179  67.105  1.00  0.00    -0.242 C  
HETATM   13  C   UNL     1      -9.686  12.651  65.741  1.00  0.00    -0.183 C  
HETATM   14  C   UNL     1      -8.769  12.507  66.912  1.00  0.00    -0.182 C  
BRANCH  12  15
HETATM   15  C   UNL     1     -10.172  14.687  67.354  1.00  0.00    -0.240 A  
HETATM   16  C   UNL     1     -11.185  16.569  68.592  1.00  0.00    -0.297 A  
HETATM   17  C   UNL     1     -10.948  15.200  68.428  1.00  0.00    -0.271 A  
HETATM   18  C   UNL     1     -10.627  17.423  67.672  1.00  0.00    -0.350 A  
HETATM   19  O   UNL     1     -10.796  18.772  67.633  1.00  0.00    -0.426 OA 
HETATM   20  C   UNL     1     -10.058  19.076  66.443  1.00  0.00    -0.415 C  
HETATM   21  F   UNL     1     -10.909  19.613  65.530  1.00  0.00    -0.580 F  
HETATM   22  F   UNL     1      -9.132  20.020  66.739  1.00  0.00    -0.359 F  
HETATM   23  O   UNL     1      -9.395  17.959  65.838  1.00  0.00    -0.520 OA 
HETATM   24  C   UNL     1      -9.836  16.959  66.648  1.00  0.00    -0.287 A  
HETATM   25  C   UNL     1      -9.583  15.613  66.470  1.00  0.00    -0.293 A  
ENDBRANCH  12  15
ENDBRANCH   9  12
ENDBRANCH   5   8
BRANCH   7  26
HETATM   26  C   UNL     1     -11.312   7.635  71.029  1.00  0.00    -0.289 A  
HETATM   27  C   UNL     1     -11.124   6.903  69.835  1.00  0.00    -0.333 A  
HETATM   28  C   UNL     1     -10.499   5.650  72.230  1.00  0.00    -0.260 A  
HETATM   29  O   UNL     1      -9.221   4.126  73.540  1.00  0.00    -0.102 OA 
HETATM   30  C   UNL     1     -10.959   6.978  72.219  1.00  0.00    -0.279 A  
HETATM   31  C   UNL     1     -10.360   4.945  71.033  1.00  0.00    -0.217 A  
HETATM   32  C   UNL     1     -10.225   5.028  73.550  1.00  0.00    -0.191 C  
HETATM   33  O   UNL     1     -10.837   5.331  74.559  1.00  0.00    -0.277 OA 
HETATM   34  C   UNL     1     -10.654   5.582  69.832  1.00  0.00    -0.387 A  
ENDBRANCH   7  26
TORSDOF 4
ENDMDL
MODEL        6
REMARK 921   NORMALIZED FREE ENERGY PREDICTED BY IDOCK:   -8.38 KCAL/MOL
REMARK 922        TOTAL FREE ENERGY PREDICTED BY IDOCK:  -11.49 KCAL/MOL
REMARK 923 INTER-LIGAND FREE ENERGY PREDICTED BY IDOCK:  -10.56 KCAL/MOL
REMARK 924 INTRA-LIGAND FREE ENERGY PREDICTED BY IDOCK:   -0.92 KCAL/MOL
REMARK 927      BINDING AFFINITY PREDICTED BY RF-SCORE:    0.00 PKD
ROOT
HETATM    1  C   UNL     1     -12.249  15.172  70.546  1.00  0.00    -0.389 C  
HETATM    2  C   UNL     1     -12.370  13.676  70.502  1.00  0.00    -0.425 A  
HETATM    3  C   UNL     1     -12.865  13.036  71.649  1.00  0.00    -0.376 A  
HETATM    4  C   UNL     1     -12.929  11.651  71.712  1.00  0.00    -0.483 A  
HETATM    5  C   UNL     1     -12.482  10.923  70.626  1.00  0.00    -0.369 A  
HETATM    6  N   UNL     1     -12.053  11.516  69.501  1.00  0.00    -0.304 NA 
HETATM    7  C   UNL     1     -12.009  12.875  69.409  1.00  0.00    -0.269 A  
ENDROOT
BRANCH   5   8
HETATM    8  N   UNL     1     -12.482   9.531  70.745  1.00  0.00    -0.482 N  
HETATM    9  C   UNL     1     -11.361   8.751  70.895  1.00  0.00    -0.275 C  
HETATM   10  H   UNL     1     -13.385   9.057  70.718  1.00  0.00     0.000 HD 
HETATM   11  O   UNL     1     -10.191   9.097  70.976  1.00  0.00    -0.251 OA 
BRANCH   9  12
HETATM   12  C   UNL     1     -11.691   7.270  70.940  1.00  0.00    -0.348 C  
HETATM   13  C   UNL     1     -13.078   6.847  71.415  1.00  0.00    -0.316 C  
HETATM   14  C   UNL     1     -11.906   6.670  72.324  1.00  0.00    -0.289 C  
BRANCH  12  15
HETATM   15  C   UNL     1     -10.967   6.440  69.878  1.00  0.00    -0.410 A  
HETATM   16  C   UNL     1     -10.717   5.861  67.491  1.00  0.00    -0.359 A  
HETATM   17  C   UNL     1     -11.197   6.701  68.501  1.00  0.00    -0.227 A  
HETATM   18  C   UNL     1      -9.992   4.758  67.874  1.00  0.00    -0.102 A  
HETATM   19  O   UNL     1      -9.500   3.802  67.044  1.00  0.00    -0.185 OA 
HETATM   20  C   UNL     1      -8.932   2.909  68.010  1.00  0.00    -0.153 C  
HETATM   21  F   UNL     1      -9.571   1.712  67.922  1.00  0.00    -0.203 F  
HETATM   22  F   UNL     1      -7.632   2.699  67.692  1.00  0.00    -0.058 F  
HETATM   23  O   UNL     1      -9.005   3.359  69.369  1.00  0.00    -0.091 OA 
HETATM   24  C   UNL     1      -9.717   4.505  69.197  1.00  0.00    -0.179 A  
HETATM   25  C   UNL     1     -10.176   5.323  70.210  1.00  0.00    -0.345 A  
ENDBRANCH  12  15
ENDBRANCH   9  12
ENDBRANCH   5   8
BRANCH   7  26
HETATM   26  C   UNL     1     -11.537  13.348  68.076  1.00  0.00    -0.369 A  
HETATM   27  C   UNL     1     -10.499  14.301  67.981  1.00  0.00    -0.235 A  
HETATM   28  C   UNL     1     -11.567  13.317  65.617  1.00  0.00    -0.363 A  
HETATM   29  O   UNL     1     -11.390  12.678  63.330  1.00  0.00    -0.482 OA 
HETATM   30  C   UNL     1     -12.035  12.852  66.859  1.00  0.00    -0.402 A  
HETATM   31  C   UNL     1     -10.563  14.286  65.563  1.00  0.00    -0.351 A  
HETATM   32  C   UNL     1     -12.214  12.779  64.394  1.00  0.00    -0.428 C  
HETATM   33  O   UNL     1     -13.381  12.431  64.367  1.00  0.00    -0.789 OA 
HETATM   34  C   UNL     1     -10.016  14.764  66.749  1.00  0.00    -0.256 A  
ENDBRANCH   7  26
TORSDOF 4
ENDMDL
MODEL        7
REMARK 921   NORMALIZED FREE ENERGY PREDICTED BY IDOCK:   -8.33 KCAL/MOL
REMARK 922        TOTAL FREE ENERGY PREDICTED BY IDOCK:  -11.42 KCAL/MOL
REMARK 923 INTER-LIGAND FREE ENERGY PREDICTED BY IDOCK:  -10.37 KCAL/MOL
REMARK 924 INTRA-LIGAND FREE ENERGY PREDICTED BY IDOCK:   -1.05 KCAL/MOL
REMARK 927      BINDING AFFINITY PREDICTED BY RF-SCORE:    0.00 PKD
ROOT
HETATM    1  C   UNL     1     -10.899  15.011  67.476  1.00  0.00    -0.297 C  
HETATM    2  C   UNL     1     -11.472  13.802  68.155  1.00  0.00    -0.348 A  
HETATM    3  C   UNL     1     -11.757  13.907  69.526  1.00  0.00    -0.369 A  
HETATM    4  C   UNL     1     -12.212  12.806  70.238  1.00  0.00    -0.351 A  
HETATM    5  C   UNL     1     -12.364  11.607  69.567  1.00  0.00    -0.089 A  
HETATM    6  N   UNL     1     -12.146  11.498  68.247  1.00  0.00    -0.575 NA 
HETATM    7  C   UNL     1     -11.726  12.575  67.525  1.00  0.00    -0.374 A  
ENDROOT
BRANCH   5   8
HETATM    8  N   UNL     1     -12.747  10.495  70.322  1.00  0.00    -0.484 N  
HETATM    9  C   UNL     1     -11.883   9.597  70.900  1.00  0.00    -0.323 C  
HETATM   10  H   UNL     1     -13.747  10.339  70.456  1.00  0.00     0.000 HD 
HETATM   11  O   UNL     1     -10.660   9.597  70.894  1.00  0.00    -0.304 OA 
BRANCH   9  12
HETATM   12  C   UNL     1     -12.612   8.469  71.607  1.00  0.00    -0.369 C  
HETATM   13  C   UNL     1     -14.058   8.178  71.217  1.00  0.00    -0.303 C  
HETATM   14  C   UNL     1     -13.773   8.878  72.506  1.00  0.00    -0.474 C  
BRANCH  12  15
HETATM   15  C   UNL     1     -11.701   7.324  72.051  1.00  0.00    -0.329 A  
HETATM   16  C   UNL     1     -10.049   6.478  73.681  1.00  0.00    -0.277 A  
HETATM   17  C   UNL     1     -11.035   7.396  73.304  1.00  0.00    -0.367 A  
HETATM   18  C   UNL     1      -9.742   5.477  72.791  1.00  0.00    -0.149 A  
HETATM   19  O   UNL     1      -8.775   4.536  72.955  1.00  0.00    -0.111 OA 
HETATM   20  C   UNL     1      -8.882   3.854  71.700  1.00  0.00    -0.104 C  
HETATM   21  F   UNL     1      -7.707   3.986  71.032  1.00  0.00    -0.051 F  
HETATM   22  F   UNL     1      -9.067   2.533  71.942  1.00  0.00    -0.102 F  
HETATM   23  O   UNL     1      -9.939   4.314  70.848  1.00  0.00    -0.197 OA 
HETATM   24  C   UNL     1     -10.400   5.357  71.591  1.00  0.00    -0.218 A  
HETATM   25  C   UNL     1     -11.381   6.247  71.200  1.00  0.00    -0.364 A  
ENDBRANCH  12  15
ENDBRANCH   9  12
ENDBRANCH   5   8
BRANCH   7  26
HETATM   26  C   UNL     1     -11.570  12.270  66.074  1.00  0.00    -0.451 A  
HETATM   27  C   UNL     1     -12.452  12.834  65.126  1.00  0.00    -0.565 A  
HETATM   28  C   UNL     1     -10.413  11.207  64.182  1.00  0.00    -0.442 A  
HETATM   29  O   UNL     1      -8.813  10.574  62.536  1.00  0.00    -0.202 OA 
HETATM   30  C   UNL     1     -10.534  11.474  65.557  1.00  0.00    -0.327 A  
HETATM   31  C   UNL     1     -11.326  11.753  63.278  1.00  0.00    -0.347 A  
HETATM   32  C   UNL     1      -9.325  10.293  63.753  1.00  0.00    -0.295 C  
HETATM   33  O   UNL     1      -8.911   9.387  64.455  1.00  0.00    -0.217 OA 
HETATM   34  C   UNL     1     -12.335  12.584  63.751  1.00  0.00    -0.595 A  
ENDBRANCH   7  26
TORSDOF 4
ENDMDL
MODEL        8
REMARK 921   NORMALIZED FREE ENERGY PREDICTED BY IDOCK:   -8.32 KCAL/MOL
REMARK 922        TOTAL FREE ENERGY PREDICTED BY IDOCK:  -11.41 KCAL/MOL
REMARK 923 INTER-LIGAND FREE ENERGY PREDICTED BY IDOCK:  -10.50 KCAL/MOL
REMARK 924 INTRA-LIGAND FREE ENERGY PREDICTED BY IDOCK:   -0.92 KCAL/MOL
REMARK 927      BINDING AFFINITY PREDICTED BY RF-SCORE:    0.00 PKD
ROOT
HETATM    1  C   UNL     1     -13.842   8.769  72.672  1.00  0.00    -0.352 C  
HETATM    2  C   UNL     1     -12.877   9.511  71.794  1.00  0.00    -0.496 A  
HETATM    3  C   UNL     1     -13.286  10.759  71.297  1.00  0.00    -0.326 A  
HETATM    4  C   UNL     1     -12.480  11.465  70.414  1.00  0.00    -0.345 A  
HETATM    5  C   UNL     1     -11.277  10.903  70.030  1.00  0.00    -0.263 A  
HETATM    6  N   UNL     1     -10.845   9.736  70.533  1.00  0.00    -0.300 NA 
HETATM    7  C   UNL     1     -11.609   9.042  71.422  1.00  0.00    -0.326 A  
ENDROOT
BRANCH   5   8
HETATM    8  N   UNL     1     -10.522  11.596  69.080  1.00  0.00    -0.405 N  
HETATM    9  C   UNL     1     -10.936  11.890  67.804  1.00  0.00    -0.228 C  
HETATM   10  H   UNL     1      -9.590  11.908  69.356  1.00  0.00     0.000 HD 
HETATM   11  O   UNL     1     -12.007  11.642  67.268  1.00  0.00    -0.627 OA 
BRANCH   9  12
HETATM   12  C   UNL     1      -9.864  12.604  67.000  1.00  0.00    -0.225 C  
HETATM   13  C   UNL     1      -8.938  11.770  66.119  1.00  0.00    -0.145 C  
HETATM   14  C   UNL     1      -8.422  12.326  67.407  1.00  0.00    -0.176 C  
BRANCH  12  15
HETATM   15  C   UNL     1     -10.252  14.019  66.567  1.00  0.00    -0.279 A  
HETATM   16  C   UNL     1     -10.938  15.532  64.740  1.00  0.00    -0.416 A  
HETATM   17  C   UNL     1     -10.747  14.245  65.256  1.00  0.00    -0.377 A  
HETATM   18  C   UNL     1     -10.636  16.594  65.558  1.00  0.00    -0.258 A  
HETATM   19  O   UNL     1     -10.699  17.907  65.213  1.00  0.00    -0.640 OA 
HETATM   20  C   UNL     1     -10.204  18.500  66.419  1.00  0.00    -0.420 C  
HETATM   21  F   UNL     1      -9.055  19.168  66.135  1.00  0.00    -0.326 F  
HETATM   22  F   UNL     1     -11.108  19.412  66.854  1.00  0.00    -0.539 F  
HETATM   23  O   UNL     1      -9.937  17.578  67.484  1.00  0.00    -0.294 OA 
HETATM   24  C   UNL     1     -10.197  16.405  66.847  1.00  0.00    -0.290 A  
HETATM   25  C   UNL     1     -10.007  15.145  67.379  1.00  0.00    -0.226 A  
ENDBRANCH  12  15
ENDBRANCH   9  12
ENDBRANCH   5   8
BRANCH   7  26
HETATM   26  C   UNL     1     -10.949   7.789  71.893  1.00  0.00    -0.294 A  
HETATM   27  C   UNL     1     -10.566   7.648  73.245  1.00  0.00    -0.411 A  
HETATM   28  C   UNL     1     -10.101   5.508  71.541  1.00  0.00    -0.260 A  
HETATM   29  O   UNL     1      -9.908   3.179  71.088  1.00  0.00    -0.167 OA 
HETATM   30  C   UNL     1     -10.724   6.676  71.066  1.00  0.00    -0.278 A  
HETATM   31  C   UNL     1      -9.703   5.419  72.876  1.00  0.00    -0.165 A  
HETATM   32  C   UNL     1      -9.845   4.420  70.564  1.00  0.00    -0.215 C  
HETATM   33  O   UNL     1      -9.626   4.634  69.385  1.00  0.00    -0.153 OA 
HETATM   34  C   UNL     1      -9.955   6.484  73.733  1.00  0.00    -0.274 A  
ENDBRANCH   7  26
TORSDOF 4
ENDMDL
MODEL        9
REMARK 921   NORMALIZED FREE ENERGY PREDICTED BY IDOCK:   -8.28 KCAL/MOL
REMARK 922        TOTAL FREE ENERGY PREDICTED BY IDOCK:  -11.35 KCAL/MOL
REMARK 923 INTER-LIGAND FREE ENERGY PREDICTED BY IDOCK:  -10.57 KCAL/MOL
REMARK 924 INTRA-LIGAND FREE ENERGY PREDICTED BY IDOCK:   -0.79 KCAL/MOL
REMARK 927      BINDING AFFINITY PREDICTED BY RF-SCORE:    0.00 PKD
ROOT
HETATM    1  C   UNL     1      -8.200   6.897  66.021  1.00  0.00    -0.125 C  
HETATM    2  C   UNL     1      -9.000   8.163  65.919  1.00  0.00    -0.195 A  
HETATM    3  C   UNL     1      -8.784   8.973  64.793  1.00  0.00    -0.187 A  
HETATM    4  C   UNL     1      -9.427  10.197  64.670  1.00  0.00    -0.357 A  
HETATM    5  C   UNL     1     -10.271  10.600  65.689  1.00  0.00    -0.253 A  
HETATM    6  N   UNL     1     -10.530   9.819  66.748  1.00  0.00    -0.215 NA 
HETATM    7  C   UNL     1      -9.930   8.601  66.873  1.00  0.00    -0.260 A  
ENDROOT
BRANCH   5   8
HETATM    8  N   UNL     1     -10.843  11.870  65.579  1.00  0.00    -0.288 N  
HETATM    9  C   UNL     1     -10.297  13.028  66.077  1.00  0.00    -0.285 C  
HETATM   10  H   UNL     1     -11.737  11.943  65.091  1.00  0.00     0.000 HD 
HETATM   11  O   UNL     1      -9.239  13.185  66.668  1.00  0.00    -0.246 OA 
BRANCH   9  12
HETATM   12  C   UNL     1     -11.190  14.233  65.844  1.00  0.00    -0.319 C  
HETATM   13  C   UNL     1     -12.678  14.001  65.599  1.00  0.00    -0.515 C  
HETATM   14  C   UNL     1     -11.794  14.363  64.451  1.00  0.00    -0.433 C  
BRANCH  12  15
HETATM   15  C   UNL     1     -10.729  15.497  66.571  1.00  0.00    -0.304 A  
HETATM   16  C   UNL     1     -10.886  16.927  68.579  1.00  0.00    -0.335 A  
HETATM   17  C   UNL     1     -11.113  15.713  67.922  1.00  0.00    -0.324 A  
HETATM   18  C   UNL     1     -10.259  17.924  67.869  1.00  0.00    -0.371 A  
HETATM   19  O   UNL     1     -10.010  19.183  68.317  1.00  0.00    -0.356 OA 
HETATM   20  C   UNL     1      -9.431  19.752  67.137  1.00  0.00    -0.355 C  
HETATM   21  F   UNL     1     -10.220  20.775  66.715  1.00  0.00    -0.523 F  
HETATM   22  F   UNL     1      -8.223  20.275  67.458  1.00  0.00    -0.332 F  
HETATM   23  O   UNL     1      -9.257  18.838  66.045  1.00  0.00    -0.476 OA 
HETATM   24  C   UNL     1      -9.838  17.728  66.576  1.00  0.00    -0.329 A  
HETATM   25  C   UNL     1     -10.046  16.537  65.910  1.00  0.00    -0.359 A  
ENDBRANCH  12  15
ENDBRANCH   9  12
ENDBRANCH   5   8
BRANCH   7  26
HETATM   26  C   UNL     1     -10.366   7.867  68.095  1.00  0.00    -0.249 A  
HETATM   27  C   UNL     1     -10.550   6.466  68.060  1.00  0.00    -0.315 A  
HETATM   28  C   UNL     1     -10.971   7.763  70.476  1.00  0.00    -0.251 A  
HETATM   29  O   UNL     1     -10.939   7.849  72.855  1.00  0.00    -0.377 OA 
HETATM   30  C   UNL     1     -10.562   8.485  69.341  1.00  0.00    -0.203 A  
HETATM   31  C   UNL     1     -11.178   6.385  70.395  1.00  0.00    -0.435 A  
HETATM   32  C   UNL     1     -11.220   8.529  71.724  1.00  0.00    -0.309 C  
HETATM   33  O   UNL     1     -11.615   9.681  71.721  1.00  0.00    -0.378 OA 
HETATM   34  C   UNL     1     -10.947   5.734  69.188  1.00  0.00    -0.308 A  
ENDBRANCH   7  26
TORSDOF 4
ENDMDL
MODEL       10
REMARK 921   NORMALIZED FREE ENERGY PREDICTED BY IDOCK:   -8.21 KCAL/MOL
REMARK 922        TOTAL FREE ENERGY PREDICTED BY IDOCK:  -11.28 KCAL/MOL
REMARK 923 INTER-LIGAND FREE ENERGY PREDICTED BY IDOCK:  -10.41 KCAL/MOL
REMARK 924 INTRA-LIGAND FREE ENERGY PREDICTED BY IDOCK:   -0.86 KCAL/MOL
REMARK 927      BINDING AFFINITY PREDICTED BY RF-SCORE:    0.00 PKD
ROOT
HETATM    1  C   UNL     1     -12.887  15.238  71.678  1.00  0.00    -0.469 C  
HETATM    2  C   UNL     1     -12.826  13.778  71.337  1.00  0.00    -0.449 A  
HETATM    3  C   UNL     1     -13.372  12.876  72.264  1.00  0.00    -0.597 A  
HETATM    4  C   UNL     1     -13.280  11.507  72.055  1.00  0.00    -0.443 A  
HETATM    5  C   UNL     1     -12.628  11.058  70.921  1.00  0.00    -0.391 A  
HETATM    6  N   UNL     1     -12.145  11.904  69.998  1.00  0.00    -0.309 NA 
HETATM    7  C   UNL     1     -12.251  13.251  70.171  1.00  0.00    -0.306 A  
ENDROOT
BRANCH   5   8
HETATM    8  N   UNL     1     -12.479   9.677  70.774  1.00  0.00    -0.472 N  
HETATM    9  C   UNL     1     -11.355   8.963  71.112  1.00  0.00    -0.291 C  
HETATM   10  H   UNL     1     -13.267   9.157  70.386  1.00  0.00     0.000 HD 
HETATM   11  O   UNL     1     -10.313   9.364  71.609  1.00  0.00    -0.309 OA 
BRANCH   9  12
HETATM   12  C   UNL     1     -11.486   7.488  70.778  1.00  0.00    -0.305 C  
HETATM   13  C   UNL     1     -12.744   6.749  71.226  1.00  0.00    -0.299 C  
HETATM   14  C   UNL     1     -11.462   6.527  71.960  1.00  0.00    -0.342 C  
BRANCH  12  15
HETATM   15  C   UNL     1     -10.789   7.081  69.479  1.00  0.00    -0.265 A  
HETATM   16  C   UNL     1      -9.924   7.764  67.269  1.00  0.00    -0.277 A  
HETATM   17  C   UNL     1     -10.390   8.079  68.550  1.00  0.00    -0.229 A  
HETATM   18  C   UNL     1      -9.850   6.434  66.931  1.00  0.00    -0.158 A  
HETATM   19  O   UNL     1      -9.482   5.940  65.719  1.00  0.00    -0.076 OA 
HETATM   20  C   UNL     1      -9.676   4.541  65.956  1.00  0.00    -0.210 C  
HETATM   21  F   UNL     1     -10.632   4.085  65.105  1.00  0.00    -0.218 F  
HETATM   22  F   UNL     1      -8.525   3.890  65.660  1.00  0.00    -0.106 F  
HETATM   23  O   UNL     1     -10.063   4.200  67.293  1.00  0.00    -0.113 OA 
HETATM   24  C   UNL     1     -10.188   5.446  67.825  1.00  0.00    -0.178 A  
HETATM   25  C   UNL     1     -10.645   5.733  69.096  1.00  0.00    -0.365 A  
ENDBRANCH  12  15
ENDBRANCH   9  12
ENDBRANCH   5   8
BRANCH   7  26
HETATM   26  C   UNL     1     -11.687  14.025  69.028  1.00  0.00    -0.368 A  
HETATM   27  C   UNL     1     -10.695  15.006  69.249  1.00  0.00    -0.250 A  
HETATM   28  C   UNL     1     -11.495  14.545  66.632  1.00  0.00    -0.373 A  
HETATM   29  O   UNL     1     -11.082  14.441  64.290  1.00  0.00    -0.247 OA 
HETATM   30  C   UNL     1     -12.047  13.799  67.689  1.00  0.00    -0.333 A  
HETATM   31  C   UNL     1     -10.543  15.533  66.893  1.00  0.00    -0.307 A  
HETATM   32  C   UNL     1     -12.001  14.276  65.263  1.00  0.00    -0.389 C  
HETATM   33  O   UNL     1     -13.141  13.907  65.045  1.00  0.00    -0.749 OA 
HETATM   34  C   UNL     1     -10.129  15.749  68.202  1.00  0.00    -0.220 A  
ENDBRANCH   7  26
TORSDOF 4
ENDMDL
MODEL       11
REMARK 921   NORMALIZED FREE ENERGY PREDICTED BY IDOCK:   -8.19 KCAL/MOL
REMARK 922        TOTAL FREE ENERGY PREDICTED BY IDOCK:  -11.25 KCAL/MOL
REMARK 923 INTER-LIGAND FREE ENERGY PREDICTED BY IDOCK:  -10.25 KCAL/MOL
REMARK 924 INTRA-LIGAND FREE ENERGY PREDICTED BY IDOCK:   -1.00 KCAL/MOL
REMARK 927      BINDING AFFINITY PREDICTED BY RF-SCORE:    0.00 PKD
ROOT
HETATM    1  C   UNL     1      -8.724   6.620  68.292  1.00  0.00    -0.118 C  
HETATM    2  C   UNL     1      -9.457   7.864  67.881  1.00  0.00    -0.160 A  
HETATM    3  C   UNL     1      -9.391   8.233  66.528  1.00  0.00    -0.263 A  
HETATM    4  C   UNL     1      -9.974   9.414  66.090  1.00  0.00    -0.351 A  
HETATM    5  C   UNL     1     -10.607  10.217  67.019  1.00  0.00    -0.239 A  
HETATM    6  N   UNL     1     -10.726   9.858  68.307  1.00  0.00    -0.229 NA 
HETATM    7  C   UNL     1     -10.184   8.689  68.751  1.00  0.00    -0.207 A  
ENDROOT
BRANCH   5   8
HETATM    8  N   UNL     1     -11.117  11.438  66.568  1.00  0.00    -0.281 N  
HETATM    9  C   UNL     1     -10.365  12.552  66.285  1.00  0.00    -0.250 C  
HETATM   10  H   UNL     1     -12.127  11.507  66.437  1.00  0.00     0.000 HD 
HETATM   11  O   UNL     1      -9.152  12.693  66.343  1.00  0.00    -0.202 OA 
BRANCH   9  12
HETATM   12  C   UNL     1     -11.220  13.735  65.869  1.00  0.00    -0.305 C  
HETATM   13  C   UNL     1     -12.675  13.482  65.485  1.00  0.00    -0.493 C  
HETATM   14  C   UNL     1     -11.672  13.759  64.414  1.00  0.00    -0.436 C  
BRANCH  12  15
HETATM   15  C   UNL     1     -10.831  15.051  66.545  1.00  0.00    -0.320 A  
HETATM   16  C   UNL     1     -11.050  16.539  68.503  1.00  0.00    -0.335 A  
HETATM   17  C   UNL     1     -11.209  15.290  67.893  1.00  0.00    -0.333 A  
HETATM   18  C   UNL     1     -10.498  17.547  67.750  1.00  0.00    -0.381 A  
HETATM   19  O   UNL     1     -10.323  18.834  68.149  1.00  0.00    -0.374 OA 
HETATM   20  C   UNL     1      -9.798  19.396  66.941  1.00  0.00    -0.352 C  
HETATM   21  F   UNL     1     -10.656  20.351  66.497  1.00  0.00    -0.488 F  
HETATM   22  F   UNL     1      -8.622  20.006  67.224  1.00  0.00    -0.322 F  
HETATM   23  O   UNL     1      -9.582  18.457  65.879  1.00  0.00    -0.499 OA 
HETATM   24  C   UNL     1     -10.083  17.332  66.457  1.00  0.00    -0.309 A  
HETATM   25  C   UNL     1     -10.224  16.107  65.837  1.00  0.00    -0.381 A  
ENDBRANCH  12  15
ENDBRANCH   9  12
ENDBRANCH   5   8
BRANCH   7  26
HETATM   26  C   UNL     1     -10.446   8.446  70.198  1.00  0.00    -0.230 A  
HETATM   27  C   UNL     1     -11.763   8.226  70.660  1.00  0.00    -0.153 A  
HETATM   28  C   UNL     1      -9.710   8.131  72.523  1.00  0.00    -0.357 A  
HETATM   29  O   UNL     1      -8.713   7.299  74.520  1.00  0.00    -0.201 OA 
HETATM   30  C   UNL     1      -9.430   8.363  71.165  1.00  0.00    -0.227 A  
HETATM   31  C   UNL     1     -11.028   7.953  72.948  1.00  0.00    -0.452 A  
HETATM   32  C   UNL     1      -8.567   8.136  73.471  1.00  0.00    -0.246 C  
HETATM   33  O   UNL     1      -7.572   8.816  73.297  1.00  0.00    -0.381 OA 
HETATM   34  C   UNL     1     -12.053   7.982  72.010  1.00  0.00    -0.377 A  
ENDBRANCH   7  26
TORSDOF 4
ENDMDL
MODEL       12
REMARK 921   NORMALIZED FREE ENERGY PREDICTED BY IDOCK:   -8.14 KCAL/MOL
REMARK 922        TOTAL FREE ENERGY PREDICTED BY IDOCK:  -11.18 KCAL/MOL
REMARK 923 INTER-LIGAND FREE ENERGY PREDICTED BY IDOCK:  -10.26 KCAL/MOL
REMARK 924 INTRA-LIGAND FREE ENERGY PREDICTED BY IDOCK:   -0.92 KCAL/MOL
REMARK 927      BINDING AFFINITY PREDICTED BY RF-SCORE:    0.00 PKD
ROOT
HETATM    1  C   UNL     1      -8.439   6.823  66.078  1.00  0.00    -0.143 C  
HETATM    2  C   UNL     1      -9.158   8.140  66.055  1.00  0.00    -0.218 A  
HETATM    3  C   UNL     1      -8.956   8.965  64.937  1.00  0.00    -0.128 A  
HETATM    4  C   UNL     1      -9.523  10.231  64.882  1.00  0.00    -0.337 A  
HETATM    5  C   UNL     1     -10.278  10.659  65.958  1.00  0.00    -0.247 A  
HETATM    6  N   UNL     1     -10.526   9.867  67.012  1.00  0.00    -0.240 NA 
HETATM    7  C   UNL     1     -10.001   8.611  67.072  1.00  0.00    -0.249 A  
ENDROOT
BRANCH   5   8
HETATM    8  N   UNL     1     -10.771  11.965  65.913  1.00  0.00    -0.274 N  
HETATM    9  C   UNL     1     -10.079  13.085  66.308  1.00  0.00    -0.282 C  
HETATM   10  H   UNL     1     -11.719  12.099  65.560  1.00  0.00     0.000 HD 
HETATM   11  O   UNL     1      -8.937  13.169  66.736  1.00  0.00    -0.226 OA 
BRANCH   9  12
HETATM   12  C   UNL     1     -10.911  14.349  66.188  1.00  0.00    -0.320 C  
HETATM   13  C   UNL     1     -11.908  14.459  65.038  1.00  0.00    -0.400 C  
HETATM   14  C   UNL     1     -10.628  15.228  64.976  1.00  0.00    -0.444 C  
BRANCH  12  15
HETATM   15  C   UNL     1     -11.224  15.015  67.529  1.00  0.00    -0.333 A  
HETATM   16  C   UNL     1     -10.582  16.683  69.234  1.00  0.00    -0.343 A  
HETATM   17  C   UNL     1     -10.475  16.148  67.945  1.00  0.00    -0.290 A  
HETATM   18  C   UNL     1     -11.459  16.076  70.101  1.00  0.00    -0.344 A  
HETATM   19  O   UNL     1     -11.653  16.415  71.403  1.00  0.00    -0.418 OA 
HETATM   20  C   UNL     1     -12.593  15.403  71.781  1.00  0.00    -0.384 C  
HETATM   21  F   UNL     1     -12.038  14.637  72.756  1.00  0.00    -0.363 F  
HETATM   22  F   UNL     1     -13.686  16.005  72.310  1.00  0.00    -0.519 F  
HETATM   23  O   UNL     1     -13.017  14.540  70.718  1.00  0.00    -0.352 OA 
HETATM   24  C   UNL     1     -12.229  15.006  69.712  1.00  0.00    -0.285 A  
HETATM   25  C   UNL     1     -12.144  14.465  68.444  1.00  0.00    -0.278 A  
ENDBRANCH  12  15
ENDBRANCH   9  12
ENDBRANCH   5   8
BRANCH   7  26
HETATM   26  C   UNL     1     -10.413   7.872  68.300  1.00  0.00    -0.212 A  
HETATM   27  C   UNL     1     -10.525   6.464  68.284  1.00  0.00    -0.270 A  
HETATM   28  C   UNL     1     -11.037   7.772  70.677  1.00  0.00    -0.264 A  
HETATM   29  O   UNL     1     -11.034   7.892  73.055  1.00  0.00    -0.393 OA 
HETATM   30  C   UNL     1     -10.652   8.497  69.535  1.00  0.00    -0.215 A  
HETATM   31  C   UNL     1     -11.173   6.384  70.613  1.00  0.00    -0.400 A  
HETATM   32  C   UNL     1     -11.337   8.541  71.911  1.00  0.00    -0.329 C  
HETATM   33  O   UNL     1     -11.788   9.671  71.887  1.00  0.00    -0.367 OA 
HETATM   34  C   UNL     1     -10.897   5.728  69.419  1.00  0.00    -0.393 A  
ENDBRANCH   7  26
TORSDOF 4
ENDMDL
MODEL       13
REMARK 921   NORMALIZED FREE ENERGY PREDICTED BY IDOCK:   -8.11 KCAL/MOL
REMARK 922        TOTAL FREE ENERGY PREDICTED BY IDOCK:  -11.15 KCAL/MOL
REMARK 923 INTER-LIGAND FREE ENERGY PREDICTED BY IDOCK:  -10.19 KCAL/MOL
REMARK 924 INTRA-LIGAND FREE ENERGY PREDICTED BY IDOCK:   -0.97 KCAL/MOL
REMARK 927      BINDING AFFINITY PREDICTED BY RF-SCORE:    0.00 PKD
ROOT
HETATM    1  C   UNL     1      -9.442  10.709  63.733  1.00  0.00    -0.331 C  
HETATM    2  C   UNL     1      -9.969  10.553  65.130  1.00  0.00    -0.375 A  
HETATM    3  C   UNL     1      -9.769   9.314  65.759  1.00  0.00    -0.339 A  
HETATM    4  C   UNL     1     -10.299   9.069  67.019  1.00  0.00    -0.339 A  
HETATM    5  C   UNL     1     -11.036  10.069  67.626  1.00  0.00    -0.234 A  
HETATM    6  N   UNL     1     -11.195  11.277  67.064  1.00  0.00    -0.362 NA 
HETATM    7  C   UNL     1     -10.658  11.546  65.841  1.00  0.00    -0.268 A  
ENDROOT
BRANCH   5   8
HETATM    8  N   UNL     1     -11.625   9.770  68.858  1.00  0.00    -0.428 N  
HETATM    9  C   UNL     1     -11.689  10.626  69.931  1.00  0.00    -0.317 C  
HETATM   10  H   UNL     1     -12.040   8.845  68.969  1.00  0.00     0.000 HD 
HETATM   11  O   UNL     1     -11.286  11.776  70.020  1.00  0.00    -0.126 OA 
BRANCH   9  12
HETATM   12  C   UNL     1     -12.343   9.984  71.141  1.00  0.00    -0.477 C  
HETATM   13  C   UNL     1     -13.867   9.961  71.219  1.00  0.00    -0.050 C  
HETATM   14  C   UNL     1     -13.103  10.922  72.071  1.00  0.00    -0.462 C  
BRANCH  12  15
HETATM   15  C   UNL     1     -11.535   8.836  71.748  1.00  0.00    -0.413 A  
HETATM   16  C   UNL     1      -9.314   7.868  72.227  1.00  0.00    -0.238 A  
HETATM   17  C   UNL     1     -10.123   8.949  71.860  1.00  0.00    -0.393 A  
HETATM   18  C   UNL     1      -9.935   6.671  72.492  1.00  0.00    -0.170 A  
HETATM   19  O   UNL     1      -9.314   5.503  72.802  1.00  0.00    -0.139 OA 
HETATM   20  C   UNL     1     -10.450   4.635  72.881  1.00  0.00    -0.194 C  
HETATM   21  F   UNL     1     -10.329   3.674  71.928  1.00  0.00    -0.238 F  
HETATM   22  F   UNL     1     -10.437   4.016  74.086  1.00  0.00    -0.184 F  
HETATM   23  O   UNL     1     -11.719   5.280  72.712  1.00  0.00    -0.275 OA 
HETATM   24  C   UNL     1     -11.303   6.544  72.433  1.00  0.00    -0.279 A  
HETATM   25  C   UNL     1     -12.122   7.598  72.079  1.00  0.00    -0.336 A  
ENDBRANCH  12  15
ENDBRANCH   9  12
ENDBRANCH   5   8
BRANCH   7  26
HETATM   26  C   UNL     1     -10.911  12.947  65.396  1.00  0.00    -0.305 A  
HETATM   27  C   UNL     1     -11.982  13.237  64.522  1.00  0.00    -0.449 A  
HETATM   28  C   UNL     1     -10.431  15.358  65.410  1.00  0.00    -0.426 A  
HETATM   29  O   UNL     1     -10.139  17.634  66.046  1.00  0.00    -0.463 OA 
HETATM   30  C   UNL     1     -10.165  14.048  65.847  1.00  0.00    -0.332 A  
HETATM   31  C   UNL     1     -11.475  15.602  64.517  1.00  0.00    -0.304 A  
HETATM   32  C   UNL     1      -9.533  16.438  65.892  1.00  0.00    -0.254 C  
HETATM   33  O   UNL     1      -8.359  16.249  66.153  1.00  0.00    -0.320 OA 
HETATM   34  C   UNL     1     -12.264  14.540  64.088  1.00  0.00    -0.372 A  
ENDBRANCH   7  26
TORSDOF 4
ENDMDL
MODEL       14
REMARK 921   NORMALIZED FREE ENERGY PREDICTED BY IDOCK:   -8.11 KCAL/MOL
REMARK 922        TOTAL FREE ENERGY PREDICTED BY IDOCK:  -11.14 KCAL/MOL
REMARK 923 INTER-LIGAND FREE ENERGY PREDICTED BY IDOCK:  -10.39 KCAL/MOL
REMARK 924 INTRA-LIGAND FREE ENERGY PREDICTED BY IDOCK:   -0.76 KCAL/MOL
REMARK 927      BINDING AFFINITY PREDICTED BY RF-SCORE:    0.00 PKD
ROOT
HETATM    1  C   UNL     1     -11.337   5.484  72.664  1.00  0.00    -0.346 C  
HETATM    2  C   UNL     1     -11.083   6.778  71.948  1.00  0.00    -0.279 A  
HETATM    3  C   UNL     1     -11.349   7.965  72.649  1.00  0.00    -0.468 A  
HETATM    4  C   UNL     1     -11.215   9.198  72.025  1.00  0.00    -0.310 A  
HETATM    5  C   UNL     1     -10.826   9.223  70.699  1.00  0.00    -0.278 A  
HETATM    6  N   UNL     1     -10.518   8.104  70.026  1.00  0.00    -0.226 NA 
HETATM    7  C   UNL     1     -10.616   6.886  70.630  1.00  0.00    -0.222 A  
ENDROOT
BRANCH   5   8
HETATM    8  N   UNL     1     -10.775  10.471  70.071  1.00  0.00    -0.420 N  
HETATM    9  C   UNL     1     -11.789  11.022  69.325  1.00  0.00    -0.340 C  
HETATM   10  H   UNL     1      -9.919  11.016  70.176  1.00  0.00     0.000 HD 
HETATM   11  O   UNL     1     -12.899  10.569  69.087  1.00  0.00     0.053 OA 
BRANCH   9  12
HETATM   12  C   UNL     1     -11.403  12.365  68.731  1.00  0.00    -0.339 C  
HETATM   13  C   UNL     1     -11.491  12.544  67.218  1.00  0.00    -0.416 C  
HETATM   14  C   UNL     1     -10.153  12.381  67.861  1.00  0.00    -0.208 C  
BRANCH  12  15
HETATM   15  C   UNL     1     -11.678  13.554  69.653  1.00  0.00    -0.378 A  
HETATM   16  C   UNL     1     -11.043  15.827  70.377  1.00  0.00    -0.380 A  
HETATM   17  C   UNL     1     -10.978  14.774  69.459  1.00  0.00    -0.287 A  
HETATM   18  C   UNL     1     -11.829  15.650  71.491  1.00  0.00    -0.425 A  
HETATM   19  O   UNL     1     -11.968  16.532  72.515  1.00  0.00    -0.521 OA 
HETATM   20  C   UNL     1     -12.820  15.772  73.379  1.00  0.00    -0.564 C  
HETATM   21  F   UNL     1     -12.163  15.542  74.546  1.00  0.00    -0.642 F  
HETATM   22  F   UNL     1     -13.915  16.515  73.669  1.00  0.00    -0.421 F  
HETATM   23  O   UNL     1     -13.251  14.511  72.850  1.00  0.00    -0.477 OA 
HETATM   24  C   UNL     1     -12.553  14.498  71.683  1.00  0.00    -0.348 A  
HETATM   25  C   UNL     1     -12.508  13.447  70.787  1.00  0.00    -0.418 A  
ENDBRANCH  12  15
ENDBRANCH   9  12
ENDBRANCH   5   8
BRANCH   7  26
HETATM   26  C   UNL     1     -10.201   5.766  69.737  1.00  0.00    -0.303 A  
HETATM   27  C   UNL     1     -10.227   5.923  68.334  1.00  0.00    -0.236 A  
HETATM   28  C   UNL     1      -9.329   3.500  69.345  1.00  0.00    -0.243 A  
HETATM   29  O   UNL     1      -7.958   1.556  69.250  1.00  0.00    -0.045 OA 
HETATM   30  C   UNL     1      -9.715   4.537  70.213  1.00  0.00    -0.287 A  
HETATM   31  C   UNL     1      -9.403   3.680  67.962  1.00  0.00    -0.237 A  
HETATM   32  C   UNL     1      -8.901   2.217  69.955  1.00  0.00    -0.075 C  
HETATM   33  O   UNL     1      -9.342   1.813  71.016  1.00  0.00    -0.093 OA 
HETATM   34  C   UNL     1      -9.834   4.901  67.457  1.00  0.00    -0.207 A  
ENDBRANCH   7  26
TORSDOF 4
ENDMDL
MODEL       15
REMARK 921   NORMALIZED FREE ENERGY PREDICTED BY IDOCK:   -8.04 KCAL/MOL
REMARK 922        TOTAL FREE ENERGY PREDICTED BY IDOCK:  -11.06 KCAL/MOL
REMARK 923 INTER-LIGAND FREE ENERGY PREDICTED BY IDOCK:  -10.04 KCAL/MOL
REMARK 924 INTRA-LIGAND FREE ENERGY PREDICTED BY IDOCK:   -1.02 KCAL/MOL
REMARK 927      BINDING AFFINITY PREDICTED BY RF-SCORE:    0.00 PKD
ROOT
HETATM    1  C   UNL     1     -11.701   7.852  72.235  1.00  0.00    -0.408 C  
HETATM    2  C   UNL     1     -11.597   8.890  71.155  1.00  0.00    -0.360 A  
HETATM    3  C   UNL     1     -12.315  10.082  71.336  1.00  0.00    -0.512 A  
HETATM    4  C   UNL     1     -12.333  11.053  70.344  1.00  0.00    -0.442 A  
HETATM    5  C   UNL     1     -11.638  10.808  69.174  1.00  0.00    -0.305 A  
HETATM    6  N   UNL     1     -10.904   9.698  69.002  1.00  0.00    -0.211 NA 
HETATM    7  C   UNL     1     -10.852   8.747  69.976  1.00  0.00    -0.223 A  
ENDROOT
BRANCH   5   8
HETATM    8  N   UNL     1     -11.736  11.765  68.160  1.00  0.00    -0.320 N  
HETATM    9  C   UNL     1     -10.672  12.396  67.564  1.00  0.00    -0.228 C  
HETATM   10  H   UNL     1     -12.672  12.014  67.837  1.00  0.00     0.000 HD 
HETATM   11  O   UNL     1      -9.476  12.243  67.769  1.00  0.00    -0.185 OA 
BRANCH   9  12
HETATM   12  C   UNL     1     -11.112  13.423  66.537  1.00  0.00    -0.312 C  
HETATM   13  C   UNL     1     -12.330  13.112  65.672  1.00  0.00    -0.519 C  
HETATM   14  C   UNL     1     -10.963  13.019  65.075  1.00  0.00    -0.320 C  
BRANCH  12  15
HETATM   15  C   UNL     1     -10.816  14.869  66.938  1.00  0.00    -0.319 A  
HETATM   16  C   UNL     1     -11.153  16.698  68.564  1.00  0.00    -0.301 A  
HETATM   17  C   UNL     1     -11.223  15.345  68.213  1.00  0.00    -0.325 A  
HETATM   18  C   UNL     1     -10.658  17.571  67.625  1.00  0.00    -0.355 A  
HETATM   19  O   UNL     1     -10.572  18.921  67.761  1.00  0.00    -0.415 OA 
HETATM   20  C   UNL     1     -10.071  19.265  66.464  1.00  0.00    -0.415 C  
HETATM   21  F   UNL     1     -10.984  20.056  65.842  1.00  0.00    -0.509 F  
HETATM   22  F   UNL     1      -8.939  19.995  66.619  1.00  0.00    -0.355 F  
HETATM   23  O   UNL     1      -9.783  18.152  65.609  1.00  0.00    -0.442 OA 
HETATM   24  C   UNL     1     -10.217  17.133  66.399  1.00  0.00    -0.328 A  
HETATM   25  C   UNL     1     -10.272  15.802  66.034  1.00  0.00    -0.352 A  
ENDBRANCH  12  15
ENDBRANCH   9  12
ENDBRANCH   5   8
BRANCH   7  26
HETATM   26  C   UNL     1      -9.961   7.605  69.618  1.00  0.00    -0.185 A  
HETATM   27  C   UNL     1      -8.728   7.424  70.283  1.00  0.00    -0.146 A  
HETATM   28  C   UNL     1      -9.440   5.561  68.354  1.00  0.00    -0.144 A  
HETATM   29  O   UNL     1      -9.449   3.355  67.457  1.00  0.00    -0.205 OA 
HETATM   30  C   UNL     1     -10.301   6.627  68.668  1.00  0.00    -0.208 A  
HETATM   31  C   UNL     1      -8.212   5.435  69.007  1.00  0.00    -0.094 A  
HETATM   32  C   UNL     1      -9.866   4.627  67.282  1.00  0.00    -0.180 C  
HETATM   33  O   UNL     1     -10.557   4.976  66.342  1.00  0.00    -0.300 OA 
HETATM   34  C   UNL     1      -7.866   6.358  69.987  1.00  0.00    -0.111 A  
ENDBRANCH   7  26
TORSDOF 4
ENDMDL
MODEL       16
REMARK 921   NORMALIZED FREE ENERGY PREDICTED BY IDOCK:   -8.01 KCAL/MOL
REMARK 922        TOTAL FREE ENERGY PREDICTED BY IDOCK:  -11.03 KCAL/MOL
REMARK 923 INTER-LIGAND FREE ENERGY PREDICTED BY IDOCK:   -9.78 KCAL/MOL
REMARK 924 INTRA-LIGAND FREE ENERGY PREDICTED BY IDOCK:   -1.25 KCAL/MOL
REMARK 927      BINDING AFFINITY PREDICTED BY RF-SCORE:    0.00 PKD
ROOT
HETATM    1  C   UNL     1     -11.975  14.790  64.471  1.00  0.00    -0.451 C  
HETATM    2  C   UNL     1     -11.408  13.516  65.025  1.00  0.00    -0.334 A  
HETATM    3  C   UNL     1     -11.144  12.479  64.115  1.00  0.00    -0.426 A  
HETATM    4  C   UNL     1     -10.696  11.244  64.563  1.00  0.00    -0.390 A  
HETATM    5  C   UNL     1     -10.529  11.061  65.923  1.00  0.00    -0.240 A  
HETATM    6  N   UNL     1     -10.726  12.054  66.804  1.00  0.00    -0.234 NA 
HETATM    7  C   UNL     1     -11.139  13.281  66.381  1.00  0.00    -0.295 A  
ENDROOT
BRANCH   5   8
HETATM    8  N   UNL     1     -10.154   9.786  66.355  1.00  0.00    -0.245 N  
HETATM    9  C   UNL     1      -8.908   9.446  66.823  1.00  0.00    -0.127 C  
HETATM   10  H   UNL     1     -10.860   9.050  66.320  1.00  0.00     0.000 HD 
HETATM   11  O   UNL     1      -7.925  10.157  66.974  1.00  0.00    -0.108 OA 
BRANCH   9  12
HETATM   12  C   UNL     1      -8.802   7.970  67.160  1.00  0.00    -0.138 C  
HETATM   13  C   UNL     1      -7.542   7.215  66.743  1.00  0.00    -0.093 C  
HETATM   14  C   UNL     1      -8.809   7.007  65.978  1.00  0.00    -0.155 C  
BRANCH  12  15
HETATM   15  C   UNL     1      -9.535   7.572  68.442  1.00  0.00    -0.148 A  
HETATM   16  C   UNL     1     -11.272   6.179  69.510  1.00  0.00    -0.482 A  
HETATM   17  C   UNL     1     -10.435   6.473  68.429  1.00  0.00    -0.258 A  
HETATM   18  C   UNL     1     -11.192   6.994  70.614  1.00  0.00    -0.288 A  
HETATM   19  O   UNL     1     -11.964   6.902  71.729  1.00  0.00    -0.300 OA 
HETATM   20  C   UNL     1     -11.477   8.035  72.457  1.00  0.00    -0.409 C  
HETATM   21  F   UNL     1     -12.500   8.912  72.631  1.00  0.00    -0.434 F  
HETATM   22  F   UNL     1     -11.084   7.621  73.686  1.00  0.00    -0.394 F  
HETATM   23  O   UNL     1     -10.387   8.731  71.839  1.00  0.00    -0.299 OA 
HETATM   24  C   UNL     1     -10.299   8.038  70.672  1.00  0.00    -0.202 A  
HETATM   25  C   UNL     1      -9.459   8.342  69.619  1.00  0.00    -0.166 A  
ENDBRANCH  12  15
ENDBRANCH   9  12
ENDBRANCH   5   8
BRANCH   7  26
HETATM   26  C   UNL     1     -11.271  14.261  67.497  1.00  0.00    -0.322 A  
HETATM   27  C   UNL     1     -10.667  15.535  67.406  1.00  0.00    -0.301 A  
HETATM   28  C   UNL     1     -12.135  14.964  69.689  1.00  0.00    -0.334 A  
HETATM   29  O   UNL     1     -13.541  15.598  71.503  1.00  0.00    -0.490 OA 
HETATM   30  C   UNL     1     -12.029  14.018  68.655  1.00  0.00    -0.389 A  
HETATM   31  C   UNL     1     -11.494  16.200  69.579  1.00  0.00    -0.292 A  
HETATM   32  C   UNL     1     -12.900  14.575  70.901  1.00  0.00    -0.360 C  
HETATM   33  O   UNL     1     -12.966  13.425  71.295  1.00  0.00    -0.334 OA 
HETATM   34  C   UNL     1     -10.775  16.491  68.426  1.00  0.00    -0.339 A  
ENDBRANCH   7  26
TORSDOF 4
ENDMDL
MODEL       17
REMARK 921   NORMALIZED FREE ENERGY PREDICTED BY IDOCK:   -7.99 KCAL/MOL
REMARK 922        TOTAL FREE ENERGY PREDICTED BY IDOCK:  -11.01 KCAL/MOL
REMARK 923 INTER-LIGAND FREE ENERGY PREDICTED BY IDOCK:  -10.37 KCAL/MOL
REMARK 924 INTRA-LIGAND FREE ENERGY PREDICTED BY IDOCK:   -0.63 KCAL/MOL
REMARK 927      BINDING AFFINITY PREDICTED BY RF-SCORE:    0.00 PKD
ROOT
HETATM    1  C   UNL     1      -8.918   6.676  67.914  1.00  0.00    -0.112 C  
HETATM    2  C   UNL     1      -9.613   7.962  67.574  1.00  0.00    -0.190 A  
HETATM    3  C   UNL     1      -9.485   8.435  66.259  1.00  0.00    -0.292 A  
HETATM    4  C   UNL     1     -10.032   9.657  65.892  1.00  0.00    -0.351 A  
HETATM    5  C   UNL     1     -10.692  10.396  66.856  1.00  0.00    -0.207 A  
HETATM    6  N   UNL     1     -10.870   9.938  68.105  1.00  0.00    -0.246 NA 
HETATM    7  C   UNL     1     -10.365   8.729  68.476  1.00  0.00    -0.199 A  
ENDROOT
BRANCH   5   8
HETATM    8  N   UNL     1     -11.164  11.657  66.483  1.00  0.00    -0.312 N  
HETATM    9  C   UNL     1     -10.398  12.795  66.403  1.00  0.00    -0.258 C  
HETATM   10  H   UNL     1     -12.154  11.739  66.251  1.00  0.00     0.000 HD 
HETATM   11  O   UNL     1      -9.201  12.930  66.608  1.00  0.00    -0.241 OA 
BRANCH   9  12
HETATM   12  C   UNL     1     -11.217  14.015  66.023  1.00  0.00    -0.310 C  
HETATM   13  C   UNL     1     -12.690  13.824  65.672  1.00  0.00    -0.523 C  
HETATM   14  C   UNL     1     -11.703  14.077  64.580  1.00  0.00    -0.428 C  
BRANCH  12  15
HETATM   15  C   UNL     1     -10.762  15.306  66.705  1.00  0.00    -0.313 A  
HETATM   16  C   UNL     1     -10.886  16.782  68.682  1.00  0.00    -0.336 A  
HETATM   17  C   UNL     1     -11.107  15.547  68.062  1.00  0.00    -0.322 A  
HETATM   18  C   UNL     1     -10.303  17.773  67.930  1.00  0.00    -0.386 A  
HETATM   19  O   UNL     1     -10.067  19.048  68.339  1.00  0.00    -0.370 OA 
HETATM   20  C   UNL     1      -9.538  19.599  67.128  1.00  0.00    -0.348 C  
HETATM   21  F   UNL     1     -10.361  20.595  66.707  1.00  0.00    -0.513 F  
HETATM   22  F   UNL     1      -8.332  20.156  67.398  1.00  0.00    -0.328 F  
HETATM   23  O   UNL     1      -9.379  18.663  66.054  1.00  0.00    -0.490 OA 
HETATM   24  C   UNL     1      -9.919  17.555  66.628  1.00  0.00    -0.314 A  
HETATM   25  C   UNL     1     -10.122  16.343  65.998  1.00  0.00    -0.373 A  
ENDBRANCH  12  15
ENDBRANCH   9  12
ENDBRANCH   5   8
BRANCH   7  26
HETATM   26  C   UNL     1     -10.691   8.377  69.888  1.00  0.00    -0.227 A  
HETATM   27  C   UNL     1     -11.152   9.367  70.783  1.00  0.00    -0.365 A  
HETATM   28  C   UNL     1     -10.939   6.769  71.732  1.00  0.00    -0.266 A  
HETATM   29  O   UNL     1     -11.639   4.972  73.128  1.00  0.00    -0.328 OA 
HETATM   30  C   UNL     1     -10.622   7.069  70.395  1.00  0.00    -0.244 A  
HETATM   31  C   UNL     1     -11.357   7.781  72.598  1.00  0.00    -0.449 A  
HETATM   32  C   UNL     1     -10.760   5.366  72.183  1.00  0.00    -0.227 C  
HETATM   33  O   UNL     1      -9.912   4.628  71.715  1.00  0.00    -0.178 OA 
HETATM   34  C   UNL     1     -11.482   9.079  72.116  1.00  0.00    -0.328 A  
ENDBRANCH   7  26
TORSDOF 4
ENDMDL
MODEL       18
REMARK 921   NORMALIZED FREE ENERGY PREDICTED BY IDOCK:   -7.98 KCAL/MOL
REMARK 922        TOTAL FREE ENERGY PREDICTED BY IDOCK:  -10.99 KCAL/MOL
REMARK 923 INTER-LIGAND FREE ENERGY PREDICTED BY IDOCK:  -10.69 KCAL/MOL
REMARK 924 INTRA-LIGAND FREE ENERGY PREDICTED BY IDOCK:   -0.30 KCAL/MOL
REMARK 927      BINDING AFFINITY PREDICTED BY RF-SCORE:    0.00 PKD
ROOT
HETATM    1  C   UNL     1     -13.707   6.836  72.288  1.00  0.00     0.161 C  
HETATM    2  C   UNL     1     -13.085   8.110  71.797  1.00  0.00    -0.367 A  
HETATM    3  C   UNL     1     -13.665   9.316  72.221  1.00  0.00    -0.527 A  
HETATM    4  C   UNL     1     -13.195  10.532  71.745  1.00  0.00    -0.522 A  
HETATM    5  C   UNL     1     -12.153  10.521  70.836  1.00  0.00    -0.383 A  
HETATM    6  N   UNL     1     -11.551   9.384  70.458  1.00  0.00    -0.259 NA 
HETATM    7  C   UNL     1     -11.980   8.182  70.937  1.00  0.00    -0.183 A  
ENDROOT
BRANCH   5   8
HETATM    8  N   UNL     1     -11.751  11.752  70.311  1.00  0.00    -0.501 N  
HETATM    9  C   UNL     1     -12.331  12.963  70.603  1.00  0.00    -0.302 C  
HETATM   10  H   UNL     1     -10.965  11.752  69.661  1.00  0.00     0.000 HD 
HETATM   11  O   UNL     1     -13.257  13.206  71.363  1.00  0.00    -0.305 OA 
BRANCH   9  12
HETATM   12  C   UNL     1     -11.700  14.106  69.828  1.00  0.00    -0.370 C  
HETATM   13  C   UNL     1     -10.868  15.132  70.592  1.00  0.00    -0.217 C  
HETATM   14  C   UNL     1     -12.240  15.499  70.127  1.00  0.00    -0.404 C  
BRANCH  12  15
HETATM   15  C   UNL     1     -11.330  13.750  68.387  1.00  0.00    -0.326 A  
HETATM   16  C   UNL     1      -9.729  13.983  66.523  1.00  0.00    -0.305 A  
HETATM   17  C   UNL     1     -10.055  14.109  67.877  1.00  0.00    -0.235 A  
HETATM   18  C   UNL     1     -10.693  13.480  65.682  1.00  0.00    -0.281 A  
HETATM   19  O   UNL     1     -10.582  13.342  64.335  1.00  0.00    -0.411 OA 
HETATM   20  C   UNL     1     -11.895  12.860  64.029  1.00  0.00    -0.443 C  
HETATM   21  F   UNL     1     -12.510  13.759  63.216  1.00  0.00    -0.532 F  
HETATM   22  F   UNL     1     -11.779  11.701  63.338  1.00  0.00    -0.497 F  
HETATM   23  O   UNL     1     -12.738  12.632  65.166  1.00  0.00    -0.646 OA 
HETATM   24  C   UNL     1     -11.921  13.083  66.156  1.00  0.00    -0.427 A  
HETATM   25  C   UNL     1     -12.263  13.194  67.489  1.00  0.00    -0.169 A  
ENDBRANCH  12  15
ENDBRANCH   9  12
ENDBRANCH   5   8
BRANCH   7  26
HETATM   26  C   UNL     1     -11.169   7.038  70.430  1.00  0.00    -0.339 A  
HETATM   27  C   UNL     1     -10.507   6.176  71.332  1.00  0.00    -0.273 A  
HETATM   28  C   UNL     1     -10.287   5.623  68.623  1.00  0.00    -0.277 A  
HETATM   29  O   UNL     1     -10.064   4.118  66.791  1.00  0.00    -0.182 OA 
HETATM   30  C   UNL     1     -11.059   6.711  69.068  1.00  0.00    -0.318 A  
HETATM   31  C   UNL     1      -9.617   4.814  69.542  1.00  0.00    -0.250 A  
HETATM   32  C   UNL     1     -10.179   5.412  67.157  1.00  0.00    -0.224 C  
HETATM   33  O   UNL     1     -10.222   6.328  66.356  1.00  0.00    -0.124 OA 
HETATM   34  C   UNL     1      -9.745   5.081  70.901  1.00  0.00    -0.256 A  
ENDBRANCH   7  26
TORSDOF 4
ENDMDL
MODEL       19
REMARK 921   NORMALIZED FREE ENERGY PREDICTED BY IDOCK:   -7.98 KCAL/MOL
REMARK 922        TOTAL FREE ENERGY PREDICTED BY IDOCK:  -10.98 KCAL/MOL
REMARK 923 INTER-LIGAND FREE ENERGY PREDICTED BY IDOCK:  -10.26 KCAL/MOL
REMARK 924 INTRA-LIGAND FREE ENERGY PREDICTED BY IDOCK:   -0.72 KCAL/MOL
REMARK 927      BINDING AFFINITY PREDICTED BY RF-SCORE:    0.00 PKD
ROOT
HETATM    1  C   UNL     1      -9.424  10.555  63.623  1.00  0.00    -0.347 C  
HETATM    2  C   UNL     1      -9.873  10.389  65.046  1.00  0.00    -0.384 A  
HETATM    3  C   UNL     1      -9.582   9.169  65.675  1.00  0.00    -0.287 A  
HETATM    4  C   UNL     1     -10.036   8.912  66.961  1.00  0.00    -0.331 A  
HETATM    5  C   UNL     1     -10.789   9.882  67.597  1.00  0.00    -0.257 A  
HETATM    6  N   UNL     1     -11.035  11.074  67.033  1.00  0.00    -0.284 NA 
HETATM    7  C   UNL     1     -10.574  11.355  65.782  1.00  0.00    -0.260 A  
ENDROOT
BRANCH   5   8
HETATM    8  N   UNL     1     -11.302   9.568  68.858  1.00  0.00    -0.452 N  
HETATM    9  C   UNL     1     -11.649  10.486  69.820  1.00  0.00    -0.294 C  
HETATM   10  H   UNL     1     -11.428   8.581  69.083  1.00  0.00     0.000 HD 
HETATM   11  O   UNL     1     -11.608  11.706  69.766  1.00  0.00    -0.294 OA 
BRANCH   9  12
HETATM   12  C   UNL     1     -12.121   9.825  71.103  1.00  0.00    -0.460 C  
HETATM   13  C   UNL     1     -13.597   9.463  71.235  1.00  0.00    -0.296 C  
HETATM   14  C   UNL     1     -13.063  10.647  71.975  1.00  0.00    -0.501 C  
BRANCH  12  15
HETATM   15  C   UNL     1     -11.062   8.951  71.777  1.00  0.00    -0.433 A  
HETATM   16  C   UNL     1     -10.532   7.270  73.507  1.00  0.00    -0.421 A  
HETATM   17  C   UNL     1     -11.457   7.966  72.721  1.00  0.00    -0.428 A  
HETATM   18  C   UNL     1      -9.201   7.565  73.330  1.00  0.00    -0.205 A  
HETATM   19  O   UNL     1      -8.169   7.039  74.040  1.00  0.00    -0.117 OA 
HETATM   20  C   UNL     1      -7.080   7.771  73.467  1.00  0.00    -0.096 C  
HETATM   21  F   UNL     1      -6.497   8.517  74.442  1.00  0.00    -0.126 F  
HETATM   22  F   UNL     1      -6.153   6.888  73.021  1.00  0.00    -0.054 F  
HETATM   23  O   UNL     1      -7.437   8.643  72.386  1.00  0.00    -0.279 OA 
HETATM   24  C   UNL     1      -8.788   8.482  72.394  1.00  0.00    -0.198 A  
HETATM   25  C   UNL     1      -9.682   9.176  71.603  1.00  0.00    -0.263 A  
ENDBRANCH  12  15
ENDBRANCH   9  12
ENDBRANCH   5   8
BRANCH   7  26
HETATM   26  C   UNL     1     -10.917  12.737  65.339  1.00  0.00    -0.313 A  
HETATM   27  C   UNL     1     -12.037  12.964  64.509  1.00  0.00    -0.473 A  
HETATM   28  C   UNL     1     -10.560  15.170  65.314  1.00  0.00    -0.432 A  
HETATM   29  O   UNL     1     -10.359  17.464  65.921  1.00  0.00    -0.481 OA 
HETATM   30  C   UNL     1     -10.210  13.879  65.749  1.00  0.00    -0.331 A  
HETATM   31  C   UNL     1     -11.653  15.352  64.465  1.00  0.00    -0.296 A  
HETATM   32  C   UNL     1      -9.700  16.299  65.749  1.00  0.00    -0.264 C  
HETATM   33  O   UNL     1      -8.507  16.172  65.961  1.00  0.00    -0.319 OA 
HETATM   34  C   UNL     1     -12.404  14.248  64.078  1.00  0.00    -0.283 A  
ENDBRANCH   7  26
TORSDOF 4
ENDMDL
MODEL       20
REMARK 921   NORMALIZED FREE ENERGY PREDICTED BY IDOCK:   -7.95 KCAL/MOL
REMARK 922        TOTAL FREE ENERGY PREDICTED BY IDOCK:  -10.96 KCAL/MOL
REMARK 923 INTER-LIGAND FREE ENERGY PREDICTED BY IDOCK:  -10.07 KCAL/MOL
REMARK 924 INTRA-LIGAND FREE ENERGY PREDICTED BY IDOCK:   -0.88 KCAL/MOL
REMARK 927      BINDING AFFINITY PREDICTED BY RF-SCORE:    0.00 PKD
ROOT
HETATM    1  C   UNL     1      -8.774   6.056  68.097  1.00  0.00    -0.113 C  
HETATM    2  C   UNL     1      -9.500   7.362  67.955  1.00  0.00    -0.146 A  
HETATM    3  C   UNL     1      -9.545   7.938  66.676  1.00  0.00    -0.293 A  
HETATM    4  C   UNL     1     -10.128   9.183  66.483  1.00  0.00    -0.357 A  
HETATM    5  C   UNL     1     -10.648   9.841  67.582  1.00  0.00    -0.276 A  
HETATM    6  N   UNL     1     -10.661   9.286  68.803  1.00  0.00    -0.194 NA 
HETATM    7  C   UNL     1     -10.119   8.052  69.007  1.00  0.00    -0.201 A  
ENDROOT
BRANCH   5   8
HETATM    8  N   UNL     1     -11.158  11.126  67.375  1.00  0.00    -0.292 N  
HETATM    9  C   UNL     1     -10.493  12.294  67.660  1.00  0.00    -0.214 C  
HETATM   10  H   UNL     1     -12.096  11.203  66.982  1.00  0.00     0.000 HD 
HETATM   11  O   UNL     1      -9.365  12.446  68.107  1.00  0.00    -0.200 OA 
BRANCH   9  12
HETATM   12  C   UNL     1     -11.338  13.523  67.374  1.00  0.00    -0.338 C  
HETATM   13  C   UNL     1     -12.381  13.447  66.262  1.00  0.00    -0.410 C  
HETATM   14  C   UNL     1     -11.110  14.197  66.026  1.00  0.00    -0.314 C  
BRANCH  12  15
HETATM   15  C   UNL     1     -11.600  14.395  68.602  1.00  0.00    -0.347 A  
HETATM   16  C   UNL     1     -10.868  16.277  70.024  1.00  0.00    -0.329 A  
HETATM   17  C   UNL     1     -10.805  15.550  68.831  1.00  0.00    -0.254 A  
HETATM   18  C   UNL     1     -11.747  15.840  70.987  1.00  0.00    -0.422 A  
HETATM   19  O   UNL     1     -11.902  16.378  72.225  1.00  0.00    -0.534 OA 
HETATM   20  C   UNL     1     -12.868  15.470  72.767  1.00  0.00    -0.435 C  
HETATM   21  F   UNL     1     -12.319  14.840  73.839  1.00  0.00    -0.585 F  
HETATM   22  F   UNL     1     -13.929  16.184  73.215  1.00  0.00    -0.673 F  
HETATM   23  O   UNL     1     -13.342  14.472  71.853  1.00  0.00    -0.321 OA 
HETATM   24  C   UNL     1     -12.560  14.752  70.776  1.00  0.00    -0.349 A  
HETATM   25  C   UNL     1     -12.519  14.023  69.604  1.00  0.00    -0.204 A  
ENDBRANCH  12  15
ENDBRANCH   9  12
ENDBRANCH   5   8
BRANCH   7  26
HETATM   26  C   UNL     1     -10.257   7.589  70.418  1.00  0.00    -0.202 A  
HETATM   27  C   UNL     1     -10.313   8.524  71.475  1.00  0.00    -0.321 A  
HETATM   28  C   UNL     1     -10.526   5.834  72.119  1.00  0.00    -0.258 A  
HETATM   29  O   UNL     1     -11.352   4.047  73.458  1.00  0.00    -0.262 OA 
HETATM   30  C   UNL     1     -10.396   6.238  70.778  1.00  0.00    -0.256 A  
HETATM   31  C   UNL     1     -10.541   6.785  73.141  1.00  0.00    -0.315 A  
HETATM   32  C   UNL     1     -10.591   4.376  72.393  1.00  0.00    -0.102 C  
HETATM   33  O   UNL     1     -10.030   3.550  71.696  1.00  0.00    -0.175 OA 
HETATM   34  C   UNL     1     -10.454   8.133  72.815  1.00  0.00    -0.385 A  
ENDBRANCH   7  26
TORSDOF 4
ENDMDL
MODEL       21
REMARK 921   NORMALIZED FREE ENERGY PREDICTED BY IDOCK:   -7.92 KCAL/MOL
REMARK 922        TOTAL FREE ENERGY PREDICTED BY IDOCK:  -10.92 KCAL/MOL
REMARK 923 INTER-LIGAND FREE ENERGY PREDICTED BY IDOCK:   -9.79 KCAL/MOL
REMARK 924 INTRA-LIGAND FREE ENERGY PREDICTED BY IDOCK:   -1.13 KCAL/MOL
REMARK 927      BINDING AFFINITY PREDICTED BY RF-SCORE:    0.00 PKD
ROOT
HETATM    1  C   UNL     1     -11.758   8.026  72.506  1.00  0.00    -0.446 C  
HETATM    2  C   UNL     1     -11.624   9.005  71.376  1.00  0.00    -0.396 A  
HETATM    3  C   UNL     1     -12.175  10.283  71.563  1.00  0.00    -0.449 A  
HETATM    4  C   UNL     1     -12.162  11.214  70.533  1.00  0.00    -0.475 A  
HETATM    5  C   UNL     1     -11.606  10.846  69.322  1.00  0.00    -0.318 A  
HETATM    6  N   UNL     1     -11.029   9.648  69.140  1.00  0.00    -0.192 NA 
HETATM    7  C   UNL     1     -11.007   8.731  70.148  1.00  0.00    -0.223 A  
ENDROOT
BRANCH   5   8
HETATM    8  N   UNL     1     -11.677  11.772  68.279  1.00  0.00    -0.316 N  
HETATM    9  C   UNL     1     -10.598  12.403  67.708  1.00  0.00    -0.217 C  
HETATM   10  H   UNL     1     -12.602  11.998  67.911  1.00  0.00     0.000 HD 
HETATM   11  O   UNL     1      -9.409  12.273  67.965  1.00  0.00    -0.183 OA 
BRANCH   9  12
HETATM   12  C   UNL     1     -11.010  13.394  66.635  1.00  0.00    -0.297 C  
HETATM   13  C   UNL     1     -12.197  13.048  65.741  1.00  0.00    -0.511 C  
HETATM   14  C   UNL     1     -10.811  12.945  65.193  1.00  0.00    -0.320 C  
BRANCH  12  15
HETATM   15  C   UNL     1     -10.736  14.854  67.000  1.00  0.00    -0.307 A  
HETATM   16  C   UNL     1     -11.088  16.713  68.587  1.00  0.00    -0.294 A  
HETATM   17  C   UNL     1     -11.138  15.352  68.268  1.00  0.00    -0.309 A  
HETATM   18  C   UNL     1     -10.619  17.573  67.623  1.00  0.00    -0.355 A  
HETATM   19  O   UNL     1     -10.555  18.927  67.727  1.00  0.00    -0.415 OA 
HETATM   20  C   UNL     1     -10.073  19.250  66.418  1.00  0.00    -0.429 C  
HETATM   21  F   UNL     1     -11.007  20.010  65.787  1.00  0.00    -0.515 F  
HETATM   22  F   UNL     1      -8.953  20.003  66.544  1.00  0.00    -0.355 F  
HETATM   23  O   UNL     1      -9.774  18.122  65.585  1.00  0.00    -0.442 OA 
HETATM   24  C   UNL     1     -10.182  17.115  66.403  1.00  0.00    -0.328 A  
HETATM   25  C   UNL     1     -10.217  15.775  66.069  1.00  0.00    -0.352 A  
ENDBRANCH  12  15
ENDBRANCH   9  12
ENDBRANCH   5   8
BRANCH   7  26
HETATM   26  C   UNL     1     -10.296   7.476  69.768  1.00  0.00    -0.221 A  
HETATM   27  C   UNL     1     -10.998   6.412  69.160  1.00  0.00    -0.416 A  
HETATM   28  C   UNL     1      -8.271   6.097  69.560  1.00  0.00    -0.116 A  
HETATM   29  O   UNL     1      -6.137   5.235  68.948  1.00  0.00    -0.020 OA 
HETATM   30  C   UNL     1      -8.912   7.292  69.930  1.00  0.00    -0.142 A  
HETATM   31  C   UNL     1      -9.004   5.053  68.994  1.00  0.00    -0.125 A  
HETATM   32  C   UNL     1      -6.818   5.981  69.842  1.00  0.00    -0.064 C  
HETATM   33  O   UNL     1      -6.285   6.539  70.785  1.00  0.00    -0.034 OA 
HETATM   34  C   UNL     1     -10.367   5.220  68.777  1.00  0.00    -0.206 A  
ENDBRANCH   7  26
TORSDOF 4
ENDMDL
MODEL       22
REMARK 921   NORMALIZED FREE ENERGY PREDICTED BY IDOCK:   -7.89 KCAL/MOL
REMARK 922        TOTAL FREE ENERGY PREDICTED BY IDOCK:  -10.88 KCAL/MOL
REMARK 923 INTER-LIGAND FREE ENERGY PREDICTED BY IDOCK:  -10.00 KCAL/MOL
REMARK 924 INTRA-LIGAND FREE ENERGY PREDICTED BY IDOCK:   -0.88 KCAL/MOL
REMARK 927      BINDING AFFINITY PREDICTED BY RF-SCORE:    0.00 PKD
ROOT
HETATM    1  C   UNL     1      -9.004   9.485  62.783  1.00  0.00    -0.243 C  
HETATM    2  C   UNL     1      -9.442  10.530  63.767  1.00  0.00    -0.342 A  
HETATM    3  C   UNL     1     -10.004  11.708  63.247  1.00  0.00    -0.442 A  
HETATM    4  C   UNL     1     -10.357  12.752  64.091  1.00  0.00    -0.401 A  
HETATM    5  C   UNL     1     -10.131  12.606  65.447  1.00  0.00    -0.261 A  
HETATM    6  N   UNL     1      -9.643  11.470  65.968  1.00  0.00    -0.221 NA 
HETATM    7  C   UNL     1      -9.316  10.423  65.159  1.00  0.00    -0.222 A  
ENDROOT
BRANCH   5   8
HETATM    8  N   UNL     1     -10.421  13.701  66.265  1.00  0.00    -0.286 N  
HETATM    9  C   UNL     1      -9.630  14.149  67.295  1.00  0.00    -0.234 C  
HETATM   10  H   UNL     1     -11.288  14.208  66.083  1.00  0.00     0.000 HD 
HETATM   11  O   UNL     1      -8.551  13.721  67.675  1.00  0.00    -0.163 OA 
BRANCH   9  12
HETATM   12  C   UNL     1     -10.250  15.325  68.028  1.00  0.00    -0.230 C  
HETATM   13  C   UNL     1     -10.783  16.496  67.207  1.00  0.00    -0.243 C  
HETATM   14  C   UNL     1      -9.492  16.645  67.945  1.00  0.00    -0.225 C  
BRANCH  12  15
HETATM   15  C   UNL     1     -10.934  14.947  69.343  1.00  0.00    -0.284 A  
HETATM   16  C   UNL     1     -12.389  13.368  70.562  1.00  0.00    -0.401 A  
HETATM   17  C   UNL     1     -11.590  13.692  69.461  1.00  0.00    -0.361 A  
HETATM   18  C   UNL     1     -12.518  14.312  71.552  1.00  0.00    -0.356 A  
HETATM   19  O   UNL     1     -13.296  14.201  72.661  1.00  0.00    -0.480 OA 
HETATM   20  C   UNL     1     -13.079  15.492  73.242  1.00  0.00    -0.543 C  
HETATM   21  F   UNL     1     -14.265  16.153  73.290  1.00  0.00    -0.616 F  
HETATM   22  F   UNL     1     -12.655  15.324  74.519  1.00  0.00    -0.630 F  
HETATM   23  O   UNL     1     -12.131  16.317  72.551  1.00  0.00    -0.509 OA 
HETATM   24  C   UNL     1     -11.860  15.517  71.485  1.00  0.00    -0.406 A  
HETATM   25  C   UNL     1     -11.061  15.856  70.411  1.00  0.00    -0.382 A  
ENDBRANCH  12  15
ENDBRANCH   9  12
ENDBRANCH   5   8
BRANCH   7  26
HETATM   26  C   UNL     1      -8.823   9.239  65.920  1.00  0.00    -0.199 A  
HETATM   27  C   UNL     1      -7.438   8.982  66.023  1.00  0.00    -0.094 A  
HETATM   28  C   UNL     1      -9.172   7.252  67.326  1.00  0.00    -0.148 A  
HETATM   29  O   UNL     1      -9.730   5.773  69.106  1.00  0.00    -0.135 OA 
HETATM   30  C   UNL     1      -9.669   8.359  66.615  1.00  0.00    -0.320 A  
HETATM   31  C   UNL     1      -7.799   7.009  67.376  1.00  0.00    -0.111 A  
HETATM   32  C   UNL     1     -10.160   6.345  67.962  1.00  0.00    -0.148 C  
HETATM   33  O   UNL     1     -11.273   6.159  67.503  1.00  0.00    -0.292 OA 
HETATM   34  C   UNL     1      -6.930   7.888  66.739  1.00  0.00    -0.073 A  
ENDBRANCH   7  26
TORSDOF 4
ENDMDL
MODEL       23
REMARK 921   NORMALIZED FREE ENERGY PREDICTED BY IDOCK:   -7.86 KCAL/MOL
REMARK 922        TOTAL FREE ENERGY PREDICTED BY IDOCK:  -10.84 KCAL/MOL
REMARK 923 INTER-LIGAND FREE ENERGY PREDICTED BY IDOCK:  -10.32 KCAL/MOL
REMARK 924 INTRA-LIGAND FREE ENERGY PREDICTED BY IDOCK:   -0.52 KCAL/MOL
REMARK 927      BINDING AFFINITY PREDICTED BY RF-SCORE:    0.00 PKD
ROOT
HETATM    1  C   UNL     1     -12.837  15.345  71.475  1.00  0.00    -0.499 C  
HETATM    2  C   UNL     1     -12.788  13.877  71.165  1.00  0.00    -0.423 A  
HETATM    3  C   UNL     1     -13.305  12.998  72.130  1.00  0.00    -0.622 A  
HETATM    4  C   UNL     1     -13.220  11.624  71.949  1.00  0.00    -0.475 A  
HETATM    5  C   UNL     1     -12.606  11.149  70.806  1.00  0.00    -0.352 A  
HETATM    6  N   UNL     1     -12.152  11.972  69.848  1.00  0.00    -0.290 NA 
HETATM    7  C   UNL     1     -12.251  13.324  69.994  1.00  0.00    -0.275 A  
ENDROOT
BRANCH   5   8
HETATM    8  N   UNL     1     -12.462   9.764  70.685  1.00  0.00    -0.485 N  
HETATM    9  C   UNL     1     -11.356   9.048  71.073  1.00  0.00    -0.297 C  
HETATM   10  H   UNL     1     -13.240   9.244  70.277  1.00  0.00     0.000 HD 
HETATM   11  O   UNL     1     -10.329   9.449  71.601  1.00  0.00    -0.309 OA 
BRANCH   9  12
HETATM   12  C   UNL     1     -11.487   7.569  70.758  1.00  0.00    -0.305 C  
HETATM   13  C   UNL     1     -12.748   6.837  71.209  1.00  0.00    -0.299 C  
HETATM   14  C   UNL     1     -11.469   6.623  71.952  1.00  0.00    -0.332 C  
BRANCH  12  15
HETATM   15  C   UNL     1     -10.785   7.145  69.467  1.00  0.00    -0.255 A  
HETATM   16  C   UNL     1      -9.923   7.795  67.246  1.00  0.00    -0.277 A  
HETATM   17  C   UNL     1     -10.393   8.129  68.521  1.00  0.00    -0.230 A  
HETATM   18  C   UNL     1      -9.837   6.460  66.932  1.00  0.00    -0.158 A  
HETATM   19  O   UNL     1      -9.462   5.948  65.730  1.00  0.00    -0.076 OA 
HETATM   20  C   UNL     1      -9.645   4.552  65.991  1.00  0.00    -0.189 C  
HETATM   21  F   UNL     1     -10.596   4.073  65.148  1.00  0.00    -0.218 F  
HETATM   22  F   UNL     1      -8.488   3.905  65.708  1.00  0.00    -0.106 F  
HETATM   23  O   UNL     1     -10.031   4.231  67.334  1.00  0.00    -0.164 OA 
HETATM   24  C   UNL     1     -10.167   5.486  67.843  1.00  0.00    -0.181 A  
HETATM   25  C   UNL     1     -10.628   5.792  69.108  1.00  0.00    -0.365 A  
ENDBRANCH  12  15
ENDBRANCH   9  12
ENDBRANCH   5   8
BRANCH   7  26
HETATM   26  C   UNL     1     -11.724  14.071  68.816  1.00  0.00    -0.388 A  
HETATM   27  C   UNL     1     -11.583  13.427  67.566  1.00  0.00    -0.382 A  
HETATM   28  C   UNL     1     -10.906  16.113  67.718  1.00  0.00    -0.318 A  
HETATM   29  O   UNL     1     -10.717  18.294  66.783  1.00  0.00    -0.342 OA 
HETATM   30  C   UNL     1     -11.398  15.437  68.848  1.00  0.00    -0.322 A  
HETATM   31  C   UNL     1     -10.745  15.434  66.509  1.00  0.00    -0.308 A  
HETATM   32  C   UNL     1     -10.523  17.538  67.883  1.00  0.00    -0.384 C  
HETATM   33  O   UNL     1     -10.099  17.987  68.933  1.00  0.00    -0.375 OA 
HETATM   34  C   UNL     1     -11.103  14.094  66.429  1.00  0.00    -0.320 A  
ENDBRANCH   7  26
TORSDOF 4
ENDMDL
MODEL       24
REMARK 921   NORMALIZED FREE ENERGY PREDICTED BY IDOCK:   -7.85 KCAL/MOL
REMARK 922        TOTAL FREE ENERGY PREDICTED BY IDOCK:  -10.83 KCAL/MOL
REMARK 923 INTER-LIGAND FREE ENERGY PREDICTED BY IDOCK:   -9.83 KCAL/MOL
REMARK 924 INTRA-LIGAND FREE ENERGY PREDICTED BY IDOCK:   -1.00 KCAL/MOL
REMARK 927      BINDING AFFINITY PREDICTED BY RF-SCORE:    0.00 PKD
ROOT
HETATM    1  C   UNL     1      -9.337  11.585  62.721  1.00  0.00    -0.222 C  
HETATM    2  C   UNL     1      -9.678  11.090  64.096  1.00  0.00    -0.332 A  
HETATM    3  C   UNL     1      -9.341   9.763  64.405  1.00  0.00    -0.278 A  
HETATM    4  C   UNL     1      -9.697   9.210  65.627  1.00  0.00    -0.247 A  
HETATM    5  C   UNL     1     -10.401   9.995  66.522  1.00  0.00    -0.198 A  
HETATM    6  N   UNL     1     -10.688  11.280  66.267  1.00  0.00    -0.268 NA 
HETATM    7  C   UNL     1     -10.322  11.849  65.084  1.00  0.00    -0.277 A  
ENDROOT
BRANCH   5   8
HETATM    8  N   UNL     1     -10.817   9.391  67.712  1.00  0.00    -0.470 N  
HETATM    9  C   UNL     1      -9.981   8.833  68.648  1.00  0.00    -0.182 C  
HETATM   10  H   UNL     1     -11.819   9.363  67.900  1.00  0.00     0.000 HD 
HETATM   11  O   UNL     1      -8.760   8.772  68.647  1.00  0.00    -0.132 OA 
BRANCH   9  12
HETATM   12  C   UNL     1     -10.744   8.208  69.802  1.00  0.00    -0.229 C  
HETATM   13  C   UNL     1     -10.174   6.955  70.460  1.00  0.00    -0.209 C  
HETATM   14  C   UNL     1     -11.348   6.833  69.544  1.00  0.00    -0.292 C  
BRANCH  12  15
HETATM   15  C   UNL     1     -11.531   9.215  70.643  1.00  0.00    -0.310 A  
HETATM   16  C   UNL     1     -13.474   9.653  72.102  1.00  0.00    -0.516 A  
HETATM   17  C   UNL     1     -12.602   8.767  71.462  1.00  0.00    -0.372 A  
HETATM   18  C   UNL     1     -13.256  10.998  71.923  1.00  0.00    -0.398 A  
HETATM   19  O   UNL     1     -14.031  12.002  72.413  1.00  0.00    -0.015 OA 
HETATM   20  C   UNL     1     -13.360  13.130  71.840  1.00  0.00    -0.455 C  
HETATM   21  F   UNL     1     -14.222  13.771  71.008  1.00  0.00    -0.066 F  
HETATM   22  F   UNL     1     -13.039  13.992  72.835  1.00  0.00    -0.513 F  
HETATM   23  O   UNL     1     -12.171  12.819  71.103  1.00  0.00    -0.247 OA 
HETATM   24  C   UNL     1     -12.202  11.461  71.172  1.00  0.00    -0.224 A  
HETATM   25  C   UNL     1     -11.325  10.605  70.536  1.00  0.00    -0.355 A  
ENDBRANCH  12  15
ENDBRANCH   9  12
ENDBRANCH   5   8
BRANCH   7  26
HETATM   26  C   UNL     1     -10.697  13.290  64.997  1.00  0.00    -0.346 A  
HETATM   27  C   UNL     1     -11.888  13.680  64.344  1.00  0.00    -0.460 A  
HETATM   28  C   UNL     1     -10.332  15.671  65.491  1.00  0.00    -0.421 A  
HETATM   29  O   UNL     1     -10.064  17.771  66.579  1.00  0.00    -0.326 OA 
HETATM   30  C   UNL     1      -9.950  14.321  65.589  1.00  0.00    -0.346 A  
HETATM   31  C   UNL     1     -11.497  16.022  64.807  1.00  0.00    -0.201 A  
HETATM   32  C   UNL     1      -9.429  16.686  66.090  1.00  0.00    -0.287 C  
HETATM   33  O   UNL     1      -8.223  16.534  66.160  1.00  0.00    -0.321 OA 
HETATM   34  C   UNL     1     -12.285  15.022  64.250  1.00  0.00    -0.312 A  
ENDBRANCH   7  26
TORSDOF 4
ENDMDL
MODEL       25
REMARK 921   NORMALIZED FREE ENERGY PREDICTED BY IDOCK:   -7.81 KCAL/MOL
REMARK 922        TOTAL FREE ENERGY PREDICTED BY IDOCK:  -10.78 KCAL/MOL
REMARK 923 INTER-LIGAND FREE ENERGY PREDICTED BY IDOCK:   -9.65 KCAL/MOL
REMARK 924 INTRA-LIGAND FREE ENERGY PREDICTED BY IDOCK:   -1.13 KCAL/MOL
REMARK 927      BINDING AFFINITY PREDICTED BY RF-SCORE:    0.00 PKD
ROOT
HETATM    1  C   UNL     1     -12.095  14.418  64.339  1.00  0.00    -0.491 C  
HETATM    2  C   UNL     1     -11.449  13.208  64.948  1.00  0.00    -0.337 A  
HETATM    3  C   UNL     1     -11.167  12.130  64.094  1.00  0.00    -0.433 A  
HETATM    4  C   UNL     1     -10.645  10.947  64.600  1.00  0.00    -0.332 A  
HETATM    5  C   UNL     1     -10.424  10.857  65.962  1.00  0.00    -0.225 A  
HETATM    6  N   UNL     1     -10.639  11.893  66.787  1.00  0.00    -0.221 NA 
HETATM    7  C   UNL     1     -11.125  13.071  66.305  1.00  0.00    -0.289 A  
ENDROOT
BRANCH   5   8
HETATM    8  N   UNL     1      -9.974   9.630  66.456  1.00  0.00    -0.230 N  
HETATM    9  C   UNL     1      -8.662   9.317  66.717  1.00  0.00    -0.127 C  
HETATM   10  H   UNL     1     -10.674   8.910  66.637  1.00  0.00     0.000 HD 
HETATM   11  O   UNL     1      -7.668  10.020  66.601  1.00  0.00    -0.102 OA 
BRANCH   9  12
HETATM   12  C   UNL     1      -8.494   7.886  67.193  1.00  0.00    -0.117 C  
HETATM   13  C   UNL     1      -7.146   7.202  66.986  1.00  0.00    -0.090 C  
HETATM   14  C   UNL     1      -8.297   6.835  66.107  1.00  0.00    -0.130 C  
BRANCH  12  15
HETATM   15  C   UNL     1      -9.343   7.534  68.416  1.00  0.00    -0.141 A  
HETATM   16  C   UNL     1     -11.240   6.256  69.347  1.00  0.00    -0.489 A  
HETATM   17  C   UNL     1     -10.308   6.496  68.331  1.00  0.00    -0.220 A  
HETATM   18  C   UNL     1     -11.187   7.062  70.459  1.00  0.00    -0.295 A  
HETATM   19  O   UNL     1     -12.042   7.019  71.514  1.00  0.00    -0.311 OA 
HETATM   20  C   UNL     1     -11.537   8.117  72.283  1.00  0.00    -0.374 C  
HETATM   21  F   UNL     1     -12.511   9.059  72.387  1.00  0.00    -0.417 F  
HETATM   22  F   UNL     1     -11.262   7.677  73.534  1.00  0.00    -0.411 F  
HETATM   23  O   UNL     1     -10.362   8.742  71.749  1.00  0.00    -0.286 OA 
HETATM   24  C   UNL     1     -10.235   8.045  70.588  1.00  0.00    -0.196 A  
HETATM   25  C   UNL     1      -9.303   8.297  69.600  1.00  0.00    -0.158 A  
ENDBRANCH  12  15
ENDBRANCH   9  12
ENDBRANCH   5   8
BRANCH   7  26
HETATM   26  C   UNL     1     -11.266  14.112  67.364  1.00  0.00    -0.334 A  
HETATM   27  C   UNL     1     -11.853  13.791  68.609  1.00  0.00    -0.409 A  
HETATM   28  C   UNL     1     -10.935  16.383  68.246  1.00  0.00    -0.355 A  
HETATM   29  O   UNL     1      -9.989  18.415  69.049  1.00  0.00    -0.365 OA 
HETATM   30  C   UNL     1     -10.788  15.426  67.227  1.00  0.00    -0.316 A  
HETATM   31  C   UNL     1     -11.553  16.038  69.449  1.00  0.00    -0.320 A  
HETATM   32  C   UNL     1     -10.460  17.762  67.967  1.00  0.00    -0.394 C  
HETATM   33  O   UNL     1     -10.469  18.246  66.849  1.00  0.00    -0.374 OA 
HETATM   34  C   UNL     1     -11.994  14.734  69.637  1.00  0.00    -0.360 A  
ENDBRANCH   7  26
TORSDOF 4
ENDMDL
MODEL       26
REMARK 921   NORMALIZED FREE ENERGY PREDICTED BY IDOCK:   -7.76 KCAL/MOL
REMARK 922        TOTAL FREE ENERGY PREDICTED BY IDOCK:  -10.71 KCAL/MOL
REMARK 923 INTER-LIGAND FREE ENERGY PREDICTED BY IDOCK:   -9.90 KCAL/MOL
REMARK 924 INTRA-LIGAND FREE ENERGY PREDICTED BY IDOCK:   -0.81 KCAL/MOL
REMARK 927      BINDING AFFINITY PREDICTED BY RF-SCORE:    0.00 PKD
ROOT
HETATM    1  C   UNL     1     -11.519  15.203  66.068  1.00  0.00    -0.157 C  
HETATM    2  C   UNL     1     -11.342  13.797  66.564  1.00  0.00    -0.336 A  
HETATM    3  C   UNL     1     -11.116  12.799  65.603  1.00  0.00    -0.311 A  
HETATM    4  C   UNL     1     -11.024  11.466  65.979  1.00  0.00    -0.286 A  
HETATM    5  C   UNL     1     -11.173  11.149  67.316  1.00  0.00    -0.277 A  
HETATM    6  N   UNL     1     -11.338  12.092  68.256  1.00  0.00    -0.265 NA 
HETATM    7  C   UNL     1     -11.403  13.409  67.910  1.00  0.00    -0.289 A  
ENDROOT
BRANCH   5   8
HETATM    8  N   UNL     1     -11.155   9.794  67.658  1.00  0.00    -0.455 N  
HETATM    9  C   UNL     1     -10.025   9.064  67.933  1.00  0.00    -0.178 C  
HETATM   10  H   UNL     1     -12.052   9.310  67.708  1.00  0.00     0.000 HD 
HETATM   11  O   UNL     1      -8.860   9.433  67.958  1.00  0.00    -0.124 OA 
BRANCH   9  12
HETATM   12  C   UNL     1     -10.336   7.605  68.215  1.00  0.00    -0.238 C  
HETATM   13  C   UNL     1      -9.701   6.539  67.328  1.00  0.00    -0.160 C  
HETATM   14  C   UNL     1     -11.147   6.872  67.154  1.00  0.00    -0.362 C  
BRANCH  12  15
HETATM   15  C   UNL     1     -10.604   7.302  69.691  1.00  0.00    -0.246 A  
HETATM   16  C   UNL     1     -11.364   8.131  71.889  1.00  0.00    -0.356 A  
HETATM   17  C   UNL     1     -11.260   8.267  70.501  1.00  0.00    -0.247 A  
HETATM   18  C   UNL     1     -10.812   7.008  72.459  1.00  0.00    -0.252 A  
HETATM   19  O   UNL     1     -10.762   6.734  73.790  1.00  0.00    -0.325 OA 
HETATM   20  C   UNL     1     -10.021   5.509  73.759  1.00  0.00    -0.189 C  
HETATM   21  F   UNL     1      -8.854   5.690  74.431  1.00  0.00    -0.119 F  
HETATM   22  F   UNL     1     -10.727   4.560  74.420  1.00  0.00    -0.278 F  
HETATM   23  O   UNL     1      -9.713   5.019  72.447  1.00  0.00    -0.146 OA 
HETATM   24  C   UNL     1     -10.210   6.037  71.695  1.00  0.00    -0.201 A  
HETATM   25  C   UNL     1     -10.101   6.148  70.323  1.00  0.00    -0.237 A  
ENDBRANCH  12  15
ENDBRANCH   9  12
ENDBRANCH   5   8
BRANCH   7  26
HETATM   26  C   UNL     1     -11.555  14.308  69.090  1.00  0.00    -0.346 A  
HETATM   27  C   UNL     1     -10.732  15.447  69.233  1.00  0.00    -0.251 A  
HETATM   28  C   UNL     1     -12.654  14.993  71.181  1.00  0.00    -0.416 A  
HETATM   29  O   UNL     1     -14.224  15.741  72.807  1.00  0.00    -0.539 OA 
HETATM   30  C   UNL     1     -12.535  14.125  70.080  1.00  0.00    -0.391 A  
HETATM   31  C   UNL     1     -11.798  16.088  71.306  1.00  0.00    -0.502 A  
HETATM   32  C   UNL     1     -13.675  14.664  72.207  1.00  0.00    -0.460 C  
HETATM   33  O   UNL     1     -14.009  13.520  72.460  1.00  0.00    -0.701 OA 
HETATM   34  C   UNL     1     -10.849  16.326  70.319  1.00  0.00    -0.257 A  
ENDBRANCH   7  26
TORSDOF 4
ENDMDL
MODEL       27
REMARK 921   NORMALIZED FREE ENERGY PREDICTED BY IDOCK:   -7.73 KCAL/MOL
REMARK 922        TOTAL FREE ENERGY PREDICTED BY IDOCK:  -10.68 KCAL/MOL
REMARK 923 INTER-LIGAND FREE ENERGY PREDICTED BY IDOCK:   -9.43 KCAL/MOL
REMARK 924 INTRA-LIGAND FREE ENERGY PREDICTED BY IDOCK:   -1.25 KCAL/MOL
REMARK 927      BINDING AFFINITY PREDICTED BY RF-SCORE:    0.00 PKD
ROOT
HETATM    1  C   UNL     1      -9.063   2.888  69.917  1.00  0.00    -0.191 C  
HETATM    2  C   UNL     1      -9.678   4.255  70.000  1.00  0.00    -0.287 A  
HETATM    3  C   UNL     1     -10.244   4.633  71.227  1.00  0.00    -0.205 A  
HETATM    4  C   UNL     1     -10.901   5.849  71.356  1.00  0.00    -0.332 A  
HETATM    5  C   UNL     1     -10.994   6.666  70.245  1.00  0.00    -0.303 A  
HETATM    6  N   UNL     1     -10.416   6.345  69.077  1.00  0.00    -0.201 NA 
HETATM    7  C   UNL     1      -9.742   5.169  68.939  1.00  0.00    -0.156 A  
ENDROOT
BRANCH   5   8
HETATM    8  N   UNL     1     -11.729   7.847  70.379  1.00  0.00    -0.471 N  
HETATM    9  C   UNL     1     -11.208   9.063  70.751  1.00  0.00    -0.275 C  
HETATM   10  H   UNL     1     -12.730   7.803  70.186  1.00  0.00     0.000 HD 
HETATM   11  O   UNL     1     -10.049   9.356  71.005  1.00  0.00    -0.288 OA 
BRANCH   9  12
HETATM   12  C   UNL     1     -12.275  10.137  70.859  1.00  0.00    -0.455 C  
HETATM   13  C   UNL     1     -12.969  10.342  72.203  1.00  0.00    -0.410 C  
HETATM   14  C   UNL     1     -13.699   9.650  71.098  1.00  0.00    -0.156 C  
BRANCH  12  15
HETATM   15  C   UNL     1     -12.048  11.333  69.933  1.00  0.00    -0.414 A  
HETATM   16  C   UNL     1     -12.117  13.783  69.628  1.00  0.00    -0.392 A  
HETATM   17  C   UNL     1     -12.126  12.653  70.453  1.00  0.00    -0.381 A  
HETATM   18  C   UNL     1     -12.019  13.577  68.272  1.00  0.00    -0.342 A  
HETATM   19  O   UNL     1     -12.055  14.543  67.317  1.00  0.00    -0.392 OA 
HETATM   20  C   UNL     1     -11.992  13.726  66.142  1.00  0.00    -0.418 C  
HETATM   21  F   UNL     1     -13.131  13.908  65.424  1.00  0.00    -0.523 F  
HETATM   22  F   UNL     1     -10.957  14.152  65.376  1.00  0.00    -0.295 F  
HETATM   23  O   UNL     1     -11.832  12.323  66.386  1.00  0.00    -0.529 OA 
HETATM   24  C   UNL     1     -11.899  12.314  67.745  1.00  0.00    -0.273 A  
HETATM   25  C   UNL     1     -11.899  11.185  68.540  1.00  0.00    -0.330 A  
ENDBRANCH  12  15
ENDBRANCH   9  12
ENDBRANCH   5   8
BRANCH   7  26
HETATM   26  C   UNL     1      -9.143   5.005  67.583  1.00  0.00    -0.121 A  
HETATM   27  C   UNL     1      -7.809   5.401  67.339  1.00  0.00    -0.101 A  
HETATM   28  C   UNL     1      -9.224   4.268  65.239  1.00  0.00    -0.153 A  
HETATM   29  O   UNL     1      -9.361   2.970  63.247  1.00  0.00    -0.094 OA 
HETATM   30  C   UNL     1      -9.819   4.410  66.505  1.00  0.00    -0.247 A  
HETATM   31  C   UNL     1      -7.915   4.704  65.025  1.00  0.00    -0.096 A  
HETATM   32  C   UNL     1     -10.055   3.693  64.150  1.00  0.00    -0.212 C  
HETATM   33  O   UNL     1     -11.263   3.839  64.099  1.00  0.00    -0.317 OA 
HETATM   34  C   UNL     1      -7.201   5.253  66.083  1.00  0.00    -0.073 A  
ENDBRANCH   7  26
TORSDOF 4
ENDMDL
MODEL       28
REMARK 921   NORMALIZED FREE ENERGY PREDICTED BY IDOCK:   -7.73 KCAL/MOL
REMARK 922        TOTAL FREE ENERGY PREDICTED BY IDOCK:  -10.68 KCAL/MOL
REMARK 923 INTER-LIGAND FREE ENERGY PREDICTED BY IDOCK:  -10.18 KCAL/MOL
REMARK 924 INTRA-LIGAND FREE ENERGY PREDICTED BY IDOCK:   -0.50 KCAL/MOL
REMARK 927      BINDING AFFINITY PREDICTED BY RF-SCORE:    0.00 PKD
ROOT
HETATM    1  C   UNL     1      -8.554   6.243  68.214  1.00  0.00    -0.117 C  
HETATM    2  C   UNL     1      -9.071   7.538  67.658  1.00  0.00    -0.127 A  
HETATM    3  C   UNL     1      -8.858   7.783  66.293  1.00  0.00    -0.187 A  
HETATM    4  C   UNL     1      -9.235   8.993  65.726  1.00  0.00    -0.293 A  
HETATM    5  C   UNL     1      -9.813   9.948  66.542  1.00  0.00    -0.215 A  
HETATM    6  N   UNL     1     -10.072   9.713  67.838  1.00  0.00    -0.170 NA 
HETATM    7  C   UNL     1      -9.734   8.522  68.405  1.00  0.00    -0.155 A  
ENDROOT
BRANCH   5   8
HETATM    8  N   UNL     1     -10.111  11.185  65.966  1.00  0.00    -0.236 N  
HETATM    9  C   UNL     1     -11.211  11.951  66.264  1.00  0.00    -0.337 C  
HETATM   10  H   UNL     1      -9.460  11.549  65.268  1.00  0.00     0.000 HD 
HETATM   11  O   UNL     1     -12.101  11.732  67.073  1.00  0.00    -0.575 OA 
BRANCH   9  12
HETATM   12  C   UNL     1     -11.279  13.215  65.427  1.00  0.00    -0.315 C  
HETATM   13  C   UNL     1     -12.278  13.274  64.276  1.00  0.00    -0.454 C  
HETATM   14  C   UNL     1     -10.826  13.087  63.977  1.00  0.00    -0.408 C  
BRANCH  12  15
HETATM   15  C   UNL     1     -10.935  14.491  66.199  1.00  0.00    -0.322 A  
HETATM   16  C   UNL     1     -11.168  15.802  68.278  1.00  0.00    -0.356 A  
HETATM   17  C   UNL     1     -11.283  14.600  67.571  1.00  0.00    -0.343 A  
HETATM   18  C   UNL     1     -10.689  16.895  67.597  1.00  0.00    -0.290 A  
HETATM   19  O   UNL     1     -10.566  18.153  68.096  1.00  0.00    -0.372 OA 
HETATM   20  C   UNL     1     -10.106  18.837  66.925  1.00  0.00    -0.358 C  
HETATM   21  F   UNL     1     -11.023  19.780  66.584  1.00  0.00    -0.563 F  
HETATM   22  F   UNL     1      -8.953  19.482  67.227  1.00  0.00    -0.304 F  
HETATM   23  O   UNL     1      -9.876  18.000  65.784  1.00  0.00    -0.539 OA 
HETATM   24  C   UNL     1     -10.304  16.807  66.280  1.00  0.00    -0.310 A  
HETATM   25  C   UNL     1     -10.403  15.631  65.565  1.00  0.00    -0.421 A  
ENDBRANCH  12  15
ENDBRANCH   9  12
ENDBRANCH   5   8
BRANCH   7  26
HETATM   26  C   UNL     1     -10.130   8.435  69.841  1.00  0.00    -0.195 A  
HETATM   27  C   UNL     1      -9.145   8.355  70.850  1.00  0.00    -0.190 A  
HETATM   28  C   UNL     1     -11.804   8.403  71.642  1.00  0.00    -0.357 A  
HETATM   29  O   UNL     1     -13.537   8.974  73.171  1.00  0.00    -0.214 OA 
HETATM   30  C   UNL     1     -11.463   8.485  70.280  1.00  0.00    -0.064 A  
HETATM   31  C   UNL     1     -10.804   8.288  72.609  1.00  0.00    -0.381 A  
HETATM   32  C   UNL     1     -13.247   8.390  71.990  1.00  0.00    -0.346 C  
HETATM   33  O   UNL     1     -14.096   7.920  71.254  1.00  0.00    -0.326 OA 
HETATM   34  C   UNL     1      -9.472   8.284  72.212  1.00  0.00    -0.341 A  
ENDBRANCH   7  26
TORSDOF 4
ENDMDL
MODEL       29
REMARK 921   NORMALIZED FREE ENERGY PREDICTED BY IDOCK:   -7.69 KCAL/MOL
REMARK 922        TOTAL FREE ENERGY PREDICTED BY IDOCK:  -10.63 KCAL/MOL
REMARK 923 INTER-LIGAND FREE ENERGY PREDICTED BY IDOCK:   -9.56 KCAL/MOL
REMARK 924 INTRA-LIGAND FREE ENERGY PREDICTED BY IDOCK:   -1.07 KCAL/MOL
REMARK 927      BINDING AFFINITY PREDICTED BY RF-SCORE:    0.00 PKD
ROOT
HETATM    1  C   UNL     1      -8.538   2.904  69.410  1.00  0.00    -0.115 C  
HETATM    2  C   UNL     1      -9.398   4.102  69.690  1.00  0.00    -0.241 A  
HETATM    3  C   UNL     1      -9.909   4.239  70.990  1.00  0.00    -0.251 A  
HETATM    4  C   UNL     1     -10.777   5.276  71.301  1.00  0.00    -0.198 A  
HETATM    5  C   UNL     1     -11.132   6.158  70.298  1.00  0.00    -0.366 A  
HETATM    6  N   UNL     1     -10.614   6.075  69.063  1.00  0.00    -0.258 NA 
HETATM    7  C   UNL     1      -9.739   5.080  68.745  1.00  0.00    -0.161 A  
ENDROOT
BRANCH   5   8
HETATM    8  N   UNL     1     -12.068   7.146  70.616  1.00  0.00    -0.543 N  
HETATM    9  C   UNL     1     -11.829   8.228  71.428  1.00  0.00    -0.293 C  
HETATM   10  H   UNL     1     -13.001   7.057  70.214  1.00  0.00     0.000 HD 
HETATM   11  O   UNL     1     -10.793   8.549  71.994  1.00  0.00    -0.286 OA 
BRANCH   9  12
HETATM   12  C   UNL     1     -13.065   9.087  71.623  1.00  0.00    -0.420 C  
HETATM   13  C   UNL     1     -14.006   8.759  72.778  1.00  0.00    -0.216 C  
HETATM   14  C   UNL     1     -14.405   8.402  71.383  1.00  0.00    -0.425 C  
BRANCH  12  15
HETATM   15  C   UNL     1     -12.888  10.540  71.177  1.00  0.00    -0.513 A  
HETATM   16  C   UNL     1     -11.855  12.129  69.594  1.00  0.00    -0.391 A  
HETATM   17  C   UNL     1     -12.214  10.827  69.960  1.00  0.00    -0.409 A  
HETATM   18  C   UNL     1     -12.188  13.145  70.458  1.00  0.00    -0.328 A  
HETATM   19  O   UNL     1     -11.870  14.457  70.302  1.00  0.00    -0.281 OA 
HETATM   20  C   UNL     1     -12.401  14.984  71.524  1.00  0.00    -0.335 C  
HETATM   21  F   UNL     1     -11.381  15.511  72.250  1.00  0.00    -0.473 F  
HETATM   22  F   UNL     1     -13.251  15.995  71.224  1.00  0.00    -0.522 F  
HETATM   23  O   UNL     1     -13.093  14.033  72.344  1.00  0.00    -0.405 OA 
HETATM   24  C   UNL     1     -12.877  12.901  71.621  1.00  0.00    -0.268 A  
HETATM   25  C   UNL     1     -13.247  11.626  72.000  1.00  0.00    -0.443 A  
ENDBRANCH  12  15
ENDBRANCH   9  12
ENDBRANCH   5   8
BRANCH   7  26
HETATM   26  C   UNL     1      -9.249   5.171  67.340  1.00  0.00    -0.121 A  
HETATM   27  C   UNL     1      -8.122   5.963  67.026  1.00  0.00    -0.102 A  
HETATM   28  C   UNL     1      -9.329   4.560  64.960  1.00  0.00    -0.157 A  
HETATM   29  O   UNL     1      -9.262   3.380  62.892  1.00  0.00    -0.092 OA 
HETATM   30  C   UNL     1      -9.817   4.454  66.274  1.00  0.00    -0.244 A  
HETATM   31  C   UNL     1      -8.235   5.381  64.681  1.00  0.00    -0.133 A  
HETATM   32  C   UNL     1     -10.050   3.815  63.897  1.00  0.00    -0.207 C  
HETATM   33  O   UNL     1     -11.247   3.591  63.948  1.00  0.00    -0.286 OA 
HETATM   34  C   UNL     1      -7.619   6.068  65.720  1.00  0.00    -0.084 A  
ENDBRANCH   7  26
TORSDOF 4
ENDMDL
MODEL       30
REMARK 921   NORMALIZED FREE ENERGY PREDICTED BY IDOCK:   -7.66 KCAL/MOL
REMARK 922        TOTAL FREE ENERGY PREDICTED BY IDOCK:  -10.60 KCAL/MOL
REMARK 923 INTER-LIGAND FREE ENERGY PREDICTED BY IDOCK:   -9.84 KCAL/MOL
REMARK 924 INTRA-LIGAND FREE ENERGY PREDICTED BY IDOCK:   -0.76 KCAL/MOL
REMARK 927      BINDING AFFINITY PREDICTED BY RF-SCORE:    0.00 PKD
ROOT
HETATM    1  C   UNL     1     -12.868  15.174  71.392  1.00  0.00    -0.457 C  
HETATM    2  C   UNL     1     -12.722  13.727  71.020  1.00  0.00    -0.416 A  
HETATM    3  C   UNL     1     -13.199  12.775  71.935  1.00  0.00    -0.511 A  
HETATM    4  C   UNL     1     -13.025  11.419  71.697  1.00  0.00    -0.523 A  
HETATM    5  C   UNL     1     -12.363  11.034  70.546  1.00  0.00    -0.373 A  
HETATM    6  N   UNL     1     -11.945  11.926  69.634  1.00  0.00    -0.309 NA 
HETATM    7  C   UNL     1     -12.131  13.260  69.837  1.00  0.00    -0.308 A  
ENDROOT
BRANCH   5   8
HETATM    8  N   UNL     1     -12.131   9.668  70.368  1.00  0.00    -0.459 N  
HETATM    9  C   UNL     1     -11.051   8.979  70.864  1.00  0.00    -0.280 C  
HETATM   10  H   UNL     1     -12.818   9.140  69.828  1.00  0.00     0.000 HD 
HETATM   11  O   UNL     1     -10.128   9.391  71.551  1.00  0.00    -0.288 OA 
BRANCH   9  12
HETATM   12  C   UNL     1     -11.060   7.518  70.451  1.00  0.00    -0.277 C  
HETATM   13  C   UNL     1     -12.105   6.592  71.067  1.00  0.00    -0.384 C  
HETATM   14  C   UNL     1     -10.687   6.511  71.532  1.00  0.00    -0.275 C  
BRANCH  12  15
HETATM   15  C   UNL     1     -10.583   7.276  69.018  1.00  0.00    -0.214 A  
HETATM   16  C   UNL     1     -10.604   5.815  67.027  1.00  0.00    -0.373 A  
HETATM   17  C   UNL     1     -11.129   6.203  68.264  1.00  0.00    -0.336 A  
HETATM   18  C   UNL     1      -9.528   6.522  66.545  1.00  0.00    -0.154 A  
HETATM   19  O   UNL     1      -8.849   6.254  65.398  1.00  0.00    -0.104 OA 
HETATM   20  C   UNL     1      -7.825   7.252  65.483  1.00  0.00    -0.115 C  
HETATM   21  F   UNL     1      -6.619   6.630  65.554  1.00  0.00    -0.044 F  
HETATM   22  F   UNL     1      -7.839   7.982  64.341  1.00  0.00    -0.108 F  
HETATM   23  O   UNL     1      -7.938   8.145  66.598  1.00  0.00    -0.099 OA 
HETATM   24  C   UNL     1      -9.007   7.592  67.232  1.00  0.00    -0.124 A  
HETATM   25  C   UNL     1      -9.513   7.996  68.452  1.00  0.00    -0.148 A  
ENDBRANCH  12  15
ENDBRANCH   9  12
ENDBRANCH   5   8
BRANCH   7  26
HETATM   26  C   UNL     1     -11.632  14.090  68.703  1.00  0.00    -0.360 A  
HETATM   27  C   UNL     1     -11.536  13.543  67.404  1.00  0.00    -0.392 A  
HETATM   28  C   UNL     1     -10.824  16.203  67.738  1.00  0.00    -0.318 A  
HETATM   29  O   UNL     1     -10.638  18.447  66.966  1.00  0.00    -0.395 OA 
HETATM   30  C   UNL     1     -11.289  15.447  68.829  1.00  0.00    -0.328 A  
HETATM   31  C   UNL     1     -10.708  15.617  66.476  1.00  0.00    -0.293 A  
HETATM   32  C   UNL     1     -10.419  17.607  67.999  1.00  0.00    -0.394 C  
HETATM   33  O   UNL     1      -9.958  17.971  69.066  1.00  0.00    -0.357 OA 
HETATM   34  C   UNL     1     -11.084  14.290  66.307  1.00  0.00    -0.323 A  
ENDBRANCH   7  26
TORSDOF 4
ENDMDL
MODEL       31
REMARK 921   NORMALIZED FREE ENERGY PREDICTED BY IDOCK:   -7.59 KCAL/MOL
REMARK 922        TOTAL FREE ENERGY PREDICTED BY IDOCK:  -10.51 KCAL/MOL
REMARK 923 INTER-LIGAND FREE ENERGY PREDICTED BY IDOCK:   -9.82 KCAL/MOL
REMARK 924 INTRA-LIGAND FREE ENERGY PREDICTED BY IDOCK:   -0.69 KCAL/MOL
REMARK 927      BINDING AFFINITY PREDICTED BY RF-SCORE:    0.00 PKD
ROOT
HETATM    1  C   UNL     1     -10.698  16.348  64.553  1.00  0.00     0.325 C  
HETATM    2  C   UNL     1     -11.110  15.729  65.857  1.00  0.00    -0.103 A  
HETATM    3  C   UNL     1     -11.743  14.477  65.803  1.00  0.00    -0.344 A  
HETATM    4  C   UNL     1     -12.225  13.880  66.960  1.00  0.00    -0.392 A  
HETATM    5  C   UNL     1     -12.077  14.555  68.157  1.00  0.00    -0.197 A  
HETATM    6  N   UNL     1     -11.430  15.727  68.237  1.00  0.00    -0.360 NA 
HETATM    7  C   UNL     1     -10.925  16.316  67.117  1.00  0.00    -0.114 A  
ENDROOT
BRANCH   5   8
HETATM    8  N   UNL     1     -12.640  13.970  69.295  1.00  0.00    -0.380 N  
HETATM    9  C   UNL     1     -12.146  14.088  70.571  1.00  0.00    -0.353 C  
HETATM   10  H   UNL     1     -13.485  13.412  69.167  1.00  0.00     0.000 HD 
HETATM   11  O   UNL     1     -11.173  14.717  70.962  1.00  0.00    -0.209 OA 
BRANCH   9  12
HETATM   12  C   UNL     1     -12.953  13.289  71.578  1.00  0.00    -0.426 C  
HETATM   13  C   UNL     1     -14.247  13.892  72.118  1.00  0.00    -0.595 C  
HETATM   14  C   UNL     1     -13.031  13.866  72.986  1.00  0.00    -0.214 C  
BRANCH  12  15
HETATM   15  C   UNL     1     -12.836  11.774  71.405  1.00  0.00    -0.440 A  
HETATM   16  C   UNL     1     -13.458   9.524  72.212  1.00  0.00    -0.521 A  
HETATM   17  C   UNL     1     -13.649  10.910  72.186  1.00  0.00    -0.092 A  
HETATM   18  C   UNL     1     -12.447   9.009  71.435  1.00  0.00    -0.317 A  
HETATM   19  O   UNL     1     -12.074   7.704  71.378  1.00  0.00    -0.298 OA 
HETATM   20  C   UNL     1     -10.955   7.808  70.490  1.00  0.00    -0.245 C  
HETATM   21  F   UNL     1      -9.837   7.407  71.151  1.00  0.00    -0.174 F  
HETATM   22  F   UNL     1     -11.144   6.953  69.456  1.00  0.00    -0.251 F  
HETATM   23  O   UNL     1     -10.719   9.119  69.962  1.00  0.00    -0.219 OA 
HETATM   24  C   UNL     1     -11.673   9.817  70.636  1.00  0.00    -0.300 A  
HETATM   25  C   UNL     1     -11.848  11.186  70.591  1.00  0.00    -0.403 A  
ENDBRANCH  12  15
ENDBRANCH   9  12
ENDBRANCH   5   8
BRANCH   7  26
HETATM   26  C   UNL     1     -10.213  17.593  67.408  1.00  0.00    -0.345 A  
HETATM   27  C   UNL     1     -10.786  18.831  67.039  1.00  0.00    -0.435 A  
HETATM   28  C   UNL     1      -8.347  18.881  68.360  1.00  0.00    -0.382 A  
HETATM   29  O   UNL     1      -6.771  19.882  69.838  1.00  0.00    -0.346 OA 
HETATM   30  C   UNL     1      -8.992  17.659  68.099  1.00  0.00    -0.269 A  
HETATM   31  C   UNL     1      -8.926  20.082  67.949  1.00  0.00    -0.356 A  
HETATM   32  C   UNL     1      -7.024  18.830  69.032  1.00  0.00    -0.295 C  
HETATM   33  O   UNL     1      -6.250  17.900  68.889  1.00  0.00    -0.196 OA 
HETATM   34  C   UNL     1     -10.158  20.057  67.305  1.00  0.00    -0.577 A  
ENDBRANCH   7  26
TORSDOF 4
ENDMDL
MODEL       32
REMARK 921   NORMALIZED FREE ENERGY PREDICTED BY IDOCK:   -7.58 KCAL/MOL
REMARK 922        TOTAL FREE ENERGY PREDICTED BY IDOCK:  -10.49 KCAL/MOL
REMARK 923 INTER-LIGAND FREE ENERGY PREDICTED BY IDOCK:   -9.57 KCAL/MOL
REMARK 924 INTRA-LIGAND FREE ENERGY PREDICTED BY IDOCK:   -0.93 KCAL/MOL
REMARK 927      BINDING AFFINITY PREDICTED BY RF-SCORE:    0.00 PKD
ROOT
HETATM    1  C   UNL     1      -6.696   8.677  68.880  1.00  0.00    -0.053 C  
HETATM    2  C   UNL     1      -7.682   9.671  68.339  1.00  0.00    -0.081 A  
HETATM    3  C   UNL     1      -7.164  10.826  67.732  1.00  0.00    -0.088 A  
HETATM    4  C   UNL     1      -8.013  11.828  67.281  1.00  0.00    -0.161 A  
HETATM    5  C   UNL     1      -9.374  11.662  67.457  1.00  0.00    -0.168 A  
HETATM    6  N   UNL     1      -9.892  10.544  67.987  1.00  0.00    -0.146 NA 
HETATM    7  C   UNL     1      -9.076   9.537  68.410  1.00  0.00    -0.127 A  
ENDROOT
BRANCH   5   8
HETATM    8  N   UNL     1     -10.202  12.718  67.067  1.00  0.00    -0.240 N  
HETATM    9  C   UNL     1     -10.531  13.026  65.769  1.00  0.00    -0.280 C  
HETATM   10  H   UNL     1     -10.593  13.306  67.803  1.00  0.00     0.000 HD 
HETATM   11  O   UNL     1     -10.204  12.455  64.739  1.00  0.00    -0.284 OA 
BRANCH   9  12
HETATM   12  C   UNL     1     -11.404  14.265  65.674  1.00  0.00    -0.317 C  
HETATM   13  C   UNL     1     -12.909  14.084  65.505  1.00  0.00    -0.453 C  
HETATM   14  C   UNL     1     -12.085  14.506  64.333  1.00  0.00    -0.492 C  
BRANCH  12  15
HETATM   15  C   UNL     1     -10.867  15.464  66.457  1.00  0.00    -0.298 A  
HETATM   16  C   UNL     1     -10.901  16.780  68.547  1.00  0.00    -0.345 A  
HETATM   17  C   UNL     1     -11.200  15.617  67.830  1.00  0.00    -0.297 A  
HETATM   18  C   UNL     1     -10.252  17.789  67.875  1.00  0.00    -0.361 A  
HETATM   19  O   UNL     1      -9.935  19.008  68.385  1.00  0.00    -0.364 OA 
HETATM   20  C   UNL     1      -9.367  19.620  67.221  1.00  0.00    -0.332 C  
HETATM   21  F   UNL     1     -10.123  20.698  66.885  1.00  0.00    -0.577 F  
HETATM   22  F   UNL     1      -8.129  20.073  67.533  1.00  0.00    -0.311 F  
HETATM   23  O   UNL     1      -9.267  18.766  66.075  1.00  0.00    -0.476 OA 
HETATM   24  C   UNL     1      -9.879  17.652  66.560  1.00  0.00    -0.319 A  
HETATM   25  C   UNL     1     -10.159  16.511  65.834  1.00  0.00    -0.359 A  
ENDBRANCH  12  15
ENDBRANCH   9  12
ENDBRANCH   5   8
BRANCH   7  26
HETATM   26  C   UNL     1      -9.832   8.366  68.938  1.00  0.00    -0.184 A  
HETATM   27  C   UNL     1     -10.128   7.268  68.100  1.00  0.00    -0.201 A  
HETATM   28  C   UNL     1     -10.950   7.129  70.746  1.00  0.00    -0.278 A  
HETATM   29  O   UNL     1     -11.432   5.923  72.742  1.00  0.00    -0.278 OA 
HETATM   30  C   UNL     1     -10.240   8.248  70.278  1.00  0.00    -0.199 A  
HETATM   31  C   UNL     1     -11.255   6.078  69.878  1.00  0.00    -0.438 A  
HETATM   32  C   UNL     1     -11.397   7.141  72.162  1.00  0.00    -0.264 C  
HETATM   33  O   UNL     1     -11.677   8.168  72.753  1.00  0.00    -0.403 OA 
HETATM   34  C   UNL     1     -10.825   6.141  68.558  1.00  0.00    -0.389 A  
ENDBRANCH   7  26
TORSDOF 4
ENDMDL
MODEL       33
REMARK 921   NORMALIZED FREE ENERGY PREDICTED BY IDOCK:   -7.57 KCAL/MOL
REMARK 922        TOTAL FREE ENERGY PREDICTED BY IDOCK:  -10.49 KCAL/MOL
REMARK 923 INTER-LIGAND FREE ENERGY PREDICTED BY IDOCK:   -9.76 KCAL/MOL
REMARK 924 INTRA-LIGAND FREE ENERGY PREDICTED BY IDOCK:   -0.73 KCAL/MOL
REMARK 927      BINDING AFFINITY PREDICTED BY RF-SCORE:    0.00 PKD
ROOT
HETATM    1  C   UNL     1     -10.569  14.072  66.271  1.00  0.00    -0.281 C  
HETATM    2  C   UNL     1     -10.691  12.784  67.031  1.00  0.00    -0.272 A  
HETATM    3  C   UNL     1     -10.397  11.598  66.340  1.00  0.00    -0.266 A  
HETATM    4  C   UNL     1     -10.566  10.364  66.953  1.00  0.00    -0.293 A  
HETATM    5  C   UNL     1     -11.041  10.335  68.251  1.00  0.00    -0.254 A  
HETATM    6  N   UNL     1     -11.279  11.458  68.946  1.00  0.00    -0.224 NA 
HETATM    7  C   UNL     1     -11.093  12.679  68.371  1.00  0.00    -0.265 A  
ENDROOT
BRANCH   5   8
HETATM    8  N   UNL     1     -11.278   9.080  68.817  1.00  0.00    -0.384 N  
HETATM    9  C   UNL     1     -10.394   8.394  69.614  1.00  0.00    -0.218 C  
HETATM   10  H   UNL     1     -12.178   8.639  68.624  1.00  0.00     0.000 HD 
HETATM   11  O   UNL     1      -9.283   8.732  69.994  1.00  0.00    -0.157 OA 
BRANCH   9  12
HETATM   12  C   UNL     1     -10.926   7.033  70.026  1.00  0.00    -0.303 C  
HETATM   13  C   UNL     1     -12.243   6.967  70.793  1.00  0.00    -0.364 C  
HETATM   14  C   UNL     1     -10.957   6.747  71.522  1.00  0.00    -0.274 C  
BRANCH  12  15
HETATM   15  C   UNL     1     -10.550   5.903  69.065  1.00  0.00    -0.360 A  
HETATM   16  C   UNL     1      -9.377   3.758  68.718  1.00  0.00    -0.230 A  
HETATM   17  C   UNL     1      -9.912   4.736  69.563  1.00  0.00    -0.287 A  
HETATM   18  C   UNL     1      -9.496   3.957  67.363  1.00  0.00    -0.195 A  
HETATM   19  O   UNL     1      -8.987   3.152  66.393  1.00  0.00    -0.137 OA 
HETATM   20  C   UNL     1      -9.359   3.904  65.232  1.00  0.00    -0.159 C  
HETATM   21  F   UNL     1      -8.228   4.283  64.580  1.00  0.00    -0.096 F  
HETATM   22  F   UNL     1     -10.057   3.095  64.399  1.00  0.00    -0.158 F  
HETATM   23  O   UNL     1     -10.141   5.076  65.493  1.00  0.00    -0.102 OA 
HETATM   24  C   UNL     1     -10.147   5.055  66.853  1.00  0.00    -0.228 A  
HETATM   25  C   UNL     1     -10.688   6.030  67.668  1.00  0.00    -0.377 A  
ENDBRANCH  12  15
ENDBRANCH   9  12
ENDBRANCH   5   8
BRANCH   7  26
HETATM   26  C   UNL     1     -11.376  13.806  69.306  1.00  0.00    -0.325 A  
HETATM   27  C   UNL     1     -10.681  15.029  69.183  1.00  0.00    -0.249 A  
HETATM   28  C   UNL     1     -12.607  14.833  71.170  1.00  0.00    -0.407 A  
HETATM   29  O   UNL     1     -14.299  15.763  72.564  1.00  0.00    -0.528 OA 
HETATM   30  C   UNL     1     -12.363  13.752  70.305  1.00  0.00    -0.407 A  
HETATM   31  C   UNL     1     -11.875  16.015  71.042  1.00  0.00    -0.435 A  
HETATM   32  C   UNL     1     -13.622  14.643  72.237  1.00  0.00    -0.433 C  
HETATM   33  O   UNL     1     -13.842  13.560  72.750  1.00  0.00    -0.730 OA 
HETATM   34  C   UNL     1     -10.924  16.119  70.033  1.00  0.00    -0.364 A  
ENDBRANCH   7  26
TORSDOF 4
ENDMDL
MODEL       34
REMARK 921   NORMALIZED FREE ENERGY PREDICTED BY IDOCK:   -7.52 KCAL/MOL
REMARK 922        TOTAL FREE ENERGY PREDICTED BY IDOCK:  -10.43 KCAL/MOL
REMARK 923 INTER-LIGAND FREE ENERGY PREDICTED BY IDOCK:   -9.21 KCAL/MOL
REMARK 924 INTRA-LIGAND FREE ENERGY PREDICTED BY IDOCK:   -1.22 KCAL/MOL
REMARK 927      BINDING AFFINITY PREDICTED BY RF-SCORE:    0.00 PKD
ROOT
HETATM    1  C   UNL     1     -12.335  14.257  65.983  1.00  0.00    -0.416 C  
HETATM    2  C   UNL     1     -11.637  12.994  66.398  1.00  0.00    -0.413 A  
HETATM    3  C   UNL     1     -11.339  12.063  65.390  1.00  0.00    -0.375 A  
HETATM    4  C   UNL     1     -10.768  10.838  65.708  1.00  0.00    -0.141 A  
HETATM    5  C   UNL     1     -10.514  10.558  67.038  1.00  0.00    -0.249 A  
HETATM    6  N   UNL     1     -10.744  11.454  68.010  1.00  0.00    -0.189 NA 
HETATM    7  C   UNL     1     -11.277  12.673  67.714  1.00  0.00    -0.274 A  
ENDROOT
BRANCH   5   8
HETATM    8  N   UNL     1     -10.013   9.289  67.340  1.00  0.00    -0.185 N  
HETATM    9  C   UNL     1      -8.687   8.934  67.302  1.00  0.00    -0.121 C  
HETATM   10  H   UNL     1     -10.686   8.569  67.609  1.00  0.00     0.000 HD 
HETATM   11  O   UNL     1      -7.715   9.625  67.035  1.00  0.00    -0.095 OA 
BRANCH   9  12
HETATM   12  C   UNL     1      -8.473   7.467  67.629  1.00  0.00    -0.120 C  
HETATM   13  C   UNL     1      -7.182   6.798  67.168  1.00  0.00    -0.085 C  
HETATM   14  C   UNL     1      -8.457   6.509  66.444  1.00  0.00    -0.124 C  
BRANCH  12  15
HETATM   15  C   UNL     1      -9.136   7.018  68.933  1.00  0.00    -0.134 A  
HETATM   16  C   UNL     1     -10.692   5.467  70.060  1.00  0.00    -0.356 A  
HETATM   17  C   UNL     1      -9.911   5.828  68.957  1.00  0.00    -0.204 A  
HETATM   18  C   UNL     1     -10.682   6.309  71.147  1.00  0.00    -0.249 A  
HETATM   19  O   UNL     1     -11.420   6.156  72.278  1.00  0.00    -0.285 OA 
HETATM   20  C   UNL     1     -11.047   7.351  72.975  1.00  0.00    -0.343 C  
HETATM   21  F   UNL     1     -12.157   8.115  73.152  1.00  0.00    -0.347 F  
HETATM   22  F   UNL     1     -10.590   7.008  74.204  1.00  0.00    -0.396 F  
HETATM   23  O   UNL     1     -10.051   8.148  72.323  1.00  0.00    -0.219 OA 
HETATM   24  C   UNL     1      -9.908   7.444  71.168  1.00  0.00    -0.174 A  
HETATM   25  C   UNL     1      -9.125   7.817  70.093  1.00  0.00    -0.153 A  
ENDBRANCH  12  15
ENDBRANCH   9  12
ENDBRANCH   5   8
BRANCH   7  26
HETATM   26  C   UNL     1     -11.428  13.542  68.916  1.00  0.00    -0.348 A  
HETATM   27  C   UNL     1     -10.768  14.790  68.984  1.00  0.00    -0.251 A  
HETATM   28  C   UNL     1     -12.378  14.064  71.123  1.00  0.00    -0.443 A  
HETATM   29  O   UNL     1     -13.852  14.579  72.921  1.00  0.00    -0.561 OA 
HETATM   30  C   UNL     1     -12.256  13.221  70.005  1.00  0.00    -0.345 A  
HETATM   31  C   UNL     1     -11.682  15.274  71.170  1.00  0.00    -0.409 A  
HETATM   32  C   UNL     1     -13.222  13.593  72.250  1.00  0.00    -0.469 C  
HETATM   33  O   UNL     1     -13.356  12.413  72.523  1.00  0.00    -0.385 OA 
HETATM   34  C   UNL     1     -10.892  15.645  70.089  1.00  0.00    -0.356 A  
ENDBRANCH   7  26
TORSDOF 4
ENDMDL
MODEL       35
REMARK 921   NORMALIZED FREE ENERGY PREDICTED BY IDOCK:   -7.49 KCAL/MOL
REMARK 922        TOTAL FREE ENERGY PREDICTED BY IDOCK:  -10.39 KCAL/MOL
REMARK 923 INTER-LIGAND FREE ENERGY PREDICTED BY IDOCK:   -9.70 KCAL/MOL
REMARK 924 INTRA-LIGAND FREE ENERGY PREDICTED BY IDOCK:   -0.69 KCAL/MOL
REMARK 927      BINDING AFFINITY PREDICTED BY RF-SCORE:    0.00 PKD
ROOT
HETATM    1  C   UNL     1     -13.236  10.503  71.862  1.00  0.00    -0.526 C  
HETATM    2  C   UNL     1     -12.520  11.430  70.924  1.00  0.00    -0.478 A  
HETATM    3  C   UNL     1     -12.753  12.806  71.075  1.00  0.00    -0.331 A  
HETATM    4  C   UNL     1     -12.190  13.718  70.193  1.00  0.00    -0.425 A  
HETATM    5  C   UNL     1     -11.408  13.235  69.160  1.00  0.00    -0.282 A  
HETATM    6  N   UNL     1     -11.131  11.929  69.028  1.00  0.00    -0.240 NA 
HETATM    7  C   UNL     1     -11.652  11.021  69.901  1.00  0.00    -0.337 A  
ENDROOT
BRANCH   5   8
HETATM    8  N   UNL     1     -10.918  14.167  68.240  1.00  0.00    -0.244 N  
HETATM    9  C   UNL     1     -11.511  14.479  67.041  1.00  0.00    -0.370 C  
HETATM   10  H   UNL     1     -10.053  14.652  68.478  1.00  0.00     0.000 HD 
HETATM   11  O   UNL     1     -12.551  14.047  66.564  1.00  0.00    -0.393 OA 
BRANCH   9  12
HETATM   12  C   UNL     1     -10.704  15.487  66.244  1.00  0.00    -0.307 C  
HETATM   13  C   UNL     1     -11.143  15.809  64.819  1.00  0.00    -0.413 C  
HETATM   14  C   UNL     1      -9.947  14.941  65.040  1.00  0.00    -0.205 C  
BRANCH  12  15
HETATM   15  C   UNL     1     -10.049  16.573  67.100  1.00  0.00    -0.274 A  
HETATM   16  C   UNL     1     -10.187  18.844  68.060  1.00  0.00    -0.452 A  
HETATM   17  C   UNL     1     -10.784  17.738  67.446  1.00  0.00    -0.287 A  
HETATM   18  C   UNL     1      -8.842  18.768  68.334  1.00  0.00    -0.342 A  
HETATM   19  O   UNL     1      -8.081  19.759  68.868  1.00  0.00    -0.285 OA 
HETATM   20  C   UNL     1      -6.797  19.126  68.836  1.00  0.00    -0.322 C  
HETATM   21  F   UNL     1      -5.978  19.846  68.024  1.00  0.00    -0.221 F  
HETATM   22  F   UNL     1      -6.267  19.162  70.082  1.00  0.00    -0.278 F  
HETATM   23  O   UNL     1      -6.802  17.767  68.380  1.00  0.00    -0.205 OA 
HETATM   24  C   UNL     1      -8.115  17.637  68.049  1.00  0.00    -0.243 A  
HETATM   25  C   UNL     1      -8.684  16.531  67.449  1.00  0.00    -0.195 A  
ENDBRANCH  12  15
ENDBRANCH   9  12
ENDBRANCH   5   8
BRANCH   7  26
HETATM   26  C   UNL     1     -11.207   9.627  69.614  1.00  0.00    -0.176 A  
HETATM   27  C   UNL     1     -10.785   9.263  68.316  1.00  0.00    -0.195 A  
HETATM   28  C   UNL     1     -10.698   7.319  70.293  1.00  0.00    -0.252 A  
HETATM   29  O   UNL     1      -9.750   5.383  71.304  1.00  0.00    -0.152 OA 
HETATM   30  C   UNL     1     -11.124   8.624  70.595  1.00  0.00    -0.282 A  
HETATM   31  C   UNL     1     -10.322   6.987  68.990  1.00  0.00    -0.208 A  
HETATM   32  C   UNL     1     -10.718   6.318  71.389  1.00  0.00    -0.248 C  
HETATM   33  O   UNL     1     -11.523   6.360  72.303  1.00  0.00    -0.273 OA 
HETATM   34  C   UNL     1     -10.348   7.968  68.005  1.00  0.00    -0.262 A  
ENDBRANCH   7  26
TORSDOF 4
ENDMDL
MODEL       36
REMARK 921   NORMALIZED FREE ENERGY PREDICTED BY IDOCK:   -7.47 KCAL/MOL
REMARK 922        TOTAL FREE ENERGY PREDICTED BY IDOCK:  -10.36 KCAL/MOL
REMARK 923 INTER-LIGAND FREE ENERGY PREDICTED BY IDOCK:   -9.65 KCAL/MOL
REMARK 924 INTRA-LIGAND FREE ENERGY PREDICTED BY IDOCK:   -0.71 KCAL/MOL
REMARK 927      BINDING AFFINITY PREDICTED BY RF-SCORE:    0.00 PKD
ROOT
HETATM    1  C   UNL     1     -10.230   7.188  67.656  1.00  0.00    -0.253 C  
HETATM    2  C   UNL     1     -10.448   8.598  68.125  1.00  0.00    -0.241 A  
HETATM    3  C   UNL     1     -10.469   9.605  67.147  1.00  0.00    -0.317 A  
HETATM    4  C   UNL     1     -10.585  10.939  67.511  1.00  0.00    -0.271 A  
HETATM    5  C   UNL     1     -10.666  11.248  68.856  1.00  0.00    -0.207 A  
HETATM    6  N   UNL     1     -10.699  10.297  69.803  1.00  0.00    -0.268 NA 
HETATM    7  C   UNL     1     -10.615   8.980  69.463  1.00  0.00    -0.225 A  
ENDROOT
BRANCH   5   8
HETATM    8  N   UNL     1     -10.702  12.601  69.201  1.00  0.00    -0.436 N  
HETATM    9  C   UNL     1     -11.533  13.538  68.636  1.00  0.00    -0.308 C  
HETATM   10  H   UNL     1     -10.061  12.919  69.929  1.00  0.00     0.000 HD 
HETATM   11  O   UNL     1     -12.387  13.386  67.775  1.00  0.00    -0.219 OA 
BRANCH   9  12
HETATM   12  C   UNL     1     -11.290  14.932  69.187  1.00  0.00    -0.309 C  
HETATM   13  C   UNL     1     -10.923  15.078  70.661  1.00  0.00    -0.188 C  
HETATM   14  C   UNL     1     -12.301  15.437  70.209  1.00  0.00    -0.425 C  
BRANCH  12  15
HETATM   15  C   UNL     1     -10.719  15.914  68.163  1.00  0.00    -0.302 A  
HETATM   16  C   UNL     1      -8.953  16.423  66.514  1.00  0.00    -0.311 A  
HETATM   17  C   UNL     1      -9.638  15.518  67.331  1.00  0.00    -0.213 A  
HETATM   18  C   UNL     1      -9.370  17.733  66.530  1.00  0.00    -0.279 A  
HETATM   19  O   UNL     1      -8.792  18.760  65.853  1.00  0.00    -0.465 OA 
HETATM   20  C   UNL     1      -9.599  19.846  66.322  1.00  0.00    -0.425 C  
HETATM   21  F   UNL     1      -8.804  20.720  66.993  1.00  0.00    -0.394 F  
HETATM   22  F   UNL     1     -10.107  20.500  65.249  1.00  0.00    -0.383 F  
HETATM   23  O   UNL     1     -10.682  19.470  67.182  1.00  0.00    -0.468 OA 
HETATM   24  C   UNL     1     -10.441  18.136  67.291  1.00  0.00    -0.393 A  
HETATM   25  C   UNL     1     -11.135  17.259  68.101  1.00  0.00    -0.070 A  
ENDBRANCH  12  15
ENDBRANCH   9  12
ENDBRANCH   5   8
BRANCH   7  26
HETATM   26  C   UNL     1     -10.701   8.074  70.644  1.00  0.00    -0.235 A  
HETATM   27  C   UNL     1     -11.711   7.088  70.717  1.00  0.00    -0.394 A  
HETATM   28  C   UNL     1      -9.890   7.226  72.805  1.00  0.00    -0.219 A  
HETATM   29  O   UNL     1      -8.590   6.234  74.536  1.00  0.00    -0.125 OA 
HETATM   30  C   UNL     1      -9.781   8.096  71.706  1.00  0.00    -0.253 A  
HETATM   31  C   UNL     1     -10.922   6.288  72.859  1.00  0.00    -0.283 A  
HETATM   32  C   UNL     1      -8.907   7.385  73.906  1.00  0.00    -0.226 C  
HETATM   33  O   UNL     1      -8.408   8.458  74.192  1.00  0.00    -0.266 OA 
HETATM   34  C   UNL     1     -11.822   6.207  71.802  1.00  0.00    -0.279 A  
ENDBRANCH   7  26
TORSDOF 4
ENDMDL
MODEL       37
REMARK 921   NORMALIZED FREE ENERGY PREDICTED BY IDOCK:   -7.45 KCAL/MOL
REMARK 922        TOTAL FREE ENERGY PREDICTED BY IDOCK:  -10.33 KCAL/MOL
REMARK 923 INTER-LIGAND FREE ENERGY PREDICTED BY IDOCK:   -9.56 KCAL/MOL
REMARK 924 INTRA-LIGAND FREE ENERGY PREDICTED BY IDOCK:   -0.77 KCAL/MOL
REMARK 927      BINDING AFFINITY PREDICTED BY RF-SCORE:    0.00 PKD
ROOT
HETATM    1  C   UNL     1     -12.200  15.771  64.151  1.00  0.00     0.149 C  
HETATM    2  C   UNL     1     -11.564  14.549  64.748  1.00  0.00    -0.414 A  
HETATM    3  C   UNL     1     -11.865  13.313  64.155  1.00  0.00    -0.497 A  
HETATM    4  C   UNL     1     -11.380  12.132  64.701  1.00  0.00    -0.382 A  
HETATM    5  C   UNL     1     -10.608  12.207  65.845  1.00  0.00    -0.258 A  
HETATM    6  N   UNL     1     -10.266  13.382  66.397  1.00  0.00    -0.287 NA 
HETATM    7  C   UNL     1     -10.710  14.553  65.859  1.00  0.00    -0.305 A  
ENDROOT
BRANCH   5   8
HETATM    8  N   UNL     1     -10.198  11.001  66.420  1.00  0.00    -0.229 N  
HETATM    9  C   UNL     1     -10.825  10.373  67.468  1.00  0.00    -0.301 C  
HETATM   10  H   UNL     1      -9.368  10.552  66.031  1.00  0.00     0.000 HD 
HETATM   11  O   UNL     1     -11.835  10.708  68.070  1.00  0.00    -0.494 OA 
BRANCH   9  12
HETATM   12  C   UNL     1     -10.103   9.108  67.898  1.00  0.00    -0.246 C  
HETATM   13  C   UNL     1      -8.682   8.874  67.393  1.00  0.00    -0.128 C  
HETATM   14  C   UNL     1      -9.810   8.094  66.799  1.00  0.00    -0.329 C  
BRANCH  12  15
HETATM   15  C   UNL     1     -10.509   8.602  69.283  1.00  0.00    -0.226 A  
HETATM   16  C   UNL     1     -10.684   9.053  71.705  1.00  0.00    -0.441 A  
HETATM   17  C   UNL     1     -10.508   9.494  70.388  1.00  0.00    -0.336 A  
HETATM   18  C   UNL     1     -10.872   7.706  71.902  1.00  0.00    -0.233 A  
HETATM   19  O   UNL     1     -10.998   7.088  73.106  1.00  0.00    -0.295 OA 
HETATM   20  C   UNL     1     -11.084   5.725  72.674  1.00  0.00    -0.280 C  
HETATM   21  F   UNL     1     -10.026   5.041  73.184  1.00  0.00    -0.162 F  
HETATM   22  F   UNL     1     -12.210   5.178  73.192  1.00  0.00    -0.331 F  
HETATM   23  O   UNL     1     -11.097   5.539  71.253  1.00  0.00    -0.186 OA 
HETATM   24  C   UNL     1     -10.921   6.826  70.848  1.00  0.00    -0.260 A  
HETATM   25  C   UNL     1     -10.756   7.239  69.540  1.00  0.00    -0.244 A  
ENDBRANCH  12  15
ENDBRANCH   9  12
ENDBRANCH   5   8
BRANCH   7  26
HETATM   26  C   UNL     1     -10.201  15.750  66.588  1.00  0.00    -0.290 A  
HETATM   27  C   UNL     1     -10.873  16.227  67.736  1.00  0.00    -0.315 A  
HETATM   28  C   UNL     1      -8.571  17.556  66.943  1.00  0.00    -0.267 A  
HETATM   29  O   UNL     1      -6.594  18.803  67.399  1.00  0.00    -0.193 OA 
HETATM   30  C   UNL     1      -9.025  16.430  66.233  1.00  0.00    -0.368 A  
HETATM   31  C   UNL     1      -9.281  18.020  68.051  1.00  0.00    -0.273 A  
HETATM   32  C   UNL     1      -7.356  18.244  66.436  1.00  0.00    -0.248 C  
HETATM   33  O   UNL     1      -7.061  18.271  65.255  1.00  0.00    -0.516 OA 
HETATM   34  C   UNL     1     -10.423  17.342  68.459  1.00  0.00    -0.375 A  
ENDBRANCH   7  26
TORSDOF 4
ENDMDL
MODEL       38
REMARK 921   NORMALIZED FREE ENERGY PREDICTED BY IDOCK:   -7.42 KCAL/MOL
REMARK 922        TOTAL FREE ENERGY PREDICTED BY IDOCK:  -10.30 KCAL/MOL
REMARK 923 INTER-LIGAND FREE ENERGY PREDICTED BY IDOCK:   -9.43 KCAL/MOL
REMARK 924 INTRA-LIGAND FREE ENERGY PREDICTED BY IDOCK:   -0.87 KCAL/MOL
REMARK 927      BINDING AFFINITY PREDICTED BY RF-SCORE:    0.00 PKD
ROOT
HETATM    1  C   UNL     1     -14.031  12.705  72.695  1.00  0.00     0.218 C  
HETATM    2  C   UNL     1     -13.152  12.977  71.508  1.00  0.00    -0.400 A  
HETATM    3  C   UNL     1     -13.092  14.299  71.041  1.00  0.00    -0.394 A  
HETATM    4  C   UNL     1     -12.366  14.612  69.900  1.00  0.00    -0.341 A  
HETATM    5  C   UNL     1     -11.718  13.589  69.234  1.00  0.00    -0.330 A  
HETATM    6  N   UNL     1     -11.721  12.328  69.692  1.00  0.00    -0.317 NA 
HETATM    7  C   UNL     1     -12.405  12.007  70.826  1.00  0.00    -0.308 A  
ENDROOT
BRANCH   5   8
HETATM    8  N   UNL     1     -11.060  13.916  68.045  1.00  0.00    -0.251 N  
HETATM    9  C   UNL     1     -11.448  13.512  66.791  1.00  0.00    -0.346 C  
HETATM   10  H   UNL     1     -10.227  14.501  68.114  1.00  0.00     0.000 HD 
HETATM   11  O   UNL     1     -12.414  12.837  66.467  1.00  0.00    -0.406 OA 
BRANCH   9  12
HETATM   12  C   UNL     1     -10.493  13.988  65.711  1.00  0.00    -0.317 C  
HETATM   13  C   UNL     1     -10.659  13.436  64.298  1.00  0.00    -0.358 C  
HETATM   14  C   UNL     1      -9.537  12.942  65.151  1.00  0.00     0.147 C  
BRANCH  12  15
HETATM   15  C   UNL     1      -9.989  15.418  65.913  1.00  0.00    -0.374 A  
HETATM   16  C   UNL     1      -8.062  16.930  66.224  1.00  0.00    -0.351 A  
HETATM   17  C   UNL     1      -8.596  15.689  65.862  1.00  0.00     0.261 A  
HETATM   18  C   UNL     1      -8.943  17.905  66.630  1.00  0.00    -0.268 A  
HETATM   19  O   UNL     1      -8.608  19.145  67.075  1.00  0.00    -0.277 OA 
HETATM   20  C   UNL     1      -9.908  19.643  67.411  1.00  0.00    -0.368 C  
HETATM   21  F   UNL     1      -9.942  19.903  68.744  1.00  0.00    -0.459 F  
HETATM   22  F   UNL     1     -10.100  20.818  66.763  1.00  0.00    -0.560 F  
HETATM   23  O   UNL     1     -10.995  18.764  67.095  1.00  0.00    -0.380 OA 
HETATM   24  C   UNL     1     -10.299  17.684  66.647  1.00  0.00    -0.333 A  
HETATM   25  C   UNL     1     -10.849  16.469  66.289  1.00  0.00    -0.037 A  
ENDBRANCH  12  15
ENDBRANCH   9  12
ENDBRANCH   5   8
BRANCH   7  26
HETATM   26  C   UNL     1     -12.264  10.569  71.196  1.00  0.00    -0.496 A  
HETATM   27  C   UNL     1     -13.400   9.731  71.254  1.00  0.00    -0.413 A  
HETATM   28  C   UNL     1     -10.927   8.592  71.790  1.00  0.00    -0.376 A  
HETATM   29  O   UNL     1      -9.399   6.766  71.766  1.00  0.00    -0.148 OA 
HETATM   30  C   UNL     1     -11.027   9.951  71.446  1.00  0.00    -0.117 A  
HETATM   31  C   UNL     1     -12.076   7.803  71.873  1.00  0.00    -0.341 A  
HETATM   32  C   UNL     1      -9.578   8.060  72.106  1.00  0.00    -0.215 C  
HETATM   33  O   UNL     1      -8.701   8.745  72.601  1.00  0.00    -0.408 OA 
HETATM   34  C   UNL     1     -13.312   8.371  71.585  1.00  0.00    -0.361 A  
ENDBRANCH   7  26
TORSDOF 4
ENDMDL
MODEL       39
REMARK 921   NORMALIZED FREE ENERGY PREDICTED BY IDOCK:   -7.41 KCAL/MOL
REMARK 922        TOTAL FREE ENERGY PREDICTED BY IDOCK:  -10.28 KCAL/MOL
REMARK 923 INTER-LIGAND FREE ENERGY PREDICTED BY IDOCK:   -9.39 KCAL/MOL
REMARK 924 INTRA-LIGAND FREE ENERGY PREDICTED BY IDOCK:   -0.89 KCAL/MOL
REMARK 927      BINDING AFFINITY PREDICTED BY RF-SCORE:    0.00 PKD
ROOT
HETATM    1  C   UNL     1      -7.541   9.524  65.522  1.00  0.00    -0.105 C  
HETATM    2  C   UNL     1      -8.490   9.266  66.656  1.00  0.00    -0.130 A  
HETATM    3  C   UNL     1      -8.057   8.400  67.673  1.00  0.00    -0.118 A  
HETATM    4  C   UNL     1      -8.909   8.050  68.711  1.00  0.00    -0.138 A  
HETATM    5  C   UNL     1     -10.192   8.564  68.709  1.00  0.00    -0.200 A  
HETATM    6  N   UNL     1     -10.608   9.433  67.775  1.00  0.00    -0.263 NA 
HETATM    7  C   UNL     1      -9.777   9.810  66.763  1.00  0.00    -0.194 A  
ENDROOT
BRANCH   5   8
HETATM    8  N   UNL     1     -11.055   8.134  69.721  1.00  0.00    -0.431 N  
HETATM    9  C   UNL     1     -11.551   8.928  70.726  1.00  0.00    -0.259 C  
HETATM   10  H   UNL     1     -11.338   7.154  69.712  1.00  0.00     0.000 HD 
HETATM   11  O   UNL     1     -11.371  10.122  70.920  1.00  0.00    -0.332 OA 
BRANCH   9  12
HETATM   12  C   UNL     1     -12.418   8.151  71.700  1.00  0.00    -0.349 C  
HETATM   13  C   UNL     1     -13.874   7.887  71.330  1.00  0.00    -0.354 C  
HETATM   14  C   UNL     1     -13.554   8.925  72.356  1.00  0.00    -0.500 C  
BRANCH  12  15
HETATM   15  C   UNL     1     -11.647   7.122  72.531  1.00  0.00    -0.265 A  
HETATM   16  C   UNL     1      -9.786   6.666  74.088  1.00  0.00    -0.335 A  
HETATM   17  C   UNL     1     -10.650   7.558  73.444  1.00  0.00    -0.409 A  
HETATM   18  C   UNL     1      -9.939   5.327  73.816  1.00  0.00    -0.182 A  
HETATM   19  O   UNL     1      -9.158   4.323  74.296  1.00  0.00    -0.100 OA 
HETATM   20  C   UNL     1      -9.745   3.209  73.614  1.00  0.00    -0.103 C  
HETATM   21  F   UNL     1      -8.807   2.652  72.804  1.00  0.00    -0.072 F  
HETATM   22  F   UNL     1     -10.095   2.277  74.532  1.00  0.00    -0.125 F  
HETATM   23  O   UNL     1     -10.896   3.523  72.819  1.00  0.00    -0.102 OA 
HETATM   24  C   UNL     1     -10.923   4.874  72.970  1.00  0.00    -0.288 A  
HETATM   25  C   UNL     1     -11.791   5.736  72.328  1.00  0.00    -0.215 A  
ENDBRANCH  12  15
ENDBRANCH   9  12
ENDBRANCH   5   8
BRANCH   7  26
HETATM   26  C   UNL     1     -10.403  10.804  65.844  1.00  0.00    -0.302 A  
HETATM   27  C   UNL     1     -10.286  10.656  64.444  1.00  0.00    -0.400 A  
HETATM   28  C   UNL     1     -11.758  12.807  65.395  1.00  0.00    -0.425 A  
HETATM   29  O   UNL     1     -13.536  14.381  65.228  1.00  0.00    -0.483 OA 
HETATM   30  C   UNL     1     -11.178  11.888  66.288  1.00  0.00    -0.392 A  
HETATM   31  C   UNL     1     -11.590  12.648  64.018  1.00  0.00    -0.486 A  
HETATM   32  C   UNL     1     -12.495  13.957  65.975  1.00  0.00    -0.461 C  
HETATM   33  O   UNL     1     -12.201  14.453  67.048  1.00  0.00    -0.400 OA 
HETATM   34  C   UNL     1     -10.868  11.559  63.543  1.00  0.00    -0.473 A  
ENDBRANCH   7  26
TORSDOF 4
ENDMDL
MODEL       40
REMARK 921   NORMALIZED FREE ENERGY PREDICTED BY IDOCK:   -7.39 KCAL/MOL
REMARK 922        TOTAL FREE ENERGY PREDICTED BY IDOCK:  -10.26 KCAL/MOL
REMARK 923 INTER-LIGAND FREE ENERGY PREDICTED BY IDOCK:   -9.62 KCAL/MOL
REMARK 924 INTRA-LIGAND FREE ENERGY PREDICTED BY IDOCK:   -0.64 KCAL/MOL
REMARK 927      BINDING AFFINITY PREDICTED BY RF-SCORE:    0.00 PKD
ROOT
HETATM    1  C   UNL     1     -13.346  10.847  72.078  1.00  0.00    -0.394 C  
HETATM    2  C   UNL     1     -12.619  11.743  71.118  1.00  0.00    -0.412 A  
HETATM    3  C   UNL     1     -12.844  13.125  71.230  1.00  0.00    -0.384 A  
HETATM    4  C   UNL     1     -12.271  14.008  70.326  1.00  0.00    -0.430 A  
HETATM    5  C   UNL     1     -11.488  13.492  69.310  1.00  0.00    -0.291 A  
HETATM    6  N   UNL     1     -11.220  12.181  69.216  1.00  0.00    -0.245 NA 
HETATM    7  C   UNL     1     -11.750  11.301  70.111  1.00  0.00    -0.343 A  
ENDROOT
BRANCH   5   8
HETATM    8  N   UNL     1     -10.989  14.394  68.367  1.00  0.00    -0.241 N  
HETATM    9  C   UNL     1     -11.433  14.510  67.072  1.00  0.00    -0.370 C  
HETATM   10  H   UNL     1     -10.236  15.016  68.663  1.00  0.00     0.000 HD 
HETATM   11  O   UNL     1     -12.329  13.895  66.510  1.00  0.00    -0.445 OA 
BRANCH   9  12
HETATM   12  C   UNL     1     -10.649  15.543  66.284  1.00  0.00    -0.310 C  
HETATM   13  C   UNL     1     -11.126  15.904  64.880  1.00  0.00    -0.400 C  
HETATM   14  C   UNL     1      -9.922  15.035  65.045  1.00  0.00    -0.188 C  
BRANCH  12  15
HETATM   15  C   UNL     1      -9.976  16.607  67.153  1.00  0.00    -0.268 A  
HETATM   16  C   UNL     1     -10.098  18.848  68.184  1.00  0.00    -0.447 A  
HETATM   17  C   UNL     1     -10.707  17.757  67.554  1.00  0.00    -0.315 A  
HETATM   18  C   UNL     1      -8.746  18.770  68.419  1.00  0.00    -0.337 A  
HETATM   19  O   UNL     1      -7.976  19.750  68.961  1.00  0.00    -0.274 OA 
HETATM   20  C   UNL     1      -6.690  19.125  68.875  1.00  0.00    -0.301 C  
HETATM   21  F   UNL     1      -5.897  19.873  68.063  1.00  0.00    -0.209 F  
HETATM   22  F   UNL     1      -6.126  19.127  70.107  1.00  0.00    -0.266 F  
HETATM   23  O   UNL     1      -6.701  17.780  68.379  1.00  0.00    -0.199 OA 
HETATM   24  C   UNL     1      -8.022  17.653  68.081  1.00  0.00    -0.256 A  
HETATM   25  C   UNL     1      -8.602  16.562  67.464  1.00  0.00    -0.188 A  
ENDBRANCH  12  15
ENDBRANCH   9  12
ENDBRANCH   5   8
BRANCH   7  26
HETATM   26  C   UNL     1     -11.314   9.896  69.865  1.00  0.00    -0.273 A  
HETATM   27  C   UNL     1     -11.224   8.977  70.934  1.00  0.00    -0.348 A  
HETATM   28  C   UNL     1     -10.620   8.056  68.388  1.00  0.00    -0.150 A  
HETATM   29  O   UNL     1     -10.550   6.354  66.725  1.00  0.00    -0.256 OA 
HETATM   30  C   UNL     1     -11.028   9.387  68.587  1.00  0.00    -0.075 A  
HETATM   31  C   UNL     1     -10.508   7.187  69.475  1.00  0.00    -0.236 A  
HETATM   32  C   UNL     1     -10.271   7.644  67.005  1.00  0.00    -0.300 C  
HETATM   33  O   UNL     1      -9.802   8.415  66.188  1.00  0.00    -0.221 OA 
HETATM   34  C   UNL     1     -10.830   7.644  70.747  1.00  0.00    -0.246 A  
ENDBRANCH   7  26
TORSDOF 4
ENDMDL
MODEL       41
REMARK 921   NORMALIZED FREE ENERGY PREDICTED BY IDOCK:   -7.37 KCAL/MOL
REMARK 922        TOTAL FREE ENERGY PREDICTED BY IDOCK:  -10.24 KCAL/MOL
REMARK 923 INTER-LIGAND FREE ENERGY PREDICTED BY IDOCK:   -9.77 KCAL/MOL
REMARK 924 INTRA-LIGAND FREE ENERGY PREDICTED BY IDOCK:   -0.47 KCAL/MOL
REMARK 927      BINDING AFFINITY PREDICTED BY RF-SCORE:    0.00 PKD
ROOT
HETATM    1  C   UNL     1     -10.362  13.759  64.655  1.00  0.00    -0.393 C  
HETATM    2  C   UNL     1     -10.709  12.973  65.886  1.00  0.00    -0.292 A  
HETATM    3  C   UNL     1     -10.864  11.585  65.742  1.00  0.00    -0.319 A  
HETATM    4  C   UNL     1     -11.264  10.805  66.818  1.00  0.00    -0.053 A  
HETATM    5  C   UNL     1     -11.516  11.430  68.025  1.00  0.00    -0.307 A  
HETATM    6  N   UNL     1     -11.326  12.747  68.196  1.00  0.00    -0.267 NA 
HETATM    7  C   UNL     1     -10.906  13.526  67.160  1.00  0.00    -0.284 A  
ENDROOT
BRANCH   5   8
HETATM    8  N   UNL     1     -11.994  10.635  69.070  1.00  0.00    -0.527 N  
HETATM    9  C   UNL     1     -11.210  10.016  70.013  1.00  0.00    -0.288 C  
HETATM   10  H   UNL     1     -13.003  10.503  69.137  1.00  0.00     0.000 HD 
HETATM   11  O   UNL     1      -9.995  10.051  70.143  1.00  0.00    -0.252 OA 
BRANCH   9  12
HETATM   12  C   UNL     1     -12.025   9.178  70.981  1.00  0.00    -0.344 C  
HETATM   13  C   UNL     1     -13.535   9.393  71.037  1.00  0.00    -0.159 C  
HETATM   14  C   UNL     1     -12.676   9.928  72.137  1.00  0.00    -0.387 C  
BRANCH  12  15
HETATM   15  C   UNL     1     -11.447   7.785  71.235  1.00  0.00    -0.294 A  
HETATM   16  C   UNL     1     -10.726   5.618  70.296  1.00  0.00    -0.364 A  
HETATM   17  C   UNL     1     -11.080   6.963  70.137  1.00  0.00    -0.344 A  
HETATM   18  C   UNL     1     -10.735   5.107  71.571  1.00  0.00    -0.095 A  
HETATM   19  O   UNL     1     -10.481   3.816  71.912  1.00  0.00    -0.040 OA 
HETATM   20  C   UNL     1     -10.715   3.885  73.324  1.00  0.00    -0.199 C  
HETATM   21  F   UNL     1     -11.752   3.064  73.633  1.00  0.00    -0.317 F  
HETATM   22  F   UNL     1      -9.619   3.415  73.967  1.00  0.00    -0.102 F  
HETATM   23  O   UNL     1     -11.013   5.195  73.825  1.00  0.00    -0.294 OA 
HETATM   24  C   UNL     1     -11.044   5.890  72.657  1.00  0.00    -0.280 A  
HETATM   25  C   UNL     1     -11.390   7.221  72.525  1.00  0.00    -0.338 A  
ENDBRANCH  12  15
ENDBRANCH   9  12
ENDBRANCH   5   8
BRANCH   7  26
HETATM   26  C   UNL     1     -10.720  14.953  67.550  1.00  0.00    -0.276 A  
HETATM   27  C   UNL     1     -10.610  15.314  68.911  1.00  0.00    -0.242 A  
HETATM   28  C   UNL     1     -10.407  17.334  67.021  1.00  0.00    -0.318 A  
HETATM   29  O   UNL     1      -9.553  19.418  66.248  1.00  0.00    -0.352 OA 
HETATM   30  C   UNL     1     -10.584  15.998  66.621  1.00  0.00    -0.297 A  
HETATM   31  C   UNL     1     -10.340  17.657  68.378  1.00  0.00    -0.375 A  
HETATM   32  C   UNL     1     -10.350  18.369  65.958  1.00  0.00    -0.375 C  
HETATM   33  O   UNL     1     -10.949  18.260  64.903  1.00  0.00    -0.660 OA 
HETATM   34  C   UNL     1     -10.422  16.641  69.323  1.00  0.00    -0.333 A  
ENDBRANCH   7  26
TORSDOF 4
ENDMDL
MODEL       42
REMARK 921   NORMALIZED FREE ENERGY PREDICTED BY IDOCK:   -7.36 KCAL/MOL
REMARK 922        TOTAL FREE ENERGY PREDICTED BY IDOCK:  -10.23 KCAL/MOL
REMARK 923 INTER-LIGAND FREE ENERGY PREDICTED BY IDOCK:   -9.15 KCAL/MOL
REMARK 924 INTRA-LIGAND FREE ENERGY PREDICTED BY IDOCK:   -1.08 KCAL/MOL
REMARK 927      BINDING AFFINITY PREDICTED BY RF-SCORE:    0.00 PKD
ROOT
HETATM    1  C   UNL     1     -12.913  13.229  72.187  1.00  0.00    -0.395 C  
HETATM    2  C   UNL     1     -12.489  12.886  70.789  1.00  0.00    -0.370 A  
HETATM    3  C   UNL     1     -12.385  13.942  69.870  1.00  0.00    -0.358 A  
HETATM    4  C   UNL     1     -12.077  13.693  68.540  1.00  0.00    -0.321 A  
HETATM    5  C   UNL     1     -11.889  12.381  68.145  1.00  0.00    -0.315 A  
HETATM    6  N   UNL     1     -11.934  11.363  69.017  1.00  0.00    -0.373 NA 
HETATM    7  C   UNL     1     -12.206  11.591  70.333  1.00  0.00    -0.355 A  
ENDROOT
BRANCH   5   8
HETATM    8  N   UNL     1     -11.659  12.149  66.786  1.00  0.00    -0.360 N  
HETATM    9  C   UNL     1     -10.531  12.528  66.100  1.00  0.00    -0.249 C  
HETATM   10  H   UNL     1     -12.386  11.661  66.262  1.00  0.00     0.000 HD 
HETATM   11  O   UNL     1      -9.533  13.095  66.520  1.00  0.00    -0.252 OA 
BRANCH   9  12
HETATM   12  C   UNL     1     -10.609  12.181  64.625  1.00  0.00    -0.340 C  
HETATM   13  C   UNL     1     -10.847  13.307  63.623  1.00  0.00     0.117 C  
HETATM   14  C   UNL     1     -11.966  12.375  63.959  1.00  0.00    -0.546 C  
BRANCH  12  15
HETATM   15  C   UNL     1      -9.755  10.976  64.224  1.00  0.00    -0.333 A  
HETATM   16  C   UNL     1      -8.901   9.530  62.414  1.00  0.00    -0.256 A  
HETATM   17  C   UNL     1      -9.510  10.712  62.850  1.00  0.00    -0.367 A  
HETATM   18  C   UNL     1      -8.530   8.617  63.372  1.00  0.00    -0.074 A  
HETATM   19  O   UNL     1      -7.984   7.394  63.137  1.00  0.00    -0.135 OA 
HETATM   20  C   UNL     1      -7.899   6.903  64.480  1.00  0.00    -0.115 C  
HETATM   21  F   UNL     1      -8.680   5.795  64.587  1.00  0.00    -0.143 F  
HETATM   22  F   UNL     1      -6.621   6.523  64.720  1.00  0.00    -0.035 F  
HETATM   23  O   UNL     1      -8.298   7.834  65.493  1.00  0.00    -0.137 OA 
HETATM   24  C   UNL     1      -8.715   8.866  64.711  1.00  0.00    -0.127 A  
HETATM   25  C   UNL     1      -9.308  10.028  65.165  1.00  0.00    -0.302 A  
ENDBRANCH  12  15
ENDBRANCH   9  12
ENDBRANCH   5   8
BRANCH   7  26
HETATM   26  C   UNL     1     -12.180  10.344  71.151  1.00  0.00    -0.498 A  
HETATM   27  C   UNL     1     -13.385   9.708  71.525  1.00  0.00    -0.468 A  
HETATM   28  C   UNL     1     -11.003   8.526  72.315  1.00  0.00    -0.426 A  
HETATM   29  O   UNL     1      -9.666   6.627  72.839  1.00  0.00    -0.152 OA 
HETATM   30  C   UNL     1     -10.994   9.702  71.545  1.00  0.00    -0.266 A  
HETATM   31  C   UNL     1     -12.215   7.946  72.696  1.00  0.00    -0.179 A  
HETATM   32  C   UNL     1      -9.693   7.972  72.739  1.00  0.00    -0.280 C  
HETATM   33  O   UNL     1      -8.719   8.674  72.948  1.00  0.00    -0.384 OA 
HETATM   34  C   UNL     1     -13.407   8.529  72.283  1.00  0.00    -0.357 A  
ENDBRANCH   7  26
TORSDOF 4
ENDMDL
MODEL       43
REMARK 921   NORMALIZED FREE ENERGY PREDICTED BY IDOCK:   -7.34 KCAL/MOL
REMARK 922        TOTAL FREE ENERGY PREDICTED BY IDOCK:  -10.20 KCAL/MOL
REMARK 923 INTER-LIGAND FREE ENERGY PREDICTED BY IDOCK:   -9.08 KCAL/MOL
REMARK 924 INTRA-LIGAND FREE ENERGY PREDICTED BY IDOCK:   -1.12 KCAL/MOL
REMARK 927      BINDING AFFINITY PREDICTED BY RF-SCORE:    0.00 PKD
ROOT
HETATM    1  C   UNL     1      -6.441   7.857  68.227  1.00  0.00    -0.054 C  
HETATM    2  C   UNL     1      -7.256   8.955  67.609  1.00  0.00    -0.080 A  
HETATM    3  C   UNL     1      -6.569   9.924  66.860  1.00  0.00    -0.067 A  
HETATM    4  C   UNL     1      -7.245  11.013  66.327  1.00  0.00    -0.095 A  
HETATM    5  C   UNL     1      -8.603  11.123  66.563  1.00  0.00    -0.169 A  
HETATM    6  N   UNL     1      -9.286  10.182  67.232  1.00  0.00    -0.151 NA 
HETATM    7  C   UNL     1      -8.646   9.091  67.738  1.00  0.00    -0.121 A  
ENDROOT
BRANCH   5   8
HETATM    8  N   UNL     1      -9.244  12.268  66.084  1.00  0.00    -0.381 N  
HETATM    9  C   UNL     1      -9.891  13.195  66.864  1.00  0.00    -0.249 C  
HETATM   10  H   UNL     1      -9.231  12.428  65.076  1.00  0.00     0.000 HD 
HETATM   11  O   UNL     1     -10.014  13.224  68.080  1.00  0.00    -0.220 OA 
BRANCH   9  12
HETATM   12  C   UNL     1     -10.534  14.295  66.038  1.00  0.00    -0.306 C  
HETATM   13  C   UNL     1     -11.991  14.131  65.615  1.00  0.00    -0.401 C  
HETATM   14  C   UNL     1     -10.907  13.930  64.606  1.00  0.00    -0.420 C  
BRANCH  12  15
HETATM   15  C   UNL     1      -9.980  15.692  66.325  1.00  0.00    -0.315 A  
HETATM   16  C   UNL     1      -8.011  17.097  66.821  1.00  0.00    -0.271 A  
HETATM   17  C   UNL     1      -8.575  15.896  66.379  1.00  0.00    -0.364 A  
HETATM   18  C   UNL     1      -8.871  18.100  67.200  1.00  0.00    -0.259 A  
HETATM   19  O   UNL     1      -8.511  19.307  67.710  1.00  0.00    -0.291 OA 
HETATM   20  C   UNL     1      -9.807  19.858  67.973  1.00  0.00    -0.412 C  
HETATM   21  F   UNL     1      -9.923  20.076  69.309  1.00  0.00    -0.444 F  
HETATM   22  F   UNL     1      -9.897  21.061  67.356  1.00  0.00    -0.614 F  
HETATM   23  O   UNL     1     -10.909  19.044  67.553  1.00  0.00    -0.463 OA 
HETATM   24  C   UNL     1     -10.234  17.946  67.116  1.00  0.00    -0.353 A  
HETATM   25  C   UNL     1     -10.813  16.772  66.677  1.00  0.00    -0.005 A  
ENDBRANCH  12  15
ENDBRANCH   9  12
ENDBRANCH   5   8
BRANCH   7  26
HETATM   26  C   UNL     1      -9.574   8.142  68.418  1.00  0.00    -0.155 A  
HETATM   27  C   UNL     1     -10.094   7.028  67.722  1.00  0.00    -0.205 A  
HETATM   28  C   UNL     1     -10.815   7.338  70.383  1.00  0.00    -0.265 A  
HETATM   29  O   UNL     1     -11.417   6.472  72.517  1.00  0.00    -0.268 OA 
HETATM   30  C   UNL     1      -9.939   8.251  69.770  1.00  0.00    -0.191 A  
HETATM   31  C   UNL     1     -11.338   6.269  69.652  1.00  0.00    -0.492 A  
HETATM   32  C   UNL     1     -11.192   7.590  71.796  1.00  0.00    -0.246 C  
HETATM   33  O   UNL     1     -11.262   8.711  72.268  1.00  0.00    -0.353 OA 
HETATM   34  C   UNL     1     -10.959   6.104  68.325  1.00  0.00    -0.397 A  
ENDBRANCH   7  26
TORSDOF 4
ENDMDL
MODEL       44
REMARK 921   NORMALIZED FREE ENERGY PREDICTED BY IDOCK:   -7.34 KCAL/MOL
REMARK 922        TOTAL FREE ENERGY PREDICTED BY IDOCK:  -10.20 KCAL/MOL
REMARK 923 INTER-LIGAND FREE ENERGY PREDICTED BY IDOCK:   -9.75 KCAL/MOL
REMARK 924 INTRA-LIGAND FREE ENERGY PREDICTED BY IDOCK:   -0.45 KCAL/MOL
REMARK 927      BINDING AFFINITY PREDICTED BY RF-SCORE:    0.00 PKD
ROOT
HETATM    1  C   UNL     1     -12.803   6.715  71.883  1.00  0.00    -0.209 C  
HETATM    2  C   UNL     1     -12.409   8.126  71.557  1.00  0.00    -0.335 A  
HETATM    3  C   UNL     1     -13.217   9.154  72.068  1.00  0.00    -0.505 A  
HETATM    4  C   UNL     1     -12.962  10.480  71.741  1.00  0.00    -0.582 A  
HETATM    5  C   UNL     1     -11.904  10.755  70.895  1.00  0.00    -0.297 A  
HETATM    6  N   UNL     1     -11.090   9.792  70.438  1.00  0.00    -0.283 NA 
HETATM    7  C   UNL     1     -11.307   8.488  70.770  1.00  0.00    -0.266 A  
ENDROOT
BRANCH   5   8
HETATM    8  N   UNL     1     -11.717  12.088  70.518  1.00  0.00    -0.487 N  
HETATM    9  C   UNL     1     -12.450  13.151  70.987  1.00  0.00    -0.318 C  
HETATM   10  H   UNL     1     -10.978  12.287  69.843  1.00  0.00     0.000 HD 
HETATM   11  O   UNL     1     -13.357  13.156  71.807  1.00  0.00    -0.409 OA 
BRANCH   9  12
HETATM   12  C   UNL     1     -12.039  14.463  70.343  1.00  0.00    -0.399 C  
HETATM   13  C   UNL     1     -11.413  15.541  71.222  1.00  0.00    -0.462 C  
HETATM   14  C   UNL     1     -12.827  15.696  70.767  1.00  0.00    -0.457 C  
BRANCH  12  15
HETATM   15  C   UNL     1     -11.606  14.328  68.882  1.00  0.00    -0.340 A  
HETATM   16  C   UNL     1      -9.911  14.812  67.152  1.00  0.00    -0.236 A  
HETATM   17  C   UNL     1     -10.301  14.732  68.493  1.00  0.00    -0.237 A  
HETATM   18  C   UNL     1     -10.843  14.471  66.200  1.00  0.00    -0.317 A  
HETATM   19  O   UNL     1     -10.668  14.544  64.854  1.00  0.00    -0.396 OA 
HETATM   20  C   UNL     1     -11.973  14.148  64.417  1.00  0.00    -0.457 C  
HETATM   21  F   UNL     1     -12.532  15.179  63.729  1.00  0.00    -0.364 F  
HETATM   22  F   UNL     1     -11.844  13.109  63.557  1.00  0.00    -0.483 F  
HETATM   23  O   UNL     1     -12.874  13.765  65.464  1.00  0.00    -0.596 OA 
HETATM   24  C   UNL     1     -12.099  14.035  66.549  1.00  0.00    -0.459 A  
HETATM   25  C   UNL     1     -12.503  13.943  67.866  1.00  0.00     0.226 A  
ENDBRANCH  12  15
ENDBRANCH   9  12
ENDBRANCH   5   8
BRANCH   7  26
HETATM   26  C   UNL     1     -10.281   7.569  70.197  1.00  0.00    -0.206 A  
HETATM   27  C   UNL     1     -10.345   7.185  68.839  1.00  0.00    -0.202 A  
HETATM   28  C   UNL     1      -8.232   6.220  70.355  1.00  0.00    -0.121 A  
HETATM   29  O   UNL     1      -5.977   5.497  70.607  1.00  0.00    -0.023 OA 
HETATM   30  C   UNL     1      -9.183   7.084  70.926  1.00  0.00    -0.156 A  
HETATM   31  C   UNL     1      -8.347   5.833  69.018  1.00  0.00    -0.101 A  
HETATM   32  C   UNL     1      -7.152   5.708  71.236  1.00  0.00    -0.072 C  
HETATM   33  O   UNL     1      -7.310   5.526  72.430  1.00  0.00    -0.090 OA 
HETATM   34  C   UNL     1      -9.396   6.333  68.255  1.00  0.00    -0.112 A  
ENDBRANCH   7  26
TORSDOF 4
ENDMDL
MODEL       45
REMARK 921   NORMALIZED FREE ENERGY PREDICTED BY IDOCK:   -7.33 KCAL/MOL
REMARK 922        TOTAL FREE ENERGY PREDICTED BY IDOCK:  -10.18 KCAL/MOL
REMARK 923 INTER-LIGAND FREE ENERGY PREDICTED BY IDOCK:  -10.16 KCAL/MOL
REMARK 924 INTRA-LIGAND FREE ENERGY PREDICTED BY IDOCK:   -0.03 KCAL/MOL
REMARK 927      BINDING AFFINITY PREDICTED BY RF-SCORE:    0.00 PKD
ROOT
HETATM    1  C   UNL     1     -11.109  10.865  67.267  1.00  0.00    -0.350 C  
HETATM    2  C   UNL     1     -11.070  12.366  67.297  1.00  0.00    -0.329 A  
HETATM    3  C   UNL     1     -10.587  13.020  66.153  1.00  0.00    -0.289 A  
HETATM    4  C   UNL     1     -10.446  14.401  66.137  1.00  0.00    -0.295 A  
HETATM    5  C   UNL     1     -10.780  15.108  67.277  1.00  0.00    -0.305 A  
HETATM    6  N   UNL     1     -11.292  14.507  68.362  1.00  0.00    -0.275 NA 
HETATM    7  C   UNL     1     -11.464  13.156  68.386  1.00  0.00    -0.315 A  
ENDROOT
BRANCH   5   8
HETATM    8  N   UNL     1     -10.554  16.487  67.263  1.00  0.00    -0.310 N  
HETATM    9  C   UNL     1     -10.396  17.250  66.132  1.00  0.00    -0.317 C  
HETATM   10  H   UNL     1     -10.503  16.965  68.163  1.00  0.00     0.000 HD 
HETATM   11  O   UNL     1     -10.441  16.904  64.960  1.00  0.00    -0.675 OA 
BRANCH   9  12
HETATM   12  C   UNL     1     -10.110  18.706  66.454  1.00  0.00    -0.435 C  
HETATM   13  C   UNL     1     -11.286  19.630  66.755  1.00  0.00     0.007 C  
HETATM   14  C   UNL     1     -10.596  19.728  65.434  1.00  0.00    -0.180 C  
BRANCH  12  15
HETATM   15  C   UNL     1      -8.766  18.935  67.149  1.00  0.00    -0.298 A  
HETATM   16  C   UNL     1      -6.353  18.424  67.252  1.00  0.00    -0.192 A  
HETATM   17  C   UNL     1      -7.577  18.413  66.575  1.00  0.00    -0.267 A  
HETATM   18  C   UNL     1      -6.330  18.976  68.511  1.00  0.00    -0.235 A  
HETATM   19  O   UNL     1      -5.254  19.021  69.340  1.00  0.00    -0.188 OA 
HETATM   20  C   UNL     1      -5.858  19.621  70.492  1.00  0.00    -0.257 C  
HETATM   21  F   UNL     1      -5.781  18.745  71.528  1.00  0.00    -0.201 F  
HETATM   22  F   UNL     1      -5.141  20.718  70.833  1.00  0.00    -0.266 F  
HETATM   23  O   UNL     1      -7.230  20.003  70.328  1.00  0.00     0.013 OA 
HETATM   24  C   UNL     1      -7.456  19.527  69.073  1.00  0.00    -0.345 A  
HETATM   25  C   UNL     1      -8.673  19.533  68.421  1.00  0.00    -0.389 A  
ENDBRANCH  12  15
ENDBRANCH   9  12
ENDBRANCH   5   8
BRANCH   7  26
HETATM   26  C   UNL     1     -12.074  12.676  69.660  1.00  0.00    -0.277 A  
HETATM   27  C   UNL     1     -12.655  13.592  70.564  1.00  0.00    -0.337 A  
HETATM   28  C   UNL     1     -12.746  10.899  71.221  1.00  0.00    -0.542 A  
HETATM   29  O   UNL     1     -13.784   9.011  72.237  1.00  0.00    -0.437 OA 
HETATM   30  C   UNL     1     -12.163  11.319  70.012  1.00  0.00    -0.389 A  
HETATM   31  C   UNL     1     -13.279  11.837  72.107  1.00  0.00    -0.342 A  
HETATM   32  C   UNL     1     -12.721   9.446  71.527  1.00  0.00    -0.361 C  
HETATM   33  O   UNL     1     -11.832   8.708  71.143  1.00  0.00    -0.284 OA 
HETATM   34  C   UNL     1     -13.250  13.184  71.767  1.00  0.00    -0.494 A  
ENDBRANCH   7  26
TORSDOF 4
ENDMDL
MODEL       46
REMARK 921   NORMALIZED FREE ENERGY PREDICTED BY IDOCK:   -7.28 KCAL/MOL
REMARK 922        TOTAL FREE ENERGY PREDICTED BY IDOCK:  -10.12 KCAL/MOL
REMARK 923 INTER-LIGAND FREE ENERGY PREDICTED BY IDOCK:   -9.19 KCAL/MOL
REMARK 924 INTRA-LIGAND FREE ENERGY PREDICTED BY IDOCK:   -0.93 KCAL/MOL
REMARK 927      BINDING AFFINITY PREDICTED BY RF-SCORE:    0.00 PKD
ROOT
HETATM    1  C   UNL     1     -12.792   9.353  72.083  1.00  0.00    -0.480 C  
HETATM    2  C   UNL     1     -12.244  10.363  71.117  1.00  0.00    -0.498 A  
HETATM    3  C   UNL     1     -12.802  11.651  71.148  1.00  0.00    -0.392 A  
HETATM    4  C   UNL     1     -12.404  12.614  70.230  1.00  0.00    -0.269 A  
HETATM    5  C   UNL     1     -11.458  12.268  69.284  1.00  0.00    -0.292 A  
HETATM    6  N   UNL     1     -10.876  11.059  69.270  1.00  0.00    -0.230 NA 
HETATM    7  C   UNL     1     -11.233  10.109  70.180  1.00  0.00    -0.310 A  
ENDROOT
BRANCH   5   8
HETATM    8  N   UNL     1     -11.132  13.229  68.324  1.00  0.00    -0.253 N  
HETATM    9  C   UNL     1     -11.523  13.195  67.007  1.00  0.00    -0.336 C  
HETATM   10  H   UNL     1     -10.560  14.019  68.624  1.00  0.00     0.000 HD 
HETATM   11  O   UNL     1     -12.222  12.370  66.436  1.00  0.00    -0.604 OA 
BRANCH   9  12
HETATM   12  C   UNL     1     -10.961  14.356  66.208  1.00  0.00    -0.318 C  
HETATM   13  C   UNL     1     -11.612  14.705  64.873  1.00  0.00    -0.405 C  
HETATM   14  C   UNL     1     -10.294  14.001  64.884  1.00  0.00    -0.434 C  
BRANCH  12  15
HETATM   15  C   UNL     1     -10.353  15.465  67.068  1.00  0.00    -0.280 A  
HETATM   16  C   UNL     1     -10.728  17.431  68.515  1.00  0.00    -0.279 A  
HETATM   17  C   UNL     1     -11.198  16.287  67.859  1.00  0.00    -0.213 A  
HETATM   18  C   UNL     1      -9.395  17.737  68.378  1.00  0.00    -0.294 A  
HETATM   19  O   UNL     1      -8.775  18.833  68.888  1.00  0.00    -0.295 OA 
HETATM   20  C   UNL     1      -7.459  18.638  68.357  1.00  0.00    -0.297 C  
HETATM   21  F   UNL     1      -7.164  19.678  67.533  1.00  0.00    -0.238 F  
HETATM   22  F   UNL     1      -6.572  18.667  69.381  1.00  0.00    -0.263 F  
HETATM   23  O   UNL     1      -7.274  17.419  67.626  1.00  0.00    -0.160 OA 
HETATM   24  C   UNL     1      -8.545  16.935  67.655  1.00  0.00    -0.208 A  
HETATM   25  C   UNL     1      -8.985  15.799  67.004  1.00  0.00    -0.247 A  
ENDBRANCH  12  15
ENDBRANCH   9  12
ENDBRANCH   5   8
BRANCH   7  26
HETATM   26  C   UNL     1     -10.456   8.845  70.028  1.00  0.00    -0.227 A  
HETATM   27  C   UNL     1      -9.413   8.535  70.929  1.00  0.00    -0.221 A  
HETATM   28  C   UNL     1      -9.985   6.695  68.932  1.00  0.00    -0.160 A  
HETATM   29  O   UNL     1     -10.122   4.471  68.093  1.00  0.00    -0.077 OA 
HETATM   30  C   UNL     1     -10.735   7.879  69.048  1.00  0.00    -0.113 A  
HETATM   31  C   UNL     1      -8.937   6.439  69.819  1.00  0.00    -0.141 A  
HETATM   32  C   UNL     1     -10.318   5.777  67.814  1.00  0.00    -0.213 C  
HETATM   33  O   UNL     1     -10.758   6.171  66.749  1.00  0.00    -0.291 OA 
HETATM   34  C   UNL     1      -8.665   7.352  70.831  1.00  0.00    -0.144 A  
ENDBRANCH   7  26
TORSDOF 4
ENDMDL
MODEL       47
REMARK 921   NORMALIZED FREE ENERGY PREDICTED BY IDOCK:   -7.24 KCAL/MOL
REMARK 922        TOTAL FREE ENERGY PREDICTED BY IDOCK:  -10.07 KCAL/MOL
REMARK 923 INTER-LIGAND FREE ENERGY PREDICTED BY IDOCK:   -9.22 KCAL/MOL
REMARK 924 INTRA-LIGAND FREE ENERGY PREDICTED BY IDOCK:   -0.85 KCAL/MOL
REMARK 927      BINDING AFFINITY PREDICTED BY RF-SCORE:    0.00 PKD
ROOT
HETATM    1  C   UNL     1     -12.131  13.256  67.056  1.00  0.00    -0.375 C  
HETATM    2  C   UNL     1     -11.429  11.960  67.341  1.00  0.00    -0.393 A  
HETATM    3  C   UNL     1     -10.705  11.376  66.290  1.00  0.00    -0.322 A  
HETATM    4  C   UNL     1     -10.098  10.138  66.454  1.00  0.00    -0.300 A  
HETATM    5  C   UNL     1     -10.236   9.496  67.671  1.00  0.00    -0.220 A  
HETATM    6  N   UNL     1     -10.880  10.061  68.703  1.00  0.00    -0.231 NA 
HETATM    7  C   UNL     1     -11.459  11.287  68.570  1.00  0.00    -0.306 A  
ENDROOT
BRANCH   5   8
HETATM    8  N   UNL     1      -9.683   8.218  67.785  1.00  0.00    -0.152 N  
HETATM    9  C   UNL     1     -10.290   7.055  67.375  1.00  0.00    -0.244 C  
HETATM   10  H   UNL     1      -8.757   8.141  68.205  1.00  0.00     0.000 HD 
HETATM   11  O   UNL     1     -11.375   6.907  66.830  1.00  0.00    -0.269 OA 
BRANCH   9  12
HETATM   12  C   UNL     1      -9.455   5.827  67.688  1.00  0.00    -0.114 C  
HETATM   13  C   UNL     1      -8.219   5.550  66.838  1.00  0.00    -0.105 C  
HETATM   14  C   UNL     1      -9.450   4.729  66.632  1.00  0.00    -0.161 C  
BRANCH  12  15
HETATM   15  C   UNL     1      -9.463   5.432  69.166  1.00  0.00    -0.177 A  
HETATM   16  C   UNL     1      -8.596   3.944  70.936  1.00  0.00    -0.107 A  
HETATM   17  C   UNL     1      -8.520   4.486  69.649  1.00  0.00    -0.087 A  
HETATM   18  C   UNL     1      -9.625   4.369  71.743  1.00  0.00    -0.158 A  
HETATM   19  O   UNL     1      -9.895   3.912  72.994  1.00  0.00    -0.123 OA 
HETATM   20  C   UNL     1     -11.091   4.650  73.270  1.00  0.00    -0.321 C  
HETATM   21  F   UNL     1     -12.112   3.772  73.451  1.00  0.00    -0.214 F  
HETATM   22  F   UNL     1     -10.923   5.323  74.434  1.00  0.00    -0.270 F  
HETATM   23  O   UNL     1     -11.476   5.584  72.254  1.00  0.00    -0.242 OA 
HETATM   24  C   UNL     1     -10.527   5.314  71.317  1.00  0.00    -0.204 A  
HETATM   25  C   UNL     1     -10.468   5.867  70.053  1.00  0.00    -0.334 A  
ENDBRANCH  12  15
ENDBRANCH   9  12
ENDBRANCH   5   8
BRANCH   7  26
HETATM   26  C   UNL     1     -12.097  11.763  69.831  1.00  0.00    -0.359 A  
HETATM   27  C   UNL     1     -12.655  10.839  70.743  1.00  0.00    -0.476 A  
HETATM   28  C   UNL     1     -12.744  13.529  71.415  1.00  0.00    -0.423 A  
HETATM   29  O   UNL     1     -12.727  15.307  72.998  1.00  0.00    -0.361 OA 
HETATM   30  C   UNL     1     -12.136  13.113  70.217  1.00  0.00    -0.399 A  
HETATM   31  C   UNL     1     -13.317  12.590  72.275  1.00  0.00    -0.475 A  
HETATM   32  C   UNL     1     -12.795  14.987  71.689  1.00  0.00    -0.345 C  
HETATM   33  O   UNL     1     -12.861  15.821  70.804  1.00  0.00    -0.457 OA 
HETATM   34  C   UNL     1     -13.253  11.240  71.946  1.00  0.00    -0.491 A  
ENDBRANCH   7  26
TORSDOF 4
ENDMDL
MODEL       48
REMARK 921   NORMALIZED FREE ENERGY PREDICTED BY IDOCK:   -7.21 KCAL/MOL
REMARK 922        TOTAL FREE ENERGY PREDICTED BY IDOCK:  -10.04 KCAL/MOL
REMARK 923 INTER-LIGAND FREE ENERGY PREDICTED BY IDOCK:   -9.16 KCAL/MOL
REMARK 924 INTRA-LIGAND FREE ENERGY PREDICTED BY IDOCK:   -0.89 KCAL/MOL
REMARK 927      BINDING AFFINITY PREDICTED BY RF-SCORE:    0.00 PKD
ROOT
HETATM    1  C   UNL     1      -8.085   4.044  67.835  1.00  0.00    -0.089 C  
HETATM    2  C   UNL     1      -9.005   5.049  68.463  1.00  0.00    -0.125 A  
HETATM    3  C   UNL     1      -9.820   4.606  69.517  1.00  0.00    -0.286 A  
HETATM    4  C   UNL     1     -10.754   5.458  70.092  1.00  0.00    -0.295 A  
HETATM    5  C   UNL     1     -10.866   6.742  69.593  1.00  0.00    -0.271 A  
HETATM    6  N   UNL     1     -10.062   7.200  68.622  1.00  0.00    -0.167 NA 
HETATM    7  C   UNL     1      -9.120   6.388  68.064  1.00  0.00    -0.113 A  
ENDROOT
BRANCH   5   8
HETATM    8  N   UNL     1     -11.867   7.553  70.135  1.00  0.00    -0.494 N  
HETATM    9  C   UNL     1     -11.715   8.372  71.227  1.00  0.00    -0.285 C  
HETATM   10  H   UNL     1     -12.782   7.536  69.684  1.00  0.00     0.000 HD 
HETATM   11  O   UNL     1     -10.716   8.570  71.904  1.00  0.00    -0.272 OA 
BRANCH   9  12
HETATM   12  C   UNL     1     -13.004   9.081  71.601  1.00  0.00    -0.418 C  
HETATM   13  C   UNL     1     -13.843   8.513  72.742  1.00  0.00    -0.109 C  
HETATM   14  C   UNL     1     -14.294   8.316  71.332  1.00  0.00    -0.461 C  
BRANCH  12  15
HETATM   15  C   UNL     1     -12.975  10.591  71.358  1.00  0.00    -0.542 A  
HETATM   16  C   UNL     1     -12.034  12.485  70.083  1.00  0.00    -0.377 A  
HETATM   17  C   UNL     1     -12.256  11.114  70.251  1.00  0.00    -0.436 A  
HETATM   18  C   UNL     1     -12.551  13.331  71.035  1.00  0.00    -0.324 A  
HETATM   19  O   UNL     1     -12.387  14.680  71.074  1.00  0.00    -0.290 OA 
HETATM   20  C   UNL     1     -13.067  14.974  72.300  1.00  0.00    -0.358 C  
HETATM   21  F   UNL     1     -12.174  15.510  73.173  1.00  0.00    -0.419 F  
HETATM   22  F   UNL     1     -14.011  15.914  72.055  1.00  0.00    -0.516 F  
HETATM   23  O   UNL     1     -13.694  13.849  72.930  1.00  0.00    -0.680 OA 
HETATM   24  C   UNL     1     -13.288  12.857  72.093  1.00  0.00    -0.515 A  
HETATM   25  C   UNL     1     -13.524  11.508  72.275  1.00  0.00    -0.055 A  
ENDBRANCH  12  15
ENDBRANCH   9  12
ENDBRANCH   5   8
BRANCH   7  26
HETATM   26  C   UNL     1      -8.302   7.082  67.028  1.00  0.00    -0.121 A  
HETATM   27  C   UNL     1      -6.900   6.917  66.994  1.00  0.00    -0.065 A  
HETATM   28  C   UNL     1      -8.057   8.516  65.045  1.00  0.00    -0.148 A  
HETATM   29  O   UNL     1      -8.151   9.421  62.845  1.00  0.00    -0.133 OA 
HETATM   30  C   UNL     1      -8.856   7.876  66.009  1.00  0.00    -0.191 A  
HETATM   31  C   UNL     1      -6.670   8.357  65.065  1.00  0.00    -0.063 A  
HETATM   32  C   UNL     1      -8.739   9.391  64.059  1.00  0.00    -0.200 C  
HETATM   33  O   UNL     1      -9.759  10.004  64.319  1.00  0.00    -0.296 OA 
HETATM   34  C   UNL     1      -6.094   7.540  66.030  1.00  0.00    -0.038 A  
ENDBRANCH   7  26
TORSDOF 4
ENDMDL
MODEL       49
REMARK 921   NORMALIZED FREE ENERGY PREDICTED BY IDOCK:   -7.20 KCAL/MOL
REMARK 922        TOTAL FREE ENERGY PREDICTED BY IDOCK:  -10.03 KCAL/MOL
REMARK 923 INTER-LIGAND FREE ENERGY PREDICTED BY IDOCK:   -9.07 KCAL/MOL
REMARK 924 INTRA-LIGAND FREE ENERGY PREDICTED BY IDOCK:   -0.96 KCAL/MOL
REMARK 927      BINDING AFFINITY PREDICTED BY RF-SCORE:    0.00 PKD
ROOT
HETATM    1  C   UNL     1     -12.763   7.017  70.996  1.00  0.00    -0.300 C  
HETATM    2  C   UNL     1     -12.524   8.497  71.085  1.00  0.00    -0.195 A  
HETATM    3  C   UNL     1     -13.454   9.256  71.813  1.00  0.00    -0.483 A  
HETATM    4  C   UNL     1     -13.344  10.639  71.871  1.00  0.00    -0.454 A  
HETATM    5  C   UNL     1     -12.307  11.244  71.186  1.00  0.00    -0.324 A  
HETATM    6  N   UNL     1     -11.379  10.533  70.528  1.00  0.00    -0.325 NA 
HETATM    7  C   UNL     1     -11.454   9.173  70.483  1.00  0.00    -0.229 A  
ENDROOT
BRANCH   5   8
HETATM    8  N   UNL     1     -12.264  12.641  71.195  1.00  0.00    -0.341 N  
HETATM    9  C   UNL     1     -12.045  13.431  70.093  1.00  0.00    -0.344 C  
HETATM   10  H   UNL     1     -12.408  13.110  72.089  1.00  0.00     0.000 HD 
HETATM   11  O   UNL     1     -11.873  13.095  68.930  1.00  0.00    -0.300 OA 
BRANCH   9  12
HETATM   12  C   UNL     1     -12.002  14.908  70.442  1.00  0.00    -0.368 C  
HETATM   13  C   UNL     1     -12.266  15.323  71.886  1.00  0.00    -0.433 C  
HETATM   14  C   UNL     1     -13.325  15.540  70.855  1.00  0.00    -0.414 C  
BRANCH  12  15
HETATM   15  C   UNL     1     -11.030  15.720  69.584  1.00  0.00    -0.306 A  
HETATM   16  C   UNL     1      -8.695  16.386  69.134  1.00  0.00    -0.185 A  
HETATM   17  C   UNL     1      -9.630  15.544  69.746  1.00  0.00    -0.205 A  
HETATM   18  C   UNL     1      -9.178  17.403  68.346  1.00  0.00    -0.277 A  
HETATM   19  O   UNL     1      -8.430  18.351  67.723  1.00  0.00    -0.253 OA 
HETATM   20  C   UNL     1      -9.472  19.146  67.146  1.00  0.00    -0.314 C  
HETATM   21  F   UNL     1      -9.409  20.396  67.676  1.00  0.00    -0.439 F  
HETATM   22  F   UNL     1      -9.244  19.256  65.815  1.00  0.00    -0.266 F  
HETATM   23  O   UNL     1     -10.799  18.641  67.343  1.00  0.00    -0.439 OA 
HETATM   24  C   UNL     1     -10.526  17.570  68.136  1.00  0.00    -0.386 A  
HETATM   25  C   UNL     1     -11.466  16.748  68.726  1.00  0.00     0.082 A  
ENDBRANCH  12  15
ENDBRANCH   9  12
ENDBRANCH   5   8
BRANCH   7  26
HETATM   26  C   UNL     1     -10.319   8.558  69.735  1.00  0.00    -0.212 A  
HETATM   27  C   UNL     1      -9.344   7.795  70.416  1.00  0.00    -0.160 A  
HETATM   28  C   UNL     1      -9.095   8.048  67.664  1.00  0.00    -0.144 A  
HETATM   29  O   UNL     1      -8.455   7.228  65.522  1.00  0.00    -0.141 OA 
HETATM   30  C   UNL     1     -10.177   8.641  68.340  1.00  0.00    -0.232 A  
HETATM   31  C   UNL     1      -8.131   7.332  68.375  1.00  0.00    -0.125 A  
HETATM   32  C   UNL     1      -9.002   8.261  66.198  1.00  0.00    -0.181 C  
HETATM   33  O   UNL     1      -9.413   9.269  65.652  1.00  0.00    -0.242 OA 
HETATM   34  C   UNL     1      -8.268   7.189  69.751  1.00  0.00    -0.131 A  
ENDBRANCH   7  26
TORSDOF 4
ENDMDL
MODEL       50
REMARK 921   NORMALIZED FREE ENERGY PREDICTED BY IDOCK:   -7.17 KCAL/MOL
REMARK 922        TOTAL FREE ENERGY PREDICTED BY IDOCK:   -9.98 KCAL/MOL
REMARK 923 INTER-LIGAND FREE ENERGY PREDICTED BY IDOCK:   -9.30 KCAL/MOL
REMARK 924 INTRA-LIGAND FREE ENERGY PREDICTED BY IDOCK:   -0.68 KCAL/MOL
REMARK 927      BINDING AFFINITY PREDICTED BY RF-SCORE:    0.00 PKD
ROOT
HETATM    1  C   UNL     1     -12.301  14.514  70.003  1.00  0.00    -0.376 C  
HETATM    2  C   UNL     1     -12.088  13.077  69.626  1.00  0.00    -0.304 A  
HETATM    3  C   UNL     1     -12.207  12.119  70.646  1.00  0.00    -0.392 A  
HETATM    4  C   UNL     1     -11.945  10.780  70.391  1.00  0.00    -0.448 A  
HETATM    5  C   UNL     1     -11.553  10.420  69.115  1.00  0.00    -0.164 A  
HETATM    6  N   UNL     1     -11.483  11.311  68.115  1.00  0.00    -0.365 NA 
HETATM    7  C   UNL     1     -11.764  12.626  68.339  1.00  0.00    -0.333 A  
ENDROOT
BRANCH   5   8
HETATM    8  N   UNL     1     -11.218   9.080  68.904  1.00  0.00    -0.409 N  
HETATM    9  C   UNL     1     -10.065   8.640  68.301  1.00  0.00    -0.192 C  
HETATM   10  H   UNL     1     -11.881   8.373  69.223  1.00  0.00     0.000 HD 
HETATM   11  O   UNL     1      -9.128   9.294  67.867  1.00  0.00    -0.128 OA 
BRANCH   9  12
HETATM   12  C   UNL     1     -10.023   7.128  68.171  1.00  0.00    -0.172 C  
HETATM   13  C   UNL     1      -9.579   6.523  66.842  1.00  0.00    -0.191 C  
HETATM   14  C   UNL     1     -11.028   6.508  67.207  1.00  0.00    -0.475 C  
BRANCH  12  15
HETATM   15  C   UNL     1      -9.708   6.401  69.479  1.00  0.00    -0.167 A  
HETATM   16  C   UNL     1      -8.087   5.089  70.802  1.00  0.00    -0.095 A  
HETATM   17  C   UNL     1      -8.393   5.921  69.720  1.00  0.00    -0.124 A  
HETATM   18  C   UNL     1      -9.114   4.749  71.650  1.00  0.00    -0.136 A  
HETATM   19  O   UNL     1      -9.022   3.908  72.714  1.00  0.00    -0.103 OA 
HETATM   20  C   UNL     1     -10.392   3.894  73.133  1.00  0.00    -0.168 C  
HETATM   21  F   UNL     1     -10.868   2.627  73.020  1.00  0.00    -0.232 F  
HETATM   22  F   UNL     1     -10.445   4.233  74.444  1.00  0.00    -0.214 F  
HETATM   23  O   UNL     1     -11.260   4.768  72.400  1.00  0.00    -0.069 OA 
HETATM   24  C   UNL     1     -10.387   5.234  71.467  1.00  0.00    -0.221 A  
HETATM   25  C   UNL     1     -10.710   6.061  70.409  1.00  0.00    -0.358 A  
ENDBRANCH  12  15
ENDBRANCH   9  12
ENDBRANCH   5   8
BRANCH   7  26
HETATM   26  C   UNL     1     -11.664  13.455  67.103  1.00  0.00    -0.424 A  
HETATM   27  C   UNL     1     -12.310  13.047  65.915  1.00  0.00    -0.432 A  
HETATM   28  C   UNL     1     -10.920  15.448  65.870  1.00  0.00    -0.293 A  
HETATM   29  O   UNL     1     -10.589  17.677  65.101  1.00  0.00    -0.636 OA 
HETATM   30  C   UNL     1     -10.994  14.688  67.051  1.00  0.00    -0.317 A  
HETATM   31  C   UNL     1     -11.541  14.995  64.705  1.00  0.00    -0.386 A  
HETATM   32  C   UNL     1     -10.124  16.700  65.908  1.00  0.00    -0.320 C  
HETATM   33  O   UNL     1      -9.152  16.840  66.629  1.00  0.00    -0.222 OA 
HETATM   34  C   UNL     1     -12.253  13.802  64.734  1.00  0.00    -0.438 A  
ENDBRANCH   7  26
TORSDOF 4
ENDMDL
MODEL       51
REMARK 921   NORMALIZED FREE ENERGY PREDICTED BY IDOCK:   -7.13 KCAL/MOL
REMARK 922        TOTAL FREE ENERGY PREDICTED BY IDOCK:   -9.94 KCAL/MOL
REMARK 923 INTER-LIGAND FREE ENERGY PREDICTED BY IDOCK:   -8.78 KCAL/MOL
REMARK 924 INTRA-LIGAND FREE ENERGY PREDICTED BY IDOCK:   -1.16 KCAL/MOL
REMARK 927      BINDING AFFINITY PREDICTED BY RF-SCORE:    0.00 PKD
ROOT
HETATM    1  C   UNL     1     -11.971  14.831  64.223  1.00  0.00    -0.387 C  
HETATM    2  C   UNL     1     -11.332  13.695  64.968  1.00  0.00    -0.339 A  
HETATM    3  C   UNL     1     -11.408  12.420  64.386  1.00  0.00    -0.396 A  
HETATM    4  C   UNL     1     -10.911  11.309  65.053  1.00  0.00    -0.285 A  
HETATM    5  C   UNL     1     -10.354  11.491  66.306  1.00  0.00    -0.239 A  
HETATM    6  N   UNL     1     -10.226  12.707  66.857  1.00  0.00    -0.233 NA 
HETATM    7  C   UNL     1     -10.682  13.813  66.205  1.00  0.00    -0.283 A  
ENDROOT
BRANCH   5   8
HETATM    8  N   UNL     1      -9.934  10.347  66.990  1.00  0.00    -0.198 N  
HETATM    9  C   UNL     1      -8.636   9.903  67.064  1.00  0.00    -0.128 C  
HETATM   10  H   UNL     1     -10.647   9.800  67.474  1.00  0.00     0.000 HD 
HETATM   11  O   UNL     1      -7.626  10.403  66.590  1.00  0.00    -0.106 OA 
BRANCH   9  12
HETATM   12  C   UNL     1      -8.515   8.601  67.835  1.00  0.00    -0.129 C  
HETATM   13  C   UNL     1      -7.161   7.899  67.872  1.00  0.00    -0.086 C  
HETATM   14  C   UNL     1      -8.248   7.351  67.007  1.00  0.00    -0.121 C  
BRANCH  12  15
HETATM   15  C   UNL     1      -9.453   8.504  69.040  1.00  0.00    -0.150 A  
HETATM   16  C   UNL     1      -9.852   9.011  71.424  1.00  0.00    -0.381 A  
HETATM   17  C   UNL     1      -9.142   9.208  70.234  1.00  0.00    -0.247 A  
HETATM   18  C   UNL     1     -10.887   8.107  71.402  1.00  0.00    -0.234 A  
HETATM   19  O   UNL     1     -11.646   7.741  72.469  1.00  0.00    -0.343 OA 
HETATM   20  C   UNL     1     -12.470   6.746  71.852  1.00  0.00    -0.312 C  
HETATM   21  F   UNL     1     -12.235   5.552  72.456  1.00  0.00    -0.329 F  
HETATM   22  F   UNL     1     -13.769   7.064  72.072  1.00  0.00    -0.358 F  
HETATM   23  O   UNL     1     -12.273   6.583  70.442  1.00  0.00    -0.306 OA 
HETATM   24  C   UNL     1     -11.237   7.444  70.250  1.00  0.00    -0.247 A  
HETATM   25  C   UNL     1     -10.555   7.627  69.064  1.00  0.00    -0.186 A  
ENDBRANCH  12  15
ENDBRANCH   9  12
ENDBRANCH   5   8
BRANCH   7  26
HETATM   26  C   UNL     1     -10.422  15.074  66.957  1.00  0.00    -0.278 A  
HETATM   27  C   UNL     1     -11.194  15.400  68.095  1.00  0.00    -0.326 A  
HETATM   28  C   UNL     1      -9.167  17.149  67.367  1.00  0.00    -0.232 A  
HETATM   29  O   UNL     1      -7.470  18.738  67.880  1.00  0.00    -0.236 OA 
HETATM   30  C   UNL     1      -9.388  15.968  66.635  1.00  0.00    -0.268 A  
HETATM   31  C   UNL     1      -9.974  17.455  68.464  1.00  0.00    -0.331 A  
HETATM   32  C   UNL     1      -8.094  18.059  66.895  1.00  0.00    -0.236 C  
HETATM   33  O   UNL     1      -7.786  18.159  65.720  1.00  0.00    -0.523 OA 
HETATM   34  C   UNL     1     -10.976  16.568  68.840  1.00  0.00    -0.325 A  
ENDBRANCH   7  26
TORSDOF 4
ENDMDL
MODEL       52
REMARK 921   NORMALIZED FREE ENERGY PREDICTED BY IDOCK:   -7.12 KCAL/MOL
REMARK 922        TOTAL FREE ENERGY PREDICTED BY IDOCK:   -9.93 KCAL/MOL
REMARK 923 INTER-LIGAND FREE ENERGY PREDICTED BY IDOCK:   -8.63 KCAL/MOL
REMARK 924 INTRA-LIGAND FREE ENERGY PREDICTED BY IDOCK:   -1.30 KCAL/MOL
REMARK 927      BINDING AFFINITY PREDICTED BY RF-SCORE:    0.00 PKD
ROOT
HETATM    1  C   UNL     1     -12.371  14.839  64.246  1.00  0.00    -0.345 C  
HETATM    2  C   UNL     1     -11.594  13.577  64.483  1.00  0.00    -0.410 A  
HETATM    3  C   UNL     1     -11.596  12.617  63.459  1.00  0.00    -0.584 A  
HETATM    4  C   UNL     1     -10.968  11.392  63.638  1.00  0.00    -0.443 A  
HETATM    5  C   UNL     1     -10.354  11.141  64.851  1.00  0.00    -0.313 A  
HETATM    6  N   UNL     1     -10.296  12.064  65.823  1.00  0.00    -0.245 NA 
HETATM    7  C   UNL     1     -10.883  13.283  65.655  1.00  0.00    -0.279 A  
ENDROOT
BRANCH   5   8
HETATM    8  N   UNL     1      -9.797   9.873  65.036  1.00  0.00    -0.380 N  
HETATM    9  C   UNL     1      -8.454   9.607  65.141  1.00  0.00    -0.150 C  
HETATM   10  H   UNL     1     -10.439   9.082  65.098  1.00  0.00     0.000 HD 
HETATM   11  O   UNL     1      -7.513  10.388  65.120  1.00  0.00    -0.140 OA 
BRANCH   9  12
HETATM   12  C   UNL     1      -8.168   8.123  65.279  1.00  0.00    -0.150 C  
HETATM   13  C   UNL     1      -6.783   7.608  64.900  1.00  0.00    -0.050 C  
HETATM   14  C   UNL     1      -7.935   7.359  63.982  1.00  0.00    -0.091 C  
BRANCH  12  15
HETATM   15  C   UNL     1      -8.947   7.444  66.408  1.00  0.00    -0.190 A  
HETATM   16  C   UNL     1     -10.605   5.738  67.070  1.00  0.00    -0.373 A  
HETATM   17  C   UNL     1      -9.727   6.289  66.131  1.00  0.00    -0.021 A  
HETATM   18  C   UNL     1     -10.688   6.352  68.298  1.00  0.00    -0.285 A  
HETATM   19  O   UNL     1     -11.524   5.999  69.309  1.00  0.00    -0.345 OA 
HETATM   20  C   UNL     1     -11.209   7.026  70.257  1.00  0.00    -0.298 C  
HETATM   21  F   UNL     1     -12.326   7.765  70.483  1.00  0.00    -0.157 F  
HETATM   22  F   UNL     1     -10.865   6.440  71.429  1.00  0.00    -0.252 F  
HETATM   23  O   UNL     1     -10.154   7.912  69.862  1.00  0.00    -0.190 OA 
HETATM   24  C   UNL     1      -9.913   7.444  68.608  1.00  0.00    -0.169 A  
HETATM   25  C   UNL     1      -9.035   8.001  67.699  1.00  0.00    -0.138 A  
ENDBRANCH  12  15
ENDBRANCH   9  12
ENDBRANCH   5   8
BRANCH   7  26
HETATM   26  C   UNL     1     -10.685  14.184  66.827  1.00  0.00    -0.286 A  
HETATM   27  C   UNL     1      -9.689  15.185  66.799  1.00  0.00    -0.255 A  
HETATM   28  C   UNL     1     -11.277  15.006  69.067  1.00  0.00    -0.279 A  
HETATM   29  O   UNL     1     -12.400  15.967  70.934  1.00  0.00    -0.380 OA 
HETATM   30  C   UNL     1     -11.487  14.141  67.979  1.00  0.00    -0.342 A  
HETATM   31  C   UNL     1     -10.259  15.961  69.018  1.00  0.00    -0.227 A  
HETATM   32  C   UNL     1     -12.135  14.826  70.265  1.00  0.00    -0.322 C  
HETATM   33  O   UNL     1     -12.584  13.742  70.595  1.00  0.00    -0.332 OA 
HETATM   34  C   UNL     1      -9.477  16.062  67.873  1.00  0.00    -0.210 A  
ENDBRANCH   7  26
TORSDOF 4
ENDMDL
MODEL       53
REMARK 921   NORMALIZED FREE ENERGY PREDICTED BY IDOCK:   -7.10 KCAL/MOL
REMARK 922        TOTAL FREE ENERGY PREDICTED BY IDOCK:   -9.91 KCAL/MOL
REMARK 923 INTER-LIGAND FREE ENERGY PREDICTED BY IDOCK:   -9.11 KCAL/MOL
REMARK 924 INTRA-LIGAND FREE ENERGY PREDICTED BY IDOCK:   -0.80 KCAL/MOL
REMARK 927      BINDING AFFINITY PREDICTED BY RF-SCORE:    0.00 PKD
ROOT
HETATM    1  C   UNL     1     -12.123  13.090  69.485  1.00  0.00    -0.289 C  
HETATM    2  C   UNL     1     -11.723  11.653  69.659  1.00  0.00    -0.418 A  
HETATM    3  C   UNL     1     -11.952  11.068  70.914  1.00  0.00    -0.391 A  
HETATM    4  C   UNL     1     -11.535   9.770  71.174  1.00  0.00    -0.472 A  
HETATM    5  C   UNL     1     -10.881   9.078  70.172  1.00  0.00    -0.237 A  
HETATM    6  N   UNL     1     -10.698   9.600  68.950  1.00  0.00    -0.219 NA 
HETATM    7  C   UNL     1     -11.126  10.863  68.667  1.00  0.00    -0.252 A  
ENDROOT
BRANCH   5   8
HETATM    8  N   UNL     1     -10.401   7.803  70.484  1.00  0.00    -0.203 N  
HETATM    9  C   UNL     1     -11.167   6.665  70.548  1.00  0.00    -0.334 C  
HETATM   10  H   UNL     1      -9.404   7.710  70.680  1.00  0.00     0.000 HD 
HETATM   11  O   UNL     1     -12.363   6.532  70.332  1.00  0.00    -0.222 OA 
BRANCH   9  12
HETATM   12  C   UNL     1     -10.360   5.449  70.967  1.00  0.00    -0.307 C  
HETATM   13  C   UNL     1     -10.591   4.865  72.357  1.00  0.00    -0.263 C  
HETATM   14  C   UNL     1      -9.356   5.664  72.093  1.00  0.00    -0.160 C  
BRANCH  12  15
HETATM   15  C   UNL     1      -9.985   4.524  69.808  1.00  0.00    -0.268 A  
HETATM   16  C   UNL     1      -8.688   2.572  69.028  1.00  0.00    -0.132 A  
HETATM   17  C   UNL     1      -9.221   3.353  70.059  1.00  0.00    -0.220 A  
HETATM   18  C   UNL     1      -8.938   2.972  67.737  1.00  0.00    -0.157 A  
HETATM   19  O   UNL     1      -8.455   2.379  66.613  1.00  0.00    -0.088 OA 
HETATM   20  C   UNL     1      -8.980   3.270  65.622  1.00  0.00    -0.144 C  
HETATM   21  F   UNL     1      -7.941   3.845  64.961  1.00  0.00    -0.088 F  
HETATM   22  F   UNL     1      -9.685   2.545  64.719  1.00  0.00    -0.150 F  
HETATM   23  O   UNL     1      -9.823   4.313  66.129  1.00  0.00    -0.198 OA 
HETATM   24  C   UNL     1      -9.710   4.076  67.464  1.00  0.00    -0.125 A  
HETATM   25  C   UNL     1     -10.251   4.857  68.465  1.00  0.00    -0.105 A  
ENDBRANCH  12  15
ENDBRANCH   9  12
ENDBRANCH   5   8
BRANCH   7  26
HETATM   26  C   UNL     1     -10.865  11.255  67.252  1.00  0.00    -0.317 A  
HETATM   27  C   UNL     1      -9.728  10.766  66.572  1.00  0.00    -0.236 A  
HETATM   28  C   UNL     1     -11.460  12.416  65.167  1.00  0.00    -0.379 A  
HETATM   29  O   UNL     1     -12.535  13.124  63.164  1.00  0.00    -0.686 OA 
HETATM   30  C   UNL     1     -11.733  12.065  66.501  1.00  0.00    -0.330 A  
HETATM   31  C   UNL     1     -10.306  11.941  64.539  1.00  0.00    -0.334 A  
HETATM   32  C   UNL     1     -12.407  13.337  64.490  1.00  0.00    -0.368 C  
HETATM   33  O   UNL     1     -13.036  14.190  65.091  1.00  0.00    -0.757 OA 
HETATM   34  C   UNL     1      -9.450  11.099  65.238  1.00  0.00    -0.257 A  
ENDBRANCH   7  26
TORSDOF 4
ENDMDL
MODEL       54
REMARK 921   NORMALIZED FREE ENERGY PREDICTED BY IDOCK:   -7.09 KCAL/MOL
REMARK 922        TOTAL FREE ENERGY PREDICTED BY IDOCK:   -9.89 KCAL/MOL
REMARK 923 INTER-LIGAND FREE ENERGY PREDICTED BY IDOCK:   -9.06 KCAL/MOL
REMARK 924 INTRA-LIGAND FREE ENERGY PREDICTED BY IDOCK:   -0.84 KCAL/MOL
REMARK 927      BINDING AFFINITY PREDICTED BY RF-SCORE:    0.00 PKD
ROOT
HETATM    1  C   UNL     1     -10.882  15.233  64.763  1.00  0.00    -0.379 C  
HETATM    2  C   UNL     1     -11.016  14.359  65.976  1.00  0.00    -0.316 A  
HETATM    3  C   UNL     1     -11.921  13.288  65.902  1.00  0.00    -0.466 A  
HETATM    4  C   UNL     1     -12.158  12.486  67.010  1.00  0.00    -0.147 A  
HETATM    5  C   UNL     1     -11.490  12.777  68.185  1.00  0.00    -0.314 A  
HETATM    6  N   UNL     1     -10.583  13.763  68.262  1.00  0.00    -0.248 NA 
HETATM    7  C   UNL     1     -10.317  14.543  67.177  1.00  0.00    -0.265 A  
ENDROOT
BRANCH   5   8
HETATM    8  N   UNL     1     -11.805  12.005  69.307  1.00  0.00    -0.319 N  
HETATM    9  C   UNL     1     -11.574  10.656  69.427  1.00  0.00    -0.280 C  
HETATM   10  H   UNL     1     -12.239  12.481  70.098  1.00  0.00     0.000 HD 
HETATM   11  O   UNL     1     -11.050   9.893  68.628  1.00  0.00    -0.209 OA 
BRANCH   9  12
HETATM   12  C   UNL     1     -12.080  10.100  70.746  1.00  0.00    -0.438 C  
HETATM   13  C   UNL     1     -13.577   9.848  70.903  1.00  0.00    -0.084 C  
HETATM   14  C   UNL     1     -12.957  11.030  71.575  1.00  0.00    -0.553 C  
BRANCH  12  15
HETATM   15  C   UNL     1     -11.078   9.194  71.463  1.00  0.00    -0.436 A  
HETATM   16  C   UNL     1     -10.669   7.514  73.226  1.00  0.00    -0.437 A  
HETATM   17  C   UNL     1     -11.541   8.236  72.404  1.00  0.00    -0.464 A  
HETATM   18  C   UNL     1      -9.323   7.755  73.088  1.00  0.00    -0.255 A  
HETATM   19  O   UNL     1      -8.335   7.198  73.837  1.00  0.00    -0.129 OA 
HETATM   20  C   UNL     1      -7.200   7.880  73.290  1.00  0.00    -0.107 C  
HETATM   21  F   UNL     1      -6.619   8.614  74.275  1.00  0.00    -0.148 F  
HETATM   22  F   UNL     1      -6.296   6.956  72.884  1.00  0.00    -0.055 F  
HETATM   23  O   UNL     1      -7.489   8.752  72.189  1.00  0.00    -0.291 OA 
HETATM   24  C   UNL     1      -8.844   8.644  72.156  1.00  0.00    -0.175 A  
HETATM   25  C   UNL     1      -9.686   9.363  71.330  1.00  0.00    -0.210 A  
ENDBRANCH  12  15
ENDBRANCH   9  12
ENDBRANCH   5   8
BRANCH   7  26
HETATM   26  C   UNL     1      -9.260  15.561  67.446  1.00  0.00    -0.209 A  
HETATM   27  C   UNL     1      -7.898  15.252  67.232  1.00  0.00    -0.240 A  
HETATM   28  C   UNL     1      -8.518  17.812  68.102  1.00  0.00    -0.262 A  
HETATM   29  O   UNL     1      -8.123  20.158  68.200  1.00  0.00    -0.246 OA 
HETATM   30  C   UNL     1      -9.538  16.874  67.860  1.00  0.00    -0.244 A  
HETATM   31  C   UNL     1      -7.181  17.458  67.914  1.00  0.00    -0.193 A  
HETATM   32  C   UNL     1      -8.920  19.149  68.608  1.00  0.00    -0.369 C  
HETATM   33  O   UNL     1      -9.903  19.319  69.307  1.00  0.00    -0.375 OA 
HETATM   34  C   UNL     1      -6.873  16.182  67.459  1.00  0.00    -0.194 A  
ENDBRANCH   7  26
TORSDOF 4
ENDMDL
MODEL       55
REMARK 921   NORMALIZED FREE ENERGY PREDICTED BY IDOCK:   -7.05 KCAL/MOL
REMARK 922        TOTAL FREE ENERGY PREDICTED BY IDOCK:   -9.85 KCAL/MOL
REMARK 923 INTER-LIGAND FREE ENERGY PREDICTED BY IDOCK:   -9.08 KCAL/MOL
REMARK 924 INTRA-LIGAND FREE ENERGY PREDICTED BY IDOCK:   -0.77 KCAL/MOL
REMARK 927      BINDING AFFINITY PREDICTED BY RF-SCORE:    0.00 PKD
ROOT
HETATM    1  C   UNL     1      -8.487   8.687  70.660  1.00  0.00    -0.174 C  
HETATM    2  C   UNL     1      -8.930   9.792  69.745  1.00  0.00    -0.239 A  
HETATM    3  C   UNL     1      -7.995  10.271  68.814  1.00  0.00    -0.113 A  
HETATM    4  C   UNL     1      -8.305  11.345  67.991  1.00  0.00    -0.143 A  
HETATM    5  C   UNL     1      -9.549  11.934  68.122  1.00  0.00    -0.195 A  
HETATM    6  N   UNL     1     -10.475  11.460  68.969  1.00  0.00    -0.197 NA 
HETATM    7  C   UNL     1     -10.199  10.389  69.766  1.00  0.00    -0.184 A  
ENDROOT
BRANCH   5   8
HETATM    8  N   UNL     1      -9.808  13.062  67.339  1.00  0.00    -0.212 N  
HETATM    9  C   UNL     1     -10.049  14.323  67.826  1.00  0.00    -0.231 C  
HETATM   10  H   UNL     1      -9.817  12.939  66.326  1.00  0.00     0.000 HD 
HETATM   11  O   UNL     1     -10.064  14.708  68.986  1.00  0.00    -0.229 OA 
BRANCH   9  12
HETATM   12  C   UNL     1     -10.350  15.320  66.721  1.00  0.00    -0.279 C  
HETATM   13  C   UNL     1     -11.559  15.071  65.825  1.00  0.00    -0.171 C  
HETATM   14  C   UNL     1     -10.187  14.812  65.294  1.00  0.00    -0.415 C  
BRANCH  12  15
HETATM   15  C   UNL     1      -9.931  16.755  67.049  1.00  0.00    -0.269 A  
HETATM   16  C   UNL     1     -10.568  19.136  67.194  1.00  0.00    -0.564 A  
HETATM   17  C   UNL     1     -10.909  17.784  67.089  1.00  0.00    -0.125 A  
HETATM   18  C   UNL     1      -9.231  19.448  67.269  1.00  0.00    -0.314 A  
HETATM   19  O   UNL     1      -8.708  20.702  67.313  1.00  0.00    -0.334 OA 
HETATM   20  C   UNL     1      -7.312  20.385  67.301  1.00  0.00    -0.310 C  
HETATM   21  F   UNL     1      -6.756  20.913  66.179  1.00  0.00    -0.273 F  
HETATM   22  F   UNL     1      -6.724  20.983  68.366  1.00  0.00    -0.299 F  
HETATM   23  O   UNL     1      -7.007  18.985  67.338  1.00  0.00    -0.204 OA 
HETATM   24  C   UNL     1      -8.265  18.471  67.276  1.00  0.00    -0.249 A  
HETATM   25  C   UNL     1      -8.579  17.130  67.179  1.00  0.00    -0.221 A  
ENDBRANCH  12  15
ENDBRANCH   9  12
ENDBRANCH   5   8
BRANCH   7  26
HETATM   26  C   UNL     1     -11.358   9.987  70.613  1.00  0.00    -0.425 A  
HETATM   27  C   UNL     1     -12.216  10.967  71.162  1.00  0.00    -0.441 A  
HETATM   28  C   UNL     1     -12.806   8.305  71.672  1.00  0.00    -0.350 A  
HETATM   29  O   UNL     1     -14.335   6.526  72.078  1.00  0.00    -0.170 OA 
HETATM   30  C   UNL     1     -11.704   8.650  70.869  1.00  0.00    -0.287 A  
HETATM   31  C   UNL     1     -13.610   9.302  72.227  1.00  0.00    -0.544 A  
HETATM   32  C   UNL     1     -13.036   6.862  71.938  1.00  0.00    -0.184 C  
HETATM   33  O   UNL     1     -12.129   6.051  71.995  1.00  0.00    -0.280 OA 
HETATM   34  C   UNL     1     -13.324  10.634  71.954  1.00  0.00    -0.454 A  
ENDBRANCH   7  26
TORSDOF 4
ENDMDL
MODEL       56
REMARK 921   NORMALIZED FREE ENERGY PREDICTED BY IDOCK:   -7.05 KCAL/MOL
REMARK 922        TOTAL FREE ENERGY PREDICTED BY IDOCK:   -9.84 KCAL/MOL
REMARK 923 INTER-LIGAND FREE ENERGY PREDICTED BY IDOCK:   -9.30 KCAL/MOL
REMARK 924 INTRA-LIGAND FREE ENERGY PREDICTED BY IDOCK:   -0.54 KCAL/MOL
REMARK 927      BINDING AFFINITY PREDICTED BY RF-SCORE:    0.00 PKD
ROOT
HETATM    1  C   UNL     1     -11.831   9.371  71.898  1.00  0.00    -0.402 C  
HETATM    2  C   UNL     1     -11.349  10.150  70.710  1.00  0.00    -0.436 A  
HETATM    3  C   UNL     1     -12.130  11.240  70.294  1.00  0.00    -0.459 A  
HETATM    4  C   UNL     1     -11.791  11.957  69.155  1.00  0.00    -0.371 A  
HETATM    5  C   UNL     1     -10.677  11.563  68.438  1.00  0.00    -0.208 A  
HETATM    6  N   UNL     1      -9.889  10.556  68.846  1.00  0.00    -0.192 NA 
HETATM    7  C   UNL     1     -10.189   9.859  69.978  1.00  0.00    -0.271 A  
ENDROOT
BRANCH   5   8
HETATM    8  N   UNL     1     -10.403  12.250  67.253  1.00  0.00    -0.213 N  
HETATM    9  C   UNL     1     -11.328  12.552  66.283  1.00  0.00    -0.338 C  
HETATM   10  H   UNL     1      -9.441  12.551  67.095  1.00  0.00     0.000 HD 
HETATM   11  O   UNL     1     -12.527  12.315  66.266  1.00  0.00    -0.421 OA 
BRANCH   9  12
HETATM   12  C   UNL     1     -10.705  13.256  65.091  1.00  0.00    -0.333 C  
HETATM   13  C   UNL     1     -11.233  12.933  63.696  1.00  0.00    -0.418 C  
HETATM   14  C   UNL     1      -9.915  12.378  64.129  1.00  0.00    -0.244 C  
BRANCH  12  15
HETATM   15  C   UNL     1     -10.190  14.663  65.401  1.00  0.00    -0.415 A  
HETATM   16  C   UNL     1      -8.635  16.082  66.692  1.00  0.00    -0.316 A  
HETATM   17  C   UNL     1      -9.041  14.829  66.219  1.00  0.00    -0.231 A  
HETATM   18  C   UNL     1      -9.389  17.172  66.327  1.00  0.00    -0.234 A  
HETATM   19  O   UNL     1      -9.186  18.452  66.736  1.00  0.00    -0.275 OA 
HETATM   20  C   UNL     1     -10.303  19.090  66.106  1.00  0.00    -0.468 C  
HETATM   21  F   UNL     1     -11.105  19.614  67.070  1.00  0.00    -0.581 F  
HETATM   22  F   UNL     1      -9.845  20.120  65.354  1.00  0.00    -0.385 F  
HETATM   23  O   UNL     1     -11.099  18.236  65.274  1.00  0.00    -0.431 OA 
HETATM   24  C   UNL     1     -10.480  17.046  65.501  1.00  0.00    -0.166 A  
HETATM   25  C   UNL     1     -10.895  15.821  65.018  1.00  0.00    -0.461 A  
ENDBRANCH  12  15
ENDBRANCH   9  12
ENDBRANCH   5   8
BRANCH   7  26
HETATM   26  C   UNL     1      -9.182   8.803  70.288  1.00  0.00    -0.191 A  
HETATM   27  C   UNL     1      -8.034   9.112  71.051  1.00  0.00    -0.166 A  
HETATM   28  C   UNL     1      -8.361   6.486  70.216  1.00  0.00    -0.127 A  
HETATM   29  O   UNL     1      -8.100   4.137  70.501  1.00  0.00    -0.055 OA 
HETATM   30  C   UNL     1      -9.328   7.459  69.906  1.00  0.00    -0.154 A  
HETATM   31  C   UNL     1      -7.221   6.837  70.942  1.00  0.00    -0.073 A  
HETATM   32  C   UNL     1      -8.580   5.111  69.700  1.00  0.00    -0.092 C  
HETATM   33  O   UNL     1      -9.169   4.886  68.658  1.00  0.00    -0.109 OA 
HETATM   34  C   UNL     1      -7.069   8.148  71.376  1.00  0.00    -0.068 A  
ENDBRANCH   7  26
TORSDOF 4
ENDMDL
MODEL       57
REMARK 921   NORMALIZED FREE ENERGY PREDICTED BY IDOCK:   -7.05 KCAL/MOL
REMARK 922        TOTAL FREE ENERGY PREDICTED BY IDOCK:   -9.84 KCAL/MOL
REMARK 923 INTER-LIGAND FREE ENERGY PREDICTED BY IDOCK:   -8.71 KCAL/MOL
REMARK 924 INTRA-LIGAND FREE ENERGY PREDICTED BY IDOCK:   -1.12 KCAL/MOL
REMARK 927      BINDING AFFINITY PREDICTED BY RF-SCORE:    0.00 PKD
ROOT
HETATM    1  C   UNL     1     -13.466  13.225  72.092  1.00  0.00    -0.655 C  
HETATM    2  C   UNL     1     -12.901  12.022  71.393  1.00  0.00    -0.391 A  
HETATM    3  C   UNL     1     -13.145  10.767  71.973  1.00  0.00    -0.476 A  
HETATM    4  C   UNL     1     -12.586   9.619  71.429  1.00  0.00    -0.463 A  
HETATM    5  C   UNL     1     -11.779   9.746  70.314  1.00  0.00    -0.190 A  
HETATM    6  N   UNL     1     -11.576  10.930  69.715  1.00  0.00    -0.292 NA 
HETATM    7  C   UNL     1     -12.138  12.064  70.218  1.00  0.00    -0.312 A  
ENDROOT
BRANCH   5   8
HETATM    8  N   UNL     1     -11.165   8.586  69.833  1.00  0.00    -0.442 N  
HETATM    9  C   UNL     1      -9.845   8.256  70.020  1.00  0.00    -0.182 C  
HETATM   10  H   UNL     1     -11.743   7.934  69.302  1.00  0.00     0.000 HD 
HETATM   11  O   UNL     1      -8.982   8.864  70.635  1.00  0.00    -0.162 OA 
BRANCH   9  12
HETATM   12  C   UNL     1      -9.472   6.958  69.326  1.00  0.00    -0.147 C  
HETATM   13  C   UNL     1     -10.444   5.784  69.405  1.00  0.00    -0.360 C  
HETATM   14  C   UNL     1      -9.200   5.765  70.233  1.00  0.00    -0.174 C  
BRANCH  12  15
HETATM   15  C   UNL     1      -8.612   7.148  68.075  1.00  0.00    -0.128 A  
HETATM   16  C   UNL     1      -6.370   7.040  67.045  1.00  0.00    -0.048 A  
HETATM   17  C   UNL     1      -7.256   6.726  68.081  1.00  0.00    -0.091 A  
HETATM   18  C   UNL     1      -6.861   7.777  65.993  1.00  0.00    -0.057 A  
HETATM   19  O   UNL     1      -6.141   8.227  64.932  1.00  0.00    -0.048 OA 
HETATM   20  C   UNL     1      -7.155   8.971  64.247  1.00  0.00    -0.090 C  
HETATM   21  F   UNL     1      -6.781  10.277  64.203  1.00  0.00    -0.127 F  
HETATM   22  F   UNL     1      -7.226   8.526  62.969  1.00  0.00    -0.091 F  
HETATM   23  O   UNL     1      -8.462   8.896  64.830  1.00  0.00    -0.163 OA 
HETATM   24  C   UNL     1      -8.180   8.162  65.940  1.00  0.00    -0.122 A  
HETATM   25  C   UNL     1      -9.073   7.858  66.949  1.00  0.00    -0.172 A  
ENDBRANCH  12  15
ENDBRANCH   9  12
ENDBRANCH   5   8
BRANCH   7  26
HETATM   26  C   UNL     1     -11.827  13.272  69.400  1.00  0.00    -0.386 A  
HETATM   27  C   UNL     1     -11.242  14.410  70.000  1.00  0.00    -0.193 A  
HETATM   28  C   UNL     1     -11.725  14.495  67.269  1.00  0.00    -0.429 A  
HETATM   29  O   UNL     1     -11.203  15.208  65.058  1.00  0.00    -0.376 OA 
HETATM   30  C   UNL     1     -12.031  13.341  68.012  1.00  0.00    -0.351 A  
HETATM   31  C   UNL     1     -11.181  15.614  67.902  1.00  0.00    -0.328 A  
HETATM   32  C   UNL     1     -12.050  14.485  65.820  1.00  0.00    -0.279 C  
HETATM   33  O   UNL     1     -12.984  13.853  65.360  1.00  0.00    -0.722 OA 
HETATM   34  C   UNL     1     -10.922  15.562  69.267  1.00  0.00    -0.268 A  
ENDBRANCH   7  26
TORSDOF 4
ENDMDL
MODEL       58
REMARK 921   NORMALIZED FREE ENERGY PREDICTED BY IDOCK:   -7.02 KCAL/MOL
REMARK 922        TOTAL FREE ENERGY PREDICTED BY IDOCK:   -9.80 KCAL/MOL
REMARK 923 INTER-LIGAND FREE ENERGY PREDICTED BY IDOCK:   -9.07 KCAL/MOL
REMARK 924 INTRA-LIGAND FREE ENERGY PREDICTED BY IDOCK:   -0.73 KCAL/MOL
REMARK 927      BINDING AFFINITY PREDICTED BY RF-SCORE:    0.00 PKD
ROOT
HETATM    1  C   UNL     1     -10.797   7.067  67.375  1.00  0.00    -0.371 C  
HETATM    2  C   UNL     1     -10.311   8.461  67.646  1.00  0.00    -0.317 A  
HETATM    3  C   UNL     1      -9.773   9.177  66.565  1.00  0.00    -0.306 A  
HETATM    4  C   UNL     1      -9.229  10.440  66.755  1.00  0.00    -0.176 A  
HETATM    5  C   UNL     1      -9.222  10.965  68.034  1.00  0.00    -0.156 A  
HETATM    6  N   UNL     1      -9.778  10.319  69.071  1.00  0.00    -0.194 NA 
HETATM    7  C   UNL     1     -10.341   9.091  68.898  1.00  0.00    -0.215 A  
ENDROOT
BRANCH   5   8
HETATM    8  N   UNL     1      -8.599  12.203  68.213  1.00  0.00    -0.178 N  
HETATM    9  C   UNL     1      -8.949  13.364  67.568  1.00  0.00    -0.207 C  
HETATM   10  H   UNL     1      -7.823  12.248  68.875  1.00  0.00     0.000 HD 
HETATM   11  O   UNL     1      -9.848  13.553  66.762  1.00  0.00    -0.251 OA 
BRANCH   9  12
HETATM   12  C   UNL     1      -8.043  14.525  67.938  1.00  0.00    -0.151 C  
HETATM   13  C   UNL     1      -6.562  14.435  67.582  1.00  0.00    -0.172 C  
HETATM   14  C   UNL     1      -6.988  14.242  69.001  1.00  0.00    -0.112 C  
BRANCH  12  15
HETATM   15  C   UNL     1      -8.744  15.884  67.935  1.00  0.00    -0.168 A  
HETATM   16  C   UNL     1     -10.649  17.255  68.702  1.00  0.00    -0.329 A  
HETATM   17  C   UNL     1      -9.853  16.108  68.793  1.00  0.00    -0.230 A  
HETATM   18  C   UNL     1     -10.315  18.184  67.746  1.00  0.00    -0.399 A  
HETATM   19  O   UNL     1     -11.002  19.324  67.469  1.00  0.00    -0.465 OA 
HETATM   20  C   UNL     1     -10.234  19.810  66.363  1.00  0.00    -0.503 C  
HETATM   21  F   UNL     1     -11.033  19.854  65.265  1.00  0.00    -0.583 F  
HETATM   22  F   UNL     1      -9.844  21.080  66.633  1.00  0.00    -0.413 F  
HETATM   23  O   UNL     1      -9.072  19.034  66.043  1.00  0.00    -0.459 OA 
HETATM   24  C   UNL     1      -9.221  18.015  66.931  1.00  0.00    -0.269 A  
HETATM   25  C   UNL     1      -8.418  16.894  67.008  1.00  0.00    -0.228 A  
ENDBRANCH  12  15
ENDBRANCH   9  12
ENDBRANCH   5   8
BRANCH   7  26
HETATM   26  C   UNL     1     -10.935   8.548  70.154  1.00  0.00    -0.221 A  
HETATM   27  C   UNL     1     -12.025   9.201  70.771  1.00  0.00    -0.243 A  
HETATM   28  C   UNL     1     -11.087   6.869  71.945  1.00  0.00    -0.278 A  
HETATM   29  O   UNL     1     -11.401   4.859  73.182  1.00  0.00    -0.310 OA 
HETATM   30  C   UNL     1     -10.505   7.356  70.761  1.00  0.00    -0.221 A  
HETATM   31  C   UNL     1     -12.140   7.562  72.545  1.00  0.00    -0.158 A  
HETATM   32  C   UNL     1     -10.506   5.640  72.541  1.00  0.00    -0.213 C  
HETATM   33  O   UNL     1      -9.328   5.350  72.432  1.00  0.00    -0.143 OA 
HETATM   34  C   UNL     1     -12.622   8.719  71.945  1.00  0.00    -0.428 A  
ENDBRANCH   7  26
TORSDOF 4
ENDMDL
MODEL       59
REMARK 921   NORMALIZED FREE ENERGY PREDICTED BY IDOCK:   -7.02 KCAL/MOL
REMARK 922        TOTAL FREE ENERGY PREDICTED BY IDOCK:   -9.80 KCAL/MOL
REMARK 923 INTER-LIGAND FREE ENERGY PREDICTED BY IDOCK:   -8.96 KCAL/MOL
REMARK 924 INTRA-LIGAND FREE ENERGY PREDICTED BY IDOCK:   -0.84 KCAL/MOL
REMARK 927      BINDING AFFINITY PREDICTED BY RF-SCORE:    0.00 PKD
ROOT
HETATM    1  C   UNL     1     -10.379   8.554  66.822  1.00  0.00    -0.346 C  
HETATM    2  C   UNL     1      -9.715   9.882  67.038  1.00  0.00    -0.230 A  
HETATM    3  C   UNL     1      -8.961  10.405  65.976  1.00  0.00    -0.178 A  
HETATM    4  C   UNL     1      -8.251  11.588  66.129  1.00  0.00     0.018 A  
HETATM    5  C   UNL     1      -8.298  12.227  67.354  1.00  0.00    -0.177 A  
HETATM    6  N   UNL     1      -9.053  11.771  68.365  1.00  0.00    -0.188 NA 
HETATM    7  C   UNL     1      -9.778  10.626  68.225  1.00  0.00    -0.161 A  
ENDROOT
BRANCH   5   8
HETATM    8  N   UNL     1      -7.512  13.372  67.508  1.00  0.00    -0.200 N  
HETATM    9  C   UNL     1      -7.765  14.390  68.396  1.00  0.00    -0.132 C  
HETATM   10  H   UNL     1      -6.686  13.460  66.915  1.00  0.00     0.000 HD 
HETATM   11  O   UNL     1      -8.670  14.489  69.211  1.00  0.00    -0.038 OA 
BRANCH   9  12
HETATM   12  C   UNL     1      -6.757  15.519  68.280  1.00  0.00    -0.122 C  
HETATM   13  C   UNL     1      -5.336  15.185  67.837  1.00  0.00    -0.116 C  
HETATM   14  C   UNL     1      -5.602  15.494  69.274  1.00  0.00    -0.102 C  
BRANCH  12  15
HETATM   15  C   UNL     1      -7.374  16.866  67.898  1.00  0.00    -0.176 A  
HETATM   16  C   UNL     1      -7.709  19.247  68.461  1.00  0.00    -0.380 A  
HETATM   17  C   UNL     1      -7.040  18.031  68.638  1.00  0.00    -0.269 A  
HETATM   18  C   UNL     1      -8.714  19.286  67.524  1.00  0.00    -0.299 A  
HETATM   19  O   UNL     1      -9.511  20.354  67.258  1.00  0.00    -0.392 OA 
HETATM   20  C   UNL     1     -10.382  19.772  66.281  1.00  0.00    -0.519 C  
HETATM   21  F   UNL     1     -11.652  19.790  66.765  1.00  0.00    -0.245 F  
HETATM   22  F   UNL     1     -10.360  20.544  65.168  1.00  0.00    -0.378 F  
HETATM   23  O   UNL     1     -10.062  18.425  65.909  1.00  0.00    -0.540 OA 
HETATM   24  C   UNL     1      -9.030  18.186  66.763  1.00  0.00    -0.282 A  
HETATM   25  C   UNL     1      -8.379  16.978  66.917  1.00  0.00    -0.247 A  
ENDBRANCH  12  15
ENDBRANCH   9  12
ENDBRANCH   5   8
BRANCH   7  26
HETATM   26  C   UNL     1     -10.578  10.298  69.440  1.00  0.00    -0.262 A  
HETATM   27  C   UNL     1     -11.888  10.806  69.593  1.00  0.00    -0.392 A  
HETATM   28  C   UNL     1     -10.904   9.151  71.590  1.00  0.00    -0.442 A  
HETATM   29  O   UNL     1     -11.180   7.513  73.296  1.00  0.00    -0.346 OA 
HETATM   30  C   UNL     1     -10.124   9.443  70.457  1.00  0.00    -0.335 A  
HETATM   31  C   UNL     1     -12.180   9.700  71.724  1.00  0.00    -0.464 A  
HETATM   32  C   UNL     1     -10.297   8.294  72.640  1.00  0.00    -0.304 C  
HETATM   33  O   UNL     1      -9.100   8.278  72.865  1.00  0.00    -0.247 OA 
HETATM   34  C   UNL     1     -12.679  10.513  70.713  1.00  0.00    -0.471 A  
ENDBRANCH   7  26
TORSDOF 4
ENDMDL
MODEL       60
REMARK 921   NORMALIZED FREE ENERGY PREDICTED BY IDOCK:   -7.01 KCAL/MOL
REMARK 922        TOTAL FREE ENERGY PREDICTED BY IDOCK:   -9.79 KCAL/MOL
REMARK 923 INTER-LIGAND FREE ENERGY PREDICTED BY IDOCK:   -8.73 KCAL/MOL
REMARK 924 INTRA-LIGAND FREE ENERGY PREDICTED BY IDOCK:   -1.05 KCAL/MOL
REMARK 927      BINDING AFFINITY PREDICTED BY RF-SCORE:    0.00 PKD
ROOT
HETATM    1  C   UNL     1     -10.932  15.514  64.731  1.00  0.00    -0.416 C  
HETATM    2  C   UNL     1     -11.102  14.607  65.915  1.00  0.00    -0.338 A  
HETATM    3  C   UNL     1     -11.679  13.348  65.684  1.00  0.00    -0.374 A  
HETATM    4  C   UNL     1     -11.941  12.487  66.741  1.00  0.00    -0.327 A  
HETATM    5  C   UNL     1     -11.632  12.908  68.022  1.00  0.00    -0.342 A  
HETATM    6  N   UNL     1     -11.034  14.085  68.258  1.00  0.00    -0.247 NA 
HETATM    7  C   UNL     1     -10.742  14.931  67.231  1.00  0.00    -0.294 A  
ENDROOT
BRANCH   5   8
HETATM    8  N   UNL     1     -11.979  12.057  69.075  1.00  0.00    -0.295 N  
HETATM    9  C   UNL     1     -11.199  11.032  69.551  1.00  0.00    -0.279 C  
HETATM   10  H   UNL     1     -12.882  12.210  69.525  1.00  0.00     0.000 HD 
HETATM   11  O   UNL     1     -10.085  10.682  69.188  1.00  0.00    -0.206 OA 
BRANCH   9  12
HETATM   12  C   UNL     1     -11.881  10.258  70.665  1.00  0.00    -0.439 C  
HETATM   13  C   UNL     1     -13.391  10.403  70.833  1.00  0.00    -0.199 C  
HETATM   14  C   UNL     1     -12.476  11.089  71.795  1.00  0.00    -0.195 C  
BRANCH  12  15
HETATM   15  C   UNL     1     -11.204   8.928  71.002  1.00  0.00    -0.342 A  
HETATM   16  C   UNL     1      -9.373   7.752  72.169  1.00  0.00    -0.204 A  
HETATM   17  C   UNL     1     -10.155   8.893  71.958  1.00  0.00    -0.351 A  
HETATM   18  C   UNL     1      -9.662   6.638  71.418  1.00  0.00    -0.172 A  
HETATM   19  O   UNL     1      -8.978   5.464  71.440  1.00  0.00    -0.136 OA 
HETATM   20  C   UNL     1      -9.684   4.750  70.418  1.00  0.00    -0.219 C  
HETATM   21  F   UNL     1      -8.818   4.467  69.410  1.00  0.00    -0.095 F  
HETATM   22  F   UNL     1     -10.110   3.571  70.931  1.00  0.00    -0.235 F  
HETATM   23  O   UNL     1     -10.810   5.442  69.863  1.00  0.00    -0.298 OA 
HETATM   24  C   UNL     1     -10.700   6.630  70.517  1.00  0.00    -0.247 A  
HETATM   25  C   UNL     1     -11.488   7.742  70.296  1.00  0.00    -0.117 A  
ENDBRANCH  12  15
ENDBRANCH   9  12
ENDBRANCH   5   8
BRANCH   7  26
HETATM   26  C   UNL     1     -10.051  16.172  67.685  1.00  0.00    -0.248 A  
HETATM   27  C   UNL     1     -10.775  17.373  67.853  1.00  0.00    -0.351 A  
HETATM   28  C   UNL     1      -8.066  17.405  68.451  1.00  0.00    -0.264 A  
HETATM   29  O   UNL     1      -6.192  18.188  69.693  1.00  0.00    -0.247 OA 
HETATM   30  C   UNL     1      -8.688  16.219  68.023  1.00  0.00    -0.178 A  
HETATM   31  C   UNL     1      -8.807  18.582  68.571  1.00  0.00    -0.351 A  
HETATM   32  C   UNL     1      -6.605  17.359  68.712  1.00  0.00    -0.206 C  
HETATM   33  O   UNL     1      -5.853  16.614  68.110  1.00  0.00    -0.109 OA 
HETATM   34  C   UNL     1     -10.168  18.560  68.290  1.00  0.00    -0.412 A  
ENDBRANCH   7  26
TORSDOF 4
ENDMDL
MODEL       61
REMARK 921   NORMALIZED FREE ENERGY PREDICTED BY IDOCK:   -7.00 KCAL/MOL
REMARK 922        TOTAL FREE ENERGY PREDICTED BY IDOCK:   -9.78 KCAL/MOL
REMARK 923 INTER-LIGAND FREE ENERGY PREDICTED BY IDOCK:   -9.00 KCAL/MOL
REMARK 924 INTRA-LIGAND FREE ENERGY PREDICTED BY IDOCK:   -0.78 KCAL/MOL
REMARK 927      BINDING AFFINITY PREDICTED BY RF-SCORE:    0.00 PKD
ROOT
HETATM    1  C   UNL     1      -7.631   7.766  63.131  1.00  0.00    -0.123 C  
HETATM    2  C   UNL     1      -8.504   8.902  63.579  1.00  0.00    -0.146 A  
HETATM    3  C   UNL     1      -8.963   9.789  62.593  1.00  0.00    -0.284 A  
HETATM    4  C   UNL     1      -9.707  10.909  62.942  1.00  0.00    -0.349 A  
HETATM    5  C   UNL     1      -9.971  11.130  64.280  1.00  0.00    -0.306 A  
HETATM    6  N   UNL     1      -9.586  10.267  65.233  1.00  0.00    -0.241 NA 
HETATM    7  C   UNL     1      -8.879   9.149  64.908  1.00  0.00    -0.173 A  
ENDROOT
BRANCH   5   8
HETATM    8  N   UNL     1     -10.653  12.304  64.612  1.00  0.00    -0.288 N  
HETATM    9  C   UNL     1     -10.227  13.231  65.532  1.00  0.00    -0.290 C  
HETATM   10  H   UNL     1     -11.535  12.487  64.133  1.00  0.00     0.000 HD 
HETATM   11  O   UNL     1      -9.204  13.234  66.201  1.00  0.00    -0.131 OA 
BRANCH   9  12
HETATM   12  C   UNL     1     -11.219  14.367  65.706  1.00  0.00    -0.326 C  
HETATM   13  C   UNL     1     -12.707  14.034  65.761  1.00  0.00    -0.487 C  
HETATM   14  C   UNL     1     -12.137  14.645  64.522  1.00  0.00    -0.490 C  
BRANCH  12  15
HETATM   15  C   UNL     1     -10.675  15.548  66.513  1.00  0.00    -0.304 A  
HETATM   16  C   UNL     1     -10.747  16.859  68.604  1.00  0.00    -0.345 A  
HETATM   17  C   UNL     1     -11.055  15.707  67.872  1.00  0.00    -0.324 A  
HETATM   18  C   UNL     1     -10.043  17.849  67.962  1.00  0.00    -0.358 A  
HETATM   19  O   UNL     1      -9.708  19.057  68.488  1.00  0.00    -0.352 OA 
HETATM   20  C   UNL     1      -9.078  19.653  67.348  1.00  0.00    -0.315 C  
HETATM   21  F   UNL     1      -9.787  20.755  66.987  1.00  0.00    -0.587 F  
HETATM   22  F   UNL     1      -7.839  20.067  67.708  1.00  0.00    -0.311 F  
HETATM   23  O   UNL     1      -8.960  18.799  66.203  1.00  0.00    -0.449 OA 
HETATM   24  C   UNL     1      -9.625  17.703  66.661  1.00  0.00    -0.295 A  
HETATM   25  C   UNL     1      -9.912  16.573  65.921  1.00  0.00    -0.342 A  
ENDBRANCH  12  15
ENDBRANCH   9  12
ENDBRANCH   5   8
BRANCH   7  26
HETATM   26  C   UNL     1      -8.570   8.297  66.093  1.00  0.00    -0.156 A  
HETATM   27  C   UNL     1      -7.237   7.927  66.379  1.00  0.00    -0.082 A  
HETATM   28  C   UNL     1      -9.218   7.067  68.121  1.00  0.00    -0.130 A  
HETATM   29  O   UNL     1     -10.006   6.471  70.287  1.00  0.00    -0.173 OA 
HETATM   30  C   UNL     1      -9.542   7.868  67.011  1.00  0.00    -0.247 A  
HETATM   31  C   UNL     1      -7.894   6.690  68.352  1.00  0.00    -0.107 A  
HETATM   32  C   UNL     1     -10.334   6.607  68.986  1.00  0.00    -0.192 C  
HETATM   33  O   UNL     1     -11.456   6.402  68.558  1.00  0.00    -0.228 OA 
HETATM   34  C   UNL     1      -6.900   7.138  67.489  1.00  0.00    -0.070 A  
ENDBRANCH   7  26
TORSDOF 4
ENDMDL
MODEL       62
REMARK 921   NORMALIZED FREE ENERGY PREDICTED BY IDOCK:   -7.00 KCAL/MOL
REMARK 922        TOTAL FREE ENERGY PREDICTED BY IDOCK:   -9.78 KCAL/MOL
REMARK 923 INTER-LIGAND FREE ENERGY PREDICTED BY IDOCK:   -9.04 KCAL/MOL
REMARK 924 INTRA-LIGAND FREE ENERGY PREDICTED BY IDOCK:   -0.73 KCAL/MOL
REMARK 927      BINDING AFFINITY PREDICTED BY RF-SCORE:    0.00 PKD
ROOT
HETATM    1  C   UNL     1     -11.084  17.163  68.644  1.00  0.00    -0.057 C  
HETATM    2  C   UNL     1     -10.567  15.886  68.048  1.00  0.00    -0.287 A  
HETATM    3  C   UNL     1      -9.799  15.986  66.877  1.00  0.00    -0.252 A  
HETATM    4  C   UNL     1      -9.356  14.844  66.224  1.00  0.00    -0.329 A  
HETATM    5  C   UNL     1      -9.700  13.613  66.749  1.00  0.00    -0.275 A  
HETATM    6  N   UNL     1     -10.390  13.495  67.894  1.00  0.00    -0.243 NA 
HETATM    7  C   UNL     1     -10.810  14.605  68.565  1.00  0.00    -0.250 A  
ENDROOT
BRANCH   5   8
HETATM    8  N   UNL     1      -9.310  12.480  66.030  1.00  0.00    -0.416 N  
HETATM    9  C   UNL     1     -10.046  11.882  65.037  1.00  0.00    -0.264 C  
HETATM   10  H   UNL     1      -8.407  12.064  66.262  1.00  0.00     0.000 HD 
HETATM   11  O   UNL     1     -11.130  12.214  64.580  1.00  0.00    -0.298 OA 
BRANCH   9  12
HETATM   12  C   UNL     1      -9.372  10.637  64.490  1.00  0.00    -0.284 C  
HETATM   13  C   UNL     1      -8.292  10.801  63.425  1.00  0.00    -0.000 C  
HETATM   14  C   UNL     1      -9.646  10.312  63.026  1.00  0.00    -0.297 C  
BRANCH  12  15
HETATM   15  C   UNL     1      -9.277   9.489  65.497  1.00  0.00    -0.292 A  
HETATM   16  C   UNL     1      -8.617   7.152  65.946  1.00  0.00    -0.157 A  
HETATM   17  C   UNL     1      -8.579   8.302  65.150  1.00  0.00    -0.132 A  
HETATM   18  C   UNL     1      -9.356   7.208  67.104  1.00  0.00    -0.140 A  
HETATM   19  O   UNL     1      -9.559   6.178  67.968  1.00  0.00    -0.116 OA 
HETATM   20  C   UNL     1     -10.444   6.812  68.899  1.00  0.00    -0.207 C  
HETATM   21  F   UNL     1     -11.634   6.155  68.882  1.00  0.00    -0.443 F  
HETATM   22  F   UNL     1      -9.926   6.682  70.144  1.00  0.00    -0.173 F  
HETATM   23  O   UNL     1     -10.693   8.201  68.650  1.00  0.00    -0.148 OA 
HETATM   24  C   UNL     1     -10.006   8.356  67.487  1.00  0.00    -0.200 A  
HETATM   25  C   UNL     1      -9.977   9.504  66.719  1.00  0.00    -0.297 A  
ENDBRANCH  12  15
ENDBRANCH   9  12
ENDBRANCH   5   8
BRANCH   7  26
HETATM   26  C   UNL     1     -11.529  14.276  69.829  1.00  0.00    -0.317 A  
HETATM   27  C   UNL     1     -12.226  13.054  69.958  1.00  0.00    -0.306 A  
HETATM   28  C   UNL     1     -12.204  14.763  72.143  1.00  0.00    -0.396 A  
HETATM   29  O   UNL     1     -12.218  15.189  74.485  1.00  0.00    -0.603 OA 
HETATM   30  C   UNL     1     -11.517  15.103  70.964  1.00  0.00    -0.372 A  
HETATM   31  C   UNL     1     -12.912  13.562  72.221  1.00  0.00    -0.398 A  
HETATM   32  C   UNL     1     -12.186  15.745  73.256  1.00  0.00    -0.513 C  
HETATM   33  O   UNL     1     -12.117  16.947  73.072  1.00  0.00    -0.272 OA 
HETATM   34  C   UNL     1     -12.905  12.698  71.132  1.00  0.00    -0.311 A  
ENDBRANCH   7  26
TORSDOF 4
ENDMDL
MODEL       63
REMARK 921   NORMALIZED FREE ENERGY PREDICTED BY IDOCK:   -6.97 KCAL/MOL
REMARK 922        TOTAL FREE ENERGY PREDICTED BY IDOCK:   -9.74 KCAL/MOL
REMARK 923 INTER-LIGAND FREE ENERGY PREDICTED BY IDOCK:   -9.17 KCAL/MOL
REMARK 924 INTRA-LIGAND FREE ENERGY PREDICTED BY IDOCK:   -0.57 KCAL/MOL
REMARK 927      BINDING AFFINITY PREDICTED BY RF-SCORE:    0.00 PKD
ROOT
HETATM    1  C   UNL     1     -11.288  15.707  64.883  1.00  0.00    -0.319 C  
HETATM    2  C   UNL     1     -10.572  14.806  65.847  1.00  0.00    -0.322 A  
HETATM    3  C   UNL     1     -10.791  13.426  65.722  1.00  0.00    -0.283 A  
HETATM    4  C   UNL     1     -10.228  12.537  66.628  1.00  0.00    -0.243 A  
HETATM    5  C   UNL     1      -9.460  13.049  67.657  1.00  0.00    -0.201 A  
HETATM    6  N   UNL     1      -9.196  14.360  67.764  1.00  0.00    -0.187 NA 
HETATM    7  C   UNL     1      -9.717  15.245  66.868  1.00  0.00    -0.233 A  
ENDROOT
BRANCH   5   8
HETATM    8  N   UNL     1      -8.970  12.141  68.601  1.00  0.00    -0.378 N  
HETATM    9  C   UNL     1      -8.611  10.843  68.336  1.00  0.00    -0.146 C  
HETATM   10  H   UNL     1      -8.872  12.470  69.562  1.00  0.00     0.000 HD 
HETATM   11  O   UNL     1      -8.621  10.247  67.268  1.00  0.00    -0.125 OA 
BRANCH   9  12
HETATM   12  C   UNL     1      -8.170  10.100  69.584  1.00  0.00    -0.176 C  
HETATM   13  C   UNL     1      -6.818  10.447  70.200  1.00  0.00    -0.155 C  
HETATM   14  C   UNL     1      -6.968   9.177  69.428  1.00  0.00    -0.052 C  
BRANCH  12  15
HETATM   15  C   UNL     1      -9.325   9.664  70.487  1.00  0.00    -0.227 A  
HETATM   16  C   UNL     1     -10.108   8.212  72.325  1.00  0.00    -0.338 A  
HETATM   17  C   UNL     1      -9.075   8.795  71.582  1.00  0.00    -0.314 A  
HETATM   18  C   UNL     1     -11.398   8.518  71.965  1.00  0.00    -0.355 A  
HETATM   19  O   UNL     1     -12.524   8.004  72.527  1.00  0.00    -0.260 OA 
HETATM   20  C   UNL     1     -13.515   8.623  71.698  1.00  0.00    -0.357 C  
HETATM   21  F   UNL     1     -14.201   7.650  71.042  1.00  0.00    -0.417 F  
HETATM   22  F   UNL     1     -14.397   9.275  72.494  1.00  0.00    -0.461 F  
HETATM   23  O   UNL     1     -13.004   9.546  70.728  1.00  0.00    -0.174 OA 
HETATM   24  C   UNL     1     -11.669   9.390  70.938  1.00  0.00    -0.308 A  
HETATM   25  C   UNL     1     -10.667   9.981  70.195  1.00  0.00    -0.361 A  
ENDBRANCH  12  15
ENDBRANCH   9  12
ENDBRANCH   5   8
BRANCH   7  26
HETATM   26  C   UNL     1      -9.287  16.649  67.129  1.00  0.00    -0.236 A  
HETATM   27  C   UNL     1      -9.937  17.424  68.114  1.00  0.00    -0.308 A  
HETATM   28  C   UNL     1      -7.821  18.586  66.747  1.00  0.00    -0.257 A  
HETATM   29  O   UNL     1      -5.953  20.055  66.612  1.00  0.00    -0.174 OA 
HETATM   30  C   UNL     1      -8.203  17.260  66.476  1.00  0.00    -0.311 A  
HETATM   31  C   UNL     1      -8.511  19.334  67.703  1.00  0.00    -0.327 A  
HETATM   32  C   UNL     1      -6.709  19.157  65.947  1.00  0.00    -0.251 C  
HETATM   33  O   UNL     1      -6.483  18.818  64.799  1.00  0.00    -0.506 OA 
HETATM   34  C   UNL     1      -9.558  18.744  68.401  1.00  0.00    -0.409 A  
ENDBRANCH   7  26
TORSDOF 4
ENDMDL
MODEL       64
REMARK 921   NORMALIZED FREE ENERGY PREDICTED BY IDOCK:   -6.97 KCAL/MOL
REMARK 922        TOTAL FREE ENERGY PREDICTED BY IDOCK:   -9.74 KCAL/MOL
REMARK 923 INTER-LIGAND FREE ENERGY PREDICTED BY IDOCK:   -8.91 KCAL/MOL
REMARK 924 INTRA-LIGAND FREE ENERGY PREDICTED BY IDOCK:   -0.84 KCAL/MOL
REMARK 927      BINDING AFFINITY PREDICTED BY RF-SCORE:    0.00 PKD
ROOT
HETATM    1  C   UNL     1      -7.471  13.144  67.643  1.00  0.00    -0.164 C  
HETATM    2  C   UNL     1      -8.171  11.957  68.239  1.00  0.00    -0.157 A  
HETATM    3  C   UNL     1      -7.408  11.097  69.044  1.00  0.00    -0.120 A  
HETATM    4  C   UNL     1      -7.966   9.936  69.561  1.00  0.00    -0.149 A  
HETATM    5  C   UNL     1      -9.282   9.647  69.253  1.00  0.00    -0.183 A  
HETATM    6  N   UNL     1     -10.043  10.481  68.529  1.00  0.00    -0.166 NA 
HETATM    7  C   UNL     1      -9.521  11.639  68.035  1.00  0.00    -0.185 A  
ENDROOT
BRANCH   5   8
HETATM    8  N   UNL     1      -9.796   8.434  69.721  1.00  0.00    -0.184 N  
HETATM    9  C   UNL     1     -10.891   8.303  70.541  1.00  0.00    -0.232 C  
HETATM   10  H   UNL     1      -9.322   7.578  69.430  1.00  0.00     0.000 HD 
HETATM   11  O   UNL     1     -11.620   9.175  70.990  1.00  0.00    -0.276 OA 
BRANCH   9  12
HETATM   12  C   UNL     1     -11.161   6.857  70.915  1.00  0.00    -0.332 C  
HETATM   13  C   UNL     1     -12.356   6.549  71.812  1.00  0.00    -0.340 C  
HETATM   14  C   UNL     1     -10.977   6.497  72.384  1.00  0.00    -0.279 C  
BRANCH  12  15
HETATM   15  C   UNL     1     -10.734   5.849  69.847  1.00  0.00    -0.406 A  
HETATM   16  C   UNL     1      -9.368   3.877  69.262  1.00  0.00    -0.242 A  
HETATM   17  C   UNL     1      -9.946   4.726  70.212  1.00  0.00    -0.320 A  
HETATM   18  C   UNL     1      -9.597   4.160  67.936  1.00  0.00    -0.148 A  
HETATM   19  O   UNL     1      -9.073   3.489  66.877  1.00  0.00    -0.141 OA 
HETATM   20  C   UNL     1      -9.597   4.279  65.803  1.00  0.00    -0.189 C  
HETATM   21  F   UNL     1      -8.559   4.826  65.119  1.00  0.00    -0.119 F  
HETATM   22  F   UNL     1     -10.260   3.462  64.950  1.00  0.00    -0.144 F  
HETATM   23  O   UNL     1     -10.479   5.336  66.203  1.00  0.00    -0.238 OA 
HETATM   24  C   UNL     1     -10.392   5.215  67.555  1.00  0.00    -0.128 A  
HETATM   25  C   UNL     1     -10.977   6.062  68.475  1.00  0.00    -0.350 A  
ENDBRANCH  12  15
ENDBRANCH   9  12
ENDBRANCH   5   8
BRANCH   7  26
HETATM   26  C   UNL     1     -10.524  12.449  67.286  1.00  0.00    -0.237 A  
HETATM   27  C   UNL     1     -11.176  13.536  67.910  1.00  0.00    -0.302 A  
HETATM   28  C   UNL     1     -11.788  13.017  65.255  1.00  0.00    -0.413 A  
HETATM   29  O   UNL     1     -12.418  13.705  63.064  1.00  0.00    -0.719 OA 
HETATM   30  C   UNL     1     -10.839  12.234  65.934  1.00  0.00    -0.306 A  
HETATM   31  C   UNL     1     -12.439  14.061  65.915  1.00  0.00    -0.513 A  
HETATM   32  C   UNL     1     -12.098  12.655  63.848  1.00  0.00    -0.487 C  
HETATM   33  O   UNL     1     -12.038  11.511  63.436  1.00  0.00    -0.348 OA 
HETATM   34  C   UNL     1     -12.116  14.332  67.240  1.00  0.00    -0.390 A  
ENDBRANCH   7  26
TORSDOF 4
ENDMDL
MODEL       65
REMARK 921   NORMALIZED FREE ENERGY PREDICTED BY IDOCK:   -6.95 KCAL/MOL
REMARK 922        TOTAL FREE ENERGY PREDICTED BY IDOCK:   -9.72 KCAL/MOL
REMARK 923 INTER-LIGAND FREE ENERGY PREDICTED BY IDOCK:   -8.47 KCAL/MOL
REMARK 924 INTRA-LIGAND FREE ENERGY PREDICTED BY IDOCK:   -1.25 KCAL/MOL
REMARK 927      BINDING AFFINITY PREDICTED BY RF-SCORE:    0.00 PKD
ROOT
HETATM    1  C   UNL     1      -9.525  10.942  62.635  1.00  0.00    -0.324 C  
HETATM    2  C   UNL     1      -9.295  10.298  63.971  1.00  0.00    -0.337 A  
HETATM    3  C   UNL     1      -8.454   9.175  64.009  1.00  0.00    -0.195 A  
HETATM    4  C   UNL     1      -8.259   8.478  65.194  1.00  0.00    -0.153 A  
HETATM    5  C   UNL     1      -8.922   8.913  66.326  1.00  0.00    -0.170 A  
HETATM    6  N   UNL     1      -9.689  10.014  66.323  1.00  0.00    -0.200 NA 
HETATM    7  C   UNL     1      -9.870  10.727  65.176  1.00  0.00    -0.277 A  
ENDROOT
BRANCH   5   8
HETATM    8  N   UNL     1      -8.772   8.149  67.487  1.00  0.00    -0.128 N  
HETATM    9  C   UNL     1      -7.838   8.378  68.468  1.00  0.00    -0.120 C  
HETATM   10  H   UNL     1      -9.406   7.359  67.616  1.00  0.00     0.000 HD 
HETATM   11  O   UNL     1      -7.002   9.267  68.539  1.00  0.00    -0.065 OA 
BRANCH   9  12
HETATM   12  C   UNL     1      -7.896   7.338  69.573  1.00  0.00    -0.118 C  
HETATM   13  C   UNL     1      -6.613   7.010  70.332  1.00  0.00    -0.051 C  
HETATM   14  C   UNL     1      -7.134   6.044  69.318  1.00  0.00    -0.066 C  
BRANCH  12  15
HETATM   15  C   UNL     1      -9.243   7.274  70.295  1.00  0.00    -0.155 A  
HETATM   16  C   UNL     1     -11.274   5.970  70.818  1.00  0.00    -0.340 A  
HETATM   17  C   UNL     1      -9.960   6.049  70.342  1.00  0.00    -0.233 A  
HETATM   18  C   UNL     1     -11.859   7.133  71.258  1.00  0.00    -0.318 A  
HETATM   19  O   UNL     1     -13.140   7.263  71.696  1.00  0.00    -0.361 OA 
HETATM   20  C   UNL     1     -13.176   8.676  71.928  1.00  0.00    -0.375 C  
HETATM   21  F   UNL     1     -14.107   9.227  71.105  1.00  0.00    -0.404 F  
HETATM   22  F   UNL     1     -13.581   8.893  73.203  1.00  0.00    -0.387 F  
HETATM   23  O   UNL     1     -11.932   9.357  71.721  1.00  0.00    -0.360 OA 
HETATM   24  C   UNL     1     -11.174   8.324  71.266  1.00  0.00    -0.259 A  
HETATM   25  C   UNL     1      -9.875   8.425  70.806  1.00  0.00    -0.215 A  
ENDBRANCH  12  15
ENDBRANCH   9  12
ENDBRANCH   5   8
BRANCH   7  26
HETATM   26  C   UNL     1     -10.725  11.932  65.377  1.00  0.00    -0.330 A  
HETATM   27  C   UNL     1     -11.972  12.041  64.724  1.00  0.00    -0.310 A  
HETATM   28  C   UNL     1     -11.217  14.107  66.414  1.00  0.00    -0.328 A  
HETATM   29  O   UNL     1     -11.707  15.852  67.958  1.00  0.00    -0.245 OA 
HETATM   30  C   UNL     1     -10.388  12.984  66.245  1.00  0.00    -0.291 A  
HETATM   31  C   UNL     1     -12.427  14.195  65.724  1.00  0.00    -0.490 A  
HETATM   32  C   UNL     1     -10.730  15.194  67.300  1.00  0.00    -0.305 C  
HETATM   33  O   UNL     1      -9.546  15.446  67.440  1.00  0.00    -0.209 OA 
HETATM   34  C   UNL     1     -12.813  13.150  64.892  1.00  0.00    -0.349 A  
ENDBRANCH   7  26
TORSDOF 4
ENDMDL
MODEL       66
REMARK 921   NORMALIZED FREE ENERGY PREDICTED BY IDOCK:   -6.95 KCAL/MOL
REMARK 922        TOTAL FREE ENERGY PREDICTED BY IDOCK:   -9.72 KCAL/MOL
REMARK 923 INTER-LIGAND FREE ENERGY PREDICTED BY IDOCK:   -8.84 KCAL/MOL
REMARK 924 INTRA-LIGAND FREE ENERGY PREDICTED BY IDOCK:   -0.88 KCAL/MOL
REMARK 927      BINDING AFFINITY PREDICTED BY RF-SCORE:    0.00 PKD
ROOT
HETATM    1  C   UNL     1     -10.671   8.022  67.174  1.00  0.00    -0.285 C  
HETATM    2  C   UNL     1      -9.978   9.328  67.433  1.00  0.00    -0.253 A  
HETATM    3  C   UNL     1      -9.475  10.022  66.321  1.00  0.00    -0.241 A  
HETATM    4  C   UNL     1      -8.751  11.195  66.490  1.00  0.00    -0.174 A  
HETATM    5  C   UNL     1      -8.532  11.651  67.777  1.00  0.00    -0.144 A  
HETATM    6  N   UNL     1      -9.048  11.031  68.849  1.00  0.00    -0.158 NA 
HETATM    7  C   UNL     1      -9.784   9.893  68.701  1.00  0.00    -0.157 A  
ENDROOT
BRANCH   5   8
HETATM    8  N   UNL     1      -7.734  12.789  67.924  1.00  0.00    -0.129 N  
HETATM    9  C   UNL     1      -8.167  13.999  68.410  1.00  0.00    -0.150 C  
HETATM   10  H   UNL     1      -6.754  12.716  67.648  1.00  0.00     0.000 HD 
HETATM   11  O   UNL     1      -9.277  14.309  68.818  1.00  0.00    -0.185 OA 
BRANCH   9  12
HETATM   12  C   UNL     1      -7.073  15.051  68.393  1.00  0.00    -0.108 C  
HETATM   13  C   UNL     1      -5.655  14.622  68.029  1.00  0.00    -0.134 C  
HETATM   14  C   UNL     1      -5.990  14.913  69.456  1.00  0.00    -0.107 C  
BRANCH  12  15
HETATM   15  C   UNL     1      -7.563  16.450  68.014  1.00  0.00    -0.158 A  
HETATM   16  C   UNL     1      -7.754  18.835  68.626  1.00  0.00    -0.358 A  
HETATM   17  C   UNL     1      -7.189  17.567  68.807  1.00  0.00    -0.257 A  
HETATM   18  C   UNL     1      -8.693  18.974  67.632  1.00  0.00    -0.290 A  
HETATM   19  O   UNL     1      -9.391  20.106  67.349  1.00  0.00    -0.348 OA 
HETATM   20  C   UNL     1     -10.240  19.616  66.305  1.00  0.00    -0.498 C  
HETATM   21  F   UNL     1     -11.532  19.719  66.712  1.00  0.00    -0.369 F  
HETATM   22  F   UNL     1     -10.091  20.412  65.219  1.00  0.00    -0.421 F  
HETATM   23  O   UNL     1      -9.998  18.258  65.914  1.00  0.00    -0.538 OA 
HETATM   24  C   UNL     1      -9.042  17.921  66.821  1.00  0.00    -0.268 A  
HETATM   25  C   UNL     1      -8.494  16.663  66.978  1.00  0.00    -0.225 A  
ENDBRANCH  12  15
ENDBRANCH   9  12
ENDBRANCH   5   8
BRANCH   7  26
HETATM   26  C   UNL     1     -10.299   9.369  69.999  1.00  0.00    -0.265 A  
HETATM   27  C   UNL     1      -9.408   8.853  70.966  1.00  0.00    -0.313 A  
HETATM   28  C   UNL     1     -12.109   8.903  71.597  1.00  0.00    -0.415 A  
HETATM   29  O   UNL     1     -13.908   9.099  73.144  1.00  0.00    -0.268 OA 
HETATM   30  C   UNL     1     -11.655   9.404  70.364  1.00  0.00    -0.241 A  
HETATM   31  C   UNL     1     -11.202   8.367  72.513  1.00  0.00    -0.406 A  
HETATM   32  C   UNL     1     -13.572   8.921  71.849  1.00  0.00    -0.425 C  
HETATM   33  O   UNL     1     -14.395   8.815  70.957  1.00  0.00    -0.179 OA 
HETATM   34  C   UNL     1      -9.847   8.361  72.204  1.00  0.00    -0.372 A  
ENDBRANCH   7  26
TORSDOF 4
ENDMDL
MODEL       67
REMARK 921   NORMALIZED FREE ENERGY PREDICTED BY IDOCK:   -6.93 KCAL/MOL
REMARK 922        TOTAL FREE ENERGY PREDICTED BY IDOCK:   -9.70 KCAL/MOL
REMARK 923 INTER-LIGAND FREE ENERGY PREDICTED BY IDOCK:   -9.16 KCAL/MOL
REMARK 924 INTRA-LIGAND FREE ENERGY PREDICTED BY IDOCK:   -0.54 KCAL/MOL
REMARK 927      BINDING AFFINITY PREDICTED BY RF-SCORE:    0.00 PKD
ROOT
HETATM    1  C   UNL     1     -13.528  14.035  73.030  1.00  0.00    -0.206 C  
HETATM    2  C   UNL     1     -12.746  14.410  71.805  1.00  0.00    -0.427 A  
HETATM    3  C   UNL     1     -12.532  15.778  71.571  1.00  0.00    -0.515 A  
HETATM    4  C   UNL     1     -11.889  16.205  70.418  1.00  0.00    -0.171 A  
HETATM    5  C   UNL     1     -11.478  15.251  69.505  1.00  0.00    -0.305 A  
HETATM    6  N   UNL     1     -11.627  13.937  69.734  1.00  0.00    -0.279 NA 
HETATM    7  C   UNL     1     -12.231  13.498  70.873  1.00  0.00    -0.305 A  
ENDROOT
BRANCH   5   8
HETATM    8  N   UNL     1     -10.904  15.710  68.316  1.00  0.00    -0.285 N  
HETATM    9  C   UNL     1      -9.609  16.146  68.181  1.00  0.00    -0.217 C  
HETATM   10  H   UNL     1     -11.493  15.721  67.483  1.00  0.00     0.000 HD 
HETATM   11  O   UNL     1      -8.725  16.199  69.025  1.00  0.00    -0.235 OA 
BRANCH   9  12
HETATM   12  C   UNL     1      -9.307  16.632  66.775  1.00  0.00    -0.262 C  
HETATM   13  C   UNL     1      -7.905  17.149  66.468  1.00  0.00    -0.325 C  
HETATM   14  C   UNL     1      -9.028  18.122  66.623  1.00  0.00    -0.292 C  
BRANCH  12  15
HETATM   15  C   UNL     1     -10.107  15.915  65.686  1.00  0.00    -0.388 A  
HETATM   16  C   UNL     1     -11.821  16.059  63.914  1.00  0.00     0.498 A  
HETATM   17  C   UNL     1     -10.925  16.666  64.801  1.00  0.00    -0.123 A  
HETATM   18  C   UNL     1     -11.881  14.686  63.915  1.00  0.00     0.067 A  
HETATM   19  O   UNL     1     -12.728  13.927  63.171  1.00  0.00    -0.718 OA 
HETATM   20  C   UNL     1     -12.378  12.625  63.655  1.00  0.00    -0.492 C  
HETATM   21  F   UNL     1     -13.470  12.074  64.247  1.00  0.00    -0.417 F  
HETATM   22  F   UNL     1     -12.053  11.844  62.596  1.00  0.00    -0.081 F  
HETATM   23  O   UNL     1     -11.295  12.598  64.593  1.00  0.00    -0.298 OA 
HETATM   24  C   UNL     1     -11.070  13.933  64.729  1.00  0.00    -0.383 A  
HETATM   25  C   UNL     1     -10.175  14.510  65.608  1.00  0.00    -0.379 A  
ENDBRANCH  12  15
ENDBRANCH   9  12
ENDBRANCH   5   8
BRANCH   7  26
HETATM   26  C   UNL     1     -12.275  12.010  70.965  1.00  0.00    -0.245 A  
HETATM   27  C   UNL     1     -13.190  11.374  71.833  1.00  0.00    -0.485 A  
HETATM   28  C   UNL     1     -11.545   9.762  70.287  1.00  0.00    -0.283 A  
HETATM   29  O   UNL     1     -11.093   7.770  69.063  1.00  0.00     0.007 OA 
HETATM   30  C   UNL     1     -11.477  11.163  70.178  1.00  0.00    -0.361 A  
HETATM   31  C   UNL     1     -12.437   9.170  71.183  1.00  0.00    -0.315 A  
HETATM   32  C   UNL     1     -10.604   8.963  69.462  1.00  0.00    -0.228 C  
HETATM   33  O   UNL     1      -9.499   9.367  69.148  1.00  0.00    -0.155 OA 
HETATM   34  C   UNL     1     -13.274   9.979  71.942  1.00  0.00    -0.557 A  
ENDBRANCH   7  26
TORSDOF 4
ENDMDL
MODEL       68
REMARK 921   NORMALIZED FREE ENERGY PREDICTED BY IDOCK:   -6.92 KCAL/MOL
REMARK 922        TOTAL FREE ENERGY PREDICTED BY IDOCK:   -9.68 KCAL/MOL
REMARK 923 INTER-LIGAND FREE ENERGY PREDICTED BY IDOCK:   -9.30 KCAL/MOL
REMARK 924 INTRA-LIGAND FREE ENERGY PREDICTED BY IDOCK:   -0.38 KCAL/MOL
REMARK 927      BINDING AFFINITY PREDICTED BY RF-SCORE:    0.00 PKD
ROOT
HETATM    1  C   UNL     1     -11.269   9.673  67.913  1.00  0.00     0.033 C  
HETATM    2  C   UNL     1     -10.472  10.943  67.844  1.00  0.00    -0.227 A  
HETATM    3  C   UNL     1      -9.535  11.060  66.806  1.00  0.00    -0.203 A  
HETATM    4  C   UNL     1      -8.706  12.171  66.726  1.00  0.00    -0.183 A  
HETATM    5  C   UNL     1      -8.820  13.146  67.699  1.00  0.00    -0.191 A  
HETATM    6  N   UNL     1      -9.743  13.077  68.670  1.00  0.00    -0.112 NA 
HETATM    7  C   UNL     1     -10.585  12.009  68.748  1.00  0.00    -0.209 A  
ENDROOT
BRANCH   5   8
HETATM    8  N   UNL     1      -7.920  14.214  67.642  1.00  0.00    -0.163 N  
HETATM    9  C   UNL     1      -7.456  14.915  68.729  1.00  0.00    -0.132 C  
HETATM   10  H   UNL     1      -7.582  14.495  66.721  1.00  0.00     0.000 HD 
HETATM   11  O   UNL     1      -7.702  14.744  69.914  1.00  0.00    -0.044 OA 
BRANCH   9  12
HETATM   12  C   UNL     1      -6.535  16.053  68.329  1.00  0.00    -0.122 C  
HETATM   13  C   UNL     1      -5.192  15.713  67.689  1.00  0.00    -0.085 C  
HETATM   14  C   UNL     1      -5.232  16.169  69.111  1.00  0.00    -0.110 C  
BRANCH  12  15
HETATM   15  C   UNL     1      -7.268  17.332  67.921  1.00  0.00    -0.185 A  
HETATM   16  C   UNL     1      -7.871  19.662  68.472  1.00  0.00    -0.358 A  
HETATM   17  C   UNL     1      -7.090  18.520  68.678  1.00  0.00    -0.298 A  
HETATM   18  C   UNL     1      -8.830  19.605  67.489  1.00  0.00    -0.311 A  
HETATM   19  O   UNL     1      -9.719  20.588  67.187  1.00  0.00    -0.441 OA 
HETATM   20  C   UNL     1     -10.479  19.926  66.169  1.00  0.00    -0.473 C  
HETATM   21  F   UNL     1     -11.765  19.811  66.593  1.00  0.00    -0.041 F  
HETATM   22  F   UNL     1     -10.484  20.704  65.060  1.00  0.00    -0.276 F  
HETATM   23  O   UNL     1     -10.005  18.621  65.811  1.00  0.00    -0.504 OA 
HETATM   24  C   UNL     1      -8.996  18.484  66.712  1.00  0.00    -0.293 A  
HETATM   25  C   UNL     1      -8.232  17.348  66.893  1.00  0.00    -0.258 A  
ENDBRANCH  12  15
ENDBRANCH   9  12
ENDBRANCH   5   8
BRANCH   7  26
HETATM   26  C   UNL     1     -11.562  12.126  69.870  1.00  0.00    -0.297 A  
HETATM   27  C   UNL     1     -12.011  10.973  70.550  1.00  0.00    -0.474 A  
HETATM   28  C   UNL     1     -12.962  13.432  71.413  1.00  0.00    -0.412 A  
HETATM   29  O   UNL     1     -13.738  14.914  73.107  1.00  0.00    -0.506 OA 
HETATM   30  C   UNL     1     -12.042  13.355  70.352  1.00  0.00    -0.405 A  
HETATM   31  C   UNL     1     -13.411  12.267  72.038  1.00  0.00    -0.491 A  
HETATM   32  C   UNL     1     -13.461  14.777  71.793  1.00  0.00    -0.380 C  
HETATM   33  O   UNL     1     -13.579  15.686  70.991  1.00  0.00    -0.588 OA 
HETATM   34  C   UNL     1     -12.918  11.037  71.618  1.00  0.00    -0.561 A  
ENDBRANCH   7  26
TORSDOF 4
ENDMDL
MODEL       69
REMARK 921   NORMALIZED FREE ENERGY PREDICTED BY IDOCK:   -6.90 KCAL/MOL
REMARK 922        TOTAL FREE ENERGY PREDICTED BY IDOCK:   -9.65 KCAL/MOL
REMARK 923 INTER-LIGAND FREE ENERGY PREDICTED BY IDOCK:   -8.56 KCAL/MOL
REMARK 924 INTRA-LIGAND FREE ENERGY PREDICTED BY IDOCK:   -1.09 KCAL/MOL
REMARK 927      BINDING AFFINITY PREDICTED BY RF-SCORE:    0.00 PKD
ROOT
HETATM    1  C   UNL     1     -12.778  13.910  65.490  1.00  0.00    -0.536 C  
HETATM    2  C   UNL     1     -11.815  12.763  65.386  1.00  0.00    -0.456 A  
HETATM    3  C   UNL     1     -11.348  12.428  64.106  1.00  0.00    -0.442 A  
HETATM    4  C   UNL     1     -10.520  11.329  63.922  1.00  0.00    -0.452 A  
HETATM    5  C   UNL     1     -10.181  10.571  65.027  1.00  0.00    -0.295 A  
HETATM    6  N   UNL     1     -10.575  10.904  66.266  1.00  0.00    -0.241 NA 
HETATM    7  C   UNL     1     -11.365  11.995  66.470  1.00  0.00    -0.354 A  
ENDROOT
BRANCH   5   8
HETATM    8  N   UNL     1      -9.413   9.425  64.805  1.00  0.00    -0.446 N  
HETATM    9  C   UNL     1      -8.061   9.325  65.029  1.00  0.00    -0.127 C  
HETATM   10  H   UNL     1      -9.893   8.598  64.449  1.00  0.00     0.000 HD 
HETATM   11  O   UNL     1      -7.292  10.167  65.470  1.00  0.00    -0.130 OA 
BRANCH   9  12
HETATM   12  C   UNL     1      -7.511   7.966  64.636  1.00  0.00    -0.101 C  
HETATM   13  C   UNL     1      -6.138   7.900  63.973  1.00  0.00    -0.057 C  
HETATM   14  C   UNL     1      -7.365   7.705  63.142  1.00  0.00    -0.097 C  
BRANCH  12  15
HETATM   15  C   UNL     1      -7.970   6.824  65.545  1.00  0.00    -0.119 A  
HETATM   16  C   UNL     1      -9.112   4.644  65.746  1.00  0.00    -0.139 A  
HETATM   17  C   UNL     1      -8.503   5.638  64.973  1.00  0.00    -0.135 A  
HETATM   18  C   UNL     1      -9.171   4.844  67.104  1.00  0.00    -0.123 A  
HETATM   19  O   UNL     1      -9.774   4.023  68.004  1.00  0.00    -0.154 OA 
HETATM   20  C   UNL     1      -9.576   4.785  69.201  1.00  0.00    -0.167 C  
HETATM   21  F   UNL     1     -10.791   5.127  69.703  1.00  0.00    -0.345 F  
HETATM   22  F   UNL     1      -8.965   3.996  70.118  1.00  0.00    -0.109 F  
HETATM   23  O   UNL     1      -8.803   5.981  69.038  1.00  0.00    -0.121 OA 
HETATM   24  C   UNL     1      -8.625   5.961  67.689  1.00  0.00    -0.102 A  
HETATM   25  C   UNL     1      -8.015   6.953  66.947  1.00  0.00    -0.109 A  
ENDBRANCH  12  15
ENDBRANCH   9  12
ENDBRANCH   5   8
BRANCH   7  26
HETATM   26  C   UNL     1     -11.671  12.223  67.911  1.00  0.00    -0.410 A  
HETATM   27  C   UNL     1     -11.921  11.130  68.771  1.00  0.00    -0.337 A  
HETATM   28  C   UNL     1     -11.966  13.675  69.874  1.00  0.00    -0.415 A  
HETATM   29  O   UNL     1     -11.620  15.200  71.670  1.00  0.00    -0.363 OA 
HETATM   30  C   UNL     1     -11.675  13.494  68.510  1.00  0.00    -0.392 A  
HETATM   31  C   UNL     1     -12.243  12.573  70.685  1.00  0.00    -0.365 A  
HETATM   32  C   UNL     1     -12.015  15.068  70.387  1.00  0.00    -0.323 C  
HETATM   33  O   UNL     1     -12.354  16.011  69.695  1.00  0.00    -0.192 OA 
HETATM   34  C   UNL     1     -12.201  11.298  70.135  1.00  0.00    -0.410 A  
ENDBRANCH   7  26
TORSDOF 4
ENDMDL
MODEL       70
REMARK 921   NORMALIZED FREE ENERGY PREDICTED BY IDOCK:   -6.87 KCAL/MOL
REMARK 922        TOTAL FREE ENERGY PREDICTED BY IDOCK:   -9.62 KCAL/MOL
REMARK 923 INTER-LIGAND FREE ENERGY PREDICTED BY IDOCK:   -9.80 KCAL/MOL
REMARK 924 INTRA-LIGAND FREE ENERGY PREDICTED BY IDOCK:    0.18 KCAL/MOL
REMARK 927      BINDING AFFINITY PREDICTED BY RF-SCORE:    0.00 PKD
ROOT
HETATM    1  C   UNL     1     -11.268   6.472  70.984  1.00  0.00    -0.362 C  
HETATM    2  C   UNL     1     -11.220   7.964  70.822  1.00  0.00    -0.274 A  
HETATM    3  C   UNL     1     -12.002   8.732  71.699  1.00  0.00    -0.399 A  
HETATM    4  C   UNL     1     -12.072  10.111  71.558  1.00  0.00    -0.442 A  
HETATM    5  C   UNL     1     -11.364  10.702  70.528  1.00  0.00    -0.267 A  
HETATM    6  N   UNL     1     -10.571   9.992  69.712  1.00  0.00    -0.248 NA 
HETATM    7  C   UNL     1     -10.467   8.640  69.852  1.00  0.00    -0.218 A  
ENDROOT
BRANCH   5   8
HETATM    8  N   UNL     1     -11.513  12.081  70.359  1.00  0.00    -0.424 N  
HETATM    9  C   UNL     1     -12.474  12.852  70.967  1.00  0.00    -0.283 C  
HETATM   10  H   UNL     1     -10.857  12.552  69.735  1.00  0.00     0.000 HD 
HETATM   11  O   UNL     1     -13.340  12.514  71.761  1.00  0.00    -0.414 OA 
BRANCH   9  12
HETATM   12  C   UNL     1     -12.406  14.305  70.534  1.00  0.00    -0.430 C  
HETATM   13  C   UNL     1     -12.238  15.378  71.606  1.00  0.00    -0.445 C  
HETATM   14  C   UNL     1     -13.572  15.189  70.960  1.00  0.00    -0.473 C  
BRANCH  12  15
HETATM   15  C   UNL     1     -11.788  14.512  69.150  1.00  0.00    -0.354 A  
HETATM   16  C   UNL     1     -10.550  16.000  67.616  1.00  0.00    -0.309 A  
HETATM   17  C   UNL     1     -10.984  15.657  68.901  1.00  0.00    -0.266 A  
HETATM   18  C   UNL     1     -10.922  15.176  66.580  1.00  0.00    -0.318 A  
HETATM   19  O   UNL     1     -10.648  15.379  65.264  1.00  0.00    -0.368 OA 
HETATM   20  C   UNL     1     -11.343  14.263  64.695  1.00  0.00    -0.373 C  
HETATM   21  F   UNL     1     -12.322  14.733  63.878  1.00  0.00    -0.494 F  
HETATM   22  F   UNL     1     -10.476  13.560  63.928  1.00  0.00    -0.349 F  
HETATM   23  O   UNL     1     -11.940  13.371  65.645  1.00  0.00    -0.358 OA 
HETATM   24  C   UNL     1     -11.662  14.039  66.798  1.00  0.00    -0.407 A  
HETATM   25  C   UNL     1     -12.097  13.677  68.058  1.00  0.00    -0.309 A  
ENDBRANCH  12  15
ENDBRANCH   9  12
ENDBRANCH   5   8
BRANCH   7  26
HETATM   26  C   UNL     1      -9.516   8.031  68.878  1.00  0.00    -0.151 A  
HETATM   27  C   UNL     1      -8.759   6.893  69.234  1.00  0.00    -0.135 A  
HETATM   28  C   UNL     1      -8.451   7.896  66.666  1.00  0.00    -0.131 A  
HETATM   29  O   UNL     1      -8.027   7.633  64.338  1.00  0.00    -0.136 OA 
HETATM   30  C   UNL     1      -9.355   8.494  67.561  1.00  0.00    -0.169 A  
HETATM   31  C   UNL     1      -7.693   6.794  67.065  1.00  0.00    -0.100 A  
HETATM   32  C   UNL     1      -8.305   8.512  65.323  1.00  0.00    -0.159 C  
HETATM   33  O   UNL     1      -8.455   9.705  65.127  1.00  0.00    -0.134 OA 
HETATM   34  C   UNL     1      -7.863   6.281  68.346  1.00  0.00    -0.105 A  
ENDBRANCH   7  26
TORSDOF 4
ENDMDL
MODEL       71
REMARK 921   NORMALIZED FREE ENERGY PREDICTED BY IDOCK:   -6.81 KCAL/MOL
REMARK 922        TOTAL FREE ENERGY PREDICTED BY IDOCK:   -9.54 KCAL/MOL
REMARK 923 INTER-LIGAND FREE ENERGY PREDICTED BY IDOCK:   -8.56 KCAL/MOL
REMARK 924 INTRA-LIGAND FREE ENERGY PREDICTED BY IDOCK:   -0.98 KCAL/MOL
REMARK 927      BINDING AFFINITY PREDICTED BY RF-SCORE:    0.00 PKD
ROOT
HETATM    1  C   UNL     1      -6.895   9.016  66.520  1.00  0.00    -0.079 C  
HETATM    2  C   UNL     1      -7.678  10.189  67.034  1.00  0.00    -0.096 A  
HETATM    3  C   UNL     1      -7.139  11.467  66.815  1.00  0.00    -0.112 A  
HETATM    4  C   UNL     1      -7.765  12.594  67.332  1.00  0.00    -0.161 A  
HETATM    5  C   UNL     1      -8.918  12.422  68.073  1.00  0.00    -0.194 A  
HETATM    6  N   UNL     1      -9.477  11.215  68.250  1.00  0.00    -0.175 NA 
HETATM    7  C   UNL     1      -8.893  10.100  67.727  1.00  0.00    -0.125 A  
ENDROOT
BRANCH   5   8
HETATM    8  N   UNL     1      -9.484  13.563  68.648  1.00  0.00    -0.386 N  
HETATM    9  C   UNL     1     -10.071  14.591  67.951  1.00  0.00    -0.227 C  
HETATM   10  H   UNL     1      -9.460  13.638  69.666  1.00  0.00     0.000 HD 
HETATM   11  O   UNL     1     -10.234  14.705  66.745  1.00  0.00    -0.261 OA 
BRANCH   9  12
HETATM   12  C   UNL     1     -10.541  15.711  68.862  1.00  0.00    -0.228 C  
HETATM   13  C   UNL     1     -10.871  15.379  70.314  1.00  0.00    -0.332 C  
HETATM   14  C   UNL     1     -11.983  15.624  69.346  1.00  0.00    -0.349 C  
BRANCH  12  15
HETATM   15  C   UNL     1      -9.959  17.082  68.510  1.00  0.00    -0.293 A  
HETATM   16  C   UNL     1     -10.236  19.224  67.314  1.00  0.00    -0.512 A  
HETATM   17  C   UNL     1     -10.762  18.035  67.828  1.00  0.00    -0.350 A  
HETATM   18  C   UNL     1      -8.894  19.456  67.499  1.00  0.00    -0.304 A  
HETATM   19  O   UNL     1      -8.196  20.520  67.021  1.00  0.00    -0.313 OA 
HETATM   20  C   UNL     1      -6.880  20.167  67.459  1.00  0.00    -0.246 C  
HETATM   21  F   UNL     1      -6.087  20.005  66.367  1.00  0.00    -0.166 F  
HETATM   22  F   UNL     1      -6.374  21.196  68.180  1.00  0.00    -0.355 F  
HETATM   23  O   UNL     1      -6.803  18.974  68.251  1.00  0.00    -0.235 OA 
HETATM   24  C   UNL     1      -8.102  18.572  68.193  1.00  0.00    -0.290 A  
HETATM   25  C   UNL     1      -8.601  17.395  68.714  1.00  0.00    -0.221 A  
ENDBRANCH  12  15
ENDBRANCH   9  12
ENDBRANCH   5   8
BRANCH   7  26
HETATM   26  C   UNL     1      -9.674   8.859  67.999  1.00  0.00    -0.181 A  
HETATM   27  C   UNL     1     -10.166   8.076  66.931  1.00  0.00    -0.385 A  
HETATM   28  C   UNL     1     -10.658   7.191  69.514  1.00  0.00    -0.247 A  
HETATM   29  O   UNL     1     -10.985   5.468  71.125  1.00  0.00    -0.221 OA 
HETATM   30  C   UNL     1      -9.918   8.366  69.291  1.00  0.00    -0.195 A  
HETATM   31  C   UNL     1     -11.159   6.462  68.434  1.00  0.00    -0.374 A  
HETATM   32  C   UNL     1     -10.919   6.801  70.923  1.00  0.00    -0.260 C  
HETATM   33  O   UNL     1     -11.034   7.616  71.820  1.00  0.00    -0.232 OA 
HETATM   34  C   UNL     1     -10.895   6.896  67.141  1.00  0.00    -0.447 A  
ENDBRANCH   7  26
TORSDOF 4
ENDMDL
MODEL       72
REMARK 921   NORMALIZED FREE ENERGY PREDICTED BY IDOCK:   -6.78 KCAL/MOL
REMARK 922        TOTAL FREE ENERGY PREDICTED BY IDOCK:   -9.51 KCAL/MOL
REMARK 923 INTER-LIGAND FREE ENERGY PREDICTED BY IDOCK:   -9.05 KCAL/MOL
REMARK 924 INTRA-LIGAND FREE ENERGY PREDICTED BY IDOCK:   -0.46 KCAL/MOL
REMARK 927      BINDING AFFINITY PREDICTED BY RF-SCORE:    0.00 PKD
ROOT
HETATM    1  C   UNL     1      -6.906   8.841  71.170  1.00  0.00    -0.078 C  
HETATM    2  C   UNL     1      -7.677   9.621  70.144  1.00  0.00    -0.179 A  
HETATM    3  C   UNL     1      -6.938  10.324  69.180  1.00  0.00    -0.066 A  
HETATM    4  C   UNL     1      -7.579  11.131  68.250  1.00  0.00    -0.111 A  
HETATM    5  C   UNL     1      -8.956  11.232  68.308  1.00  0.00    -0.172 A  
HETATM    6  N   UNL     1      -9.684  10.529  69.189  1.00  0.00    -0.212 NA 
HETATM    7  C   UNL     1      -9.075   9.709  70.091  1.00  0.00    -0.240 A  
ENDROOT
BRANCH   5   8
HETATM    8  N   UNL     1      -9.571  12.112  67.413  1.00  0.00    -0.176 N  
HETATM    9  C   UNL     1     -10.152  11.750  66.223  1.00  0.00    -0.217 C  
HETATM   10  H   UNL     1      -9.589  13.102  67.663  1.00  0.00     0.000 HD 
HETATM   11  O   UNL     1     -10.269  10.635  65.735  1.00  0.00    -0.253 OA 
BRANCH   9  12
HETATM   12  C   UNL     1     -10.683  12.945  65.453  1.00  0.00    -0.307 C  
HETATM   13  C   UNL     1     -11.838  12.730  64.479  1.00  0.00    -0.436 C  
HETATM   14  C   UNL     1     -10.457  12.929  63.946  1.00  0.00    -0.333 C  
BRANCH  12  15
HETATM   15  C   UNL     1     -10.562  14.272  66.205  1.00  0.00    -0.293 A  
HETATM   16  C   UNL     1     -11.475  15.789  67.926  1.00  0.00    -0.221 A  
HETATM   17  C   UNL     1     -11.405  14.531  67.318  1.00  0.00    -0.363 A  
HETATM   18  C   UNL     1     -10.681  16.786  67.412  1.00  0.00    -0.244 A  
HETATM   19  O   UNL     1     -10.658  18.080  67.829  1.00  0.00    -0.401 OA 
HETATM   20  C   UNL     1      -9.726  18.624  66.887  1.00  0.00    -0.314 C  
HETATM   21  F   UNL     1     -10.359  19.571  66.147  1.00  0.00    -0.442 F  
HETATM   22  F   UNL     1      -8.732  19.240  67.572  1.00  0.00    -0.302 F  
HETATM   23  O   UNL     1      -9.141  17.669  65.992  1.00  0.00    -0.493 OA 
HETATM   24  C   UNL     1      -9.824  16.553  66.363  1.00  0.00    -0.293 A  
HETATM   25  C   UNL     1      -9.734  15.318  65.752  1.00  0.00    -0.385 A  
ENDBRANCH  12  15
ENDBRANCH   9  12
ENDBRANCH   5   8
BRANCH   7  26
HETATM   26  C   UNL     1     -10.047   8.988  70.962  1.00  0.00    -0.352 A  
HETATM   27  C   UNL     1     -11.309   9.555  71.247  1.00  0.00    -0.446 A  
HETATM   28  C   UNL     1     -10.748   7.055  72.311  1.00  0.00    -0.250 A  
HETATM   29  O   UNL     1     -11.393   4.883  73.042  1.00  0.00    -0.291 OA 
HETATM   30  C   UNL     1      -9.809   7.710  71.494  1.00  0.00    -0.192 A  
HETATM   31  C   UNL     1     -11.971   7.662  72.600  1.00  0.00    -0.208 A  
HETATM   32  C   UNL     1     -10.363   5.739  72.881  1.00  0.00    -0.199 C  
HETATM   33  O   UNL     1      -9.210   5.452  73.151  1.00  0.00    -0.133 OA 
HETATM   34  C   UNL     1     -12.259   8.906  72.050  1.00  0.00    -0.447 A  
ENDBRANCH   7  26
TORSDOF 4
ENDMDL
MODEL       73
REMARK 921   NORMALIZED FREE ENERGY PREDICTED BY IDOCK:   -6.78 KCAL/MOL
REMARK 922        TOTAL FREE ENERGY PREDICTED BY IDOCK:   -9.50 KCAL/MOL
REMARK 923 INTER-LIGAND FREE ENERGY PREDICTED BY IDOCK:   -8.40 KCAL/MOL
REMARK 924 INTRA-LIGAND FREE ENERGY PREDICTED BY IDOCK:   -1.10 KCAL/MOL
REMARK 927      BINDING AFFINITY PREDICTED BY RF-SCORE:    0.00 PKD
ROOT
HETATM    1  C   UNL     1      -9.876  10.387  62.679  1.00  0.00    -0.063 C  
HETATM    2  C   UNL     1      -9.930  11.309  63.862  1.00  0.00    -0.368 A  
HETATM    3  C   UNL     1     -10.462  12.592  63.654  1.00  0.00    -0.418 A  
HETATM    4  C   UNL     1     -10.469  13.527  64.681  1.00  0.00    -0.439 A  
HETATM    5  C   UNL     1      -9.930  13.165  65.901  1.00  0.00    -0.269 A  
HETATM    6  N   UNL     1      -9.463  11.929  66.134  1.00  0.00    -0.230 NA 
HETATM    7  C   UNL     1      -9.474  10.989  65.148  1.00  0.00    -0.228 A  
ENDROOT
BRANCH   5   8
HETATM    8  N   UNL     1      -9.877  14.149  66.892  1.00  0.00    -0.258 N  
HETATM    9  C   UNL     1     -10.968  14.693  67.524  1.00  0.00    -0.298 C  
HETATM   10  H   UNL     1      -8.955  14.489  67.169  1.00  0.00     0.000 HD 
HETATM   11  O   UNL     1     -12.152  14.427  67.376  1.00  0.00    -0.397 OA 
BRANCH   9  12
HETATM   12  C   UNL     1     -10.581  15.778  68.513  1.00  0.00    -0.253 C  
HETATM   13  C   UNL     1     -10.155  15.365  69.918  1.00  0.00    -0.253 C  
HETATM   14  C   UNL     1     -11.508  15.962  69.708  1.00  0.00    -0.342 C  
BRANCH  12  15
HETATM   15  C   UNL     1      -9.957  17.015  67.864  1.00  0.00    -0.281 A  
HETATM   16  C   UNL     1     -10.248  18.969  66.382  1.00  0.00    -0.502 A  
HETATM   17  C   UNL     1     -10.779  17.929  67.152  1.00  0.00    -0.241 A  
HETATM   18  C   UNL     1      -8.879  19.091  66.339  1.00  0.00    -0.321 A  
HETATM   19  O   UNL     1      -8.184  19.996  65.601  1.00  0.00    -0.280 OA 
HETATM   20  C   UNL     1      -6.847  19.583  65.904  1.00  0.00    -0.267 C  
HETATM   21  F   UNL     1      -6.245  19.180  64.755  1.00  0.00    -0.272 F  
HETATM   22  F   UNL     1      -6.159  20.654  66.369  1.00  0.00    -0.195 F  
HETATM   23  O   UNL     1      -6.742  18.522  66.863  1.00  0.00    -0.183 OA 
HETATM   24  C   UNL     1      -8.061  18.248  67.052  1.00  0.00    -0.230 A  
HETATM   25  C   UNL     1      -8.563  17.219  67.823  1.00  0.00    -0.225 A  
ENDBRANCH  12  15
ENDBRANCH   9  12
ENDBRANCH   5   8
BRANCH   7  26
HETATM   26  C   UNL     1      -8.948   9.670  65.604  1.00  0.00    -0.208 A  
HETATM   27  C   UNL     1      -7.604   9.312  65.358  1.00  0.00    -0.098 A  
HETATM   28  C   UNL     1      -9.183   7.510  66.756  1.00  0.00    -0.192 A  
HETATM   29  O   UNL     1      -9.493   5.804  68.388  1.00  0.00    -0.119 OA 
HETATM   30  C   UNL     1      -9.709   8.746  66.339  1.00  0.00    -0.335 A  
HETATM   31  C   UNL     1      -7.859   7.176  66.463  1.00  0.00    -0.106 A  
HETATM   32  C   UNL     1     -10.097   6.577  67.462  1.00  0.00    -0.155 C  
HETATM   33  O   UNL     1     -11.294   6.538  67.241  1.00  0.00    -0.316 OA 
HETATM   34  C   UNL     1      -7.064   8.088  65.780  1.00  0.00    -0.063 A  
ENDBRANCH   7  26
TORSDOF 4
ENDMDL
MODEL       74
REMARK 921   NORMALIZED FREE ENERGY PREDICTED BY IDOCK:   -6.77 KCAL/MOL
REMARK 922        TOTAL FREE ENERGY PREDICTED BY IDOCK:   -9.49 KCAL/MOL
REMARK 923 INTER-LIGAND FREE ENERGY PREDICTED BY IDOCK:   -8.34 KCAL/MOL
REMARK 924 INTRA-LIGAND FREE ENERGY PREDICTED BY IDOCK:   -1.15 KCAL/MOL
REMARK 927      BINDING AFFINITY PREDICTED BY RF-SCORE:    0.00 PKD
ROOT
HETATM    1  C   UNL     1     -12.621  14.011  65.811  1.00  0.00    -0.512 C  
HETATM    2  C   UNL     1     -11.666  12.906  66.156  1.00  0.00    -0.451 A  
HETATM    3  C   UNL     1     -11.218  12.090  65.106  1.00  0.00    -0.368 A  
HETATM    4  C   UNL     1     -10.399  10.999  65.360  1.00  0.00    -0.330 A  
HETATM    5  C   UNL     1     -10.048  10.732  66.670  1.00  0.00    -0.218 A  
HETATM    6  N   UNL     1     -10.423  11.529  67.682  1.00  0.00    -0.184 NA 
HETATM    7  C   UNL     1     -11.205  12.621  67.449  1.00  0.00    -0.290 A  
ENDROOT
BRANCH   5   8
HETATM    8  N   UNL     1      -9.289   9.584  66.908  1.00  0.00    -0.142 N  
HETATM    9  C   UNL     1      -9.800   8.356  67.252  1.00  0.00    -0.203 C  
HETATM   10  H   UNL     1      -8.275   9.663  66.819  1.00  0.00     0.000 HD 
HETATM   11  O   UNL     1     -10.968   8.023  67.391  1.00  0.00    -0.151 OA 
BRANCH   9  12
HETATM   12  C   UNL     1      -8.712   7.326  67.496  1.00  0.00    -0.121 C  
HETATM   13  C   UNL     1      -7.283   7.665  67.084  1.00  0.00    -0.090 C  
HETATM   14  C   UNL     1      -8.079   6.709  66.255  1.00  0.00    -0.115 C  
BRANCH  12  15
HETATM   15  C   UNL     1      -8.959   6.440  68.719  1.00  0.00    -0.126 A  
HETATM   16  C   UNL     1      -8.730   6.134  71.158  1.00  0.00    -0.132 A  
HETATM   17  C   UNL     1      -8.706   6.948  70.021  1.00  0.00    -0.142 A  
HETATM   18  C   UNL     1      -9.022   4.802  70.979  1.00  0.00    -0.126 A  
HETATM   19  O   UNL     1      -9.031   3.852  71.951  1.00  0.00    -0.108 OA 
HETATM   20  C   UNL     1      -9.316   2.694  71.157  1.00  0.00    -0.140 C  
HETATM   21  F   UNL     1      -8.269   1.833  71.254  1.00  0.00    -0.045 F  
HETATM   22  F   UNL     1     -10.403   2.073  71.675  1.00  0.00    -0.229 F  
HETATM   23  O   UNL     1      -9.557   2.955  69.768  1.00  0.00    -0.129 OA 
HETATM   24  C   UNL     1      -9.314   4.293  69.737  1.00  0.00    -0.161 A  
HETATM   25  C   UNL     1      -9.302   5.078  68.601  1.00  0.00    -0.173 A  
ENDBRANCH  12  15
ENDBRANCH   9  12
ENDBRANCH   5   8
BRANCH   7  26
HETATM   26  C   UNL     1     -11.490  13.400  68.689  1.00  0.00    -0.345 A  
HETATM   27  C   UNL     1     -11.012  14.723  68.828  1.00  0.00    -0.267 A  
HETATM   28  C   UNL     1     -12.529  13.674  70.900  1.00  0.00    -0.448 A  
HETATM   29  O   UNL     1     -14.081  13.889  72.693  1.00  0.00    -0.679 OA 
HETATM   30  C   UNL     1     -12.277  12.913  69.745  1.00  0.00    -0.227 A  
HETATM   31  C   UNL     1     -12.010  14.965  71.017  1.00  0.00    -0.376 A  
HETATM   32  C   UNL     1     -13.311  13.034  71.988  1.00  0.00    -0.492 C  
HETATM   33  O   UNL     1     -13.281  11.835  72.201  1.00  0.00    -0.498 OA 
HETATM   34  C   UNL     1     -11.267  15.496  69.970  1.00  0.00    -0.325 A  
ENDBRANCH   7  26
TORSDOF 4
ENDMDL
MODEL       75
REMARK 921   NORMALIZED FREE ENERGY PREDICTED BY IDOCK:   -6.76 KCAL/MOL
REMARK 922        TOTAL FREE ENERGY PREDICTED BY IDOCK:   -9.49 KCAL/MOL
REMARK 923 INTER-LIGAND FREE ENERGY PREDICTED BY IDOCK:   -8.67 KCAL/MOL
REMARK 924 INTRA-LIGAND FREE ENERGY PREDICTED BY IDOCK:   -0.81 KCAL/MOL
REMARK 927      BINDING AFFINITY PREDICTED BY RF-SCORE:    0.00 PKD
ROOT
HETATM    1  C   UNL     1     -11.520   5.786  72.548  1.00  0.00    -0.349 C  
HETATM    2  C   UNL     1     -11.195   7.059  71.821  1.00  0.00    -0.278 A  
HETATM    3  C   UNL     1     -11.524   8.266  72.457  1.00  0.00    -0.454 A  
HETATM    4  C   UNL     1     -11.329   9.479  71.813  1.00  0.00    -0.303 A  
HETATM    5  C   UNL     1     -10.814   9.465  70.530  1.00  0.00    -0.277 A  
HETATM    6  N   UNL     1     -10.445   8.326  69.924  1.00  0.00    -0.219 NA 
HETATM    7  C   UNL     1     -10.603   7.127  70.552  1.00  0.00    -0.225 A  
ENDROOT
BRANCH   5   8
HETATM    8  N   UNL     1     -10.701  10.694  69.873  1.00  0.00    -0.415 N  
HETATM    9  C   UNL     1     -11.724  11.338  69.222  1.00  0.00    -0.334 C  
HETATM   10  H   UNL     1      -9.787  11.147  69.878  1.00  0.00     0.000 HD 
HETATM   11  O   UNL     1     -12.894  11.001  69.107  1.00  0.00    -0.137 OA 
BRANCH   9  12
HETATM   12  C   UNL     1     -11.267  12.627  68.562  1.00  0.00    -0.315 C  
HETATM   13  C   UNL     1     -10.443  13.614  69.384  1.00  0.00     0.180 C  
HETATM   14  C   UNL     1     -11.880  13.913  69.101  1.00  0.00    -0.401 C  
BRANCH  12  15
HETATM   15  C   UNL     1     -11.018  12.500  67.058  1.00  0.00    -0.306 A  
HETATM   16  C   UNL     1     -11.916  12.708  64.767  1.00  0.00    -0.458 A  
HETATM   17  C   UNL     1     -11.997  12.965  66.140  1.00  0.00    -0.491 A  
HETATM   18  C   UNL     1     -10.835  11.986  64.320  1.00  0.00    -0.339 A  
HETATM   19  O   UNL     1     -10.618  11.589  63.038  1.00  0.00    -0.270 OA 
HETATM   20  C   UNL     1      -9.416  10.832  63.216  1.00  0.00    -0.326 C  
HETATM   21  F   UNL     1      -9.660   9.541  62.871  1.00  0.00    -0.214 F  
HETATM   22  F   UNL     1      -8.475  11.310  62.366  1.00  0.00    -0.291 F  
HETATM   23  O   UNL     1      -8.880  10.849  64.546  1.00  0.00    -0.162 OA 
HETATM   24  C   UNL     1      -9.851  11.560  65.180  1.00  0.00    -0.257 A  
HETATM   25  C   UNL     1      -9.907  11.807  66.537  1.00  0.00    -0.228 A  
ENDBRANCH  12  15
ENDBRANCH   9  12
ENDBRANCH   5   8
BRANCH   7  26
HETATM   26  C   UNL     1     -10.107   5.981  69.737  1.00  0.00    -0.246 A  
HETATM   27  C   UNL     1      -9.851   4.731  70.343  1.00  0.00    -0.309 A  
HETATM   28  C   UNL     1      -9.452   4.943  67.606  1.00  0.00    -0.166 A  
HETATM   29  O   UNL     1      -9.445   4.043  65.402  1.00  0.00    -0.150 OA 
HETATM   30  C   UNL     1      -9.920   6.043  68.346  1.00  0.00    -0.173 A  
HETATM   31  C   UNL     1      -9.176   3.734  68.246  1.00  0.00    -0.215 A  
HETATM   32  C   UNL     1      -9.221   5.141  66.153  1.00  0.00    -0.151 C  
HETATM   33  O   UNL     1      -8.887   6.213  65.681  1.00  0.00    -0.153 OA 
HETATM   34  C   UNL     1      -9.395   3.623  69.614  1.00  0.00    -0.243 A  
ENDBRANCH   7  26
TORSDOF 4
ENDMDL
MODEL       76
REMARK 921   NORMALIZED FREE ENERGY PREDICTED BY IDOCK:   -6.75 KCAL/MOL
REMARK 922        TOTAL FREE ENERGY PREDICTED BY IDOCK:   -9.47 KCAL/MOL
REMARK 923 INTER-LIGAND FREE ENERGY PREDICTED BY IDOCK:   -8.79 KCAL/MOL
REMARK 924 INTRA-LIGAND FREE ENERGY PREDICTED BY IDOCK:   -0.68 KCAL/MOL
REMARK 927      BINDING AFFINITY PREDICTED BY RF-SCORE:    0.00 PKD
ROOT
HETATM    1  C   UNL     1     -10.169   7.122  67.264  1.00  0.00    -0.315 C  
HETATM    2  C   UNL     1     -10.342   8.574  67.604  1.00  0.00    -0.317 A  
HETATM    3  C   UNL     1     -10.771   8.884  68.904  1.00  0.00    -0.132 A  
HETATM    4  C   UNL     1     -11.031  10.199  69.266  1.00  0.00    -0.279 A  
HETATM    5  C   UNL     1     -10.868  11.186  68.312  1.00  0.00    -0.212 A  
HETATM    6  N   UNL     1     -10.410  10.917  67.080  1.00  0.00    -0.210 NA 
HETATM    7  C   UNL     1     -10.122   9.636  66.715  1.00  0.00    -0.236 A  
ENDROOT
BRANCH   5   8
HETATM    8  N   UNL     1     -11.212  12.491  68.678  1.00  0.00    -0.258 N  
HETATM    9  C   UNL     1     -10.333  13.543  68.769  1.00  0.00    -0.158 C  
HETATM   10  H   UNL     1     -12.192  12.676  68.893  1.00  0.00     0.000 HD 
HETATM   11  O   UNL     1      -9.133  13.562  68.538  1.00  0.00    -0.174 OA 
BRANCH   9  12
HETATM   12  C   UNL     1     -11.008  14.817  69.245  1.00  0.00    -0.275 C  
HETATM   13  C   UNL     1     -11.163  15.042  70.746  1.00  0.00    -0.273 C  
HETATM   14  C   UNL     1     -12.355  14.647  69.936  1.00  0.00    -0.341 C  
BRANCH  12  15
HETATM   15  C   UNL     1     -10.798  16.014  68.316  1.00  0.00    -0.319 A  
HETATM   16  C   UNL     1     -10.361  16.832  66.027  1.00  0.00    -0.346 A  
HETATM   17  C   UNL     1     -10.737  15.815  66.911  1.00  0.00    -0.299 A  
HETATM   18  C   UNL     1     -10.055  18.059  66.566  1.00  0.00    -0.379 A  
HETATM   19  O   UNL     1      -9.614  19.144  65.876  1.00  0.00    -0.445 OA 
HETATM   20  C   UNL     1      -9.401  20.054  66.961  1.00  0.00    -0.386 C  
HETATM   21  F   UNL     1      -8.082  20.377  67.005  1.00  0.00    -0.330 F  
HETATM   22  F   UNL     1     -10.091  21.193  66.710  1.00  0.00    -0.354 F  
HETATM   23  O   UNL     1      -9.786  19.561  68.251  1.00  0.00    -0.363 OA 
HETATM   24  C   UNL     1     -10.148  18.293  67.917  1.00  0.00    -0.361 A  
HETATM   25  C   UNL     1     -10.522  17.306  68.808  1.00  0.00    -0.340 A  
ENDBRANCH  12  15
ENDBRANCH   9  12
ENDBRANCH   5   8
BRANCH   7  26
HETATM   26  C   UNL     1      -9.595   9.538  65.323  1.00  0.00    -0.314 A  
HETATM   27  C   UNL     1     -10.049  10.427  64.323  1.00  0.00    -0.306 A  
HETATM   28  C   UNL     1      -8.122   8.561  63.614  1.00  0.00    -0.154 A  
HETATM   29  O   UNL     1      -6.234   7.860  62.344  1.00  0.00    -0.075 OA 
HETATM   30  C   UNL     1      -8.600   8.626  64.935  1.00  0.00    -0.163 A  
HETATM   31  C   UNL     1      -8.621   9.432  62.644  1.00  0.00    -0.220 A  
HETATM   32  C   UNL     1      -7.124   7.509  63.296  1.00  0.00    -0.071 C  
HETATM   33  O   UNL     1      -7.095   6.435  63.869  1.00  0.00    -0.045 OA 
HETATM   34  C   UNL     1      -9.572  10.379  63.005  1.00  0.00    -0.341 A  
ENDBRANCH   7  26
TORSDOF 4
ENDMDL
MODEL       77
REMARK 921   NORMALIZED FREE ENERGY PREDICTED BY IDOCK:   -6.74 KCAL/MOL
REMARK 922        TOTAL FREE ENERGY PREDICTED BY IDOCK:   -9.46 KCAL/MOL
REMARK 923 INTER-LIGAND FREE ENERGY PREDICTED BY IDOCK:   -9.70 KCAL/MOL
REMARK 924 INTRA-LIGAND FREE ENERGY PREDICTED BY IDOCK:    0.23 KCAL/MOL
REMARK 927      BINDING AFFINITY PREDICTED BY RF-SCORE:    0.00 PKD
ROOT
HETATM    1  C   UNL     1     -10.798   6.235  69.586  1.00  0.00    -0.403 C  
HETATM    2  C   UNL     1     -10.936   7.700  69.882  1.00  0.00    -0.208 A  
HETATM    3  C   UNL     1     -11.582   8.058  71.075  1.00  0.00    -0.303 A  
HETATM    4  C   UNL     1     -11.819   9.392  71.377  1.00  0.00    -0.447 A  
HETATM    5  C   UNL     1     -11.412  10.352  70.468  1.00  0.00    -0.345 A  
HETATM    6  N   UNL     1     -10.747  10.034  69.347  1.00  0.00    -0.220 NA 
HETATM    7  C   UNL     1     -10.481   8.732  69.048  1.00  0.00    -0.203 A  
ENDROOT
BRANCH   5   8
HETATM    8  N   UNL     1     -11.732  11.682  70.757  1.00  0.00    -0.351 N  
HETATM    9  C   UNL     1     -12.864  12.096  71.417  1.00  0.00    -0.276 C  
HETATM   10  H   UNL     1     -11.074  12.400  70.456  1.00  0.00     0.000 HD 
HETATM   11  O   UNL     1     -13.769  11.421  71.886  1.00  0.00    -0.112 OA 
BRANCH   9  12
HETATM   12  C   UNL     1     -12.946  13.608  71.525  1.00  0.00    -0.443 C  
HETATM   13  C   UNL     1     -12.812  14.248  72.904  1.00  0.00    -0.482 C  
HETATM   14  C   UNL     1     -14.159  14.164  72.262  1.00  0.00    -0.630 C  
BRANCH  12  15
HETATM   15  C   UNL     1     -12.427  14.348  70.291  1.00  0.00    -0.413 A  
HETATM   16  C   UNL     1     -11.742  14.236  67.922  1.00  0.00    -0.394 A  
HETATM   17  C   UNL     1     -12.378  13.682  69.038  1.00  0.00    -0.076 A  
HETATM   18  C   UNL     1     -11.163  15.473  68.071  1.00  0.00    -0.332 A  
HETATM   19  O   UNL     1     -10.453  16.139  67.122  1.00  0.00    -0.298 OA 
HETATM   20  C   UNL     1     -10.056  17.290  67.877  1.00  0.00    -0.317 C  
HETATM   21  F   UNL     1      -8.699  17.311  67.956  1.00  0.00    -0.211 F  
HETATM   22  F   UNL     1     -10.441  18.401  67.204  1.00  0.00    -0.352 F  
HETATM   23  O   UNL     1     -10.584  17.354  69.208  1.00  0.00    -0.302 OA 
HETATM   24  C   UNL     1     -11.233  16.160  69.259  1.00  0.00    -0.337 A  
HETATM   25  C   UNL     1     -11.860  15.635  70.372  1.00  0.00    -0.395 A  
ENDBRANCH  12  15
ENDBRANCH   9  12
ENDBRANCH   5   8
BRANCH   7  26
HETATM   26  C   UNL     1      -9.707   8.578  67.782  1.00  0.00    -0.199 A  
HETATM   27  C   UNL     1      -8.685   7.609  67.682  1.00  0.00    -0.122 A  
HETATM   28  C   UNL     1      -9.222   9.152  65.441  1.00  0.00    -0.266 A  
HETATM   29  O   UNL     1      -9.352   9.473  63.085  1.00  0.00    -0.145 OA 
HETATM   30  C   UNL     1      -9.970   9.322  66.620  1.00  0.00    -0.333 A  
HETATM   31  C   UNL     1      -8.195   8.208  65.391  1.00  0.00    -0.147 A  
HETATM   32  C   UNL     1      -9.536  10.042  64.294  1.00  0.00    -0.273 C  
HETATM   33  O   UNL     1      -9.951  11.178  64.439  1.00  0.00    -0.253 OA 
HETATM   34  C   UNL     1      -7.941   7.422  66.508  1.00  0.00    -0.111 A  
ENDBRANCH   7  26
TORSDOF 4
ENDMDL
MODEL       78
REMARK 921   NORMALIZED FREE ENERGY PREDICTED BY IDOCK:   -6.74 KCAL/MOL
REMARK 922        TOTAL FREE ENERGY PREDICTED BY IDOCK:   -9.45 KCAL/MOL
REMARK 923 INTER-LIGAND FREE ENERGY PREDICTED BY IDOCK:   -8.44 KCAL/MOL
REMARK 924 INTRA-LIGAND FREE ENERGY PREDICTED BY IDOCK:   -1.01 KCAL/MOL
REMARK 927      BINDING AFFINITY PREDICTED BY RF-SCORE:    0.00 PKD
ROOT
HETATM    1  C   UNL     1      -9.972   4.974  69.572  1.00  0.00    -0.302 C  
HETATM    2  C   UNL     1     -10.127   6.314  68.914  1.00  0.00    -0.200 A  
HETATM    3  C   UNL     1     -10.575   6.330  67.583  1.00  0.00    -0.339 A  
HETATM    4  C   UNL     1     -10.665   7.525  66.883  1.00  0.00    -0.299 A  
HETATM    5  C   UNL     1     -10.292   8.691  67.525  1.00  0.00    -0.269 A  
HETATM    6  N   UNL     1      -9.911   8.704  68.812  1.00  0.00    -0.168 NA 
HETATM    7  C   UNL     1      -9.843   7.544  69.524  1.00  0.00    -0.169 A  
ENDROOT
BRANCH   5   8
HETATM    8  N   UNL     1     -10.316   9.870  66.775  1.00  0.00    -0.229 N  
HETATM    9  C   UNL     1     -11.120  10.954  67.032  1.00  0.00    -0.202 C  
HETATM   10  H   UNL     1      -9.687   9.931  65.974  1.00  0.00     0.000 HD 
HETATM   11  O   UNL     1     -11.924  11.114  67.939  1.00  0.00    -0.624 OA 
BRANCH   9  12
HETATM   12  C   UNL     1     -10.950  12.055  66.001  1.00  0.00    -0.346 C  
HETATM   13  C   UNL     1     -11.955  12.142  64.856  1.00  0.00    -0.356 C  
HETATM   14  C   UNL     1     -10.586  11.606  64.592  1.00  0.00    -0.366 C  
BRANCH  12  15
HETATM   15  C   UNL     1     -10.320  13.333  66.557  1.00  0.00    -0.285 A  
HETATM   16  C   UNL     1      -9.096  14.429  68.400  1.00  0.00    -0.193 A  
HETATM   17  C   UNL     1      -9.538  13.277  67.741  1.00  0.00    -0.214 A  
HETATM   18  C   UNL     1      -9.438  15.643  67.853  1.00  0.00    -0.204 A  
HETATM   19  O   UNL     1      -9.153  16.863  68.382  1.00  0.00    -0.227 OA 
HETATM   20  C   UNL     1      -9.818  17.702  67.431  1.00  0.00    -0.305 C  
HETATM   21  F   UNL     1     -10.796  18.394  68.072  1.00  0.00    -0.395 F  
HETATM   22  F   UNL     1      -8.927  18.606  66.956  1.00  0.00    -0.264 F  
HETATM   23  O   UNL     1     -10.407  17.014  66.321  1.00  0.00    -0.318 OA 
HETATM   24  C   UNL     1     -10.157  15.727  66.685  1.00  0.00    -0.279 A  
HETATM   25  C   UNL     1     -10.598  14.604  66.014  1.00  0.00    -0.314 A  
ENDBRANCH  12  15
ENDBRANCH   9  12
ENDBRANCH   5   8
BRANCH   7  26
HETATM   26  C   UNL     1      -9.433   7.762  70.941  1.00  0.00    -0.165 A  
HETATM   27  C   UNL     1     -10.393   7.726  71.977  1.00  0.00    -0.267 A  
HETATM   28  C   UNL     1      -7.746   8.153  72.687  1.00  0.00    -0.177 A  
HETATM   29  O   UNL     1      -5.906   7.946  74.184  1.00  0.00    -0.070 OA 
HETATM   30  C   UNL     1      -8.100   7.952  71.341  1.00  0.00    -0.108 A  
HETATM   31  C   UNL     1      -8.728   8.147  73.679  1.00  0.00    -0.309 A  
HETATM   32  C   UNL     1      -6.317   8.419  72.989  1.00  0.00    -0.098 C  
HETATM   33  O   UNL     1      -5.575   8.988  72.208  1.00  0.00    -0.063 OA 
HETATM   34  C   UNL     1     -10.051   7.913  73.324  1.00  0.00    -0.313 A  
ENDBRANCH   7  26
TORSDOF 4
ENDMDL
MODEL       79
REMARK 921   NORMALIZED FREE ENERGY PREDICTED BY IDOCK:   -6.73 KCAL/MOL
REMARK 922        TOTAL FREE ENERGY PREDICTED BY IDOCK:   -9.45 KCAL/MOL
REMARK 923 INTER-LIGAND FREE ENERGY PREDICTED BY IDOCK:   -8.78 KCAL/MOL
REMARK 924 INTRA-LIGAND FREE ENERGY PREDICTED BY IDOCK:   -0.67 KCAL/MOL
REMARK 927      BINDING AFFINITY PREDICTED BY RF-SCORE:    0.00 PKD
ROOT
HETATM    1  C   UNL     1     -10.363  13.564  65.817  1.00  0.00    -0.296 C  
HETATM    2  C   UNL     1     -10.624  12.503  66.845  1.00  0.00    -0.255 A  
HETATM    3  C   UNL     1     -10.466  11.166  66.445  1.00  0.00    -0.311 A  
HETATM    4  C   UNL     1     -10.768  10.129  67.317  1.00  0.00    -0.316 A  
HETATM    5  C   UNL     1     -11.237  10.446  68.578  1.00  0.00    -0.251 A  
HETATM    6  N   UNL     1     -11.346  11.717  68.997  1.00  0.00    -0.250 NA 
HETATM    7  C   UNL     1     -11.028  12.748  68.165  1.00  0.00    -0.247 A  
ENDROOT
BRANCH   5   8
HETATM    8  N   UNL     1     -11.609   9.385  69.408  1.00  0.00    -0.367 N  
HETATM    9  C   UNL     1     -10.825   8.845  70.397  1.00  0.00    -0.236 C  
HETATM   10  H   UNL     1     -12.535   8.981  69.268  1.00  0.00     0.000 HD 
HETATM   11  O   UNL     1      -9.705   9.178  70.757  1.00  0.00    -0.228 OA 
BRANCH   9  12
HETATM   12  C   UNL     1     -11.493   7.667  71.083  1.00  0.00    -0.296 C  
HETATM   13  C   UNL     1     -12.955   7.800  71.501  1.00  0.00    -0.357 C  
HETATM   14  C   UNL     1     -11.884   7.871  72.542  1.00  0.00    -0.390 C  
BRANCH  12  15
HETATM   15  C   UNL     1     -10.950   6.305  70.647  1.00  0.00    -0.370 A  
HETATM   16  C   UNL     1      -9.799   4.214  71.279  1.00  0.00    -0.249 A  
HETATM   17  C   UNL     1     -10.477   5.388  71.623  1.00  0.00    -0.291 A  
HETATM   18  C   UNL     1      -9.608   3.960  69.942  1.00  0.00    -0.200 A  
HETATM   19  O   UNL     1      -8.923   2.908  69.421  1.00  0.00    -0.085 OA 
HETATM   20  C   UNL     1      -9.003   3.230  68.028  1.00  0.00    -0.147 C  
HETATM   21  F   UNL     1      -7.744   3.426  67.554  1.00  0.00    -0.073 F  
HETATM   22  F   UNL     1      -9.524   2.167  67.369  1.00  0.00    -0.185 F  
HETATM   23  O   UNL     1      -9.786   4.390  67.717  1.00  0.00    -0.166 OA 
HETATM   24  C   UNL     1     -10.093   4.807  68.974  1.00  0.00    -0.101 A  
HETATM   25  C   UNL     1     -10.771   5.969  69.290  1.00  0.00    -0.401 A  
ENDBRANCH  12  15
ENDBRANCH   9  12
ENDBRANCH   5   8
BRANCH   7  26
HETATM   26  C   UNL     1     -11.180  14.081  68.817  1.00  0.00    -0.298 A  
HETATM   27  C   UNL     1     -11.788  14.190  70.087  1.00  0.00    -0.382 A  
HETATM   28  C   UNL     1     -10.851  16.516  68.901  1.00  0.00    -0.336 A  
HETATM   29  O   UNL     1      -9.908  18.700  69.000  1.00  0.00    -0.363 OA 
HETATM   30  C   UNL     1     -10.693  15.275  68.259  1.00  0.00    -0.254 A  
HETATM   31  C   UNL     1     -11.490  16.590  70.140  1.00  0.00     0.043 A  
HETATM   32  C   UNL     1     -10.365  17.725  68.188  1.00  0.00    -0.391 C  
HETATM   33  O   UNL     1     -10.354  17.811  66.973  1.00  0.00    -0.332 OA 
HETATM   34  C   UNL     1     -11.941  15.421  70.742  1.00  0.00    -0.402 A  
ENDBRANCH   7  26
TORSDOF 4
ENDMDL
MODEL       80
REMARK 921   NORMALIZED FREE ENERGY PREDICTED BY IDOCK:   -6.71 KCAL/MOL
REMARK 922        TOTAL FREE ENERGY PREDICTED BY IDOCK:   -9.43 KCAL/MOL
REMARK 923 INTER-LIGAND FREE ENERGY PREDICTED BY IDOCK:   -8.31 KCAL/MOL
REMARK 924 INTRA-LIGAND FREE ENERGY PREDICTED BY IDOCK:   -1.12 KCAL/MOL
REMARK 927      BINDING AFFINITY PREDICTED BY RF-SCORE:    0.00 PKD
ROOT
HETATM    1  C   UNL     1     -11.630   6.274  71.331  1.00  0.00    -0.338 C  
HETATM    2  C   UNL     1     -11.083   7.520  70.696  1.00  0.00    -0.280 A  
HETATM    3  C   UNL     1     -11.225   8.721  71.409  1.00  0.00    -0.362 A  
HETATM    4  C   UNL     1     -10.817   9.925  70.850  1.00  0.00    -0.357 A  
HETATM    5  C   UNL     1     -10.282   9.909  69.576  1.00  0.00    -0.225 A  
HETATM    6  N   UNL     1     -10.090   8.766  68.899  1.00  0.00    -0.193 NA 
HETATM    7  C   UNL     1     -10.458   7.571  69.442  1.00  0.00    -0.222 A  
ENDROOT
BRANCH   5   8
HETATM    8  N   UNL     1      -9.953  11.141  69.005  1.00  0.00    -0.346 N  
HETATM    9  C   UNL     1      -8.675  11.584  68.764  1.00  0.00    -0.044 C  
HETATM   10  H   UNL     1     -10.722  11.761  68.747  1.00  0.00     0.000 HD 
HETATM   11  O   UNL     1      -7.614  11.011  68.966  1.00  0.00    -0.124 OA 
BRANCH   9  12
HETATM   12  C   UNL     1      -8.651  12.988  68.188  1.00  0.00    -0.188 C  
HETATM   13  C   UNL     1      -7.303  13.682  68.017  1.00  0.00    -0.131 C  
HETATM   14  C   UNL     1      -8.204  14.096  69.134  1.00  0.00     0.161 C  
BRANCH  12  15
HETATM   15  C   UNL     1      -9.782  13.272  67.198  1.00  0.00    -0.236 A  
HETATM   16  C   UNL     1     -12.109  14.017  66.841  1.00  0.00    -0.465 A  
HETATM   17  C   UNL     1     -10.972  13.902  67.649  1.00  0.00    -0.278 A  
HETATM   18  C   UNL     1     -12.037  13.502  65.569  1.00  0.00    -0.419 A  
HETATM   19  O   UNL     1     -13.053  13.466  64.666  1.00  0.00    -0.626 OA 
HETATM   20  C   UNL     1     -12.407  12.763  63.599  1.00  0.00    -0.463 C  
HETATM   21  F   UNL     1     -13.067  11.594  63.388  1.00  0.00    -0.626 F  
HETATM   22  F   UNL     1     -12.516  13.501  62.468  1.00  0.00    -0.125 F  
HETATM   23  O   UNL     1     -11.023  12.464  63.819  1.00  0.00    -0.377 OA 
HETATM   24  C   UNL     1     -10.884  12.927  65.091  1.00  0.00    -0.296 A  
HETATM   25  C   UNL     1      -9.749  12.808  65.868  1.00  0.00    -0.203 A  
ENDBRANCH  12  15
ENDBRANCH   9  12
ENDBRANCH   5   8
BRANCH   7  26
HETATM   26  C   UNL     1     -10.137   6.414  68.558  1.00  0.00    -0.173 A  
HETATM   27  C   UNL     1     -10.893   6.177  67.388  1.00  0.00    -0.431 A  
HETATM   28  C   UNL     1      -8.783   4.460  67.932  1.00  0.00    -0.116 A  
HETATM   29  O   UNL     1      -7.010   3.020  67.258  1.00  0.00    -0.048 OA 
HETATM   30  C   UNL     1      -9.060   5.541  68.787  1.00  0.00    -0.131 A  
HETATM   31  C   UNL     1      -9.574   4.235  66.804  1.00  0.00    -0.221 A  
HETATM   32  C   UNL     1      -7.666   3.556  68.308  1.00  0.00    -0.060 C  
HETATM   33  O   UNL     1      -7.353   3.345  69.466  1.00  0.00    -0.045 OA 
HETATM   34  C   UNL     1     -10.618   5.108  66.522  1.00  0.00    -0.320 A  
ENDBRANCH   7  26
TORSDOF 4
ENDMDL
MODEL       81
REMARK 921   NORMALIZED FREE ENERGY PREDICTED BY IDOCK:   -6.70 KCAL/MOL
REMARK 922        TOTAL FREE ENERGY PREDICTED BY IDOCK:   -9.41 KCAL/MOL
REMARK 923 INTER-LIGAND FREE ENERGY PREDICTED BY IDOCK:   -9.65 KCAL/MOL
REMARK 924 INTRA-LIGAND FREE ENERGY PREDICTED BY IDOCK:    0.24 KCAL/MOL
REMARK 927      BINDING AFFINITY PREDICTED BY RF-SCORE:    0.00 PKD
ROOT
HETATM    1  C   UNL     1     -12.767   6.837  71.712  1.00  0.00    -0.342 C  
HETATM    2  C   UNL     1     -12.623   8.327  71.601  1.00  0.00    -0.355 A  
HETATM    3  C   UNL     1     -13.685   9.114  72.074  1.00  0.00    -0.508 A  
HETATM    4  C   UNL     1     -13.658  10.495  71.930  1.00  0.00    -0.228 A  
HETATM    5  C   UNL     1     -12.569  11.068  71.301  1.00  0.00    -0.412 A  
HETATM    6  N   UNL     1     -11.521  10.339  70.888  1.00  0.00    -0.352 NA 
HETATM    7  C   UNL     1     -11.516   8.985  71.046  1.00  0.00    -0.295 A  
ENDROOT
BRANCH   5   8
HETATM    8  N   UNL     1     -12.603  12.450  71.098  1.00  0.00    -0.325 N  
HETATM    9  C   UNL     1     -11.905  13.123  70.124  1.00  0.00    -0.257 C  
HETATM   10  H   UNL     1     -13.191  13.004  71.722  1.00  0.00     0.000 HD 
HETATM   11  O   UNL     1     -11.166  12.673  69.260  1.00  0.00    -0.243 OA 
BRANCH   9  12
HETATM   12  C   UNL     1     -12.111  14.625  70.201  1.00  0.00    -0.385 C  
HETATM   13  C   UNL     1     -11.995  15.307  71.561  1.00  0.00    -0.429 C  
HETATM   14  C   UNL     1     -13.346  15.097  70.958  1.00  0.00    -0.504 C  
BRANCH  12  15
HETATM   15  C   UNL     1     -11.686  15.375  68.937  1.00  0.00    -0.377 A  
HETATM   16  C   UNL     1     -11.148  15.275  66.529  1.00  0.00    -0.271 A  
HETATM   17  C   UNL     1     -11.701  14.709  67.683  1.00  0.00    -0.389 A  
HETATM   18  C   UNL     1     -10.588  16.525  66.642  1.00  0.00    -0.216 A  
HETATM   19  O   UNL     1      -9.954  17.205  65.651  1.00  0.00    -0.558 OA 
HETATM   20  C   UNL     1      -9.535  18.365  66.380  1.00  0.00    -0.295 C  
HETATM   21  F   UNL     1      -8.177  18.416  66.373  1.00  0.00    -0.258 F  
HETATM   22  F   UNL     1      -9.986  19.467  65.733  1.00  0.00    -0.396 F  
HETATM   23  O   UNL     1      -9.981  18.419  67.741  1.00  0.00    -0.317 OA 
HETATM   24  C   UNL     1     -10.598  17.211  67.833  1.00  0.00    -0.376 A  
HETATM   25  C   UNL     1     -11.143  16.674  68.983  1.00  0.00    -0.234 A  
ENDBRANCH  12  15
ENDBRANCH   9  12
ENDBRANCH   5   8
BRANCH   7  26
HETATM   26  C   UNL     1     -10.256   8.353  70.558  1.00  0.00    -0.216 A  
HETATM   27  C   UNL     1     -10.303   7.285  69.635  1.00  0.00    -0.227 A  
HETATM   28  C   UNL     1      -7.806   8.182  70.444  1.00  0.00    -0.090 A  
HETATM   29  O   UNL     1      -5.494   8.605  70.063  1.00  0.00    -0.028 OA 
HETATM   30  C   UNL     1      -8.975   8.799  70.923  1.00  0.00    -0.247 A  
HETATM   31  C   UNL     1      -7.893   7.105  69.560  1.00  0.00    -0.119 A  
HETATM   32  C   UNL     1      -6.505   8.686  70.952  1.00  0.00    -0.047 C  
HETATM   33  O   UNL     1      -6.375   9.160  72.067  1.00  0.00    -0.218 OA 
HETATM   34  C   UNL     1      -9.144   6.670  69.141  1.00  0.00    -0.137 A  
ENDBRANCH   7  26
TORSDOF 4
ENDMDL
MODEL       82
REMARK 921   NORMALIZED FREE ENERGY PREDICTED BY IDOCK:   -6.68 KCAL/MOL
REMARK 922        TOTAL FREE ENERGY PREDICTED BY IDOCK:   -9.38 KCAL/MOL
REMARK 923 INTER-LIGAND FREE ENERGY PREDICTED BY IDOCK:   -8.23 KCAL/MOL
REMARK 924 INTRA-LIGAND FREE ENERGY PREDICTED BY IDOCK:   -1.15 KCAL/MOL
REMARK 927      BINDING AFFINITY PREDICTED BY RF-SCORE:    0.00 PKD
ROOT
HETATM    1  C   UNL     1      -6.073   9.541  71.427  1.00  0.00    -0.034 C  
HETATM    2  C   UNL     1      -6.483  10.567  70.412  1.00  0.00    -0.117 A  
HETATM    3  C   UNL     1      -5.596  11.628  70.174  1.00  0.00    -0.127 A  
HETATM    4  C   UNL     1      -5.942  12.658  69.309  1.00  0.00    -0.093 A  
HETATM    5  C   UNL     1      -7.184  12.615  68.703  1.00  0.00    -0.108 A  
HETATM    6  N   UNL     1      -8.025  11.585  68.877  1.00  0.00    -0.102 NA 
HETATM    7  C   UNL     1      -7.691  10.551  69.700  1.00  0.00    -0.110 A  
ENDROOT
BRANCH   5   8
HETATM    8  N   UNL     1      -7.541  13.702  67.900  1.00  0.00    -0.138 N  
HETATM    9  C   UNL     1      -8.390  14.715  68.274  1.00  0.00    -0.148 C  
HETATM   10  H   UNL     1      -7.139  13.747  66.963  1.00  0.00     0.000 HD 
HETATM   11  O   UNL     1      -8.962  14.881  69.341  1.00  0.00    -0.147 OA 
BRANCH   9  12
HETATM   12  C   UNL     1      -8.619  15.717  67.157  1.00  0.00    -0.235 C  
HETATM   13  C   UNL     1      -7.467  16.633  66.753  1.00  0.00    -0.289 C  
HETATM   14  C   UNL     1      -8.598  17.187  67.557  1.00  0.00    -0.209 C  
BRANCH  12  15
HETATM   15  C   UNL     1      -9.624  15.252  66.102  1.00  0.00    -0.353 A  
HETATM   16  C   UNL     1     -11.474  15.840  64.575  1.00  0.00    -0.292 A  
HETATM   17  C   UNL     1     -10.411  16.208  65.407  1.00  0.00    -0.396 A  
HETATM   18  C   UNL     1     -11.734  14.497  64.437  1.00  0.00    -0.367 A  
HETATM   19  O   UNL     1     -12.756  13.954  63.724  1.00  0.00    -0.693 OA 
HETATM   20  C   UNL     1     -12.551  12.568  64.020  1.00  0.00    -0.387 C  
HETATM   21  F   UNL     1     -13.644  12.099  64.678  1.00  0.00    -0.136 F  
HETATM   22  F   UNL     1     -12.456  11.887  62.853  1.00  0.00    -0.526 F  
HETATM   23  O   UNL     1     -11.392  12.282  64.813  1.00  0.00    -0.307 OA 
HETATM   24  C   UNL     1     -10.962  13.548  65.062  1.00  0.00    -0.335 A  
HETATM   25  C   UNL     1      -9.905  13.888  65.883  1.00  0.00    -0.287 A  
ENDBRANCH  12  15
ENDBRANCH   9  12
ENDBRANCH   5   8
BRANCH   7  26
HETATM   26  C   UNL     1      -8.735   9.487  69.741  1.00  0.00    -0.204 A  
HETATM   27  C   UNL     1      -8.614   8.335  68.932  1.00  0.00    -0.132 A  
HETATM   28  C   UNL     1     -10.812   8.503  70.617  1.00  0.00    -0.255 A  
HETATM   29  O   UNL     1     -12.475   7.529  72.014  1.00  0.00    -0.299 OA 
HETATM   30  C   UNL     1      -9.845   9.525  70.601  1.00  0.00    -0.328 A  
HETATM   31  C   UNL     1     -10.677   7.397  69.777  1.00  0.00    -0.252 A  
HETATM   32  C   UNL     1     -11.983   8.680  71.512  1.00  0.00    -0.306 C  
HETATM   33  O   UNL     1     -12.439   9.775  71.790  1.00  0.00    -0.371 OA 
HETATM   34  C   UNL     1      -9.566   7.304  68.948  1.00  0.00    -0.143 A  
ENDBRANCH   7  26
TORSDOF 4
ENDMDL
MODEL       83
REMARK 921   NORMALIZED FREE ENERGY PREDICTED BY IDOCK:   -6.62 KCAL/MOL
REMARK 922        TOTAL FREE ENERGY PREDICTED BY IDOCK:   -9.31 KCAL/MOL
REMARK 923 INTER-LIGAND FREE ENERGY PREDICTED BY IDOCK:   -9.16 KCAL/MOL
REMARK 924 INTRA-LIGAND FREE ENERGY PREDICTED BY IDOCK:   -0.15 KCAL/MOL
REMARK 927      BINDING AFFINITY PREDICTED BY RF-SCORE:    0.00 PKD
ROOT
HETATM    1  C   UNL     1     -13.561   8.906  72.745  1.00  0.00    -0.275 C  
HETATM    2  C   UNL     1     -12.698   8.777  71.523  1.00  0.00    -0.372 A  
HETATM    3  C   UNL     1     -12.369   7.479  71.101  1.00  0.00    -0.321 A  
HETATM    4  C   UNL     1     -11.510   7.282  70.029  1.00  0.00    -0.142 A  
HETATM    5  C   UNL     1     -10.980   8.394  69.401  1.00  0.00    -0.002 A  
HETATM    6  N   UNL     1     -11.321   9.642  69.756  1.00  0.00    -0.174 NA 
HETATM    7  C   UNL     1     -12.185   9.855  70.788  1.00  0.00    -0.291 A  
ENDROOT
BRANCH   5   8
HETATM    8  N   UNL     1     -10.056   8.169  68.376  1.00  0.00    -0.195 N  
HETATM    9  C   UNL     1      -8.698   8.343  68.486  1.00  0.00    -0.136 C  
HETATM   10  H   UNL     1     -10.419   7.851  67.477  1.00  0.00     0.000 HD 
HETATM   11  O   UNL     1      -8.044   8.689  69.459  1.00  0.00    -0.105 OA 
BRANCH   9  12
HETATM   12  C   UNL     1      -7.975   8.069  67.179  1.00  0.00    -0.113 C  
HETATM   13  C   UNL     1      -7.294   6.717  66.993  1.00  0.00    -0.082 C  
HETATM   14  C   UNL     1      -6.460   7.926  67.266  1.00  0.00    -0.056 C  
BRANCH  12  15
HETATM   15  C   UNL     1      -8.582   8.786  65.972  1.00  0.00    -0.166 A  
HETATM   16  C   UNL     1      -8.366   9.430  63.597  1.00  0.00    -0.184 A  
HETATM   17  C   UNL     1      -7.975   8.655  64.695  1.00  0.00    -0.141 A  
HETATM   18  C   UNL     1      -9.383  10.334  63.791  1.00  0.00    -0.295 A  
HETATM   19  O   UNL     1      -9.855  11.210  62.865  1.00  0.00    -0.317 OA 
HETATM   20  C   UNL     1     -10.819  11.910  63.660  1.00  0.00    -0.444 C  
HETATM   21  F   UNL     1     -10.453  13.217  63.736  1.00  0.00    -0.394 F  
HETATM   22  F   UNL     1     -12.017  11.859  63.030  1.00  0.00    -0.449 F  
HETATM   23  O   UNL     1     -10.982  11.411  64.994  1.00  0.00    -0.275 OA 
HETATM   24  C   UNL     1     -10.018  10.451  65.004  1.00  0.00    -0.330 A  
HETATM   25  C   UNL     1      -9.653   9.693  66.098  1.00  0.00    -0.295 A  
ENDBRANCH  12  15
ENDBRANCH   9  12
ENDBRANCH   5   8
BRANCH   7  26
HETATM   26  C   UNL     1     -12.468  11.302  71.012  1.00  0.00    -0.503 A  
HETATM   27  C   UNL     1     -13.259  11.714  72.108  1.00  0.00    -0.327 A  
HETATM   28  C   UNL     1     -12.223  13.683  70.452  1.00  0.00    -0.434 A  
HETATM   29  O   UNL     1     -11.365  15.869  70.059  1.00  0.00    -0.305 OA 
HETATM   30  C   UNL     1     -11.938  12.327  70.212  1.00  0.00    -0.373 A  
HETATM   31  C   UNL     1     -13.038  14.050  71.524  1.00  0.00    -0.436 A  
HETATM   32  C   UNL     1     -11.671  14.680  69.500  1.00  0.00    -0.324 C  
HETATM   33  O   UNL     1     -11.484  14.430  68.322  1.00  0.00    -0.274 OA 
HETATM   34  C   UNL     1     -13.540  13.063  72.364  1.00  0.00    -0.628 A  
ENDBRANCH   7  26
TORSDOF 4
ENDMDL
MODEL       84
REMARK 921   NORMALIZED FREE ENERGY PREDICTED BY IDOCK:   -6.62 KCAL/MOL
REMARK 922        TOTAL FREE ENERGY PREDICTED BY IDOCK:   -9.31 KCAL/MOL
REMARK 923 INTER-LIGAND FREE ENERGY PREDICTED BY IDOCK:   -8.94 KCAL/MOL
REMARK 924 INTRA-LIGAND FREE ENERGY PREDICTED BY IDOCK:   -0.37 KCAL/MOL
REMARK 927      BINDING AFFINITY PREDICTED BY RF-SCORE:    0.00 PKD
ROOT
HETATM    1  C   UNL     1     -12.824   6.774  71.687  1.00  0.00    -0.328 C  
HETATM    2  C   UNL     1     -12.581   8.252  71.584  1.00  0.00    -0.355 A  
HETATM    3  C   UNL     1     -13.630   9.105  71.963  1.00  0.00    -0.520 A  
HETATM    4  C   UNL     1     -13.508  10.480  71.818  1.00  0.00    -0.345 A  
HETATM    5  C   UNL     1     -12.338  10.982  71.281  1.00  0.00    -0.321 A  
HETATM    6  N   UNL     1     -11.305  10.189  70.961  1.00  0.00    -0.345 NA 
HETATM    7  C   UNL     1     -11.394   8.838  71.122  1.00  0.00    -0.285 A  
ENDROOT
BRANCH   5   8
HETATM    8  N   UNL     1     -12.271  12.363  71.072  1.00  0.00    -0.384 N  
HETATM    9  C   UNL     1     -11.851  12.966  69.911  1.00  0.00    -0.303 C  
HETATM   10  H   UNL     1     -12.557  12.970  71.841  1.00  0.00     0.000 HD 
HETATM   11  O   UNL     1     -11.490  12.448  68.865  1.00  0.00    -0.262 OA 
BRANCH   9  12
HETATM   12  C   UNL     1     -11.841  14.480  70.020  1.00  0.00    -0.372 C  
HETATM   13  C   UNL     1     -11.789  15.111  71.408  1.00  0.00    -0.418 C  
HETATM   14  C   UNL     1     -13.075  15.118  70.647  1.00  0.00    -0.385 C  
BRANCH  12  15
HETATM   15  C   UNL     1     -11.164  15.182  68.842  1.00  0.00    -0.292 A  
HETATM   16  C   UNL     1     -10.880  15.356  66.395  1.00  0.00    -0.303 A  
HETATM   17  C   UNL     1     -11.580  14.895  67.515  1.00  0.00    -0.355 A  
HETATM   18  C   UNL     1      -9.759  16.119  66.618  1.00  0.00    -0.244 A  
HETATM   19  O   UNL     1      -8.922  16.602  65.663  1.00  0.00    -0.463 OA 
HETATM   20  C   UNL     1      -7.936  17.225  66.494  1.00  0.00    -0.283 C  
HETATM   21  F   UNL     1      -6.741  16.612  66.286  1.00  0.00    -0.226 F  
HETATM   22  F   UNL     1      -7.801  18.518  66.109  1.00  0.00    -0.263 F  
HETATM   23  O   UNL     1      -8.219  17.194  67.899  1.00  0.00    -0.195 OA 
HETATM   24  C   UNL     1      -9.357  16.449  67.891  1.00  0.00    -0.214 A  
HETATM   25  C   UNL     1     -10.037  16.011  69.010  1.00  0.00    -0.239 A  
ENDBRANCH  12  15
ENDBRANCH   9  12
ENDBRANCH   5   8
BRANCH   7  26
HETATM   26  C   UNL     1     -10.138   8.129  70.744  1.00  0.00    -0.211 A  
HETATM   27  C   UNL     1      -8.985   8.237  71.551  1.00  0.00    -0.223 A  
HETATM   28  C   UNL     1      -8.835   6.625  69.299  1.00  0.00    -0.133 A  
HETATM   29  O   UNL     1      -8.007   4.734  68.112  1.00  0.00    -0.085 OA 
HETATM   30  C   UNL     1     -10.034   7.282  69.627  1.00  0.00    -0.176 A  
HETATM   31  C   UNL     1      -7.704   6.785  70.101  1.00  0.00    -0.101 A  
HETATM   32  C   UNL     1      -8.815   5.813  68.056  1.00  0.00    -0.109 C  
HETATM   33  O   UNL     1      -9.495   6.085  67.082  1.00  0.00    -0.114 OA 
HETATM   34  C   UNL     1      -7.787   7.578  71.240  1.00  0.00    -0.094 A  
ENDBRANCH   7  26
TORSDOF 4
ENDMDL
MODEL       85
REMARK 921   NORMALIZED FREE ENERGY PREDICTED BY IDOCK:   -6.61 KCAL/MOL
REMARK 922        TOTAL FREE ENERGY PREDICTED BY IDOCK:   -9.30 KCAL/MOL
REMARK 923 INTER-LIGAND FREE ENERGY PREDICTED BY IDOCK:   -8.74 KCAL/MOL
REMARK 924 INTRA-LIGAND FREE ENERGY PREDICTED BY IDOCK:   -0.56 KCAL/MOL
REMARK 927      BINDING AFFINITY PREDICTED BY RF-SCORE:    0.00 PKD
ROOT
HETATM    1  C   UNL     1      -5.294  17.403  69.881  1.00  0.00    -0.213 C  
HETATM    2  C   UNL     1      -6.213  16.281  69.493  1.00  0.00    -0.186 A  
HETATM    3  C   UNL     1      -6.138  15.098  70.245  1.00  0.00    -0.127 A  
HETATM    4  C   UNL     1      -6.898  13.991  69.895  1.00  0.00     0.071 A  
HETATM    5  C   UNL     1      -7.716  14.081  68.785  1.00  0.00    -0.112 A  
HETATM    6  N   UNL     1      -7.841  15.218  68.083  1.00  0.00    -0.117 NA 
HETATM    7  C   UNL     1      -7.124  16.325  68.428  1.00  0.00    -0.136 A  
ENDROOT
BRANCH   5   8
HETATM    8  N   UNL     1      -8.410  12.928  68.407  1.00  0.00    -0.247 N  
HETATM    9  C   UNL     1      -9.734  12.887  68.041  1.00  0.00    -0.224 C  
HETATM   10  H   UNL     1      -7.894  12.048  68.402  1.00  0.00     0.000 HD 
HETATM   11  O   UNL     1     -10.533  13.808  67.951  1.00  0.00    -0.239 OA 
BRANCH   9  12
HETATM   12  C   UNL     1     -10.206  11.476  67.741  1.00  0.00    -0.200 C  
HETATM   13  C   UNL     1      -9.373  10.615  66.795  1.00  0.00    -0.179 C  
HETATM   14  C   UNL     1     -10.656  11.208  66.310  1.00  0.00    -0.309 C  
BRANCH  12  15
HETATM   15  C   UNL     1     -10.969  10.819  68.892  1.00  0.00    -0.289 A  
HETATM   16  C   UNL     1     -12.442  11.101  70.853  1.00  0.00    -0.509 A  
HETATM   17  C   UNL     1     -11.863  11.593  69.678  1.00  0.00    -0.419 A  
HETATM   18  C   UNL     1     -12.123   9.818  71.229  1.00  0.00    -0.382 A  
HETATM   19  O   UNL     1     -12.537   9.195  72.363  1.00  0.00    -0.368 OA 
HETATM   20  C   UNL     1     -11.833   7.955  72.232  1.00  0.00    -0.352 C  
HETATM   21  F   UNL     1     -10.971   7.832  73.275  1.00  0.00    -0.416 F  
HETATM   22  F   UNL     1     -12.726   6.940  72.322  1.00  0.00    -0.269 F  
HETATM   23  O   UNL     1     -11.091   7.805  71.015  1.00  0.00    -0.248 OA 
HETATM   24  C   UNL     1     -11.295   9.031  70.464  1.00  0.00    -0.243 A  
HETATM   25  C   UNL     1     -10.717   9.493  69.298  1.00  0.00    -0.240 A  
ENDBRANCH  12  15
ENDBRANCH   9  12
ENDBRANCH   5   8
BRANCH   7  26
HETATM   26  C   UNL     1      -7.420  17.497  67.556  1.00  0.00    -0.202 A  
HETATM   27  C   UNL     1      -6.385  18.127  66.829  1.00  0.00    -0.211 A  
HETATM   28  C   UNL     1      -8.960  19.112  66.522  1.00  0.00    -0.359 A  
HETATM   29  O   UNL     1     -10.684  20.138  65.241  1.00  0.00    -0.283 OA 
HETATM   30  C   UNL     1      -8.714  18.005  67.354  1.00  0.00    -0.248 A  
HETATM   31  C   UNL     1      -7.906  19.731  65.848  1.00  0.00    -0.309 A  
HETATM   32  C   UNL     1     -10.355  19.612  66.439  1.00  0.00    -0.504 C  
HETATM   33  O   UNL     1     -11.141  19.525  67.365  1.00  0.00    -0.433 OA 
HETATM   34  C   UNL     1      -6.619  19.224  65.988  1.00  0.00    -0.245 A  
ENDBRANCH   7  26
TORSDOF 4
ENDMDL
MODEL       86
REMARK 921   NORMALIZED FREE ENERGY PREDICTED BY IDOCK:   -6.61 KCAL/MOL
REMARK 922        TOTAL FREE ENERGY PREDICTED BY IDOCK:   -9.30 KCAL/MOL
REMARK 923 INTER-LIGAND FREE ENERGY PREDICTED BY IDOCK:   -8.11 KCAL/MOL
REMARK 924 INTRA-LIGAND FREE ENERGY PREDICTED BY IDOCK:   -1.18 KCAL/MOL
REMARK 927      BINDING AFFINITY PREDICTED BY RF-SCORE:    0.00 PKD
ROOT
HETATM    1  C   UNL     1      -9.419  10.364  63.685  1.00  0.00    -0.353 C  
HETATM    2  C   UNL     1      -9.848   9.999  65.076  1.00  0.00    -0.374 A  
HETATM    3  C   UNL     1      -9.574   8.693  65.513  1.00  0.00     0.078 A  
HETATM    4  C   UNL     1     -10.012   8.258  66.756  1.00  0.00    -0.355 A  
HETATM    5  C   UNL     1     -10.732   9.138  67.542  1.00  0.00    -0.185 A  
HETATM    6  N   UNL     1     -10.960  10.406  67.166  1.00  0.00    -0.241 NA 
HETATM    7  C   UNL     1     -10.513  10.859  65.961  1.00  0.00    -0.225 A  
ENDROOT
BRANCH   5   8
HETATM    8  N   UNL     1     -11.230   8.652  68.754  1.00  0.00    -0.274 N  
HETATM    9  C   UNL     1     -10.587   8.743  69.965  1.00  0.00    -0.223 C  
HETATM   10  H   UNL     1     -12.142   8.194  68.739  1.00  0.00     0.000 HD 
HETATM   11  O   UNL     1      -9.512   9.263  70.226  1.00  0.00    -0.201 OA 
BRANCH   9  12
HETATM   12  C   UNL     1     -11.364   8.069  71.082  1.00  0.00    -0.292 C  
HETATM   13  C   UNL     1     -12.802   8.511  71.338  1.00  0.00    -0.277 C  
HETATM   14  C   UNL     1     -11.723   8.946  72.275  1.00  0.00    -0.351 C  
BRANCH  12  15
HETATM   15  C   UNL     1     -10.963   6.614  71.327  1.00  0.00    -0.296 A  
HETATM   16  C   UNL     1     -10.895   4.699  72.885  1.00  0.00    -0.295 A  
HETATM   17  C   UNL     1     -11.382   5.957  72.515  1.00  0.00    -0.352 A  
HETATM   18  C   UNL     1      -9.986   4.099  72.046  1.00  0.00    -0.180 A  
HETATM   19  O   UNL     1      -9.361   2.913  72.268  1.00  0.00    -0.095 OA 
HETATM   20  C   UNL     1      -8.507   2.868  71.119  1.00  0.00    -0.062 C  
HETATM   21  F   UNL     1      -7.215   2.867  71.537  1.00  0.00    -0.030 F  
HETATM   22  F   UNL     1      -8.724   1.700  70.466  1.00  0.00    -0.070 F  
HETATM   23  O   UNL     1      -8.680   3.948  70.192  1.00  0.00    -0.066 OA 
HETATM   24  C   UNL     1      -9.595   4.692  70.869  1.00  0.00    -0.179 A  
HETATM   25  C   UNL     1     -10.068   5.930  70.481  1.00  0.00    -0.254 A  
ENDBRANCH  12  15
ENDBRANCH   9  12
ENDBRANCH   5   8
BRANCH   7  26
HETATM   26  C   UNL     1     -10.832  12.298  65.733  1.00  0.00    -0.313 A  
HETATM   27  C   UNL     1     -12.018  12.671  65.062  1.00  0.00    -0.467 A  
HETATM   28  C   UNL     1     -10.362  14.700  65.976  1.00  0.00    -0.317 A  
HETATM   29  O   UNL     1      -9.989  16.887  66.840  1.00  0.00    -0.261 OA 
HETATM   30  C   UNL     1     -10.032  13.352  66.206  1.00  0.00    -0.298 A  
HETATM   31  C   UNL     1     -11.525  15.029  65.277  1.00  0.00    -0.308 A  
HETATM   32  C   UNL     1      -9.408  15.732  66.455  1.00  0.00    -0.301 C  
HETATM   33  O   UNL     1      -8.207  15.537  66.521  1.00  0.00    -0.248 OA 
HETATM   34  C   UNL     1     -12.363  14.011  64.837  1.00  0.00    -0.447 A  
ENDBRANCH   7  26
TORSDOF 4
ENDMDL
MODEL       87
REMARK 921   NORMALIZED FREE ENERGY PREDICTED BY IDOCK:   -6.59 KCAL/MOL
REMARK 922        TOTAL FREE ENERGY PREDICTED BY IDOCK:   -9.27 KCAL/MOL
REMARK 923 INTER-LIGAND FREE ENERGY PREDICTED BY IDOCK:   -8.21 KCAL/MOL
REMARK 924 INTRA-LIGAND FREE ENERGY PREDICTED BY IDOCK:   -1.06 KCAL/MOL
REMARK 927      BINDING AFFINITY PREDICTED BY RF-SCORE:    0.00 PKD
ROOT
HETATM    1  C   UNL     1      -6.698   7.548  64.640  1.00  0.00    -0.050 C  
HETATM    2  C   UNL     1      -7.780   8.570  64.834  1.00  0.00    -0.105 A  
HETATM    3  C   UNL     1      -8.052   9.432  63.759  1.00  0.00    -0.155 A  
HETATM    4  C   UNL     1      -8.981  10.454  63.892  1.00  0.00    -0.247 A  
HETATM    5  C   UNL     1      -9.618  10.608  65.110  1.00  0.00    -0.251 A  
HETATM    6  N   UNL     1      -9.410   9.764  66.132  1.00  0.00    -0.177 NA 
HETATM    7  C   UNL     1      -8.522   8.737  66.011  1.00  0.00    -0.135 A  
ENDROOT
BRANCH   5   8
HETATM    8  N   UNL     1     -10.489  11.692  65.243  1.00  0.00    -0.263 N  
HETATM    9  C   UNL     1     -10.245  12.812  66.001  1.00  0.00    -0.278 C  
HETATM   10  H   UNL     1     -11.375  11.649  64.739  1.00  0.00     0.000 HD 
HETATM   11  O   UNL     1      -9.256  13.090  66.663  1.00  0.00    -0.245 OA 
BRANCH   9  12
HETATM   12  C   UNL     1     -11.411  13.784  65.984  1.00  0.00    -0.336 C  
HETATM   13  C   UNL     1     -12.669  13.400  65.209  1.00  0.00    -0.481 C  
HETATM   14  C   UNL     1     -11.737  14.420  64.638  1.00  0.00    -0.438 C  
BRANCH  12  15
HETATM   15  C   UNL     1     -11.530  14.633  67.251  1.00  0.00    -0.386 A  
HETATM   16  C   UNL     1     -10.805  16.636  68.500  1.00  0.00    -0.356 A  
HETATM   17  C   UNL     1     -10.893  15.901  67.313  1.00  0.00    -0.279 A  
HETATM   18  C   UNL     1     -11.374  16.090  69.627  1.00  0.00    -0.332 A  
HETATM   19  O   UNL     1     -11.336  16.625  70.876  1.00  0.00    -0.226 OA 
HETATM   20  C   UNL     1     -12.007  15.591  71.605  1.00  0.00    -0.408 C  
HETATM   21  F   UNL     1     -11.146  15.078  72.522  1.00  0.00    -0.461 F  
HETATM   22  F   UNL     1     -13.041  16.144  72.284  1.00  0.00    -0.494 F  
HETATM   23  O   UNL     1     -12.509  14.513  70.806  1.00  0.00    -0.307 OA 
HETATM   24  C   UNL     1     -12.035  14.886  69.587  1.00  0.00    -0.320 A  
HETATM   25  C   UNL     1     -12.139  14.146  68.425  1.00  0.00    -0.308 A  
ENDBRANCH  12  15
ENDBRANCH   9  12
ENDBRANCH   5   8
BRANCH   7  26
HETATM   26  C   UNL     1      -8.451   7.890  67.236  1.00  0.00    -0.121 A  
HETATM   27  C   UNL     1      -7.965   8.426  68.449  1.00  0.00    -0.118 A  
HETATM   28  C   UNL     1      -8.824   5.788  68.458  1.00  0.00    -0.110 A  
HETATM   29  O   UNL     1      -9.807   3.896  69.517  1.00  0.00    -0.177 OA 
HETATM   30  C   UNL     1      -8.903   6.561  67.285  1.00  0.00    -0.112 A  
HETATM   31  C   UNL     1      -8.304   6.342  69.629  1.00  0.00    -0.126 A  
HETATM   32  C   UNL     1      -9.262   4.372  68.379  1.00  0.00    -0.137 C  
HETATM   33  O   UNL     1      -9.163   3.709  67.361  1.00  0.00    -0.158 OA 
HETATM   34  C   UNL     1      -7.892   7.670  69.628  1.00  0.00    -0.108 A  
ENDBRANCH   7  26
TORSDOF 4
ENDMDL
MODEL       88
REMARK 921   NORMALIZED FREE ENERGY PREDICTED BY IDOCK:   -6.58 KCAL/MOL
REMARK 922        TOTAL FREE ENERGY PREDICTED BY IDOCK:   -9.26 KCAL/MOL
REMARK 923 INTER-LIGAND FREE ENERGY PREDICTED BY IDOCK:   -8.29 KCAL/MOL
REMARK 924 INTRA-LIGAND FREE ENERGY PREDICTED BY IDOCK:   -0.97 KCAL/MOL
REMARK 927      BINDING AFFINITY PREDICTED BY RF-SCORE:    0.00 PKD
ROOT
HETATM    1  C   UNL     1     -11.730  15.369  64.568  1.00  0.00    -0.277 C  
HETATM    2  C   UNL     1     -11.502  14.290  65.586  1.00  0.00    -0.329 A  
HETATM    3  C   UNL     1     -11.924  12.993  65.255  1.00  0.00    -0.446 A  
HETATM    4  C   UNL     1     -11.822  11.960  66.177  1.00  0.00    -0.108 A  
HETATM    5  C   UNL     1     -11.306  12.246  67.427  1.00  0.00    -0.325 A  
HETATM    6  N   UNL     1     -10.850  13.467  67.746  1.00  0.00    -0.249 NA 
HETATM    7  C   UNL     1     -10.917  14.487  66.845  1.00  0.00    -0.316 A  
ENDROOT
BRANCH   5   8
HETATM    8  N   UNL     1     -11.287  11.209  68.363  1.00  0.00    -0.262 N  
HETATM    9  C   UNL     1     -10.184  10.455  68.684  1.00  0.00    -0.181 C  
HETATM   10  H   UNL     1     -12.160  10.995  68.847  1.00  0.00     0.000 HD 
HETATM   11  O   UNL     1      -9.042  10.546  68.256  1.00  0.00    -0.137 OA 
BRANCH   9  12
HETATM   12  C   UNL     1     -10.502   9.369  69.696  1.00  0.00    -0.236 C  
HETATM   13  C   UNL     1     -11.398   9.718  70.881  1.00  0.00    -0.439 C  
HETATM   14  C   UNL     1      -9.928   9.563  71.094  1.00  0.00    -0.219 C  
BRANCH  12  15
HETATM   15  C   UNL     1     -10.544   7.960  69.102  1.00  0.00    -0.184 A  
HETATM   16  C   UNL     1     -10.472   5.523  69.497  1.00  0.00    -0.368 A  
HETATM   17  C   UNL     1     -10.621   6.834  69.964  1.00  0.00    -0.256 A  
HETATM   18  C   UNL     1     -10.254   5.351  68.151  1.00  0.00    -0.165 A  
HETATM   19  O   UNL     1     -10.027   4.166  67.527  1.00  0.00    -0.133 OA 
HETATM   20  C   UNL     1      -9.801   4.631  66.191  1.00  0.00    -0.226 C  
HETATM   21  F   UNL     1      -8.533   4.306  65.826  1.00  0.00    -0.111 F  
HETATM   22  F   UNL     1     -10.645   3.977  65.358  1.00  0.00    -0.189 F  
HETATM   23  O   UNL     1      -9.975   6.042  66.004  1.00  0.00    -0.019 OA 
HETATM   24  C   UNL     1     -10.218   6.420  67.287  1.00  0.00    -0.187 A  
HETATM   25  C   UNL     1     -10.369   7.721  67.725  1.00  0.00    -0.284 A  
ENDBRANCH  12  15
ENDBRANCH   9  12
ENDBRANCH   5   8
BRANCH   7  26
HETATM   26  C   UNL     1     -10.333  15.756  67.366  1.00  0.00    -0.282 A  
HETATM   27  C   UNL     1     -10.887  16.383  68.505  1.00  0.00    -0.339 A  
HETATM   28  C   UNL     1      -8.665  17.563  67.335  1.00  0.00    -0.231 A  
HETATM   29  O   UNL     1      -6.646  18.821  67.440  1.00  0.00    -0.193 OA 
HETATM   30  C   UNL     1      -9.193  16.366  66.818  1.00  0.00    -0.259 A  
HETATM   31  C   UNL     1      -9.261  18.173  68.440  1.00  0.00    -0.316 A  
HETATM   32  C   UNL     1      -7.501  18.161  66.632  1.00  0.00    -0.225 C  
HETATM   33  O   UNL     1      -7.322  18.037  65.434  1.00  0.00    -0.495 OA 
HETATM   34  C   UNL     1     -10.362  17.570  69.037  1.00  0.00    -0.303 A  
ENDBRANCH   7  26
TORSDOF 4
ENDMDL
MODEL       89
REMARK 921   NORMALIZED FREE ENERGY PREDICTED BY IDOCK:   -6.58 KCAL/MOL
REMARK 922        TOTAL FREE ENERGY PREDICTED BY IDOCK:   -9.26 KCAL/MOL
REMARK 923 INTER-LIGAND FREE ENERGY PREDICTED BY IDOCK:   -8.84 KCAL/MOL
REMARK 924 INTRA-LIGAND FREE ENERGY PREDICTED BY IDOCK:   -0.41 KCAL/MOL
REMARK 927      BINDING AFFINITY PREDICTED BY RF-SCORE:    0.00 PKD
ROOT
HETATM    1  C   UNL     1      -6.923   7.118  68.167  1.00  0.00    -0.076 C  
HETATM    2  C   UNL     1      -7.754   8.136  67.442  1.00  0.00    -0.102 A  
HETATM    3  C   UNL     1      -7.149   8.819  66.375  1.00  0.00    -0.083 A  
HETATM    4  C   UNL     1      -7.828   9.831  65.710  1.00  0.00    -0.110 A  
HETATM    5  C   UNL     1      -9.104  10.154  66.133  1.00  0.00    -0.155 A  
HETATM    6  N   UNL     1      -9.718   9.479  67.116  1.00  0.00    -0.163 NA 
HETATM    7  C   UNL     1      -9.079   8.464  67.763  1.00  0.00    -0.135 A  
ENDROOT
BRANCH   5   8
HETATM    8  N   UNL     1      -9.735  11.228  65.500  1.00  0.00    -0.220 N  
HETATM    9  C   UNL     1     -10.947  11.760  65.867  1.00  0.00    -0.304 C  
HETATM   10  H   UNL     1      -9.258  11.650  64.702  1.00  0.00     0.000 HD 
HETATM   11  O   UNL     1     -11.678  11.437  66.792  1.00  0.00    -0.474 OA 
BRANCH   9  12
HETATM   12  C   UNL     1     -11.386  12.883  64.945  1.00  0.00    -0.340 C  
HETATM   13  C   UNL     1     -12.530  12.620  63.970  1.00  0.00    -0.487 C  
HETATM   14  C   UNL     1     -11.127  12.674  63.459  1.00  0.00    -0.449 C  
BRANCH  12  15
HETATM   15  C   UNL     1     -11.201  14.281  65.539  1.00  0.00    -0.320 A  
HETATM   16  C   UNL     1     -10.984  16.708  65.140  1.00  0.00    -0.160 A  
HETATM   17  C   UNL     1     -11.326  15.423  64.704  1.00  0.00    -0.361 A  
HETATM   18  C   UNL     1     -10.525  16.839  66.429  1.00  0.00    -0.269 A  
HETATM   19  O   UNL     1     -10.090  17.990  67.006  1.00  0.00    -0.315 OA 
HETATM   20  C   UNL     1      -9.681  17.485  68.282  1.00  0.00    -0.311 C  
HETATM   21  F   UNL     1      -8.346  17.694  68.424  1.00  0.00    -0.250 F  
HETATM   22  F   UNL     1     -10.309  18.197  69.249  1.00  0.00    -0.369 F  
HETATM   23  O   UNL     1      -9.944  16.092  68.496  1.00  0.00    -0.218 OA 
HETATM   24  C   UNL     1     -10.436  15.758  67.272  1.00  0.00    -0.308 A  
HETATM   25  C   UNL     1     -10.773  14.482  66.866  1.00  0.00    -0.288 A  
ENDBRANCH  12  15
ENDBRANCH   9  12
ENDBRANCH   5   8
BRANCH   7  26
HETATM   26  C   UNL     1      -9.931   7.814  68.799  1.00  0.00    -0.181 A  
HETATM   27  C   UNL     1      -9.997   6.406  68.891  1.00  0.00    -0.168 A  
HETATM   28  C   UNL     1     -11.452   7.887  70.730  1.00  0.00    -0.273 A  
HETATM   29  O   UNL     1     -12.404   8.220  72.887  1.00  0.00    -0.229 OA 
HETATM   30  C   UNL     1     -10.659   8.531  69.764  1.00  0.00    -0.224 A  
HETATM   31  C   UNL     1     -11.521   6.493  70.767  1.00  0.00    -0.419 A  
HETATM   32  C   UNL     1     -12.237   8.743  71.655  1.00  0.00    -0.339 C  
HETATM   33  O   UNL     1     -12.667   9.836  71.333  1.00  0.00    -0.333 OA 
HETATM   34  C   UNL     1     -10.776   5.752  69.857  1.00  0.00    -0.412 A  
ENDBRANCH   7  26
TORSDOF 4
ENDMDL
MODEL       90
REMARK 921   NORMALIZED FREE ENERGY PREDICTED BY IDOCK:   -6.56 KCAL/MOL
REMARK 922        TOTAL FREE ENERGY PREDICTED BY IDOCK:   -9.23 KCAL/MOL
REMARK 923 INTER-LIGAND FREE ENERGY PREDICTED BY IDOCK:   -8.26 KCAL/MOL
REMARK 924 INTRA-LIGAND FREE ENERGY PREDICTED BY IDOCK:   -0.98 KCAL/MOL
REMARK 927      BINDING AFFINITY PREDICTED BY RF-SCORE:    0.00 PKD
ROOT
HETATM    1  C   UNL     1     -12.619  14.011  65.812  1.00  0.00    -0.512 C  
HETATM    2  C   UNL     1     -11.670  12.900  66.152  1.00  0.00    -0.451 A  
HETATM    3  C   UNL     1     -11.229  12.084  65.098  1.00  0.00    -0.368 A  
HETATM    4  C   UNL     1     -10.415  10.988  65.348  1.00  0.00    -0.306 A  
HETATM    5  C   UNL     1     -10.063  10.716  66.657  1.00  0.00    -0.220 A  
HETATM    6  N   UNL     1     -10.430  11.513  67.672  1.00  0.00    -0.184 NA 
HETATM    7  C   UNL     1     -11.206  12.610  67.444  1.00  0.00    -0.290 A  
ENDROOT
BRANCH   5   8
HETATM    8  N   UNL     1      -9.309   9.563  66.890  1.00  0.00    -0.142 N  
HETATM    9  C   UNL     1      -9.595   8.611  67.838  1.00  0.00    -0.149 C  
HETATM   10  H   UNL     1      -8.482   9.416  66.310  1.00  0.00     0.000 HD 
HETATM   11  O   UNL     1     -10.534   8.564  68.619  1.00  0.00    -0.208 OA 
BRANCH   9  12
HETATM   12  C   UNL     1      -8.553   7.507  67.879  1.00  0.00    -0.121 C  
HETATM   13  C   UNL     1      -7.626   7.425  69.088  1.00  0.00    -0.105 C  
HETATM   14  C   UNL     1      -7.098   7.952  67.793  1.00  0.00    -0.086 C  
BRANCH  12  15
HETATM   15  C   UNL     1      -8.978   6.225  67.160  1.00  0.00    -0.111 A  
HETATM   16  C   UNL     1      -9.511   3.819  67.319  1.00  0.00    -0.238 A  
HETATM   17  C   UNL     1      -9.301   5.067  67.916  1.00  0.00    -0.147 A  
HETATM   18  C   UNL     1      -9.404   3.745  65.951  1.00  0.00    -0.167 A  
HETATM   19  O   UNL     1      -9.513   2.615  65.204  1.00  0.00    -0.131 OA 
HETATM   20  C   UNL     1      -9.235   3.152  63.906  1.00  0.00    -0.104 C  
HETATM   21  F   UNL     1      -8.109   2.562  63.424  1.00  0.00    -0.069 F  
HETATM   22  F   UNL     1     -10.253   2.822  63.075  1.00  0.00    -0.103 F  
HETATM   23  O   UNL     1      -9.052   4.573  63.863  1.00  0.00    -0.144 OA 
HETATM   24  C   UNL     1      -9.135   4.858  65.191  1.00  0.00    -0.144 A  
HETATM   25  C   UNL     1      -8.930   6.101  65.758  1.00  0.00    -0.099 A  
ENDBRANCH  12  15
ENDBRANCH   9  12
ENDBRANCH   5   8
BRANCH   7  26
HETATM   26  C   UNL     1     -11.484  13.387  68.685  1.00  0.00    -0.345 A  
HETATM   27  C   UNL     1     -11.002  14.708  68.824  1.00  0.00    -0.268 A  
HETATM   28  C   UNL     1     -12.512  13.660  70.903  1.00  0.00    -0.448 A  
HETATM   29  O   UNL     1     -14.055  13.875  72.703  1.00  0.00    -0.679 OA 
HETATM   30  C   UNL     1     -12.267  12.900  69.745  1.00  0.00    -0.227 A  
HETATM   31  C   UNL     1     -11.989  14.949  71.019  1.00  0.00    -0.376 A  
HETATM   32  C   UNL     1     -13.290  13.019  71.993  1.00  0.00    -0.492 C  
HETATM   33  O   UNL     1     -13.262  11.820  72.204  1.00  0.00    -0.498 OA 
HETATM   34  C   UNL     1     -11.250  15.480  69.969  1.00  0.00    -0.325 A  
ENDBRANCH   7  26
TORSDOF 4
ENDMDL
MODEL       91
REMARK 921   NORMALIZED FREE ENERGY PREDICTED BY IDOCK:   -6.55 KCAL/MOL
REMARK 922        TOTAL FREE ENERGY PREDICTED BY IDOCK:   -9.23 KCAL/MOL
REMARK 923 INTER-LIGAND FREE ENERGY PREDICTED BY IDOCK:   -8.58 KCAL/MOL
REMARK 924 INTRA-LIGAND FREE ENERGY PREDICTED BY IDOCK:   -0.64 KCAL/MOL
REMARK 927      BINDING AFFINITY PREDICTED BY RF-SCORE:    0.00 PKD
ROOT
HETATM    1  C   UNL     1     -10.325  13.570  64.991  1.00  0.00    -0.379 C  
HETATM    2  C   UNL     1     -10.416  12.340  65.846  1.00  0.00    -0.288 A  
HETATM    3  C   UNL     1     -10.164  11.106  65.227  1.00  0.00    -0.337 A  
HETATM    4  C   UNL     1     -10.309   9.919  65.933  1.00  0.00    -0.184 A  
HETATM    5  C   UNL     1     -10.716   9.987  67.252  1.00  0.00    -0.244 A  
HETATM    6  N   UNL     1     -10.911  11.158  67.877  1.00  0.00    -0.233 NA 
HETATM    7  C   UNL     1     -10.747  12.334  67.209  1.00  0.00    -0.231 A  
ENDROOT
BRANCH   5   8
HETATM    8  N   UNL     1     -10.930   8.776  67.918  1.00  0.00    -0.491 N  
HETATM    9  C   UNL     1      -9.970   8.070  68.601  1.00  0.00    -0.189 C  
HETATM   10  H   UNL     1     -11.873   8.387  67.894  1.00  0.00     0.000 HD 
HETATM   11  O   UNL     1      -8.794   8.351  68.781  1.00  0.00    -0.139 OA 
BRANCH   9  12
HETATM   12  C   UNL     1     -10.507   6.767  69.166  1.00  0.00    -0.240 C  
HETATM   13  C   UNL     1     -11.724   6.818  70.085  1.00  0.00    -0.370 C  
HETATM   14  C   UNL     1     -10.371   6.581  70.672  1.00  0.00    -0.239 C  
BRANCH  12  15
HETATM   15  C   UNL     1     -10.297   5.560  68.250  1.00  0.00    -0.237 A  
HETATM   16  C   UNL     1      -9.172   3.396  67.870  1.00  0.00    -0.237 A  
HETATM   17  C   UNL     1      -9.557   4.441  68.715  1.00  0.00    -0.224 A  
HETATM   18  C   UNL     1      -9.545   3.478  66.549  1.00  0.00    -0.099 A  
HETATM   19  O   UNL     1      -9.213   2.594  65.572  1.00  0.00    -0.149 OA 
HETATM   20  C   UNL     1      -9.807   3.244  64.442  1.00  0.00    -0.162 C  
HETATM   21  F   UNL     1      -8.825   3.567  63.561  1.00  0.00    -0.092 F  
HETATM   22  F   UNL     1     -10.634   2.365  63.825  1.00  0.00    -0.164 F  
HETATM   23  O   UNL     1     -10.548   4.433  64.747  1.00  0.00    -0.164 OA 
HETATM   24  C   UNL     1     -10.299   4.527  66.081  1.00  0.00    -0.223 A  
HETATM   25  C   UNL     1     -10.695   5.567  66.898  1.00  0.00    -0.310 A  
ENDBRANCH  12  15
ENDBRANCH   9  12
ENDBRANCH   5   8
BRANCH   7  26
HETATM   26  C   UNL     1     -10.976  13.526  68.075  1.00  0.00    -0.271 A  
HETATM   27  C   UNL     1     -11.556  13.379  69.355  1.00  0.00    -0.365 A  
HETATM   28  C   UNL     1     -10.816  15.931  68.559  1.00  0.00    -0.298 A  
HETATM   29  O   UNL     1     -10.025  18.132  69.008  1.00  0.00    -0.358 OA 
HETATM   30  C   UNL     1     -10.588  14.828  67.718  1.00  0.00    -0.257 A  
HETATM   31  C   UNL     1     -11.425  15.752  69.802  1.00  0.00    -0.350 A  
HETATM   32  C   UNL     1     -10.434  17.273  68.051  1.00  0.00    -0.375 C  
HETATM   33  O   UNL     1     -10.460  17.559  66.867  1.00  0.00    -0.328 OA 
HETATM   34  C   UNL     1     -11.778  14.470  70.207  1.00  0.00    -0.356 A  
ENDBRANCH   7  26
TORSDOF 4
ENDMDL
MODEL       92
REMARK 921   NORMALIZED FREE ENERGY PREDICTED BY IDOCK:   -6.55 KCAL/MOL
REMARK 922        TOTAL FREE ENERGY PREDICTED BY IDOCK:   -9.22 KCAL/MOL
REMARK 923 INTER-LIGAND FREE ENERGY PREDICTED BY IDOCK:   -8.55 KCAL/MOL
REMARK 924 INTRA-LIGAND FREE ENERGY PREDICTED BY IDOCK:   -0.67 KCAL/MOL
REMARK 927      BINDING AFFINITY PREDICTED BY RF-SCORE:    0.00 PKD
ROOT
HETATM    1  C   UNL     1     -12.364  16.028  70.734  1.00  0.00    -0.199 C  
HETATM    2  C   UNL     1     -11.761  14.896  69.954  1.00  0.00    -0.347 A  
HETATM    3  C   UNL     1     -12.381  13.641  70.057  1.00  0.00    -0.342 A  
HETATM    4  C   UNL     1     -11.834  12.530  69.430  1.00  0.00    -0.368 A  
HETATM    5  C   UNL     1     -10.661  12.690  68.717  1.00  0.00    -0.186 A  
HETATM    6  N   UNL     1     -10.081  13.890  68.563  1.00  0.00    -0.236 NA 
HETATM    7  C   UNL     1     -10.618  14.998  69.148  1.00  0.00    -0.251 A  
ENDROOT
BRANCH   5   8
HETATM    8  N   UNL     1     -10.088  11.543  68.162  1.00  0.00    -0.187 N  
HETATM    9  C   UNL     1     -10.440  10.988  66.955  1.00  0.00    -0.240 C  
HETATM   10  H   UNL     1      -9.350  11.081  68.694  1.00  0.00     0.000 HD 
HETATM   11  O   UNL     1     -11.269  11.377  66.145  1.00  0.00    -0.254 OA 
BRANCH   9  12
HETATM   12  C   UNL     1      -9.671   9.713  66.660  1.00  0.00    -0.266 C  
HETATM   13  C   UNL     1      -8.253   9.829  66.110  1.00  0.00    -0.120 C  
HETATM   14  C   UNL     1      -9.366   9.436  65.194  1.00  0.00    -0.288 C  
BRANCH  12  15
HETATM   15  C   UNL     1     -10.037   8.542  67.574  1.00  0.00    -0.282 A  
HETATM   16  C   UNL     1     -11.034   6.293  67.791  1.00  0.00    -0.427 A  
HETATM   17  C   UNL     1     -10.507   7.327  67.009  1.00  0.00    -0.398 A  
HETATM   18  C   UNL     1     -11.076   6.486  69.151  1.00  0.00    -0.326 A  
HETATM   19  O   UNL     1     -11.606   5.626  70.060  1.00  0.00     0.163 OA 
HETATM   20  C   UNL     1     -11.431   6.395  71.255  1.00  0.00    -0.314 C  
HETATM   21  F   UNL     1     -12.654   6.659  71.785  1.00  0.00    -0.370 F  
HETATM   22  F   UNL     1     -10.751   5.645  72.156  1.00  0.00    -0.243 F  
HETATM   23  O   UNL     1     -10.739   7.638  71.081  1.00  0.00    -0.225 OA 
HETATM   24  C   UNL     1     -10.589   7.634  69.729  1.00  0.00    -0.244 A  
HETATM   25  C   UNL     1     -10.059   8.664  68.977  1.00  0.00    -0.207 A  
ENDBRANCH  12  15
ENDBRANCH   9  12
ENDBRANCH   5   8
BRANCH   7  26
HETATM   26  C   UNL     1      -9.854  16.241  68.838  1.00  0.00    -0.246 A  
HETATM   27  C   UNL     1     -10.518  17.381  68.332  1.00  0.00    -0.384 A  
HETATM   28  C   UNL     1      -7.786  17.568  68.774  1.00  0.00    -0.252 A  
HETATM   29  O   UNL     1      -5.824  18.786  69.357  1.00  0.00    -0.221 OA 
HETATM   30  C   UNL     1      -8.477  16.381  69.075  1.00  0.00    -0.225 A  
HETATM   31  C   UNL     1      -8.469  18.663  68.242  1.00  0.00    -0.350 A  
HETATM   32  C   UNL     1      -6.318  17.583  68.995  1.00  0.00    -0.218 C  
HETATM   33  O   UNL     1      -5.627  16.586  68.888  1.00  0.00    -0.126 OA 
HETATM   34  C   UNL     1      -9.842  18.574  68.039  1.00  0.00    -0.370 A  
ENDBRANCH   7  26
TORSDOF 4
ENDMDL
MODEL       93
REMARK 921   NORMALIZED FREE ENERGY PREDICTED BY IDOCK:   -6.49 KCAL/MOL
REMARK 922        TOTAL FREE ENERGY PREDICTED BY IDOCK:   -9.15 KCAL/MOL
REMARK 923 INTER-LIGAND FREE ENERGY PREDICTED BY IDOCK:   -8.13 KCAL/MOL
REMARK 924 INTRA-LIGAND FREE ENERGY PREDICTED BY IDOCK:   -1.01 KCAL/MOL
REMARK 927      BINDING AFFINITY PREDICTED BY RF-SCORE:    0.00 PKD
ROOT
HETATM    1  C   UNL     1      -6.912   6.842  63.943  1.00  0.00    -0.056 C  
HETATM    2  C   UNL     1      -7.936   7.919  64.153  1.00  0.00    -0.125 A  
HETATM    3  C   UNL     1      -8.222   8.757  63.065  1.00  0.00    -0.188 A  
HETATM    4  C   UNL     1      -9.097   9.825  63.207  1.00  0.00    -0.267 A  
HETATM    5  C   UNL     1      -9.667  10.046  64.447  1.00  0.00    -0.207 A  
HETATM    6  N   UNL     1      -9.447   9.226  65.486  1.00  0.00    -0.256 NA 
HETATM    7  C   UNL     1      -8.613   8.156  65.358  1.00  0.00    -0.129 A  
ENDROOT
BRANCH   5   8
HETATM    8  N   UNL     1     -10.482  11.173  64.585  1.00  0.00    -0.327 N  
HETATM    9  C   UNL     1     -10.097  12.359  65.160  1.00  0.00    -0.256 C  
HETATM   10  H   UNL     1     -11.437  11.109  64.231  1.00  0.00     0.000 HD 
HETATM   11  O   UNL     1      -9.011  12.670  65.626  1.00  0.00     0.249 OA 
BRANCH   9  12
HETATM   12  C   UNL     1     -11.230  13.370  65.209  1.00  0.00    -0.305 C  
HETATM   13  C   UNL     1     -12.666  12.857  65.164  1.00  0.00    -0.443 C  
HETATM   14  C   UNL     1     -12.076  13.493  63.947  1.00  0.00    -0.493 C  
BRANCH  12  15
HETATM   15  C   UNL     1     -10.900  14.634  66.005  1.00  0.00    -0.318 A  
HETATM   16  C   UNL     1     -11.117  15.887  68.121  1.00  0.00    -0.338 A  
HETATM   17  C   UNL     1     -11.218  14.700  67.387  1.00  0.00    -0.351 A  
HETATM   18  C   UNL     1     -10.682  17.008  67.457  1.00  0.00    -0.266 A  
HETATM   19  O   UNL     1     -10.579  18.256  67.985  1.00  0.00    -0.383 OA 
HETATM   20  C   UNL     1     -10.164  18.981  66.821  1.00  0.00    -0.396 C  
HETATM   21  F   UNL     1     -11.113  19.908  66.525  1.00  0.00    -0.546 F  
HETATM   22  F   UNL     1      -9.021  19.648  67.113  1.00  0.00    -0.309 F  
HETATM   23  O   UNL     1      -9.940  18.178  65.655  1.00  0.00    -0.514 OA 
HETATM   24  C   UNL     1     -10.325  16.963  66.130  1.00  0.00    -0.320 A  
HETATM   25  C   UNL     1     -10.411  15.802  65.387  1.00  0.00    -0.438 A  
ENDBRANCH  12  15
ENDBRANCH   9  12
ENDBRANCH   5   8
BRANCH   7  26
HETATM   26  C   UNL     1      -8.520   7.345  66.607  1.00  0.00    -0.124 A  
HETATM   27  C   UNL     1      -8.142   7.951  67.826  1.00  0.00    -0.128 A  
HETATM   28  C   UNL     1      -8.752   5.245  67.864  1.00  0.00    -0.102 A  
HETATM   29  O   UNL     1      -9.603   3.291  68.926  1.00  0.00    -0.159 OA 
HETATM   30  C   UNL     1      -8.848   5.981  66.669  1.00  0.00    -0.125 A  
HETATM   31  C   UNL     1      -8.340   5.870  69.042  1.00  0.00    -0.106 A  
HETATM   32  C   UNL     1      -9.052   3.792  67.801  1.00  0.00    -0.157 C  
HETATM   33  O   UNL     1      -8.845   3.120  66.806  1.00  0.00    -0.127 OA 
HETATM   34  C   UNL     1      -8.054   7.230  69.026  1.00  0.00    -0.124 A  
ENDBRANCH   7  26
TORSDOF 4
ENDMDL
MODEL       94
REMARK 921   NORMALIZED FREE ENERGY PREDICTED BY IDOCK:   -6.47 KCAL/MOL
REMARK 922        TOTAL FREE ENERGY PREDICTED BY IDOCK:   -9.13 KCAL/MOL
REMARK 923 INTER-LIGAND FREE ENERGY PREDICTED BY IDOCK:   -9.06 KCAL/MOL
REMARK 924 INTRA-LIGAND FREE ENERGY PREDICTED BY IDOCK:   -0.06 KCAL/MOL
REMARK 927      BINDING AFFINITY PREDICTED BY RF-SCORE:    0.00 PKD
ROOT
HETATM    1  C   UNL     1     -11.099  11.206  67.057  1.00  0.00    -0.339 C  
HETATM    2  C   UNL     1     -11.046  12.707  67.061  1.00  0.00    -0.322 A  
HETATM    3  C   UNL     1     -10.616  13.340  65.885  1.00  0.00    -0.288 A  
HETATM    4  C   UNL     1     -10.464  14.719  65.840  1.00  0.00    -0.324 A  
HETATM    5  C   UNL     1     -10.735  15.446  66.984  1.00  0.00    -0.321 A  
HETATM    6  N   UNL     1     -11.197  14.866  68.103  1.00  0.00    -0.286 NA 
HETATM    7  C   UNL     1     -11.379  13.516  68.157  1.00  0.00    -0.286 A  
ENDROOT
BRANCH   5   8
HETATM    8  N   UNL     1     -10.499  16.822  66.938  1.00  0.00    -0.296 N  
HETATM    9  C   UNL     1     -10.624  17.608  65.818  1.00  0.00    -0.177 C  
HETATM   10  H   UNL     1     -10.211  17.280  67.804  1.00  0.00     0.000 HD 
HETATM   11  O   UNL     1     -10.973  17.287  64.691  1.00  0.00    -1.013 OA 
BRANCH   9  12
HETATM   12  C   UNL     1     -10.242  19.053  66.082  1.00  0.00    -0.508 C  
HETATM   13  C   UNL     1     -11.353  20.061  66.360  1.00  0.00     0.660 C  
HETATM   14  C   UNL     1     -10.674  20.066  65.029  1.00  0.00     0.503 C  
BRANCH  12  15
HETATM   15  C   UNL     1      -8.879  19.222  66.755  1.00  0.00    -0.344 A  
HETATM   16  C   UNL     1      -6.463  18.709  66.741  1.00  0.00    -0.203 A  
HETATM   17  C   UNL     1      -7.707  18.756  66.101  1.00  0.00    -0.274 A  
HETATM   18  C   UNL     1      -6.403  19.145  68.043  1.00  0.00    -0.216 A  
HETATM   19  O   UNL     1      -5.303  19.117  68.841  1.00  0.00    -0.193 OA 
HETATM   20  C   UNL     1      -5.872  19.609  70.059  1.00  0.00    -0.274 C  
HETATM   21  F   UNL     1      -5.765  18.644  71.010  1.00  0.00    -0.221 F  
HETATM   22  F   UNL     1      -5.145  20.674  70.477  1.00  0.00    -0.248 F  
HETATM   23  O   UNL     1      -7.248  20.002  69.971  1.00  0.00    -0.099 OA 
HETATM   24  C   UNL     1      -7.511  19.641  68.686  1.00  0.00    -0.333 A  
HETATM   25  C   UNL     1      -8.747  19.703  68.073  1.00  0.00    -0.366 A  
ENDBRANCH  12  15
ENDBRANCH   9  12
ENDBRANCH   5   8
BRANCH   7  26
HETATM   26  C   UNL     1     -11.928  13.061  69.467  1.00  0.00    -0.350 A  
HETATM   27  C   UNL     1     -11.959  11.686  69.790  1.00  0.00    -0.402 A  
HETATM   28  C   UNL     1     -12.893  13.480  71.689  1.00  0.00    -0.419 A  
HETATM   29  O   UNL     1     -13.252  14.169  73.939  1.00  0.00     0.200 OA 
HETATM   30  C   UNL     1     -12.383  13.941  70.462  1.00  0.00    -0.439 A  
HETATM   31  C   UNL     1     -12.941  12.111  71.959  1.00  0.00    -0.377 A  
HETATM   32  C   UNL     1     -13.416  14.493  72.640  1.00  0.00    -0.493 C  
HETATM   33  O   UNL     1     -13.922  15.539  72.274  1.00  0.00    -0.507 OA 
HETATM   34  C   UNL     1     -12.454  11.215  71.015  1.00  0.00    -0.506 A  
ENDBRANCH   7  26
TORSDOF 4
ENDMDL
MODEL       95
REMARK 921   NORMALIZED FREE ENERGY PREDICTED BY IDOCK:   -6.46 KCAL/MOL
REMARK 922        TOTAL FREE ENERGY PREDICTED BY IDOCK:   -9.12 KCAL/MOL
REMARK 923 INTER-LIGAND FREE ENERGY PREDICTED BY IDOCK:   -8.01 KCAL/MOL
REMARK 924 INTRA-LIGAND FREE ENERGY PREDICTED BY IDOCK:   -1.11 KCAL/MOL
REMARK 927      BINDING AFFINITY PREDICTED BY RF-SCORE:    0.00 PKD
ROOT
HETATM    1  C   UNL     1     -10.595   8.213  66.841  1.00  0.00    -0.311 C  
HETATM    2  C   UNL     1     -10.077   9.542  67.308  1.00  0.00    -0.272 A  
HETATM    3  C   UNL     1     -10.227  10.633  66.438  1.00  0.00    -0.291 A  
HETATM    4  C   UNL     1      -9.700  11.875  66.766  1.00  0.00    -0.218 A  
HETATM    5  C   UNL     1      -9.017  12.002  67.961  1.00  0.00    -0.187 A  
HETATM    6  N   UNL     1      -8.906  10.985  68.829  1.00  0.00    -0.163 NA 
HETATM    7  C   UNL     1      -9.441   9.766  68.537  1.00  0.00    -0.145 A  
ENDROOT
BRANCH   5   8
HETATM    8  N   UNL     1      -8.428  13.241  68.232  1.00  0.00    -0.165 N  
HETATM    9  C   UNL     1      -7.186  13.637  67.797  1.00  0.00    -0.164 C  
HETATM   10  H   UNL     1      -8.962  13.902  68.796  1.00  0.00     0.000 HD 
HETATM   11  O   UNL     1      -6.388  13.029  67.098  1.00  0.00    -0.257 OA 
BRANCH   9  12
HETATM   12  C   UNL     1      -6.810  15.016  68.306  1.00  0.00    -0.120 C  
HETATM   13  C   UNL     1      -5.460  15.197  68.994  1.00  0.00    -0.097 C  
HETATM   14  C   UNL     1      -6.706  15.170  69.818  1.00  0.00    -0.180 C  
BRANCH  12  15
HETATM   15  C   UNL     1      -7.402  16.163  67.484  1.00  0.00    -0.185 A  
HETATM   16  C   UNL     1      -7.001  18.090  65.993  1.00  0.00    -0.340 A  
HETATM   17  C   UNL     1      -6.565  16.919  66.622  1.00  0.00    -0.252 A  
HETATM   18  C   UNL     1      -8.293  18.494  66.231  1.00  0.00    -0.213 A  
HETATM   19  O   UNL     1      -8.871  19.630  65.761  1.00  0.00    -0.393 OA 
HETATM   20  C   UNL     1     -10.152  19.534  66.395  1.00  0.00    -0.455 C  
HETATM   21  F   UNL     1     -10.304  20.596  67.229  1.00  0.00    -0.509 F  
HETATM   22  F   UNL     1     -11.112  19.623  65.443  1.00  0.00    -0.518 F  
HETATM   23  O   UNL     1     -10.366  18.334  67.150  1.00  0.00    -0.351 OA 
HETATM   24  C   UNL     1      -9.139  17.759  67.026  1.00  0.00    -0.252 A  
HETATM   25  C   UNL     1      -8.733  16.597  67.652  1.00  0.00    -0.206 A  
ENDBRANCH  12  15
ENDBRANCH   9  12
ENDBRANCH   5   8
BRANCH   7  26
HETATM   26  C   UNL     1      -9.247   8.775  69.634  1.00  0.00    -0.150 A  
HETATM   27  C   UNL     1      -7.976   8.201  69.862  1.00  0.00    -0.109 A  
HETATM   28  C   UNL     1     -10.049   7.460  71.551  1.00  0.00    -0.197 A  
HETATM   29  O   UNL     1     -10.902   6.779  73.667  1.00  0.00    -0.290 OA 
HETATM   30  C   UNL     1     -10.265   8.397  70.525  1.00  0.00    -0.216 A  
HETATM   31  C   UNL     1      -8.788   6.887  71.724  1.00  0.00    -0.131 A  
HETATM   32  C   UNL     1     -11.214   7.078  72.389  1.00  0.00    -0.268 C  
HETATM   33  O   UNL     1     -12.355   7.068  71.963  1.00  0.00    -0.310 OA 
HETATM   34  C   UNL     1      -7.746   7.274  70.890  1.00  0.00    -0.092 A  
ENDBRANCH   7  26
TORSDOF 4
ENDMDL
MODEL       96
REMARK 921   NORMALIZED FREE ENERGY PREDICTED BY IDOCK:   -6.44 KCAL/MOL
REMARK 922        TOTAL FREE ENERGY PREDICTED BY IDOCK:   -9.09 KCAL/MOL
REMARK 923 INTER-LIGAND FREE ENERGY PREDICTED BY IDOCK:   -7.97 KCAL/MOL
REMARK 924 INTRA-LIGAND FREE ENERGY PREDICTED BY IDOCK:   -1.11 KCAL/MOL
REMARK 927      BINDING AFFINITY PREDICTED BY RF-SCORE:    0.00 PKD
ROOT
HETATM    1  C   UNL     1     -12.218  14.065  64.377  1.00  0.00    -0.457 C  
HETATM    2  C   UNL     1     -11.361  12.994  64.987  1.00  0.00    -0.325 A  
HETATM    3  C   UNL     1     -11.002  11.912  64.167  1.00  0.00    -0.430 A  
HETATM    4  C   UNL     1     -10.281  10.844  64.684  1.00  0.00    -0.411 A  
HETATM    5  C   UNL     1      -9.939  10.871  66.023  1.00  0.00    -0.240 A  
HETATM    6  N   UNL     1     -10.227  11.918  66.810  1.00  0.00    -0.204 NA 
HETATM    7  C   UNL     1     -10.910  12.988  66.314  1.00  0.00    -0.278 A  
ENDROOT
BRANCH   5   8
HETATM    8  N   UNL     1      -9.282   9.749  66.537  1.00  0.00    -0.152 N  
HETATM    9  C   UNL     1      -9.793   8.903  67.491  1.00  0.00    -0.184 C  
HETATM   10  H   UNL     1      -8.350   9.542  66.175  1.00  0.00     0.000 HD 
HETATM   11  O   UNL     1     -10.883   8.939  68.043  1.00  0.00    -0.148 OA 
BRANCH   9  12
HETATM   12  C   UNL     1      -8.813   7.811  67.878  1.00  0.00    -0.123 C  
HETATM   13  C   UNL     1      -8.576   7.536  69.360  1.00  0.00    -0.133 C  
HETATM   14  C   UNL     1      -7.537   8.269  68.575  1.00  0.00    -0.100 C  
BRANCH  12  15
HETATM   15  C   UNL     1      -8.734   6.662  66.871  1.00  0.00    -0.116 A  
HETATM   16  C   UNL     1      -7.452   5.526  65.093  1.00  0.00    -0.074 A  
HETATM   17  C   UNL     1      -7.529   6.432  66.155  1.00  0.00    -0.082 A  
HETATM   18  C   UNL     1      -8.596   4.841  64.760  1.00  0.00    -0.146 A  
HETATM   19  O   UNL     1      -8.729   3.970  63.724  1.00  0.00    -0.101 OA 
HETATM   20  C   UNL     1     -10.122   3.660  63.843  1.00  0.00    -0.208 C  
HETATM   21  F   UNL     1     -10.756   4.066  62.711  1.00  0.00    -0.198 F  
HETATM   22  F   UNL     1     -10.260   2.315  63.926  1.00  0.00    -0.142 F  
HETATM   23  O   UNL     1     -10.783   4.257  64.967  1.00  0.00    -0.253 OA 
HETATM   24  C   UNL     1      -9.764   5.010  65.463  1.00  0.00    -0.063 A  
HETATM   25  C   UNL     1      -9.862   5.895  66.519  1.00  0.00    -0.189 A  
ENDBRANCH  12  15
ENDBRANCH   9  12
ENDBRANCH   5   8
BRANCH   7  26
HETATM   26  C   UNL     1     -11.108  14.064  67.327  1.00  0.00    -0.314 A  
HETATM   27  C   UNL     1     -10.604  15.364  67.097  1.00  0.00    -0.305 A  
HETATM   28  C   UNL     1     -12.007  14.922  69.449  1.00  0.00    -0.336 A  
HETATM   29  O   UNL     1     -13.443  15.632  71.211  1.00  0.00    -0.512 OA 
HETATM   30  C   UNL     1     -11.836  13.885  68.515  1.00  0.00    -0.401 A  
HETATM   31  C   UNL     1     -11.463  16.184  69.204  1.00  0.00    -0.311 A  
HETATM   32  C   UNL     1     -12.731  14.603  70.706  1.00  0.00    -0.359 C  
HETATM   33  O   UNL     1     -12.705  13.498  71.216  1.00  0.00    -0.345 OA 
HETATM   34  C   UNL     1     -10.777  16.409  68.016  1.00  0.00    -0.334 A  
ENDBRANCH   7  26
TORSDOF 4
ENDMDL
MODEL       97
REMARK 921   NORMALIZED FREE ENERGY PREDICTED BY IDOCK:   -6.40 KCAL/MOL
REMARK 922        TOTAL FREE ENERGY PREDICTED BY IDOCK:   -9.04 KCAL/MOL
REMARK 923 INTER-LIGAND FREE ENERGY PREDICTED BY IDOCK:   -8.18 KCAL/MOL
REMARK 924 INTRA-LIGAND FREE ENERGY PREDICTED BY IDOCK:   -0.87 KCAL/MOL
REMARK 927      BINDING AFFINITY PREDICTED BY RF-SCORE:    0.00 PKD
ROOT
HETATM    1  C   UNL     1      -7.900   5.710  68.438  1.00  0.00    -0.092 C  
HETATM    2  C   UNL     1      -8.683   6.813  67.788  1.00  0.00    -0.120 A  
HETATM    3  C   UNL     1      -8.353   7.142  66.463  1.00  0.00    -0.117 A  
HETATM    4  C   UNL     1      -8.978   8.204  65.824  1.00  0.00    -0.165 A  
HETATM    5  C   UNL     1      -9.919   8.932  66.528  1.00  0.00    -0.288 A  
HETATM    6  N   UNL     1     -10.285   8.603  67.776  1.00  0.00    -0.212 NA 
HETATM    7  C   UNL     1      -9.703   7.546  68.410  1.00  0.00    -0.156 A  
ENDROOT
BRANCH   5   8
HETATM    8  N   UNL     1     -10.475  10.044  65.889  1.00  0.00    -0.119 N  
HETATM    9  C   UNL     1      -9.777  11.161  65.498  1.00  0.00    -0.228 C  
HETATM   10  H   UNL     1     -11.477  10.025  65.699  1.00  0.00     0.000 HD 
HETATM   11  O   UNL     1      -8.581  11.393  65.600  1.00  0.00    -0.097 OA 
BRANCH   9  12
HETATM   12  C   UNL     1     -10.677  12.217  64.882  1.00  0.00    -0.336 C  
HETATM   13  C   UNL     1     -11.925  11.762  64.131  1.00  0.00    -0.331 C  
HETATM   14  C   UNL     1     -10.739  12.243  63.360  1.00  0.00    -0.438 C  
BRANCH  12  15
HETATM   15  C   UNL     1     -10.693  13.542  65.646  1.00  0.00    -0.284 A  
HETATM   16  C   UNL     1     -10.754  16.009  65.550  1.00  0.00    -0.374 A  
HETATM   17  C   UNL     1     -10.915  14.757  64.946  1.00  0.00    -0.425 A  
HETATM   18  C   UNL     1     -10.376  16.031  66.871  1.00  0.00    -0.289 A  
HETATM   19  O   UNL     1     -10.113  17.144  67.606  1.00  0.00    -0.284 OA 
HETATM   20  C   UNL     1      -9.707  16.534  68.837  1.00  0.00    -0.257 C  
HETATM   21  F   UNL     1      -8.416  16.876  69.085  1.00  0.00    -0.245 F  
HETATM   22  F   UNL     1     -10.463  17.043  69.840  1.00  0.00    -0.237 F  
HETATM   23  O   UNL     1      -9.808  15.105  68.868  1.00  0.00    -0.212 OA 
HETATM   24  C   UNL     1     -10.197  14.870  67.586  1.00  0.00    -0.236 A  
HETATM   25  C   UNL     1     -10.356  13.624  67.012  1.00  0.00    -0.260 A  
ENDBRANCH  12  15
ENDBRANCH   9  12
ENDBRANCH   5   8
BRANCH   7  26
HETATM   26  C   UNL     1     -10.261   7.315  69.774  1.00  0.00    -0.214 A  
HETATM   27  C   UNL     1     -11.528   6.710  69.935  1.00  0.00    -0.414 A  
HETATM   28  C   UNL     1     -10.119   7.385  72.227  1.00  0.00    -0.234 A  
HETATM   29  O   UNL     1      -9.498   7.032  74.499  1.00  0.00    -0.223 OA 
HETATM   30  C   UNL     1      -9.566   7.617  70.956  1.00  0.00    -0.169 A  
HETATM   31  C   UNL     1     -11.390   6.818  72.347  1.00  0.00    -0.306 A  
HETATM   32  C   UNL     1      -9.328   7.810  73.410  1.00  0.00    -0.285 C  
HETATM   33  O   UNL     1      -8.569   8.763  73.384  1.00  0.00    -0.320 OA 
HETATM   34  C   UNL     1     -12.086   6.463  71.197  1.00  0.00    -0.211 A  
ENDBRANCH   7  26
TORSDOF 4
ENDMDL
MODEL       98
REMARK 921   NORMALIZED FREE ENERGY PREDICTED BY IDOCK:   -6.39 KCAL/MOL
REMARK 922        TOTAL FREE ENERGY PREDICTED BY IDOCK:   -9.03 KCAL/MOL
REMARK 923 INTER-LIGAND FREE ENERGY PREDICTED BY IDOCK:   -8.06 KCAL/MOL
REMARK 924 INTRA-LIGAND FREE ENERGY PREDICTED BY IDOCK:   -0.97 KCAL/MOL
REMARK 927      BINDING AFFINITY PREDICTED BY RF-SCORE:    0.00 PKD
ROOT
HETATM    1  C   UNL     1     -12.075  11.814  66.602  1.00  0.00     0.443 C  
HETATM    2  C   UNL     1     -11.008  12.781  67.026  1.00  0.00    -0.295 A  
HETATM    3  C   UNL     1     -10.172  13.297  66.024  1.00  0.00    -0.291 A  
HETATM    4  C   UNL     1      -9.112  14.132  66.350  1.00  0.00    -0.143 A  
HETATM    5  C   UNL     1      -8.898  14.430  67.683  1.00  0.00    -0.193 A  
HETATM    6  N   UNL     1      -9.716  13.989  68.650  1.00  0.00    -0.211 NA 
HETATM    7  C   UNL     1     -10.778  13.190  68.347  1.00  0.00    -0.253 A  
ENDROOT
BRANCH   5   8
HETATM    8  N   UNL     1      -7.779  15.208  67.992  1.00  0.00    -0.117 N  
HETATM    9  C   UNL     1      -7.799  16.560  68.234  1.00  0.00    -0.175 C  
HETATM   10  H   UNL     1      -6.876  14.735  68.042  1.00  0.00     0.000 HD 
HETATM   11  O   UNL     1      -8.755  17.322  68.252  1.00  0.00    -0.235 OA 
BRANCH   9  12
HETATM   12  C   UNL     1      -6.412  17.121  68.486  1.00  0.00    -0.164 C  
HETATM   13  C   UNL     1      -5.362  16.213  69.120  1.00  0.00    -0.111 C  
HETATM   14  C   UNL     1      -6.005  17.279  69.946  1.00  0.00    -0.230 C  
BRANCH  12  15
HETATM   15  C   UNL     1      -5.982  18.189  67.478  1.00  0.00    -0.163 A  
HETATM   16  C   UNL     1      -5.129  20.474  67.091  1.00  0.00    -0.184 A  
HETATM   17  C   UNL     1      -5.370  19.386  67.937  1.00  0.00    -0.179 A  
HETATM   18  C   UNL     1      -5.499  20.347  65.774  1.00  0.00    -0.176 A  
HETATM   19  O   UNL     1      -5.400  21.313  64.823  1.00  0.00    -0.210 OA 
HETATM   20  C   UNL     1      -5.999  20.629  63.716  1.00  0.00    -0.290 C  
HETATM   21  F   UNL     1      -7.115  21.306  63.339  1.00  0.00    -0.216 F  
HETATM   22  F   UNL     1      -5.134  20.657  62.673  1.00  0.00    -0.172 F  
HETATM   23  O   UNL     1      -6.364  19.266  63.971  1.00  0.00    -0.353 OA 
HETATM   24  C   UNL     1      -6.053  19.185  65.293  1.00  0.00    -0.262 A  
HETATM   25  C   UNL     1      -6.294  18.096  66.108  1.00  0.00    -0.260 A  
ENDBRANCH  12  15
ENDBRANCH   9  12
ENDBRANCH   5   8
BRANCH   7  26
HETATM   26  C   UNL     1     -11.588  12.829  69.546  1.00  0.00    -0.342 A  
HETATM   27  C   UNL     1     -12.198  13.836  70.326  1.00  0.00    -0.429 A  
HETATM   28  C   UNL     1     -12.614  11.197  71.072  1.00  0.00    -0.503 A  
HETATM   29  O   UNL     1     -13.938   9.457  72.014  1.00  0.00    -0.347 OA 
HETATM   30  C   UNL     1     -11.843  11.504  69.937  1.00  0.00    -0.430 A  
HETATM   31  C   UNL     1     -13.171  12.221  71.840  1.00  0.00    -0.481 A  
HETATM   32  C   UNL     1     -12.758   9.765  71.437  1.00  0.00    -0.387 C  
HETATM   33  O   UNL     1     -11.896   8.937  71.205  1.00  0.00    -0.284 OA 
HETATM   34  C   UNL     1     -12.978  13.542  71.454  1.00  0.00    -0.421 A  
ENDBRANCH   7  26
TORSDOF 4
ENDMDL
MODEL       99
REMARK 921   NORMALIZED FREE ENERGY PREDICTED BY IDOCK:   -6.39 KCAL/MOL
REMARK 922        TOTAL FREE ENERGY PREDICTED BY IDOCK:   -9.03 KCAL/MOL
REMARK 923 INTER-LIGAND FREE ENERGY PREDICTED BY IDOCK:   -8.08 KCAL/MOL
REMARK 924 INTRA-LIGAND FREE ENERGY PREDICTED BY IDOCK:   -0.94 KCAL/MOL
REMARK 927      BINDING AFFINITY PREDICTED BY RF-SCORE:    0.00 PKD
ROOT
HETATM    1  C   UNL     1     -12.628   9.084  72.107  1.00  0.00    -0.461 C  
HETATM    2  C   UNL     1     -11.937   9.907  71.059  1.00  0.00    -0.456 A  
HETATM    3  C   UNL     1     -12.552  11.109  70.674  1.00  0.00    -0.408 A  
HETATM    4  C   UNL     1     -12.015  11.881  69.654  1.00  0.00    -0.365 A  
HETATM    5  C   UNL     1     -10.871  11.430  69.022  1.00  0.00    -0.219 A  
HETATM    6  N   UNL     1     -10.240  10.311  69.408  1.00  0.00    -0.223 NA 
HETATM    7  C   UNL     1     -10.736   9.554  70.427  1.00  0.00    -0.284 A  
ENDROOT
BRANCH   5   8
HETATM    8  N   UNL     1     -10.396  12.184  67.946  1.00  0.00    -0.201 N  
HETATM    9  C   UNL     1     -11.143  12.568  66.859  1.00  0.00    -0.278 C  
HETATM   10  H   UNL     1      -9.417  12.473  67.969  1.00  0.00     0.000 HD 
HETATM   11  O   UNL     1     -12.326  12.360  66.629  1.00  0.00    -0.477 OA 
BRANCH   9  12
HETATM   12  C   UNL     1     -10.322  13.331  65.835  1.00  0.00    -0.293 C  
HETATM   13  C   UNL     1     -10.633  13.131  64.355  1.00  0.00    -0.441 C  
HETATM   14  C   UNL     1      -9.415  12.495  64.941  1.00  0.00     0.270 C  
BRANCH  12  15
HETATM   15  C   UNL     1      -9.824  14.691  66.328  1.00  0.00    -0.320 A  
HETATM   16  C   UNL     1      -7.931  16.057  67.134  1.00  0.00    -0.234 A  
HETATM   17  C   UNL     1      -8.433  14.909  66.510  1.00  0.00    -0.040 A  
HETATM   18  C   UNL     1      -8.841  16.992  67.566  1.00  0.00    -0.211 A  
HETATM   19  O   UNL     1      -8.548  18.134  68.243  1.00  0.00    -0.273 OA 
HETATM   20  C   UNL     1      -9.872  18.628  68.475  1.00  0.00    -0.386 C  
HETATM   21  F   UNL     1     -10.088  18.679  69.815  1.00  0.00    -0.118 F  
HETATM   22  F   UNL     1      -9.949  19.895  68.002  1.00  0.00    -0.445 F  
HETATM   23  O   UNL     1     -10.921  17.853  67.879  1.00  0.00    -0.294 OA 
HETATM   24  C   UNL     1     -10.190  16.828  67.364  1.00  0.00    -0.288 A  
HETATM   25  C   UNL     1     -10.707  15.706  66.746  1.00  0.00    -0.300 A  
ENDBRANCH  12  15
ENDBRANCH   9  12
ENDBRANCH   5   8
BRANCH   7  26
HETATM   26  C   UNL     1      -9.883   8.370  70.733  1.00  0.00    -0.215 A  
HETATM   27  C   UNL     1      -9.731   7.333  69.786  1.00  0.00    -0.166 A  
HETATM   28  C   UNL     1      -8.348   7.106  72.180  1.00  0.00    -0.109 A  
HETATM   29  O   UNL     1      -6.480   6.396  73.475  1.00  0.00    -0.064 OA 
HETATM   30  C   UNL     1      -9.146   8.234  71.922  1.00  0.00    -0.259 A  
HETATM   31  C   UNL     1      -8.251   6.083  71.234  1.00  0.00    -0.123 A  
HETATM   32  C   UNL     1      -7.671   7.030  73.499  1.00  0.00    -0.085 C  
HETATM   33  O   UNL     1      -8.140   7.526  74.508  1.00  0.00    -0.168 OA 
HETATM   34  C   UNL     1      -8.929   6.208  70.027  1.00  0.00    -0.148 A  
ENDBRANCH   7  26
TORSDOF 4
ENDMDL
MODEL      100
REMARK 921   NORMALIZED FREE ENERGY PREDICTED BY IDOCK:   -6.39 KCAL/MOL
REMARK 922        TOTAL FREE ENERGY PREDICTED BY IDOCK:   -9.02 KCAL/MOL
REMARK 923 INTER-LIGAND FREE ENERGY PREDICTED BY IDOCK:   -8.11 KCAL/MOL
REMARK 924 INTRA-LIGAND FREE ENERGY PREDICTED BY IDOCK:   -0.92 KCAL/MOL
REMARK 927      BINDING AFFINITY PREDICTED BY RF-SCORE:    0.00 PKD
ROOT
HETATM    1  C   UNL     1      -6.109   9.519  71.142  1.00  0.00    -0.074 C  
HETATM    2  C   UNL     1      -6.533  10.586  70.174  1.00  0.00    -0.144 A  
HETATM    3  C   UNL     1      -5.669  11.679  70.001  1.00  0.00    -0.128 A  
HETATM    4  C   UNL     1      -6.030  12.742  69.185  1.00  0.00    -0.086 A  
HETATM    5  C   UNL     1      -7.263  12.700  68.562  1.00  0.00    -0.113 A  
HETATM    6  N   UNL     1      -8.081  11.643  68.673  1.00  0.00    -0.144 NA 
HETATM    7  C   UNL     1      -7.731  10.577  69.447  1.00  0.00    -0.155 A  
ENDROOT
BRANCH   5   8
HETATM    8  N   UNL     1      -7.637  13.818  67.810  1.00  0.00    -0.151 N  
HETATM    9  C   UNL     1      -8.333  14.899  68.295  1.00  0.00    -0.148 C  
HETATM   10  H   UNL     1      -7.373  13.832  66.824  1.00  0.00     0.000 HD 
HETATM   11  O   UNL     1      -8.728  15.109  69.432  1.00  0.00    -0.219 OA 
BRANCH   9  12
HETATM   12  C   UNL     1      -8.634  15.922  67.214  1.00  0.00    -0.205 C  
HETATM   13  C   UNL     1      -7.560  16.947  66.863  1.00  0.00    -0.250 C  
HETATM   14  C   UNL     1      -8.742  17.371  67.672  1.00  0.00    -0.221 C  
BRANCH  12  15
HETATM   15  C   UNL     1      -9.584  15.416  66.128  1.00  0.00    -0.362 A  
HETATM   16  C   UNL     1     -11.416  15.925  64.552  1.00  0.00    -0.287 A  
HETATM   17  C   UNL     1     -10.397  16.339  65.417  1.00  0.00    -0.320 A  
HETATM   18  C   UNL     1     -11.606  14.572  64.397  1.00  0.00    -0.313 A  
HETATM   19  O   UNL     1     -12.580  13.986  63.652  1.00  0.00    -0.818 OA 
HETATM   20  C   UNL     1     -12.316  12.609  63.945  1.00  0.00    -0.459 C  
HETATM   21  F   UNL     1     -13.403  12.082  64.568  1.00  0.00    -0.379 F  
HETATM   22  F   UNL     1     -12.154  11.942  62.777  1.00  0.00    -0.264 F  
HETATM   23  O   UNL     1     -11.167  12.374  64.769  1.00  0.00    -0.293 OA 
HETATM   24  C   UNL     1     -10.806  13.657  65.039  1.00  0.00    -0.352 A  
HETATM   25  C   UNL     1      -9.791  14.043  65.892  1.00  0.00    -0.302 A  
ENDBRANCH  12  15
ENDBRANCH   9  12
ENDBRANCH   5   8
BRANCH   7  26
HETATM   26  C   UNL     1      -8.749   9.487  69.421  1.00  0.00    -0.166 A  
HETATM   27  C   UNL     1      -9.594   9.271  70.532  1.00  0.00    -0.317 A  
HETATM   28  C   UNL     1      -9.943   7.646  68.311  1.00  0.00    -0.198 A  
HETATM   29  O   UNL     1     -11.293   6.344  66.844  1.00  0.00    -0.304 OA 
HETATM   30  C   UNL     1      -8.973   8.664  68.304  1.00  0.00    -0.142 A  
HETATM   31  C   UNL     1     -10.736   7.439  69.441  1.00  0.00    -0.220 A  
HETATM   32  C   UNL     1     -10.046   6.787  67.104  1.00  0.00    -0.190 C  
HETATM   33  O   UNL     1      -9.088   6.532  66.396  1.00  0.00    -0.149 OA 
HETATM   34  C   UNL     1     -10.573   8.267  70.546  1.00  0.00    -0.233 A  
ENDBRANCH   7  26
TORSDOF 4
ENDMDL
MODEL      101
REMARK 921   NORMALIZED FREE ENERGY PREDICTED BY IDOCK:   -6.38 KCAL/MOL
REMARK 922        TOTAL FREE ENERGY PREDICTED BY IDOCK:   -9.02 KCAL/MOL
REMARK 923 INTER-LIGAND FREE ENERGY PREDICTED BY IDOCK:   -8.38 KCAL/MOL
REMARK 924 INTRA-LIGAND FREE ENERGY PREDICTED BY IDOCK:   -0.64 KCAL/MOL
REMARK 927      BINDING AFFINITY PREDICTED BY RF-SCORE:    0.00 PKD
ROOT
HETATM    1  C   UNL     1     -13.904   9.265  72.518  1.00  0.00    -0.453 C  
HETATM    2  C   UNL     1     -12.805   9.096  71.510  1.00  0.00    -0.412 A  
HETATM    3  C   UNL     1     -12.392   7.786  71.221  1.00  0.00    -0.314 A  
HETATM    4  C   UNL     1     -11.326   7.556  70.361  1.00  0.00    -0.253 A  
HETATM    5  C   UNL     1     -10.680   8.647  69.811  1.00  0.00    -0.215 A  
HETATM    6  N   UNL     1     -11.091   9.904  70.034  1.00  0.00    -0.268 NA 
HETATM    7  C   UNL     1     -12.152  10.149  70.853  1.00  0.00    -0.356 A  
ENDROOT
BRANCH   5   8
HETATM    8  N   UNL     1      -9.562   8.391  69.012  1.00  0.00    -0.159 N  
HETATM    9  C   UNL     1      -9.502   8.583  67.653  1.00  0.00    -0.145 C  
HETATM   10  H   UNL     1      -8.725   8.035  69.475  1.00  0.00     0.000 HD 
HETATM   11  O   UNL     1     -10.362   9.017  66.901  1.00  0.00    -0.256 OA 
BRANCH   9  12
HETATM   12  C   UNL     1      -8.166   8.159  67.070  1.00  0.00    -0.115 C  
HETATM   13  C   UNL     1      -6.906   8.370  67.905  1.00  0.00    -0.067 C  
HETATM   14  C   UNL     1      -7.184   9.280  66.753  1.00  0.00    -0.083 C  
BRANCH  12  15
HETATM   15  C   UNL     1      -8.254   6.963  66.120  1.00  0.00    -0.121 A  
HETATM   16  C   UNL     1      -7.892   6.068  63.847  1.00  0.00    -0.116 A  
HETATM   17  C   UNL     1      -7.682   7.048  64.823  1.00  0.00    -0.115 A  
HETATM   18  C   UNL     1      -8.677   4.992  64.188  1.00  0.00    -0.097 A  
HETATM   19  O   UNL     1      -9.041   3.978  63.359  1.00  0.00    -0.114 OA 
HETATM   20  C   UNL     1      -9.892   3.236  64.240  1.00  0.00    -0.170 C  
HETATM   21  F   UNL     1     -11.147   3.222  63.720  1.00  0.00    -0.254 F  
HETATM   22  F   UNL     1      -9.455   1.955  64.284  1.00  0.00    -0.120 F  
HETATM   23  O   UNL     1      -9.966   3.740  65.580  1.00  0.00    -0.152 OA 
HETATM   24  C   UNL     1      -9.208   4.862  65.449  1.00  0.00    -0.154 A  
HETATM   25  C   UNL     1      -9.009   5.814  66.430  1.00  0.00    -0.139 A  
ENDBRANCH  12  15
ENDBRANCH   9  12
ENDBRANCH   5   8
BRANCH   7  26
HETATM   26  C   UNL     1     -12.480  11.601  70.953  1.00  0.00    -0.440 A  
HETATM   27  C   UNL     1     -13.184  12.100  72.071  1.00  0.00    -0.496 A  
HETATM   28  C   UNL     1     -12.399  13.915  70.126  1.00  0.00    -0.400 A  
HETATM   29  O   UNL     1     -11.683  16.075  69.426  1.00  0.00    -0.337 OA 
HETATM   30  C   UNL     1     -12.075  12.552  70.002  1.00  0.00    -0.337 A  
HETATM   31  C   UNL     1     -13.127  14.366  71.228  1.00  0.00    -0.421 A  
HETATM   32  C   UNL     1     -11.985  14.822  69.026  1.00  0.00    -0.273 C  
HETATM   33  O   UNL     1     -11.896  14.454  67.869  1.00  0.00    -0.347 OA 
HETATM   34  C   UNL     1     -13.503  13.458  72.212  1.00  0.00    -0.683 A  
ENDBRANCH   7  26
TORSDOF 4
ENDMDL
MODEL      102
REMARK 921   NORMALIZED FREE ENERGY PREDICTED BY IDOCK:   -6.37 KCAL/MOL
REMARK 922        TOTAL FREE ENERGY PREDICTED BY IDOCK:   -9.00 KCAL/MOL
REMARK 923 INTER-LIGAND FREE ENERGY PREDICTED BY IDOCK:   -8.47 KCAL/MOL
REMARK 924 INTRA-LIGAND FREE ENERGY PREDICTED BY IDOCK:   -0.53 KCAL/MOL
REMARK 927      BINDING AFFINITY PREDICTED BY RF-SCORE:    0.00 PKD
ROOT
HETATM    1  C   UNL     1     -11.509  16.035  71.161  1.00  0.00    -0.470 C  
HETATM    2  C   UNL     1     -11.318  15.176  69.945  1.00  0.00    -0.309 A  
HETATM    3  C   UNL     1     -12.180  14.078  69.791  1.00  0.00    -0.396 A  
HETATM    4  C   UNL     1     -12.011  13.192  68.736  1.00  0.00    -0.316 A  
HETATM    5  C   UNL     1     -10.970  13.412  67.854  1.00  0.00    -0.256 A  
HETATM    6  N   UNL     1     -10.167  14.483  67.954  1.00  0.00    -0.229 NA 
HETATM    7  C   UNL     1     -10.334  15.379  68.967  1.00  0.00    -0.243 A  
ENDROOT
BRANCH   5   8
HETATM    8  N   UNL     1     -10.773  12.463  66.847  1.00  0.00    -0.236 N  
HETATM    9  C   UNL     1     -10.293  12.734  65.589  1.00  0.00    -0.279 C  
HETATM   10  H   UNL     1     -11.003  11.492  67.064  1.00  0.00     0.000 HD 
HETATM   11  O   UNL     1      -9.934  13.803  65.119  1.00  0.00    -0.297 OA 
BRANCH   9  12
HETATM   12  C   UNL     1     -10.248  11.496  64.711  1.00  0.00    -0.331 C  
HETATM   13  C   UNL     1      -9.938  11.667  63.227  1.00  0.00    -0.442 C  
HETATM   14  C   UNL     1     -11.340  11.381  63.654  1.00  0.00    -0.299 C  
BRANCH  12  15
HETATM   15  C   UNL     1      -9.789  10.233  65.441  1.00  0.00    -0.362 A  
HETATM   16  C   UNL     1      -8.120   8.424  65.640  1.00  0.00    -0.125 A  
HETATM   17  C   UNL     1      -8.516   9.673  65.150  1.00  0.00    -0.159 A  
HETATM   18  C   UNL     1      -9.010   7.743  66.435  1.00  0.00    -0.163 A  
HETATM   19  O   UNL     1      -8.827   6.498  66.950  1.00  0.00    -0.116 OA 
HETATM   20  C   UNL     1     -10.091   6.313  67.597  1.00  0.00    -0.150 C  
HETATM   21  F   UNL     1     -10.723   5.257  67.021  1.00  0.00    -0.268 F  
HETATM   22  F   UNL     1      -9.868   5.995  68.895  1.00  0.00    -0.132 F  
HETATM   23  O   UNL     1     -10.969   7.445  67.548  1.00  0.00    -0.204 OA 
HETATM   24  C   UNL     1     -10.230   8.280  66.769  1.00  0.00    -0.304 A  
HETATM   25  C   UNL     1     -10.640   9.513  66.302  1.00  0.00    -0.018 A  
ENDBRANCH  12  15
ENDBRANCH   9  12
ENDBRANCH   5   8
BRANCH   7  26
HETATM   26  C   UNL     1      -9.372  16.516  68.894  1.00  0.00    -0.256 A  
HETATM   27  C   UNL     1      -8.019  16.332  69.254  1.00  0.00    -0.165 A  
HETATM   28  C   UNL     1      -8.785  18.844  68.363  1.00  0.00    -0.380 A  
HETATM   29  O   UNL     1      -8.361  20.904  67.246  1.00  0.00    -0.262 OA 
HETATM   30  C   UNL     1      -9.718  17.793  68.422  1.00  0.00    -0.333 A  
HETATM   31  C   UNL     1      -7.464  18.634  68.762  1.00  0.00    -0.322 A  
HETATM   32  C   UNL     1      -9.276  20.173  67.918  1.00  0.00    -0.270 C  
HETATM   33  O   UNL     1     -10.415  20.554  68.117  1.00  0.00    -0.182 OA 
HETATM   34  C   UNL     1      -7.077  17.369  69.190  1.00  0.00    -0.196 A  
ENDBRANCH   7  26
TORSDOF 4
ENDMDL
MODEL      103
REMARK 921   NORMALIZED FREE ENERGY PREDICTED BY IDOCK:   -6.36 KCAL/MOL
REMARK 922        TOTAL FREE ENERGY PREDICTED BY IDOCK:   -9.00 KCAL/MOL
REMARK 923 INTER-LIGAND FREE ENERGY PREDICTED BY IDOCK:   -8.11 KCAL/MOL
REMARK 924 INTRA-LIGAND FREE ENERGY PREDICTED BY IDOCK:   -0.88 KCAL/MOL
REMARK 927      BINDING AFFINITY PREDICTED BY RF-SCORE:    0.00 PKD
ROOT
HETATM    1  C   UNL     1     -12.504  14.822  64.351  1.00  0.00    -0.274 C  
HETATM    2  C   UNL     1     -11.395  13.910  64.788  1.00  0.00    -0.365 A  
HETATM    3  C   UNL     1     -11.173  12.753  64.024  1.00  0.00    -0.463 A  
HETATM    4  C   UNL     1     -10.220  11.822  64.414  1.00  0.00    -0.332 A  
HETATM    5  C   UNL     1      -9.508  12.059  65.575  1.00  0.00    -0.104 A  
HETATM    6  N   UNL     1      -9.668  13.182  66.291  1.00  0.00    -0.275 NA 
HETATM    7  C   UNL     1     -10.579  14.121  65.909  1.00  0.00    -0.298 A  
ENDROOT
BRANCH   5   8
HETATM    8  N   UNL     1      -8.611  11.069  65.988  1.00  0.00    -0.174 N  
HETATM    9  C   UNL     1      -8.934   9.752  66.206  1.00  0.00    -0.153 C  
HETATM   10  H   UNL     1      -7.641  11.347  66.139  1.00  0.00     0.000 HD 
HETATM   11  O   UNL     1     -10.013   9.194  66.067  1.00  0.00    -0.291 OA 
BRANCH   9  12
HETATM   12  C   UNL     1      -7.749   8.943  66.701  1.00  0.00    -0.100 C  
HETATM   13  C   UNL     1      -6.358   9.296  66.185  1.00  0.00    -0.064 C  
HETATM   14  C   UNL     1      -7.046   8.076  65.665  1.00  0.00    -0.063 C  
BRANCH  12  15
HETATM   15  C   UNL     1      -7.917   8.405  68.124  1.00  0.00    -0.119 A  
HETATM   16  C   UNL     1      -8.083   6.440  69.609  1.00  0.00    -0.124 A  
HETATM   17  C   UNL     1      -7.759   7.017  68.377  1.00  0.00    -0.120 A  
HETATM   18  C   UNL     1      -8.558   7.273  70.594  1.00  0.00    -0.142 A  
HETATM   19  O   UNL     1      -8.979   6.888  71.828  1.00  0.00    -0.138 OA 
HETATM   20  C   UNL     1      -9.416   8.151  72.342  1.00  0.00    -0.251 C  
HETATM   21  F   UNL     1     -10.749   8.079  72.597  1.00  0.00    -0.310 F  
HETATM   22  F   UNL     1      -8.788   8.376  73.522  1.00  0.00    -0.299 F  
HETATM   23  O   UNL     1      -9.182   9.271  71.479  1.00  0.00    -0.305 OA 
HETATM   24  C   UNL     1      -8.679   8.627  70.392  1.00  0.00    -0.155 A  
HETATM   25  C   UNL     1      -8.360   9.219  69.186  1.00  0.00    -0.127 A  
ENDBRANCH  12  15
ENDBRANCH   9  12
ENDBRANCH   5   8
BRANCH   7  26
HETATM   26  C   UNL     1     -10.590  15.311  66.807  1.00  0.00    -0.304 A  
HETATM   27  C   UNL     1     -10.785  15.156  68.198  1.00  0.00    -0.254 A  
HETATM   28  C   UNL     1     -10.373  17.723  67.232  1.00  0.00    -0.364 A  
HETATM   29  O   UNL     1      -9.553  19.949  67.445  1.00  0.00    -0.332 OA 
HETATM   30  C   UNL     1     -10.357  16.622  66.358  1.00  0.00    -0.310 A  
HETATM   31  C   UNL     1     -10.604  17.534  68.596  1.00  0.00    -0.288 A  
HETATM   32  C   UNL     1     -10.188  19.072  66.640  1.00  0.00    -0.407 C  
HETATM   33  O   UNL     1     -10.554  19.350  65.512  1.00  0.00    -0.493 OA 
HETATM   34  C   UNL     1     -10.791  16.245  69.081  1.00  0.00    -0.314 A  
ENDBRANCH   7  26
TORSDOF 4
ENDMDL
MODEL      104
REMARK 921   NORMALIZED FREE ENERGY PREDICTED BY IDOCK:   -6.36 KCAL/MOL
REMARK 922        TOTAL FREE ENERGY PREDICTED BY IDOCK:   -8.99 KCAL/MOL
REMARK 923 INTER-LIGAND FREE ENERGY PREDICTED BY IDOCK:   -7.73 KCAL/MOL
REMARK 924 INTRA-LIGAND FREE ENERGY PREDICTED BY IDOCK:   -1.26 KCAL/MOL
REMARK 927      BINDING AFFINITY PREDICTED BY RF-SCORE:    0.00 PKD
ROOT
HETATM    1  C   UNL     1      -9.067   3.401  70.319  1.00  0.00    -0.201 C  
HETATM    2  C   UNL     1      -9.653   4.777  70.189  1.00  0.00    -0.265 A  
HETATM    3  C   UNL     1     -10.186   5.362  71.349  1.00  0.00    -0.279 A  
HETATM    4  C   UNL     1     -10.817   6.596  71.290  1.00  0.00    -0.279 A  
HETATM    5  C   UNL     1     -10.917   7.224  70.063  1.00  0.00    -0.253 A  
HETATM    6  N   UNL     1     -10.370   6.706  68.952  1.00  0.00    -0.180 NA 
HETATM    7  C   UNL     1      -9.722   5.508  68.995  1.00  0.00    -0.144 A  
ENDROOT
BRANCH   5   8
HETATM    8  N   UNL     1     -11.627   8.427  70.016  1.00  0.00    -0.450 N  
HETATM    9  C   UNL     1     -11.082   9.673  70.210  1.00  0.00    -0.276 C  
HETATM   10  H   UNL     1     -12.627   8.377  69.822  1.00  0.00     0.000 HD 
HETATM   11  O   UNL     1      -9.917   9.976  70.429  1.00  0.00    -0.222 OA 
BRANCH   9  12
HETATM   12  C   UNL     1     -12.125  10.775  70.151  1.00  0.00    -0.427 C  
HETATM   13  C   UNL     1     -12.805  11.204  71.447  1.00  0.00    -0.544 C  
HETATM   14  C   UNL     1     -13.557  10.362  70.468  1.00  0.00     0.424 C  
BRANCH  12  15
HETATM   15  C   UNL     1     -11.879  11.804  69.046  1.00  0.00    -0.379 A  
HETATM   16  C   UNL     1     -11.921  14.172  68.349  1.00  0.00    -0.366 A  
HETATM   17  C   UNL     1     -11.948  13.190  69.345  1.00  0.00    -0.347 A  
HETATM   18  C   UNL     1     -11.815  13.750  67.045  1.00  0.00    -0.410 A  
HETATM   19  O   UNL     1     -11.835  14.549  65.946  1.00  0.00    -0.369 OA 
HETATM   20  C   UNL     1     -11.770  13.553  64.919  1.00  0.00    -0.357 C  
HETATM   21  F   UNL     1     -12.902  13.626  64.171  1.00  0.00    -0.241 F  
HETATM   22  F   UNL     1     -10.726  13.841  64.105  1.00  0.00    -0.392 F  
HETATM   23  O   UNL     1     -11.626  12.207  65.388  1.00  0.00    -0.350 OA 
HETATM   24  C   UNL     1     -11.703  12.417  66.729  1.00  0.00    -0.362 A  
HETATM   25  C   UNL     1     -11.721  11.431  67.696  1.00  0.00    -0.246 A  
ENDBRANCH  12  15
ENDBRANCH   9  12
ENDBRANCH   5   8
BRANCH   7  26
HETATM   26  C   UNL     1      -9.154   5.113  67.674  1.00  0.00    -0.117 A  
HETATM   27  C   UNL     1      -9.916   4.340  66.771  1.00  0.00    -0.191 A  
HETATM   28  C   UNL     1      -7.379   5.130  65.972  1.00  0.00    -0.081 A  
HETATM   29  O   UNL     1      -5.800   5.781  64.313  1.00  0.00    -0.023 OA 
HETATM   30  C   UNL     1      -7.886   5.518  67.225  1.00  0.00    -0.101 A  
HETATM   31  C   UNL     1      -8.148   4.335  65.120  1.00  0.00    -0.101 A  
HETATM   32  C   UNL     1      -5.998   5.553  65.628  1.00  0.00    -0.025 C  
HETATM   33  O   UNL     1      -5.130   5.708  66.469  1.00  0.00    -0.005 OA 
HETATM   34  C   UNL     1      -9.426   3.956  65.514  1.00  0.00    -0.171 A  
ENDBRANCH   7  26
TORSDOF 4
ENDMDL
MODEL      105
REMARK 921   NORMALIZED FREE ENERGY PREDICTED BY IDOCK:   -6.36 KCAL/MOL
REMARK 922        TOTAL FREE ENERGY PREDICTED BY IDOCK:   -8.99 KCAL/MOL
REMARK 923 INTER-LIGAND FREE ENERGY PREDICTED BY IDOCK:   -7.96 KCAL/MOL
REMARK 924 INTRA-LIGAND FREE ENERGY PREDICTED BY IDOCK:   -1.03 KCAL/MOL
REMARK 927      BINDING AFFINITY PREDICTED BY RF-SCORE:    0.00 PKD
ROOT
HETATM    1  C   UNL     1     -12.360  12.377  65.012  1.00  0.00    -0.441 C  
HETATM    2  C   UNL     1     -11.219  13.057  65.711  1.00  0.00    -0.316 A  
HETATM    3  C   UNL     1     -10.991  14.409  65.408  1.00  0.00    -0.343 A  
HETATM    4  C   UNL     1      -9.905  15.081  65.953  1.00  0.00    -0.369 A  
HETATM    5  C   UNL     1      -9.053  14.382  66.787  1.00  0.00    -0.257 A  
HETATM    6  N   UNL     1      -9.281  13.105  67.130  1.00  0.00    -0.219 NA 
HETATM    7  C   UNL     1     -10.358  12.437  66.627  1.00  0.00    -0.226 A  
ENDROOT
BRANCH   5   8
HETATM    8  N   UNL     1      -7.924  15.058  67.259  1.00  0.00    -0.194 N  
HETATM    9  C   UNL     1      -7.926  15.987  68.271  1.00  0.00    -0.145 C  
HETATM   10  H   UNL     1      -7.029  14.845  66.818  1.00  0.00     0.000 HD 
HETATM   11  O   UNL     1      -8.863  16.379  68.951  1.00  0.00    -0.241 OA 
BRANCH   9  12
HETATM   12  C   UNL     1      -6.550  16.581  68.510  1.00  0.00    -0.139 C  
HETATM   13  C   UNL     1      -5.400  15.640  68.856  1.00  0.00    -0.103 C  
HETATM   14  C   UNL     1      -6.010  16.478  69.932  1.00  0.00    -0.201 C  
BRANCH  12  15
HETATM   15  C   UNL     1      -6.274  17.852  67.705  1.00  0.00    -0.169 A  
HETATM   16  C   UNL     1      -6.143  20.318  67.672  1.00  0.00    -0.255 A  
HETATM   17  C   UNL     1      -6.203  19.106  68.369  1.00  0.00    -0.247 A  
HETATM   18  C   UNL     1      -6.145  20.261  66.299  1.00  0.00    -0.182 A  
HETATM   19  O   UNL     1      -6.153  21.329  65.458  1.00  0.00    -0.231 OA 
HETATM   20  C   UNL     1      -6.232  20.649  64.200  1.00  0.00    -0.301 C  
HETATM   21  F   UNL     1      -7.392  21.003  63.587  1.00  0.00     0.041 F  
HETATM   22  F   UNL     1      -5.212  21.073  63.416  1.00  0.00    -0.211 F  
HETATM   23  O   UNL     1      -6.183  19.218  64.280  1.00  0.00    -0.444 OA 
HETATM   24  C   UNL     1      -6.169  19.060  65.631  1.00  0.00    -0.236 A  
HETATM   25  C   UNL     1      -6.222  17.852  66.297  1.00  0.00    -0.259 A  
ENDBRANCH  12  15
ENDBRANCH   9  12
ENDBRANCH   5   8
BRANCH   7  26
HETATM   26  C   UNL     1     -10.463  11.043  67.147  1.00  0.00    -0.274 A  
HETATM   27  C   UNL     1     -10.294   9.942  66.279  1.00  0.00    -0.233 A  
HETATM   28  C   UNL     1     -10.767   9.410  68.960  1.00  0.00    -0.209 A  
HETATM   29  O   UNL     1     -10.504   8.091  70.925  1.00  0.00    -0.201 OA 
HETATM   30  C   UNL     1     -10.674  10.736  68.501  1.00  0.00    -0.245 A  
HETATM   31  C   UNL     1     -10.629   8.347  68.065  1.00  0.00    -0.191 A  
HETATM   32  C   UNL     1     -11.065   9.200  70.399  1.00  0.00    -0.253 C  
HETATM   33  O   UNL     1     -11.733   9.981  71.053  1.00  0.00    -0.334 OA 
HETATM   34  C   UNL     1     -10.373   8.615  66.726  1.00  0.00    -0.336 A  
ENDBRANCH   7  26
TORSDOF 4
ENDMDL
MODEL      106
REMARK 921   NORMALIZED FREE ENERGY PREDICTED BY IDOCK:   -6.32 KCAL/MOL
REMARK 922        TOTAL FREE ENERGY PREDICTED BY IDOCK:   -8.93 KCAL/MOL
REMARK 923 INTER-LIGAND FREE ENERGY PREDICTED BY IDOCK:   -7.97 KCAL/MOL
REMARK 924 INTRA-LIGAND FREE ENERGY PREDICTED BY IDOCK:   -0.96 KCAL/MOL
REMARK 927      BINDING AFFINITY PREDICTED BY RF-SCORE:    0.00 PKD
ROOT
HETATM    1  C   UNL     1     -13.468  12.756  71.902  1.00  0.00    -0.452 C  
HETATM    2  C   UNL     1     -12.881  11.438  71.488  1.00  0.00    -0.508 A  
HETATM    3  C   UNL     1     -13.122  10.335  72.322  1.00  0.00    -0.315 A  
HETATM    4  C   UNL     1     -12.544   9.103  72.048  1.00  0.00    -0.463 A  
HETATM    5  C   UNL     1     -11.720   8.996  70.943  1.00  0.00    -0.276 A  
HETATM    6  N   UNL     1     -11.518  10.024  70.105  1.00  0.00    -0.270 NA 
HETATM    7  C   UNL     1     -12.099  11.234  70.342  1.00  0.00    -0.384 A  
ENDROOT
BRANCH   5   8
HETATM    8  N   UNL     1     -11.088   7.768  70.733  1.00  0.00    -0.254 N  
HETATM    9  C   UNL     1      -9.774   7.496  71.025  1.00  0.00    -0.167 C  
HETATM   10  H   UNL     1     -11.647   7.014  70.332  1.00  0.00     0.000 HD 
HETATM   11  O   UNL     1      -8.932   8.227  71.527  1.00  0.00    -0.143 OA 
BRANCH   9  12
HETATM   12  C   UNL     1      -9.375   6.086  70.629  1.00  0.00    -0.176 C  
HETATM   13  C   UNL     1      -9.769   4.932  71.546  1.00  0.00    -0.233 C  
HETATM   14  C   UNL     1      -8.350   5.400  71.524  1.00  0.00    -0.122 C  
BRANCH  12  15
HETATM   15  C   UNL     1      -9.304   5.863  69.117  1.00  0.00    -0.137 A  
HETATM   16  C   UNL     1      -9.705   4.351  67.207  1.00  0.00    -0.222 A  
HETATM   17  C   UNL     1      -9.898   4.706  68.546  1.00  0.00    -0.181 A  
HETATM   18  C   UNL     1      -8.916   5.174  66.439  1.00  0.00    -0.125 A  
HETATM   19  O   UNL     1      -8.568   4.960  65.143  1.00  0.00    -0.132 OA 
HETATM   20  C   UNL     1      -7.702   6.082  64.935  1.00  0.00    -0.099 C  
HETATM   21  F   UNL     1      -6.456   5.622  64.649  1.00  0.00    -0.036 F  
HETATM   22  F   UNL     1      -8.139   6.770  63.852  1.00  0.00    -0.117 F  
HETATM   23  O   UNL     1      -7.604   6.987  66.042  1.00  0.00    -0.090 OA 
HETATM   24  C   UNL     1      -8.364   6.322  66.954  1.00  0.00    -0.109 A  
HETATM   25  C   UNL     1      -8.545   6.696  68.271  1.00  0.00    -0.119 A  
ENDBRANCH  12  15
ENDBRANCH   9  12
ENDBRANCH   5   8
BRANCH   7  26
HETATM   26  C   UNL     1     -11.786  12.240  69.287  1.00  0.00    -0.388 A  
HETATM   27  C   UNL     1     -11.828  11.881  67.921  1.00  0.00    -0.308 A  
HETATM   28  C   UNL     1     -11.205  14.511  68.545  1.00  0.00    -0.285 A  
HETATM   29  O   UNL     1     -11.223  16.847  68.083  1.00  0.00    -0.297 OA 
HETATM   30  C   UNL     1     -11.494  13.586  69.563  1.00  0.00    -0.318 A  
HETATM   31  C   UNL     1     -11.221  14.111  67.207  1.00  0.00    -0.330 A  
HETATM   32  C   UNL     1     -10.838  15.891  68.953  1.00  0.00    -0.274 C  
HETATM   33  O   UNL     1     -10.264  16.135  70.000  1.00  0.00    -0.215 OA 
HETATM   34  C   UNL     1     -11.552  12.797  66.896  1.00  0.00    -0.428 A  
ENDBRANCH   7  26
TORSDOF 4
ENDMDL
MODEL      107
REMARK 921   NORMALIZED FREE ENERGY PREDICTED BY IDOCK:   -6.26 KCAL/MOL
REMARK 922        TOTAL FREE ENERGY PREDICTED BY IDOCK:   -8.87 KCAL/MOL
REMARK 923 INTER-LIGAND FREE ENERGY PREDICTED BY IDOCK:   -7.80 KCAL/MOL
REMARK 924 INTRA-LIGAND FREE ENERGY PREDICTED BY IDOCK:   -1.07 KCAL/MOL
REMARK 927      BINDING AFFINITY PREDICTED BY RF-SCORE:    0.00 PKD
ROOT
HETATM    1  C   UNL     1      -7.800  11.517  66.649  1.00  0.00    -0.112 C  
HETATM    2  C   UNL     1      -8.700  10.727  67.555  1.00  0.00    -0.125 A  
HETATM    3  C   UNL     1      -8.120   9.676  68.282  1.00  0.00    -0.105 A  
HETATM    4  C   UNL     1      -8.904   8.850  69.076  1.00  0.00    -0.136 A  
HETATM    5  C   UNL     1     -10.265   9.084  69.121  1.00  0.00    -0.205 A  
HETATM    6  N   UNL     1     -10.832  10.114  68.475  1.00  0.00    -0.229 NA 
HETATM    7  C   UNL     1     -10.075  10.952  67.712  1.00  0.00    -0.177 A  
ENDROOT
BRANCH   5   8
HETATM    8  N   UNL     1     -11.043   8.191  69.864  1.00  0.00    -0.416 N  
HETATM    9  C   UNL     1     -10.987   8.043  71.229  1.00  0.00    -0.236 C  
HETATM   10  H   UNL     1     -11.703   7.604  69.354  1.00  0.00     0.000 HD 
HETATM   11  O   UNL     1     -10.299   8.647  72.039  1.00  0.00    -0.301 OA 
BRANCH   9  12
HETATM   12  C   UNL     1     -11.917   6.952  71.728  1.00  0.00    -0.372 C  
HETATM   13  C   UNL     1     -13.344   6.909  71.190  1.00  0.00    -0.114 C  
HETATM   14  C   UNL     1     -13.098   7.411  72.575  1.00  0.00     0.387 C  
BRANCH  12  15
HETATM   15  C   UNL     1     -11.205   5.650  72.096  1.00  0.00    -0.288 A  
HETATM   16  C   UNL     1     -11.004   3.746  73.657  1.00  0.00    -0.334 A  
HETATM   17  C   UNL     1     -11.710   4.842  73.150  1.00  0.00    -0.221 A  
HETATM   18  C   UNL     1      -9.786   3.459  73.088  1.00  0.00    -0.114 A  
HETATM   19  O   UNL     1      -8.934   2.477  73.485  1.00  0.00    -0.079 OA 
HETATM   20  C   UNL     1      -7.843   2.725  72.591  1.00  0.00    -0.054 C  
HETATM   21  F   UNL     1      -6.747   3.053  73.325  1.00  0.00    -0.024 F  
HETATM   22  F   UNL     1      -7.559   1.578  71.928  1.00  0.00    -0.036 F  
HETATM   23  O   UNL     1      -8.069   3.765  71.631  1.00  0.00    -0.064 OA 
HETATM   24  C   UNL     1      -9.292   4.196  72.038  1.00  0.00    -0.130 A  
HETATM   25  C   UNL     1      -9.975   5.278  71.518  1.00  0.00    -0.241 A  
ENDBRANCH  12  15
ENDBRANCH   9  12
ENDBRANCH   5   8
BRANCH   7  26
HETATM   26  C   UNL     1     -10.873  12.053  67.101  1.00  0.00    -0.297 A  
HETATM   27  C   UNL     1     -11.162  13.222  67.839  1.00  0.00    -0.302 A  
HETATM   28  C   UNL     1     -12.078  13.089  65.224  1.00  0.00    -0.484 A  
HETATM   29  O   UNL     1     -12.652  14.086  63.139  1.00  0.00    -0.733 OA 
HETATM   30  C   UNL     1     -11.329  12.033  65.772  1.00  0.00    -0.384 A  
HETATM   31  C   UNL     1     -12.375  14.214  65.996  1.00  0.00    -0.470 A  
HETATM   32  C   UNL     1     -12.572  12.931  63.833  1.00  0.00    -0.247 C  
HETATM   33  O   UNL     1     -12.851  11.847  63.354  1.00  0.00    -0.715 OA 
HETATM   34  C   UNL     1     -11.898  14.287  67.300  1.00  0.00    -0.444 A  
ENDBRANCH   7  26
TORSDOF 4
ENDMDL
MODEL      108
REMARK 921   NORMALIZED FREE ENERGY PREDICTED BY IDOCK:   -6.23 KCAL/MOL
REMARK 922        TOTAL FREE ENERGY PREDICTED BY IDOCK:   -8.83 KCAL/MOL
REMARK 923 INTER-LIGAND FREE ENERGY PREDICTED BY IDOCK:   -7.91 KCAL/MOL
REMARK 924 INTRA-LIGAND FREE ENERGY PREDICTED BY IDOCK:   -0.92 KCAL/MOL
REMARK 927      BINDING AFFINITY PREDICTED BY RF-SCORE:    0.00 PKD
ROOT
HETATM    1  C   UNL     1      -6.730  12.807  67.115  1.00  0.00     0.027 C  
HETATM    2  C   UNL     1      -7.805  12.094  67.882  1.00  0.00    -0.147 A  
HETATM    3  C   UNL     1      -7.460  10.881  68.499  1.00  0.00    -0.103 A  
HETATM    4  C   UNL     1      -8.421  10.125  69.156  1.00  0.00    -0.157 A  
HETATM    5  C   UNL     1      -9.722  10.591  69.176  1.00  0.00    -0.211 A  
HETATM    6  N   UNL     1     -10.063  11.772  68.637  1.00  0.00    -0.212 NA 
HETATM    7  C   UNL     1      -9.128  12.541  68.012  1.00  0.00    -0.200 A  
ENDROOT
BRANCH   5   8
HETATM    8  N   UNL     1     -10.685   9.774  69.774  1.00  0.00    -0.240 N  
HETATM    9  C   UNL     1     -10.560   9.177  71.005  1.00  0.00    -0.292 C  
HETATM   10  H   UNL     1     -11.549   9.609  69.257  1.00  0.00     0.000 HD 
HETATM   11  O   UNL     1      -9.637   9.252  71.803  1.00  0.00    -0.291 OA 
BRANCH   9  12
HETATM   12  C   UNL     1     -11.755   8.307  71.348  1.00  0.00    -0.327 C  
HETATM   13  C   UNL     1     -13.134   8.737  70.856  1.00  0.00     0.164 C  
HETATM   14  C   UNL     1     -12.781   8.917  72.296  1.00  0.00    -0.464 C  
BRANCH  12  15
HETATM   15  C   UNL     1     -11.424   6.819  71.475  1.00  0.00    -0.329 A  
HETATM   16  C   UNL     1     -11.162   4.854  72.947  1.00  0.00    -0.318 A  
HETATM   17  C   UNL     1     -11.620   6.156  72.715  1.00  0.00    -0.171 A  
HETATM   18  C   UNL     1     -10.513   4.217  71.916  1.00  0.00     0.009 A  
HETATM   19  O   UNL     1      -9.948   2.982  71.974  1.00  0.00    -0.165 OA 
HETATM   20  C   UNL     1      -9.379   2.913  70.661  1.00  0.00    -0.150 C  
HETATM   21  F   UNL     1      -8.029   2.804  70.779  1.00  0.00    -0.045 F  
HETATM   22  F   UNL     1      -9.826   1.786  70.056  1.00  0.00    -0.146 F  
HETATM   23  O   UNL     1      -9.668   4.032  69.814  1.00  0.00    -0.204 OA 
HETATM   24  C   UNL     1     -10.348   4.818  70.691  1.00  0.00    -0.114 A  
HETATM   25  C   UNL     1     -10.797   6.100  70.438  1.00  0.00    -0.374 A  
ENDBRANCH  12  15
ENDBRANCH   9  12
ENDBRANCH   5   8
BRANCH   7  26
HETATM   26  C   UNL     1      -9.685  13.829  67.507  1.00  0.00    -0.230 A  
HETATM   27  C   UNL     1      -9.490  15.026  68.232  1.00  0.00    -0.196 A  
HETATM   28  C   UNL     1     -10.883  15.180  65.837  1.00  0.00    -0.342 A  
HETATM   29  O   UNL     1     -11.537  16.316  63.850  1.00  0.00    -0.987 OA 
HETATM   30  C   UNL     1     -10.370  13.950  66.286  1.00  0.00    -0.293 A  
HETATM   31  C   UNL     1     -10.701  16.336  66.598  1.00  0.00    -0.197 A  
HETATM   32  C   UNL     1     -11.654  15.181  64.569  1.00  0.00    -0.329 C  
HETATM   33  O   UNL     1     -12.312  14.224  64.199  1.00  0.00    -0.630 OA 
HETATM   34  C   UNL     1      -9.986  16.261  67.788  1.00  0.00    -0.246 A  
ENDBRANCH   7  26
TORSDOF 4
ENDMDL
MODEL      109
REMARK 921   NORMALIZED FREE ENERGY PREDICTED BY IDOCK:   -6.23 KCAL/MOL
REMARK 922        TOTAL FREE ENERGY PREDICTED BY IDOCK:   -8.82 KCAL/MOL
REMARK 923 INTER-LIGAND FREE ENERGY PREDICTED BY IDOCK:   -8.57 KCAL/MOL
REMARK 924 INTRA-LIGAND FREE ENERGY PREDICTED BY IDOCK:   -0.26 KCAL/MOL
REMARK 927      BINDING AFFINITY PREDICTED BY RF-SCORE:    0.00 PKD
ROOT
HETATM    1  C   UNL     1     -10.402   7.291  67.556  1.00  0.00    -0.310 C  
HETATM    2  C   UNL     1     -10.450   8.721  68.009  1.00  0.00    -0.260 A  
HETATM    3  C   UNL     1     -10.750   8.959  69.360  1.00  0.00    -0.192 A  
HETATM    4  C   UNL     1     -10.892  10.256  69.833  1.00  0.00    -0.355 A  
HETATM    5  C   UNL     1     -10.744  11.300  68.940  1.00  0.00    -0.207 A  
HETATM    6  N   UNL     1     -10.407  11.096  67.657  1.00  0.00    -0.186 NA 
HETATM    7  C   UNL     1     -10.235   9.832  67.181  1.00  0.00    -0.228 A  
ENDROOT
BRANCH   5   8
HETATM    8  N   UNL     1     -10.970  12.592  69.423  1.00  0.00    -0.447 N  
HETATM    9  C   UNL     1     -11.945  12.937  70.328  1.00  0.00    -0.283 C  
HETATM   10  H   UNL     1     -10.364  13.337  69.078  1.00  0.00     0.000 HD 
HETATM   11  O   UNL     1     -12.760  12.219  70.888  1.00  0.00    -0.289 OA 
BRANCH   9  12
HETATM   12  C   UNL     1     -11.968  14.429  70.609  1.00  0.00    -0.393 C  
HETATM   13  C   UNL     1     -12.171  14.896  72.047  1.00  0.00    -0.434 C  
HETATM   14  C   UNL     1     -13.300  15.005  71.074  1.00  0.00    -0.477 C  
BRANCH  12  15
HETATM   15  C   UNL     1     -11.097  15.253  69.659  1.00  0.00    -0.284 A  
HETATM   16  C   UNL     1     -10.840  16.298  67.436  1.00  0.00    -0.242 A  
HETATM   17  C   UNL     1     -11.634  15.708  68.425  1.00  0.00    -0.358 A  
HETATM   18  C   UNL     1      -9.498  16.438  67.701  1.00  0.00    -0.225 A  
HETATM   19  O   UNL     1      -8.565  16.929  66.843  1.00  0.00    -0.192 OA 
HETATM   20  C   UNL     1      -7.386  16.753  67.638  1.00  0.00    -0.146 C  
HETATM   21  F   UNL     1      -6.555  15.890  66.995  1.00  0.00    -0.208 F  
HETATM   22  F   UNL     1      -6.745  17.943  67.729  1.00  0.00    -0.177 F  
HETATM   23  O   UNL     1      -7.616  16.254  68.962  1.00  0.00    -0.198 OA 
HETATM   24  C   UNL     1      -8.959  16.047  68.903  1.00  0.00    -0.239 A  
HETATM   25  C   UNL     1      -9.725  15.468  69.896  1.00  0.00    -0.169 A  
ENDBRANCH  12  15
ENDBRANCH   9  12
ENDBRANCH   5   8
BRANCH   7  26
HETATM   26  C   UNL     1      -9.832   9.807  65.745  1.00  0.00    -0.360 A  
HETATM   27  C   UNL     1     -10.302  10.797  64.853  1.00  0.00    -0.369 A  
HETATM   28  C   UNL     1      -8.577   8.870  63.850  1.00  0.00    -0.110 A  
HETATM   29  O   UNL     1      -6.853   8.148  62.374  1.00  0.00    -0.086 OA 
HETATM   30  C   UNL     1      -8.939   8.865  65.208  1.00  0.00    -0.213 A  
HETATM   31  C   UNL     1      -9.090   9.843  62.990  1.00  0.00    -0.291 A  
HETATM   32  C   UNL     1      -7.684   7.784  63.372  1.00  0.00    -0.135 C  
HETATM   33  O   UNL     1      -7.685   6.669  63.864  1.00  0.00    -0.102 OA 
HETATM   34  C   UNL     1      -9.939  10.819  63.499  1.00  0.00    -0.403 A  
ENDBRANCH   7  26
TORSDOF 4
ENDMDL
MODEL      110
REMARK 921   NORMALIZED FREE ENERGY PREDICTED BY IDOCK:   -6.22 KCAL/MOL
REMARK 922        TOTAL FREE ENERGY PREDICTED BY IDOCK:   -8.82 KCAL/MOL
REMARK 923 INTER-LIGAND FREE ENERGY PREDICTED BY IDOCK:   -7.76 KCAL/MOL
REMARK 924 INTRA-LIGAND FREE ENERGY PREDICTED BY IDOCK:   -1.06 KCAL/MOL
REMARK 927      BINDING AFFINITY PREDICTED BY RF-SCORE:    0.00 PKD
ROOT
HETATM    1  C   UNL     1     -10.770   7.631  73.203  1.00  0.00    -0.445 C  
HETATM    2  C   UNL     1     -10.354   7.833  71.775  1.00  0.00    -0.243 A  
HETATM    3  C   UNL     1     -10.591   9.095  71.208  1.00  0.00    -0.399 A  
HETATM    4  C   UNL     1     -10.308   9.331  69.869  1.00  0.00    -0.241 A  
HETATM    5  C   UNL     1      -9.800   8.291  69.113  1.00  0.00    -0.179 A  
HETATM    6  N   UNL     1      -9.519   7.094  69.648  1.00  0.00    -0.152 NA 
HETATM    7  C   UNL     1      -9.763   6.851  70.967  1.00  0.00    -0.174 A  
ENDROOT
BRANCH   5   8
HETATM    8  N   UNL     1      -9.598   8.531  67.751  1.00  0.00    -0.152 N  
HETATM    9  C   UNL     1      -8.553   9.250  67.222  1.00  0.00    -0.125 C  
HETATM   10  H   UNL     1     -10.279   8.142  67.098  1.00  0.00     0.000 HD 
HETATM   11  O   UNL     1      -7.617   9.781  67.801  1.00  0.00    -0.090 OA 
BRANCH   9  12
HETATM   12  C   UNL     1      -8.648   9.377  65.712  1.00  0.00    -0.161 C  
HETATM   13  C   UNL     1      -8.361   8.146  64.858  1.00  0.00    -0.133 C  
HETATM   14  C   UNL     1      -7.341   9.234  64.942  1.00  0.00    -0.103 C  
BRANCH  12  15
HETATM   15  C   UNL     1      -9.676  10.407  65.240  1.00  0.00    -0.339 A  
HETATM   16  C   UNL     1     -10.687  11.634  63.351  1.00  0.00    -0.460 A  
HETATM   17  C   UNL     1      -9.907  10.586  63.850  1.00  0.00    -0.373 A  
HETATM   18  C   UNL     1     -11.246  12.498  64.263  1.00  0.00    -0.355 A  
HETATM   19  O   UNL     1     -11.980  13.603  63.966  1.00  0.00    -0.437 OA 
HETATM   20  C   UNL     1     -12.200  14.112  65.286  1.00  0.00    -0.434 C  
HETATM   21  F   UNL     1     -11.623  15.339  65.381  1.00  0.00    -0.326 F  
HETATM   22  F   UNL     1     -13.533  14.276  65.468  1.00  0.00    -0.467 F  
HETATM   23  O   UNL     1     -11.691  13.292  66.345  1.00  0.00    -0.338 OA 
HETATM   24  C   UNL     1     -11.075  12.323  65.615  1.00  0.00    -0.317 A  
HETATM   25  C   UNL     1     -10.314  11.293  66.130  1.00  0.00    -0.300 A  
ENDBRANCH  12  15
ENDBRANCH   9  12
ENDBRANCH   5   8
BRANCH   7  26
HETATM   26  C   UNL     1      -9.356   5.479  71.385  1.00  0.00    -0.174 A  
HETATM   27  C   UNL     1     -10.033   4.347  70.880  1.00  0.00    -0.242 A  
HETATM   28  C   UNL     1      -7.909   3.914  72.611  1.00  0.00    -0.078 A  
HETATM   29  O   UNL     1      -6.057   2.640  73.397  1.00  0.00    -0.007 OA 
HETATM   30  C   UNL     1      -8.269   5.221  72.237  1.00  0.00    -0.118 A  
HETATM   31  C   UNL     1      -8.624   2.820  72.119  1.00  0.00    -0.085 A  
HETATM   32  C   UNL     1      -6.790   3.759  73.574  1.00  0.00    -0.045 C  
HETATM   33  O   UNL     1      -6.540   4.588  74.430  1.00  0.00    -0.059 OA 
HETATM   34  C   UNL     1      -9.676   3.038  71.237  1.00  0.00    -0.208 A  
ENDBRANCH   7  26
TORSDOF 4
ENDMDL
MODEL      111
REMARK 921   NORMALIZED FREE ENERGY PREDICTED BY IDOCK:   -6.22 KCAL/MOL
REMARK 922        TOTAL FREE ENERGY PREDICTED BY IDOCK:   -8.82 KCAL/MOL
REMARK 923 INTER-LIGAND FREE ENERGY PREDICTED BY IDOCK:   -7.81 KCAL/MOL
REMARK 924 INTRA-LIGAND FREE ENERGY PREDICTED BY IDOCK:   -1.00 KCAL/MOL
REMARK 927      BINDING AFFINITY PREDICTED BY RF-SCORE:    0.00 PKD
ROOT
HETATM    1  C   UNL     1     -10.739   5.576  72.615  1.00  0.00    -0.289 C  
HETATM    2  C   UNL     1     -10.374   6.815  71.849  1.00  0.00    -0.217 A  
HETATM    3  C   UNL     1     -10.760   8.048  72.397  1.00  0.00    -0.386 A  
HETATM    4  C   UNL     1     -10.529   9.230  71.707  1.00  0.00    -0.238 A  
HETATM    5  C   UNL     1      -9.924   9.158  70.466  1.00  0.00    -0.235 A  
HETATM    6  N   UNL     1      -9.501   7.994  69.948  1.00  0.00    -0.160 NA 
HETATM    7  C   UNL     1      -9.693   6.827  70.623  1.00  0.00    -0.172 A  
ENDROOT
BRANCH   5   8
HETATM    8  N   UNL     1      -9.775  10.353  69.757  1.00  0.00    -0.416 N  
HETATM    9  C   UNL     1     -10.385  10.642  68.561  1.00  0.00    -0.183 C  
HETATM   10  H   UNL     1      -9.165  11.066  70.159  1.00  0.00     0.000 HD 
HETATM   11  O   UNL     1     -11.165   9.960  67.912  1.00  0.00    -0.226 OA 
BRANCH   9  12
HETATM   12  C   UNL     1      -9.976  12.000  68.019  1.00  0.00    -0.197 C  
HETATM   13  C   UNL     1      -9.661  12.126  66.531  1.00  0.00    -0.235 C  
HETATM   14  C   UNL     1      -8.541  12.121  67.520  1.00  0.00    -0.171 C  
BRANCH  12  15
HETATM   15  C   UNL     1     -10.602  13.180  68.765  1.00  0.00    -0.225 A  
HETATM   16  C   UNL     1     -10.436  15.549  69.442  1.00  0.00    -0.253 A  
HETATM   17  C   UNL     1     -10.030  14.475  68.643  1.00  0.00    -0.237 A  
HETATM   18  C   UNL     1     -11.432  15.316  70.360  1.00  0.00    -0.299 A  
HETATM   19  O   UNL     1     -11.913  16.215  71.258  1.00  0.00    -0.427 OA 
HETATM   20  C   UNL     1     -12.843  15.384  71.962  1.00  0.00    -0.388 C  
HETATM   21  F   UNL     1     -12.453  15.298  73.261  1.00  0.00    -0.409 F  
HETATM   22  F   UNL     1     -14.058  15.984  71.941  1.00  0.00    -0.413 F  
HETATM   23  O   UNL     1     -12.981  14.054  71.445  1.00  0.00    -0.323 OA 
HETATM   24  C   UNL     1     -12.034  14.085  70.469  1.00  0.00    -0.320 A  
HETATM   25  C   UNL     1     -11.653  13.012  69.687  1.00  0.00    -0.322 A  
ENDBRANCH  12  15
ENDBRANCH   9  12
ENDBRANCH   5   8
BRANCH   7  26
HETATM   26  C   UNL     1      -9.128   5.647  69.906  1.00  0.00    -0.155 A  
HETATM   27  C   UNL     1      -8.137   4.847  70.517  1.00  0.00    -0.084 A  
HETATM   28  C   UNL     1      -9.017   4.108  67.992  1.00  0.00    -0.150 A  
HETATM   29  O   UNL     1      -9.516   2.481  66.326  1.00  0.00    -0.010 OA 
HETATM   30  C   UNL     1      -9.569   5.227  68.640  1.00  0.00    -0.183 A  
HETATM   31  C   UNL     1      -8.013   3.362  68.611  1.00  0.00    -0.066 A  
HETATM   32  C   UNL     1      -9.505   3.797  66.624  1.00  0.00    -0.192 C  
HETATM   33  O   UNL     1      -9.891   4.657  65.852  1.00  0.00    -0.182 OA 
HETATM   34  C   UNL     1      -7.587   3.722  69.884  1.00  0.00    -0.048 A  
ENDBRANCH   7  26
TORSDOF 4
ENDMDL
MODEL      112
REMARK 921   NORMALIZED FREE ENERGY PREDICTED BY IDOCK:   -6.20 KCAL/MOL
REMARK 922        TOTAL FREE ENERGY PREDICTED BY IDOCK:   -8.79 KCAL/MOL
REMARK 923 INTER-LIGAND FREE ENERGY PREDICTED BY IDOCK:   -8.22 KCAL/MOL
REMARK 924 INTRA-LIGAND FREE ENERGY PREDICTED BY IDOCK:   -0.57 KCAL/MOL
REMARK 927      BINDING AFFINITY PREDICTED BY RF-SCORE:    0.00 PKD
ROOT
HETATM    1  C   UNL     1     -11.932  15.992  69.250  1.00  0.00    -0.188 C  
HETATM    2  C   UNL     1     -11.386  15.067  68.202  1.00  0.00    -0.343 A  
HETATM    3  C   UNL     1     -11.824  13.733  68.228  1.00  0.00    -0.413 A  
HETATM    4  C   UNL     1     -11.301  12.802  67.342  1.00  0.00    -0.363 A  
HETATM    5  C   UNL     1     -10.335  13.219  66.446  1.00  0.00    -0.286 A  
HETATM    6  N   UNL     1      -9.940  14.499  66.370  1.00  0.00    -0.280 NA 
HETATM    7  C   UNL     1     -10.462  15.434  67.213  1.00  0.00    -0.282 A  
ENDROOT
BRANCH   5   8
HETATM    8  N   UNL     1      -9.768  12.245  65.619  1.00  0.00    -0.348 N  
HETATM    9  C   UNL     1     -10.324  11.778  64.453  1.00  0.00    -0.307 C  
HETATM   10  H   UNL     1      -8.870  11.852  65.902  1.00  0.00     0.000 HD 
HETATM   11  O   UNL     1     -11.367  12.115  63.912  1.00  0.00    -0.357 OA 
BRANCH   9  12
HETATM   12  C   UNL     1      -9.490  10.682  63.815  1.00  0.00    -0.331 C  
HETATM   13  C   UNL     1      -8.508  11.064  62.711  1.00  0.00    -0.157 C  
HETATM   14  C   UNL     1      -9.785  10.378  62.351  1.00  0.00    -0.074 C  
BRANCH  12  15
HETATM   15  C   UNL     1      -9.158   9.525  64.758  1.00  0.00    -0.271 A  
HETATM   16  C   UNL     1      -7.920   7.420  65.129  1.00  0.00    -0.128 A  
HETATM   17  C   UNL     1      -8.140   8.599  64.408  1.00  0.00    -0.156 A  
HETATM   18  C   UNL     1      -8.727   7.183  66.217  1.00  0.00    -0.146 A  
HETATM   19  O   UNL     1      -8.703   6.071  66.998  1.00  0.00    -0.111 OA 
HETATM   20  C   UNL     1      -9.792   6.369  67.880  1.00  0.00    -0.123 C  
HETATM   21  F   UNL     1     -10.753   5.423  67.718  1.00  0.00    -0.248 F  
HETATM   22  F   UNL     1      -9.348   6.283  69.157  1.00  0.00    -0.130 F  
HETATM   23  O   UNL     1     -10.392   7.657  67.690  1.00  0.00    -0.202 OA 
HETATM   24  C   UNL     1      -9.691   8.083  66.605  1.00  0.00    -0.243 A  
HETATM   25  C   UNL     1      -9.921   9.255  65.911  1.00  0.00    -0.289 A  
ENDBRANCH  12  15
ENDBRANCH   9  12
ENDBRANCH   5   8
BRANCH   7  26
HETATM   26  C   UNL     1      -9.928  16.802  66.957  1.00  0.00    -0.269 A  
HETATM   27  C   UNL     1     -10.767  17.932  67.082  1.00  0.00    -0.241 A  
HETATM   28  C   UNL     1      -8.111  18.365  66.407  1.00  0.00    -0.285 A  
HETATM   29  O   UNL     1      -6.113  19.660  66.438  1.00  0.00    -0.168 OA 
HETATM   30  C   UNL     1      -8.584  17.062  66.641  1.00  0.00    -0.285 A  
HETATM   31  C   UNL     1      -8.978  19.455  66.505  1.00  0.00    -0.391 A  
HETATM   32  C   UNL     1      -6.690  18.519  66.007  1.00  0.00    -0.257 C  
HETATM   33  O   UNL     1      -6.090  17.670  65.371  1.00  0.00    -0.025 OA 
HETATM   34  C   UNL     1     -10.304  19.238  66.863  1.00  0.00    -0.524 A  
ENDBRANCH   7  26
TORSDOF 4
ENDMDL
MODEL      113
REMARK 921   NORMALIZED FREE ENERGY PREDICTED BY IDOCK:   -6.15 KCAL/MOL
REMARK 922        TOTAL FREE ENERGY PREDICTED BY IDOCK:   -8.73 KCAL/MOL
REMARK 923 INTER-LIGAND FREE ENERGY PREDICTED BY IDOCK:   -7.96 KCAL/MOL
REMARK 924 INTRA-LIGAND FREE ENERGY PREDICTED BY IDOCK:   -0.78 KCAL/MOL
REMARK 927      BINDING AFFINITY PREDICTED BY RF-SCORE:    0.00 PKD
ROOT
HETATM    1  C   UNL     1     -10.603  17.464  68.848  1.00  0.00    -0.243 C  
HETATM    2  C   UNL     1     -10.238  16.196  68.133  1.00  0.00    -0.247 A  
HETATM    3  C   UNL     1      -9.436  16.311  66.987  1.00  0.00    -0.237 A  
HETATM    4  C   UNL     1      -9.125  15.191  66.227  1.00  0.00    -0.313 A  
HETATM    5  C   UNL     1      -9.636  13.969  66.622  1.00  0.00    -0.289 A  
HETATM    6  N   UNL     1     -10.362  13.830  67.742  1.00  0.00    -0.238 NA 
HETATM    7  C   UNL     1     -10.654  14.913  68.516  1.00  0.00    -0.245 A  
ENDROOT
BRANCH   5   8
HETATM    8  N   UNL     1      -9.375  12.871  65.798  1.00  0.00    -0.462 N  
HETATM    9  C   UNL     1     -10.152  12.479  64.735  1.00  0.00    -0.227 C  
HETATM   10  H   UNL     1      -8.543  12.317  66.001  1.00  0.00     0.000 HD 
HETATM   11  O   UNL     1     -11.169  12.997  64.296  1.00  0.00    -0.338 OA 
BRANCH   9  12
HETATM   12  C   UNL     1      -9.631  11.215  64.075  1.00  0.00    -0.288 C  
HETATM   13  C   UNL     1      -8.886  11.340  62.749  1.00  0.00    -0.236 C  
HETATM   14  C   UNL     1     -10.289  10.825  62.757  1.00  0.00     0.234 C  
BRANCH  12  15
HETATM   15  C   UNL     1      -9.243  10.114  65.063  1.00  0.00    -0.266 A  
HETATM   16  C   UNL     1      -9.858   8.767  67.039  1.00  0.00    -0.279 A  
HETATM   17  C   UNL     1     -10.201   9.631  65.993  1.00  0.00    -0.255 A  
HETATM   18  C   UNL     1      -8.542   8.383  67.138  1.00  0.00    -0.123 A  
HETATM   19  O   UNL     1      -8.012   7.603  68.117  1.00  0.00    -0.119 OA 
HETATM   20  C   UNL     1      -6.633   7.627  67.730  1.00  0.00    -0.062 C  
HETATM   21  F   UNL     1      -5.913   8.208  68.725  1.00  0.00    -0.038 F  
HETATM   22  F   UNL     1      -6.198   6.350  67.605  1.00  0.00    -0.026 F  
HETATM   23  O   UNL     1      -6.359   8.326  66.509  1.00  0.00    -0.052 OA 
HETATM   24  C   UNL     1      -7.602   8.800  66.227  1.00  0.00    -0.091 A  
HETATM   25  C   UNL     1      -7.919   9.647  65.183  1.00  0.00    -0.120 A  
ENDBRANCH  12  15
ENDBRANCH   9  12
ENDBRANCH   5   8
BRANCH   7  26
HETATM   26  C   UNL     1     -11.439  14.557  69.732  1.00  0.00    -0.327 A  
HETATM   27  C   UNL     1     -12.249  13.399  69.747  1.00  0.00    -0.307 A  
HETATM   28  C   UNL     1     -12.138  14.926  72.061  1.00  0.00    -0.436 A  
HETATM   29  O   UNL     1     -12.185  15.170  74.429  1.00  0.00    -0.634 OA 
HETATM   30  C   UNL     1     -11.386  15.290  70.930  1.00  0.00    -0.380 A  
HETATM   31  C   UNL     1     -12.955  13.795  72.027  1.00  0.00    -0.437 A  
HETATM   32  C   UNL     1     -12.064  15.813  73.249  1.00  0.00    -0.495 C  
HETATM   33  O   UNL     1     -11.879  17.014  73.162  1.00  0.00    -0.263 OA 
HETATM   34  C   UNL     1     -12.994  13.020  70.873  1.00  0.00    -0.121 A  
ENDBRANCH   7  26
TORSDOF 4
ENDMDL
MODEL      114
REMARK 921   NORMALIZED FREE ENERGY PREDICTED BY IDOCK:   -6.11 KCAL/MOL
REMARK 922        TOTAL FREE ENERGY PREDICTED BY IDOCK:   -8.69 KCAL/MOL
REMARK 923 INTER-LIGAND FREE ENERGY PREDICTED BY IDOCK:   -7.54 KCAL/MOL
REMARK 924 INTRA-LIGAND FREE ENERGY PREDICTED BY IDOCK:   -1.15 KCAL/MOL
REMARK 927      BINDING AFFINITY PREDICTED BY RF-SCORE:    0.00 PKD
ROOT
HETATM    1  C   UNL     1     -10.747   6.151  67.392  1.00  0.00    -0.403 C  
HETATM    2  C   UNL     1     -10.197   7.537  67.572  1.00  0.00    -0.288 A  
HETATM    3  C   UNL     1     -10.654   8.530  66.692  1.00  0.00    -0.118 A  
HETATM    4  C   UNL     1     -10.131   9.815  66.745  1.00  0.00    -0.295 A  
HETATM    5  C   UNL     1      -9.144  10.083  67.675  1.00  0.00    -0.134 A  
HETATM    6  N   UNL     1      -8.729   9.162  68.558  1.00  0.00    -0.129 NA 
HETATM    7  C   UNL     1      -9.252   7.903  68.540  1.00  0.00    -0.138 A  
ENDROOT
BRANCH   5   8
HETATM    8  N   UNL     1      -8.577  11.361  67.655  1.00  0.00    -0.127 N  
HETATM    9  C   UNL     1      -9.142  12.483  68.210  1.00  0.00    -0.183 C  
HETATM   10  H   UNL     1      -7.674  11.468  67.192  1.00  0.00     0.000 HD 
HETATM   11  O   UNL     1     -10.192  12.589  68.827  1.00  0.00    -0.188 OA 
BRANCH   9  12
HETATM   12  C   UNL     1      -8.305  13.727  67.971  1.00  0.00    -0.171 C  
HETATM   13  C   UNL     1      -6.825  13.557  67.640  1.00  0.00    -0.178 C  
HETATM   14  C   UNL     1      -7.224  14.019  69.004  1.00  0.00    -0.092 C  
BRANCH  12  15
HETATM   15  C   UNL     1      -9.088  14.896  67.369  1.00  0.00    -0.196 A  
HETATM   16  C   UNL     1     -10.242  15.846  65.404  1.00  0.00    -0.354 A  
HETATM   17  C   UNL     1      -9.680  14.761  66.086  1.00  0.00    -0.338 A  
HETATM   18  C   UNL     1     -10.214  17.070  66.029  1.00  0.00    -0.325 A  
HETATM   19  O   UNL     1     -10.653  18.243  65.501  1.00  0.00    -0.632 OA 
HETATM   20  C   UNL     1     -10.293  19.138  66.559  1.00  0.00    -0.442 C  
HETATM   21  F   UNL     1      -9.388  20.032  66.083  1.00  0.00    -0.400 F  
HETATM   22  F   UNL     1     -11.395  19.833  66.930  1.00  0.00    -0.480 F  
HETATM   23  O   UNL     1      -9.736  18.510  67.721  1.00  0.00    -0.289 OA 
HETATM   24  C   UNL     1      -9.686  17.221  67.288  1.00  0.00    -0.262 A  
HETATM   25  C   UNL     1      -9.132  16.164  67.982  1.00  0.00    -0.190 A  
ENDBRANCH  12  15
ENDBRANCH   9  12
ENDBRANCH   5   8
BRANCH   7  26
HETATM   26  C   UNL     1      -8.693   7.033  69.615  1.00  0.00    -0.141 A  
HETATM   27  C   UNL     1      -7.470   6.353  69.421  1.00  0.00    -0.094 A  
HETATM   28  C   UNL     1      -8.740   6.052  71.869  1.00  0.00    -0.137 A  
HETATM   29  O   UNL     1      -8.719   5.724  74.227  1.00  0.00    -0.121 OA 
HETATM   30  C   UNL     1      -9.293   6.879  70.876  1.00  0.00    -0.157 A  
HETATM   31  C   UNL     1      -7.548   5.367  71.628  1.00  0.00    -0.104 A  
HETATM   32  C   UNL     1      -9.496   5.904  73.139  1.00  0.00    -0.143 C  
HETATM   33  O   UNL     1     -10.711   5.969  73.192  1.00  0.00    -0.234 OA 
HETATM   34  C   UNL     1      -6.903   5.534  70.408  1.00  0.00    -0.052 A  
ENDBRANCH   7  26
TORSDOF 4
ENDMDL
MODEL      115
REMARK 921   NORMALIZED FREE ENERGY PREDICTED BY IDOCK:   -6.11 KCAL/MOL
REMARK 922        TOTAL FREE ENERGY PREDICTED BY IDOCK:   -8.68 KCAL/MOL
REMARK 923 INTER-LIGAND FREE ENERGY PREDICTED BY IDOCK:   -7.46 KCAL/MOL
REMARK 924 INTRA-LIGAND FREE ENERGY PREDICTED BY IDOCK:   -1.22 KCAL/MOL
REMARK 927      BINDING AFFINITY PREDICTED BY RF-SCORE:    0.00 PKD
ROOT
HETATM    1  C   UNL     1      -6.557   8.972  71.175  1.00  0.00    -0.086 C  
HETATM    2  C   UNL     1      -7.177   9.848  70.126  1.00  0.00    -0.159 A  
HETATM    3  C   UNL     1      -6.471  11.003  69.752  1.00  0.00    -0.137 A  
HETATM    4  C   UNL     1      -7.019  11.903  68.849  1.00  0.00    -0.110 A  
HETATM    5  C   UNL     1      -8.277  11.639  68.341  1.00  0.00    -0.155 A  
HETATM    6  N   UNL     1      -8.946  10.517  68.646  1.00  0.00    -0.153 NA 
HETATM    7  C   UNL     1      -8.413   9.607  69.509  1.00  0.00    -0.159 A  
ENDROOT
BRANCH   5   8
HETATM    8  N   UNL     1      -8.840  12.600  67.496  1.00  0.00    -0.175 N  
HETATM    9  C   UNL     1      -9.712  13.585  67.890  1.00  0.00    -0.225 C  
HETATM   10  H   UNL     1      -8.582  12.567  66.509  1.00  0.00     0.000 HD 
HETATM   11  O   UNL     1     -10.137  13.830  69.010  1.00  0.00    -0.128 OA 
BRANCH   9  12
HETATM   12  C   UNL     1     -10.186  14.435  66.725  1.00  0.00    -0.270 C  
HETATM   13  C   UNL     1     -11.558  14.147  66.124  1.00  0.00    -0.377 C  
HETATM   14  C   UNL     1     -10.330  13.722  65.387  1.00  0.00    -0.347 C  
BRANCH  12  15
HETATM   15  C   UNL     1      -9.652  15.869  66.746  1.00  0.00    -0.252 A  
HETATM   16  C   UNL     1     -10.046  18.253  66.233  1.00  0.00    -0.389 A  
HETATM   17  C   UNL     1     -10.516  16.948  66.417  1.00  0.00    -0.252 A  
HETATM   18  C   UNL     1      -8.698  18.469  66.393  1.00  0.00    -0.260 A  
HETATM   19  O   UNL     1      -8.053  19.649  66.198  1.00  0.00    -0.331 OA 
HETATM   20  C   UNL     1      -6.703  19.232  66.434  1.00  0.00    -0.200 C  
HETATM   21  F   UNL     1      -5.986  19.416  65.294  1.00  0.00    -0.195 F  
HETATM   22  F   UNL     1      -6.165  20.031  67.386  1.00  0.00    -0.193 F  
HETATM   23  O   UNL     1      -6.553  17.867  66.844  1.00  0.00    -0.166 OA 
HETATM   24  C   UNL     1      -7.846  17.453  66.754  1.00  0.00    -0.238 A  
HETATM   25  C   UNL     1      -8.288  16.159  66.946  1.00  0.00    -0.271 A  
ENDBRANCH  12  15
ENDBRANCH   9  12
ENDBRANCH   5   8
BRANCH   7  26
HETATM   26  C   UNL     1      -9.285   8.413  69.698  1.00  0.00    -0.160 A  
HETATM   27  C   UNL     1      -9.282   7.367  68.748  1.00  0.00    -0.144 A  
HETATM   28  C   UNL     1     -10.911   7.081  70.976  1.00  0.00    -0.264 A  
HETATM   29  O   UNL     1     -11.995   5.767  72.639  1.00  0.00    -0.250 OA 
HETATM   30  C   UNL     1     -10.101   8.221  70.826  1.00  0.00    -0.218 A  
HETATM   31  C   UNL     1     -10.908   6.085  69.998  1.00  0.00    -0.429 A  
HETATM   32  C   UNL     1     -11.789   7.015  72.171  1.00  0.00    -0.275 C  
HETATM   33  O   UNL     1     -12.257   8.008  72.698  1.00  0.00    -0.293 OA 
HETATM   34  C   UNL     1     -10.076   6.220  68.892  1.00  0.00    -0.200 A  
ENDBRANCH   7  26
TORSDOF 4
ENDMDL
MODEL      116
REMARK 921   NORMALIZED FREE ENERGY PREDICTED BY IDOCK:   -6.10 KCAL/MOL
REMARK 922        TOTAL FREE ENERGY PREDICTED BY IDOCK:   -8.67 KCAL/MOL
REMARK 923 INTER-LIGAND FREE ENERGY PREDICTED BY IDOCK:   -8.20 KCAL/MOL
REMARK 924 INTRA-LIGAND FREE ENERGY PREDICTED BY IDOCK:   -0.48 KCAL/MOL
REMARK 927      BINDING AFFINITY PREDICTED BY RF-SCORE:    0.00 PKD
ROOT
HETATM    1  C   UNL     1     -14.090   9.098  72.433  1.00  0.00    -0.434 C  
HETATM    2  C   UNL     1     -12.892   8.872  71.557  1.00  0.00    -0.383 A  
HETATM    3  C   UNL     1     -12.486   7.544  71.352  1.00  0.00    -0.382 A  
HETATM    4  C   UNL     1     -11.339   7.262  70.622  1.00  0.00    -0.311 A  
HETATM    5  C   UNL     1     -10.607   8.319  70.116  1.00  0.00    -0.233 A  
HETATM    6  N   UNL     1     -11.006   9.593  70.257  1.00  0.00    -0.264 NA 
HETATM    7  C   UNL     1     -12.143   9.888  70.947  1.00  0.00    -0.341 A  
ENDROOT
BRANCH   5   8
HETATM    8  N   UNL     1      -9.415   8.013  69.453  1.00  0.00    -0.159 N  
HETATM    9  C   UNL     1      -8.268   7.560  70.059  1.00  0.00    -0.130 C  
HETATM   10  H   UNL     1      -9.396   8.133  68.440  1.00  0.00     0.000 HD 
HETATM   11  O   UNL     1      -8.068   7.321  71.241  1.00  0.00    -0.100 OA 
BRANCH   9  12
HETATM   12  C   UNL     1      -7.131   7.372  69.072  1.00  0.00    -0.079 C  
HETATM   13  C   UNL     1      -5.717   7.192  69.616  1.00  0.00    -0.023 C  
HETATM   14  C   UNL     1      -6.106   8.498  69.004  1.00  0.00    -0.043 C  
BRANCH  12  15
HETATM   15  C   UNL     1      -7.542   6.667  67.778  1.00  0.00    -0.106 A  
HETATM   16  C   UNL     1      -7.732   6.759  65.318  1.00  0.00    -0.106 A  
HETATM   17  C   UNL     1      -7.223   7.252  66.524  1.00  0.00    -0.079 A  
HETATM   18  C   UNL     1      -8.559   5.663  65.380  1.00  0.00    -0.150 A  
HETATM   19  O   UNL     1      -9.193   5.084  64.326  1.00  0.00    -0.036 OA 
HETATM   20  C   UNL     1      -9.942   4.076  65.015  1.00  0.00    -0.201 C  
HETATM   21  F   UNL     1     -11.266   4.314  64.825  1.00  0.00    -0.363 F  
HETATM   22  F   UNL     1      -9.660   2.873  64.459  1.00  0.00    -0.142 F  
HETATM   23  O   UNL     1      -9.697   3.997  66.425  1.00  0.00    -0.199 OA 
HETATM   24  C   UNL     1      -8.849   5.050  66.575  1.00  0.00    -0.112 A  
HETATM   25  C   UNL     1      -8.354   5.516  67.777  1.00  0.00    -0.099 A  
ENDBRANCH  12  15
ENDBRANCH   9  12
ENDBRANCH   5   8
BRANCH   7  26
HETATM   26  C   UNL     1     -12.441  11.349  70.969  1.00  0.00    -0.486 A  
HETATM   27  C   UNL     1     -13.208  11.907  72.015  1.00  0.00    -0.461 A  
HETATM   28  C   UNL     1     -12.244  13.627  70.064  1.00  0.00    -0.395 A  
HETATM   29  O   UNL     1     -11.427  15.742  69.335  1.00  0.00    -0.306 OA 
HETATM   30  C   UNL     1     -11.947  12.254  70.014  1.00  0.00    -0.379 A  
HETATM   31  C   UNL     1     -13.035  14.137  71.094  1.00  0.00    -0.419 A  
HETATM   32  C   UNL     1     -11.731  14.481  68.963  1.00  0.00    -0.311 C  
HETATM   33  O   UNL     1     -11.572  14.066  67.829  1.00  0.00    -0.305 OA 
HETATM   34  C   UNL     1     -13.501  13.277  72.082  1.00  0.00    -0.655 A  
ENDBRANCH   7  26
TORSDOF 4
ENDMDL
MODEL      117
REMARK 921   NORMALIZED FREE ENERGY PREDICTED BY IDOCK:   -6.09 KCAL/MOL
REMARK 922        TOTAL FREE ENERGY PREDICTED BY IDOCK:   -8.65 KCAL/MOL
REMARK 923 INTER-LIGAND FREE ENERGY PREDICTED BY IDOCK:   -8.10 KCAL/MOL
REMARK 924 INTRA-LIGAND FREE ENERGY PREDICTED BY IDOCK:   -0.56 KCAL/MOL
REMARK 927      BINDING AFFINITY PREDICTED BY RF-SCORE:    0.00 PKD
ROOT
HETATM    1  C   UNL     1      -7.160   7.977  66.985  1.00  0.00    -0.082 C  
HETATM    2  C   UNL     1      -7.953   9.162  67.455  1.00  0.00    -0.103 A  
HETATM    3  C   UNL     1      -7.700  10.394  66.831  1.00  0.00    -0.111 A  
HETATM    4  C   UNL     1      -8.335  11.549  67.266  1.00  0.00    -0.154 A  
HETATM    5  C   UNL     1      -9.209  11.454  68.333  1.00  0.00    -0.183 A  
HETATM    6  N   UNL     1      -9.504  10.279  68.909  1.00  0.00    -0.178 NA 
HETATM    7  C   UNL     1      -8.911   9.130  68.477  1.00  0.00    -0.133 A  
ENDROOT
BRANCH   5   8
HETATM    8  N   UNL     1      -9.775  12.643  68.803  1.00  0.00    -0.419 N  
HETATM    9  C   UNL     1     -11.093  13.002  68.657  1.00  0.00    -0.269 C  
HETATM   10  H   UNL     1      -9.161  13.294  69.293  1.00  0.00     0.000 HD 
HETATM   11  O   UNL     1     -12.004  12.378  68.133  1.00  0.00    -0.344 OA 
BRANCH   9  12
HETATM   12  C   UNL     1     -11.382  14.378  69.228  1.00  0.00    -0.319 C  
HETATM   13  C   UNL     1     -11.242  14.587  70.733  1.00  0.00    -0.004 C  
HETATM   14  C   UNL     1     -12.605  14.489  70.129  1.00  0.00    -0.339 C  
BRANCH  12  15
HETATM   15  C   UNL     1     -11.062  15.527  68.269  1.00  0.00    -0.322 A  
HETATM   16  C   UNL     1     -10.330  16.228  66.018  1.00  0.00    -0.363 A  
HETATM   17  C   UNL     1     -10.810  15.253  66.899  1.00  0.00    -0.317 A  
HETATM   18  C   UNL     1     -10.113  17.488  66.523  1.00  0.00    -0.331 A  
HETATM   19  O   UNL     1      -9.594  18.541  65.838  1.00  0.00    -0.494 OA 
HETATM   20  C   UNL     1      -9.540  19.513  66.889  1.00  0.00    -0.347 C  
HETATM   21  F   UNL     1      -8.242  19.862  67.091  1.00  0.00    -0.295 F  
HETATM   22  F   UNL     1     -10.202  20.624  66.485  1.00  0.00    -0.516 F  
HETATM   23  O   UNL     1     -10.090  19.083  68.141  1.00  0.00    -0.356 OA 
HETATM   24  C   UNL     1     -10.389  17.792  67.834  1.00  0.00    -0.386 A  
HETATM   25  C   UNL     1     -10.869  16.848  68.720  1.00  0.00    -0.289 A  
ENDBRANCH  12  15
ENDBRANCH   9  12
ENDBRANCH   5   8
BRANCH   7  26
HETATM   26  C   UNL     1      -9.388   7.924  69.215  1.00  0.00    -0.148 A  
HETATM   27  C   UNL     1      -8.539   6.807  69.382  1.00  0.00    -0.132 A  
HETATM   28  C   UNL     1     -11.068   6.688  70.516  1.00  0.00    -0.359 A  
HETATM   29  O   UNL     1     -12.590   5.971  72.201  1.00  0.00    -0.143 OA 
HETATM   30  C   UNL     1     -10.650   7.839  69.826  1.00  0.00    -0.241 A  
HETATM   31  C   UNL     1     -10.215   5.589  70.630  1.00  0.00    -0.308 A  
HETATM   32  C   UNL     1     -12.450   6.677  71.060  1.00  0.00    -0.166 C  
HETATM   33  O   UNL     1     -13.368   7.281  70.534  1.00  0.00     0.205 OA 
HETATM   34  C   UNL     1      -8.941   5.658  70.078  1.00  0.00    -0.150 A  
ENDBRANCH   7  26
TORSDOF 4
ENDMDL
MODEL      118
REMARK 921   NORMALIZED FREE ENERGY PREDICTED BY IDOCK:   -6.03 KCAL/MOL
REMARK 922        TOTAL FREE ENERGY PREDICTED BY IDOCK:   -8.59 KCAL/MOL
REMARK 923 INTER-LIGAND FREE ENERGY PREDICTED BY IDOCK:   -7.39 KCAL/MOL
REMARK 924 INTRA-LIGAND FREE ENERGY PREDICTED BY IDOCK:   -1.20 KCAL/MOL
REMARK 927      BINDING AFFINITY PREDICTED BY RF-SCORE:    0.00 PKD
ROOT
HETATM    1  C   UNL     1      -7.990  10.823  62.346  1.00  0.00    -0.215 C  
HETATM    2  C   UNL     1      -8.131   9.706  63.339  1.00  0.00    -0.151 A  
HETATM    3  C   UNL     1      -7.533   8.478  63.014  1.00  0.00    -0.107 A  
HETATM    4  C   UNL     1      -7.689   7.376  63.844  1.00  0.00    -0.124 A  
HETATM    5  C   UNL     1      -8.456   7.518  64.986  1.00  0.00     0.005 A  
HETATM    6  N   UNL     1      -8.993   8.695  65.340  1.00  0.00    -0.169 NA 
HETATM    7  C   UNL     1      -8.827   9.795  64.552  1.00  0.00    -0.216 A  
ENDROOT
BRANCH   5   8
HETATM    8  N   UNL     1      -8.663   6.375  65.762  1.00  0.00    -0.202 N  
HETATM    9  C   UNL     1      -7.892   5.998  66.835  1.00  0.00    -0.101 C  
HETATM   10  H   UNL     1      -9.449   5.773  65.513  1.00  0.00     0.000 HD 
HETATM   11  O   UNL     1      -6.928   6.568  67.324  1.00  0.00    -0.070 OA 
BRANCH   9  12
HETATM   12  C   UNL     1      -8.343   4.678  67.434  1.00  0.00    -0.104 C  
HETATM   13  C   UNL     1      -7.634   3.400  66.996  1.00  0.00    -0.079 C  
HETATM   14  C   UNL     1      -9.003   3.695  66.475  1.00  0.00    -0.152 C  
BRANCH  12  15
HETATM   15  C   UNL     1      -8.883   4.795  68.860  1.00  0.00    -0.120 A  
HETATM   16  C   UNL     1      -9.412   3.670  70.994  1.00  0.00    -0.234 A  
HETATM   17  C   UNL     1      -8.774   3.693  69.749  1.00  0.00    -0.126 A  
HETATM   18  C   UNL     1     -10.155   4.772  71.345  1.00  0.00    -0.189 A  
HETATM   19  O   UNL     1     -10.891   4.906  72.480  1.00  0.00    -0.211 OA 
HETATM   20  C   UNL     1     -11.477   6.190  72.241  1.00  0.00    -0.312 C  
HETATM   21  F   UNL     1     -12.827   6.047  72.179  1.00  0.00    -0.321 F  
HETATM   22  F   UNL     1     -11.202   6.993  73.298  1.00  0.00    -0.291 F  
HETATM   23  O   UNL     1     -11.038   6.844  71.044  1.00  0.00    -0.246 OA 
HETATM   24  C   UNL     1     -10.243   5.870  70.524  1.00  0.00    -0.211 A  
HETATM   25  C   UNL     1      -9.617   5.917  69.294  1.00  0.00    -0.172 A  
ENDBRANCH  12  15
ENDBRANCH   9  12
ENDBRANCH   5   8
BRANCH   7  26
HETATM   26  C   UNL     1      -9.466  11.015  65.125  1.00  0.00    -0.265 A  
HETATM   27  C   UNL     1      -8.823  11.746  66.148  1.00  0.00    -0.107 A  
HETATM   28  C   UNL     1     -11.260  12.694  65.222  1.00  0.00    -0.335 A  
HETATM   29  O   UNL     1     -12.783  14.453  64.718  1.00  0.00    -0.635 OA 
HETATM   30  C   UNL     1     -10.684  11.539  64.662  1.00  0.00    -0.379 A  
HETATM   31  C   UNL     1     -10.612  13.370  66.257  1.00  0.00    -0.292 A  
HETATM   32  C   UNL     1     -12.587  13.118  64.707  1.00  0.00    -0.364 C  
HETATM   33  O   UNL     1     -13.411  12.328  64.285  1.00  0.00    -0.653 OA 
HETATM   34  C   UNL     1      -9.381  12.905  66.706  1.00  0.00    -0.243 A  
ENDBRANCH   7  26
TORSDOF 4
ENDMDL
MODEL      119
REMARK 921   NORMALIZED FREE ENERGY PREDICTED BY IDOCK:   -6.03 KCAL/MOL
REMARK 922        TOTAL FREE ENERGY PREDICTED BY IDOCK:   -8.59 KCAL/MOL
REMARK 923 INTER-LIGAND FREE ENERGY PREDICTED BY IDOCK:   -8.08 KCAL/MOL
REMARK 924 INTRA-LIGAND FREE ENERGY PREDICTED BY IDOCK:   -0.50 KCAL/MOL
REMARK 927      BINDING AFFINITY PREDICTED BY RF-SCORE:    0.00 PKD
ROOT
HETATM    1  C   UNL     1     -13.827   9.217  72.344  1.00  0.00    -0.484 C  
HETATM    2  C   UNL     1     -12.814   8.644  71.396  1.00  0.00    -0.294 A  
HETATM    3  C   UNL     1     -12.661   7.248  71.384  1.00  0.00    -0.423 A  
HETATM    4  C   UNL     1     -11.688   6.652  70.594  1.00  0.00    -0.452 A  
HETATM    5  C   UNL     1     -10.871   7.467  69.833  1.00  0.00    -0.240 A  
HETATM    6  N   UNL     1     -11.035   8.798  69.790  1.00  0.00    -0.190 NA 
HETATM    7  C   UNL     1     -12.003   9.399  70.537  1.00  0.00    -0.097 A  
ENDROOT
BRANCH   5   8
HETATM    8  N   UNL     1      -9.848   6.849  69.107  1.00  0.00    -0.154 N  
HETATM    9  C   UNL     1      -8.506   6.985  69.363  1.00  0.00    -0.133 C  
HETATM   10  H   UNL     1     -10.120   6.250  68.327  1.00  0.00     0.000 HD 
HETATM   11  O   UNL     1      -7.954   7.623  70.248  1.00  0.00    -0.098 OA 
BRANCH   9  12
HETATM   12  C   UNL     1      -7.649   6.231  68.362  1.00  0.00    -0.096 C  
HETATM   13  C   UNL     1      -7.267   4.786  68.672  1.00  0.00    -0.057 C  
HETATM   14  C   UNL     1      -6.243   5.864  68.821  1.00  0.00    -0.032 C  
BRANCH  12  15
HETATM   15  C   UNL     1      -7.864   6.664  66.911  1.00  0.00    -0.108 A  
HETATM   16  C   UNL     1      -7.445   6.229  64.516  1.00  0.00    -0.087 A  
HETATM   17  C   UNL     1      -7.451   5.812  65.852  1.00  0.00    -0.078 A  
HETATM   18  C   UNL     1      -7.869   7.509  64.250  1.00  0.00    -0.133 A  
HETATM   19  O   UNL     1      -7.876   8.107  63.029  1.00  0.00    -0.134 OA 
HETATM   20  C   UNL     1      -8.332   9.413  63.400  1.00  0.00    -0.188 C  
HETATM   21  F   UNL     1      -7.361  10.314  63.096  1.00  0.00    -0.134 F  
HETATM   22  F   UNL     1      -9.419   9.719  62.651  1.00  0.00    -0.286 F  
HETATM   23  O   UNL     1      -8.671   9.568  64.784  1.00  0.00    -0.172 OA 
HETATM   24  C   UNL     1      -8.314   8.340  65.249  1.00  0.00    -0.166 A  
HETATM   25  C   UNL     1      -8.334   7.949  66.574  1.00  0.00    -0.127 A  
ENDBRANCH  12  15
ENDBRANCH   9  12
ENDBRANCH   5   8
BRANCH   7  26
HETATM   26  C   UNL     1     -12.054  10.876  70.334  1.00  0.00    -0.453 A  
HETATM   27  C   UNL     1     -11.477  11.459  69.184  1.00  0.00    -0.365 A  
HETATM   28  C   UNL     1     -12.740  13.144  70.990  1.00  0.00    -0.361 A  
HETATM   29  O   UNL     1     -13.998  15.092  71.530  1.00  0.00    -0.444 OA 
HETATM   30  C   UNL     1     -12.709  11.756  71.212  1.00  0.00    -0.420 A  
HETATM   31  C   UNL     1     -12.128  13.689  69.860  1.00  0.00    -0.406 A  
HETATM   32  C   UNL     1     -13.396  13.989  72.020  1.00  0.00    -0.427 C  
HETATM   33  O   UNL     1     -13.413  13.692  73.201  1.00  0.00    -0.488 OA 
HETATM   34  C   UNL     1     -11.512  12.841  68.947  1.00  0.00    -0.352 A  
ENDBRANCH   7  26
TORSDOF 4
ENDMDL
MODEL      120
REMARK 921   NORMALIZED FREE ENERGY PREDICTED BY IDOCK:   -6.03 KCAL/MOL
REMARK 922        TOTAL FREE ENERGY PREDICTED BY IDOCK:   -8.58 KCAL/MOL
REMARK 923 INTER-LIGAND FREE ENERGY PREDICTED BY IDOCK:   -8.31 KCAL/MOL
REMARK 924 INTRA-LIGAND FREE ENERGY PREDICTED BY IDOCK:   -0.27 KCAL/MOL
REMARK 927      BINDING AFFINITY PREDICTED BY RF-SCORE:    0.00 PKD
ROOT
HETATM    1  C   UNL     1      -7.047   8.058  70.089  1.00  0.00    -0.049 C  
HETATM    2  C   UNL     1      -7.657   9.224  69.367  1.00  0.00    -0.080 A  
HETATM    3  C   UNL     1      -6.886   9.836  68.365  1.00  0.00    -0.060 A  
HETATM    4  C   UNL     1      -7.351  10.969  67.711  1.00  0.00    -0.093 A  
HETATM    5  C   UNL     1      -8.580  11.482  68.080  1.00  0.00    -0.156 A  
HETATM    6  N   UNL     1      -9.353  10.884  68.999  1.00  0.00    -0.169 NA 
HETATM    7  C   UNL     1      -8.927   9.755  69.632  1.00  0.00    -0.215 A  
ENDROOT
BRANCH   5   8
HETATM    8  N   UNL     1      -8.989  12.668  67.464  1.00  0.00    -0.177 N  
HETATM    9  C   UNL     1      -9.991  13.490  67.919  1.00  0.00    -0.245 C  
HETATM   10  H   UNL     1      -8.505  12.945  66.609  1.00  0.00     0.000 HD 
HETATM   11  O   UNL     1     -10.683  13.374  68.920  1.00  0.00    -0.242 OA 
BRANCH   9  12
HETATM   12  C   UNL     1     -10.232  14.670  66.995  1.00  0.00    -0.261 C  
HETATM   13  C   UNL     1     -11.395  14.599  66.011  1.00  0.00    -0.344 C  
HETATM   14  C   UNL     1      -9.999  14.421  65.510  1.00  0.00    -0.359 C  
BRANCH  12  15
HETATM   15  C   UNL     1      -9.824  16.018  67.592  1.00  0.00    -0.235 A  
HETATM   16  C   UNL     1     -10.348  18.412  67.899  1.00  0.00    -0.425 A  
HETATM   17  C   UNL     1     -10.728  17.113  67.545  1.00  0.00    -0.276 A  
HETATM   18  C   UNL     1      -9.051  18.603  68.312  1.00  0.00    -0.322 A  
HETATM   19  O   UNL     1      -8.486  19.796  68.636  1.00  0.00    -0.293 OA 
HETATM   20  C   UNL     1      -7.145  19.368  68.897  1.00  0.00    -0.358 C  
HETATM   21  F   UNL     1      -6.315  19.974  68.007  1.00  0.00    -0.241 F  
HETATM   22  F   UNL     1      -6.790  19.791  70.135  1.00  0.00    -0.344 F  
HETATM   23  O   UNL     1      -6.933  17.953  68.818  1.00  0.00    -0.244 OA 
HETATM   24  C   UNL     1      -8.167  17.555  68.409  1.00  0.00    -0.278 A  
HETATM   25  C   UNL     1      -8.522  16.264  68.071  1.00  0.00    -0.174 A  
ENDBRANCH  12  15
ENDBRANCH   9  12
ENDBRANCH   5   8
BRANCH   7  26
HETATM   26  C   UNL     1      -9.934   9.218  70.592  1.00  0.00    -0.336 A  
HETATM   27  C   UNL     1     -11.307   9.509  70.426  1.00  0.00    -0.318 A  
HETATM   28  C   UNL     1     -10.582   7.874  72.546  1.00  0.00    -0.378 A  
HETATM   29  O   UNL     1     -10.992   6.087  74.065  1.00  0.00    -0.034 OA 
HETATM   30  C   UNL     1      -9.608   8.365  71.659  1.00  0.00    -0.288 A  
HETATM   31  C   UNL     1     -11.925   8.212  72.371  1.00  0.00    -0.431 A  
HETATM   32  C   UNL     1     -10.117   7.040  73.684  1.00  0.00    -0.338 C  
HETATM   33  O   UNL     1      -9.026   7.188  74.204  1.00  0.00    -0.188 OA 
HETATM   34  C   UNL     1     -12.289   9.015  71.297  1.00  0.00    -0.361 A  
ENDBRANCH   7  26
TORSDOF 4
ENDMDL
MODEL      121
REMARK 921   NORMALIZED FREE ENERGY PREDICTED BY IDOCK:   -6.03 KCAL/MOL
REMARK 922        TOTAL FREE ENERGY PREDICTED BY IDOCK:   -8.58 KCAL/MOL
REMARK 923 INTER-LIGAND FREE ENERGY PREDICTED BY IDOCK:   -8.10 KCAL/MOL
REMARK 924 INTRA-LIGAND FREE ENERGY PREDICTED BY IDOCK:   -0.49 KCAL/MOL
REMARK 927      BINDING AFFINITY PREDICTED BY RF-SCORE:    0.00 PKD
ROOT
HETATM    1  C   UNL     1      -9.216   1.976  67.534  1.00  0.00    -0.166 C  
HETATM    2  C   UNL     1      -9.105   3.414  67.119  1.00  0.00    -0.196 A  
HETATM    3  C   UNL     1      -8.837   3.675  65.766  1.00  0.00    -0.127 A  
HETATM    4  C   UNL     1      -8.640   4.976  65.324  1.00  0.00    -0.145 A  
HETATM    5  C   UNL     1      -8.703   6.001  66.250  1.00  0.00    -0.138 A  
HETATM    6  N   UNL     1      -9.009   5.777  67.537  1.00  0.00    -0.109 NA 
HETATM    7  C   UNL     1      -9.233   4.510  67.985  1.00  0.00    -0.132 A  
ENDROOT
BRANCH   5   8
HETATM    8  N   UNL     1      -8.424   7.292  65.795  1.00  0.00    -0.142 N  
HETATM    9  C   UNL     1      -9.208   8.396  66.022  1.00  0.00    -0.187 C  
HETATM   10  H   UNL     1      -7.570   7.425  65.252  1.00  0.00     0.000 HD 
HETATM   11  O   UNL     1     -10.249   8.481  66.657  1.00  0.00    -0.288 OA 
BRANCH   9  12
HETATM   12  C   UNL     1      -8.660   9.641  65.348  1.00  0.00    -0.167 C  
HETATM   13  C   UNL     1      -7.396   9.515  64.502  1.00  0.00    -0.114 C  
HETATM   14  C   UNL     1      -7.314  10.143  65.855  1.00  0.00    -0.121 C  
BRANCH  12  15
HETATM   15  C   UNL     1      -9.732  10.662  64.962  1.00  0.00    -0.336 A  
HETATM   16  C   UNL     1     -11.049  11.733  63.169  1.00  0.00    -0.251 A  
HETATM   17  C   UNL     1     -10.215  10.707  63.627  1.00  0.00    -0.236 A  
HETATM   18  C   UNL     1     -11.405  12.710  64.067  1.00  0.00    -0.407 A  
HETATM   19  O   UNL     1     -12.153  13.811  63.791  1.00  0.00    -0.494 OA 
HETATM   20  C   UNL     1     -12.109  14.462  65.066  1.00  0.00    -0.415 C  
HETATM   21  F   UNL     1     -11.493  15.665  64.918  1.00  0.00    -0.359 F  
HETATM   22  F   UNL     1     -13.380  14.704  65.471  1.00  0.00    -0.291 F  
HETATM   23  O   UNL     1     -11.431  13.733  66.097  1.00  0.00    -0.322 OA 
HETATM   24  C   UNL     1     -10.988  12.668  65.376  1.00  0.00    -0.286 A  
HETATM   25  C   UNL     1     -10.170  11.663  65.852  1.00  0.00    -0.277 A  
ENDBRANCH  12  15
ENDBRANCH   9  12
ENDBRANCH   5   8
BRANCH   7  26
HETATM   26  C   UNL     1      -9.591   4.465  69.432  1.00  0.00    -0.269 A  
HETATM   27  C   UNL     1      -9.122   3.414  70.252  1.00  0.00    -0.201 A  
HETATM   28  C   UNL     1     -10.663   5.390  71.442  1.00  0.00    -0.258 A  
HETATM   29  O   UNL     1     -11.269   6.762  73.291  1.00  0.00    -0.189 OA 
HETATM   30  C   UNL     1     -10.344   5.461  70.074  1.00  0.00    -0.366 A  
HETATM   31  C   UNL     1     -10.212   4.318  72.213  1.00  0.00    -0.244 A  
HETATM   32  C   UNL     1     -11.528   6.460  72.002  1.00  0.00    -0.305 C  
HETATM   33  O   UNL     1     -12.375   7.033  71.342  1.00  0.00    -0.339 OA 
HETATM   34  C   UNL     1      -9.423   3.339  71.619  1.00  0.00    -0.220 A  
ENDBRANCH   7  26
TORSDOF 4
ENDMDL
MODEL      122
REMARK 921   NORMALIZED FREE ENERGY PREDICTED BY IDOCK:   -6.03 KCAL/MOL
REMARK 922        TOTAL FREE ENERGY PREDICTED BY IDOCK:   -8.58 KCAL/MOL
REMARK 923 INTER-LIGAND FREE ENERGY PREDICTED BY IDOCK:   -7.72 KCAL/MOL
REMARK 924 INTRA-LIGAND FREE ENERGY PREDICTED BY IDOCK:   -0.87 KCAL/MOL
REMARK 927      BINDING AFFINITY PREDICTED BY RF-SCORE:    0.00 PKD
ROOT
HETATM    1  C   UNL     1     -12.308  14.148  64.153  1.00  0.00    -0.372 C  
HETATM    2  C   UNL     1     -11.328  13.150  64.699  1.00  0.00    -0.363 A  
HETATM    3  C   UNL     1     -10.875  12.148  63.825  1.00  0.00    -0.490 A  
HETATM    4  C   UNL     1     -10.032  11.144  64.281  1.00  0.00    -0.359 A  
HETATM    5  C   UNL     1      -9.662  11.151  65.613  1.00  0.00    -0.225 A  
HETATM    6  N   UNL     1     -10.042  12.128  66.451  1.00  0.00    -0.216 NA 
HETATM    7  C   UNL     1     -10.847  13.138  66.016  1.00  0.00    -0.272 A  
ENDROOT
BRANCH   5   8
HETATM    8  N   UNL     1      -8.878  10.087  66.064  1.00  0.00    -0.142 N  
HETATM    9  C   UNL     1      -9.012   9.468  67.283  1.00  0.00    -0.131 C  
HETATM   10  H   UNL     1      -8.148   9.741  65.440  1.00  0.00     0.000 HD 
HETATM   11  O   UNL     1      -9.821   9.693  68.172  1.00  0.00    -0.144 OA 
BRANCH   9  12
HETATM   12  C   UNL     1      -7.973   8.383  67.497  1.00  0.00    -0.106 C  
HETATM   13  C   UNL     1      -7.430   8.160  68.905  1.00  0.00    -0.089 C  
HETATM   14  C   UNL     1      -6.579   8.855  67.893  1.00  0.00    -0.061 C  
BRANCH  12  15
HETATM   15  C   UNL     1      -8.108   7.197  66.540  1.00  0.00    -0.114 A  
HETATM   16  C   UNL     1      -7.469   6.163  64.390  1.00  0.00    -0.080 A  
HETATM   17  C   UNL     1      -7.268   7.113  65.397  1.00  0.00    -0.070 A  
HETATM   18  C   UNL     1      -8.517   5.286  64.545  1.00  0.00    -0.133 A  
HETATM   19  O   UNL     1      -8.902   4.340  63.649  1.00  0.00    -0.118 OA 
HETATM   20  C   UNL     1     -10.058   3.824  64.319  1.00  0.00    -0.218 C  
HETATM   21  F   UNL     1     -11.148   4.051  63.541  1.00  0.00    -0.225 F  
HETATM   22  F   UNL     1      -9.920   2.482  64.445  1.00  0.00    -0.150 F  
HETATM   23  O   UNL     1     -10.306   4.382  65.616  1.00  0.00    -0.257 OA 
HETATM   24  C   UNL     1      -9.318   5.316  65.661  1.00  0.00    -0.114 A  
HETATM   25  C   UNL     1      -9.135   6.242  66.670  1.00  0.00    -0.152 A  
ENDBRANCH  12  15
ENDBRANCH   9  12
ENDBRANCH   5   8
BRANCH   7  26
HETATM   26  C   UNL     1     -11.134  14.144  67.078  1.00  0.00    -0.314 A  
HETATM   27  C   UNL     1     -11.797  13.761  68.265  1.00  0.00    -0.413 A  
HETATM   28  C   UNL     1     -11.012  16.411  68.024  1.00  0.00    -0.327 A  
HETATM   29  O   UNL     1     -10.256  18.476  68.937  1.00  0.00    -0.374 OA 
HETATM   30  C   UNL     1     -10.727  15.486  67.003  1.00  0.00    -0.321 A  
HETATM   31  C   UNL     1     -11.701  16.003  69.167  1.00  0.00    -0.310 A  
HETATM   32  C   UNL     1     -10.600  17.821  67.809  1.00  0.00    -0.386 C  
HETATM   33  O   UNL     1     -10.549  18.329  66.703  1.00  0.00    -0.364 OA 
HETATM   34  C   UNL     1     -12.077  14.671  69.295  1.00  0.00    -0.307 A  
ENDBRANCH   7  26
TORSDOF 4
ENDMDL
MODEL      123
REMARK 921   NORMALIZED FREE ENERGY PREDICTED BY IDOCK:   -6.03 KCAL/MOL
REMARK 922        TOTAL FREE ENERGY PREDICTED BY IDOCK:   -8.58 KCAL/MOL
REMARK 923 INTER-LIGAND FREE ENERGY PREDICTED BY IDOCK:   -8.30 KCAL/MOL
REMARK 924 INTRA-LIGAND FREE ENERGY PREDICTED BY IDOCK:   -0.28 KCAL/MOL
REMARK 927      BINDING AFFINITY PREDICTED BY RF-SCORE:    0.00 PKD
ROOT
HETATM    1  C   UNL     1      -7.042   8.079  70.078  1.00  0.00    -0.049 C  
HETATM    2  C   UNL     1      -7.730   9.227  69.399  1.00  0.00    -0.082 A  
HETATM    3  C   UNL     1      -7.042   9.862  68.353  1.00  0.00    -0.072 A  
HETATM    4  C   UNL     1      -7.579  10.982  67.732  1.00  0.00    -0.099 A  
HETATM    5  C   UNL     1      -8.798  11.458  68.179  1.00  0.00    -0.162 A  
HETATM    6  N   UNL     1      -9.494  10.836  69.142  1.00  0.00    -0.173 NA 
HETATM    7  C   UNL     1      -8.996   9.719  69.744  1.00  0.00    -0.221 A  
ENDROOT
BRANCH   5   8
HETATM    8  N   UNL     1      -9.279  12.632  67.593  1.00  0.00    -0.184 N  
HETATM    9  C   UNL     1     -10.225  13.461  68.146  1.00  0.00    -0.246 C  
HETATM   10  H   UNL     1      -8.899  12.893  66.683  1.00  0.00     0.000 HD 
HETATM   11  O   UNL     1     -10.795  13.363  69.223  1.00  0.00    -0.167 OA 
BRANCH   9  12
HETATM   12  C   UNL     1     -10.575  14.624  67.236  1.00  0.00    -0.284 C  
HETATM   13  C   UNL     1     -11.875  14.560  66.439  1.00  0.00    -0.361 C  
HETATM   14  C   UNL     1     -10.574  14.331  65.740  1.00  0.00    -0.315 C  
BRANCH  12  15
HETATM   15  C   UNL     1     -10.051  15.975  67.725  1.00  0.00    -0.243 A  
HETATM   16  C   UNL     1     -10.287  18.433  67.723  1.00  0.00    -0.428 A  
HETATM   17  C   UNL     1     -10.799  17.156  67.471  1.00  0.00    -0.203 A  
HETATM   18  C   UNL     1      -9.018  18.516  68.244  1.00  0.00    -0.310 A  
HETATM   19  O   UNL     1      -8.334  19.664  68.495  1.00  0.00    -0.339 OA 
HETATM   20  C   UNL     1      -7.087  19.115  68.936  1.00  0.00    -0.337 C  
HETATM   21  F   UNL     1      -6.111  19.509  68.076  1.00  0.00    -0.210 F  
HETATM   22  F   UNL     1      -6.792  19.634  70.152  1.00  0.00    -0.315 F  
HETATM   23  O   UNL     1      -7.054  17.685  69.029  1.00  0.00    -0.250 OA 
HETATM   24  C   UNL     1      -8.288  17.390  68.540  1.00  0.00    -0.271 A  
HETATM   25  C   UNL     1      -8.775  16.119  68.306  1.00  0.00    -0.180 A  
ENDBRANCH  12  15
ENDBRANCH   9  12
ENDBRANCH   5   8
BRANCH   7  26
HETATM   26  C   UNL     1      -9.925   9.152  70.763  1.00  0.00    -0.334 A  
HETATM   27  C   UNL     1      -9.428   8.352  71.817  1.00  0.00    -0.302 A  
HETATM   28  C   UNL     1     -12.154   8.862  71.759  1.00  0.00    -0.432 A  
HETATM   29  O   UNL     1     -14.254   9.221  72.824  1.00  0.00    -0.502 OA 
HETATM   30  C   UNL     1     -11.305   9.411  70.782  1.00  0.00    -0.363 A  
HETATM   31  C   UNL     1     -11.632   8.047  72.765  1.00  0.00    -0.390 A  
HETATM   32  C   UNL     1     -13.608   9.141  71.642  1.00  0.00    -0.390 C  
HETATM   33  O   UNL     1     -14.160   9.313  70.570  1.00  0.00     0.276 OA 
HETATM   34  C   UNL     1     -10.263   7.808  72.804  1.00  0.00    -0.360 A  
ENDBRANCH   7  26
TORSDOF 4
ENDMDL
MODEL      124
REMARK 921   NORMALIZED FREE ENERGY PREDICTED BY IDOCK:   -5.97 KCAL/MOL
REMARK 922        TOTAL FREE ENERGY PREDICTED BY IDOCK:   -8.50 KCAL/MOL
REMARK 923 INTER-LIGAND FREE ENERGY PREDICTED BY IDOCK:   -7.60 KCAL/MOL
REMARK 924 INTRA-LIGAND FREE ENERGY PREDICTED BY IDOCK:   -0.90 KCAL/MOL
REMARK 927      BINDING AFFINITY PREDICTED BY RF-SCORE:    0.00 PKD
ROOT
HETATM    1  C   UNL     1      -6.877   7.333  67.701  1.00  0.00    -0.074 C  
HETATM    2  C   UNL     1      -7.736   8.507  68.071  1.00  0.00    -0.103 A  
HETATM    3  C   UNL     1      -7.518   9.708  67.378  1.00  0.00    -0.091 A  
HETATM    4  C   UNL     1      -8.217  10.857  67.721  1.00  0.00    -0.116 A  
HETATM    5  C   UNL     1      -9.120  10.789  68.766  1.00  0.00    -0.178 A  
HETATM    6  N   UNL     1      -9.381   9.639  69.406  1.00  0.00    -0.180 NA 
HETATM    7  C   UNL     1      -8.725   8.494  69.065  1.00  0.00    -0.134 A  
ENDROOT
BRANCH   5   8
HETATM    8  N   UNL     1      -9.752  11.977  69.143  1.00  0.00    -0.348 N  
HETATM    9  C   UNL     1     -11.086  12.252  68.965  1.00  0.00    -0.236 C  
HETATM   10  H   UNL     1      -9.178  12.695  69.585  1.00  0.00     0.000 HD 
HETATM   11  O   UNL     1     -11.959  11.543  68.486  1.00  0.00    -0.472 OA 
BRANCH   9  12
HETATM   12  C   UNL     1     -11.453  13.650  69.430  1.00  0.00    -0.343 C  
HETATM   13  C   UNL     1     -11.289  13.992  70.908  1.00  0.00     0.398 C  
HETATM   14  C   UNL     1     -12.658  13.756  70.357  1.00  0.00    -0.325 C  
BRANCH  12  15
HETATM   15  C   UNL     1     -11.236  14.733  68.372  1.00  0.00    -0.298 A  
HETATM   16  C   UNL     1     -10.600  15.290  66.051  1.00  0.00    -0.327 A  
HETATM   17  C   UNL     1     -10.992  14.362  67.023  1.00  0.00    -0.304 A  
HETATM   18  C   UNL     1     -10.466  16.600  66.444  1.00  0.00    -0.266 A  
HETATM   19  O   UNL     1     -10.039  17.626  65.661  1.00  0.00    -0.575 OA 
HETATM   20  C   UNL     1     -10.035  18.685  66.626  1.00  0.00    -0.365 C  
HETATM   21  F   UNL     1      -8.763  19.141  66.765  1.00  0.00    -0.268 F  
HETATM   22  F   UNL     1     -10.784  19.707  66.147  1.00  0.00    -0.509 F  
HETATM   23  O   UNL     1     -10.529  18.325  67.923  1.00  0.00    -0.381 OA 
HETATM   24  C   UNL     1     -10.738  16.995  67.732  1.00  0.00    -0.318 A  
HETATM   25  C   UNL     1     -11.132  16.098  68.706  1.00  0.00    -0.354 A  
ENDBRANCH  12  15
ENDBRANCH   9  12
ENDBRANCH   5   8
BRANCH   7  26
HETATM   26  C   UNL     1      -9.171   7.315  69.863  1.00  0.00    -0.141 A  
HETATM   27  C   UNL     1     -10.482   6.809  69.718  1.00  0.00    -0.240 A  
HETATM   28  C   UNL     1      -8.780   5.503  71.477  1.00  0.00    -0.138 A  
HETATM   29  O   UNL     1      -7.988   3.548  72.582  1.00  0.00    -0.069 OA 
HETATM   30  C   UNL     1      -8.329   6.612  70.741  1.00  0.00    -0.129 A  
HETATM   31  C   UNL     1     -10.094   5.053  71.335  1.00  0.00    -0.268 A  
HETATM   32  C   UNL     1      -7.829   4.879  72.432  1.00  0.00    -0.093 C  
HETATM   33  O   UNL     1      -6.962   5.514  73.004  1.00  0.00    -0.076 OA 
HETATM   34  C   UNL     1     -10.939   5.696  70.439  1.00  0.00    -0.278 A  
ENDBRANCH   7  26
TORSDOF 4
ENDMDL
MODEL      125
REMARK 921   NORMALIZED FREE ENERGY PREDICTED BY IDOCK:   -5.95 KCAL/MOL
REMARK 922        TOTAL FREE ENERGY PREDICTED BY IDOCK:   -8.48 KCAL/MOL
REMARK 923 INTER-LIGAND FREE ENERGY PREDICTED BY IDOCK:   -7.51 KCAL/MOL
REMARK 924 INTRA-LIGAND FREE ENERGY PREDICTED BY IDOCK:   -0.97 KCAL/MOL
REMARK 927      BINDING AFFINITY PREDICTED BY RF-SCORE:    0.00 PKD
ROOT
HETATM    1  C   UNL     1     -11.610  11.602  63.882  1.00  0.00    -0.403 C  
HETATM    2  C   UNL     1     -10.796  12.304  64.929  1.00  0.00    -0.342 A  
HETATM    3  C   UNL     1     -10.824  13.708  64.933  1.00  0.00    -0.382 A  
HETATM    4  C   UNL     1     -10.034  14.427  65.819  1.00  0.00    -0.354 A  
HETATM    5  C   UNL     1      -9.213  13.727  66.683  1.00  0.00    -0.223 A  
HETATM    6  N   UNL     1      -9.209  12.386  66.731  1.00  0.00    -0.208 NA 
HETATM    7  C   UNL     1      -9.999  11.663  65.889  1.00  0.00    -0.231 A  
ENDROOT
BRANCH   5   8
HETATM    8  N   UNL     1      -8.369  14.475  67.509  1.00  0.00    -0.175 N  
HETATM    9  C   UNL     1      -7.027  14.242  67.685  1.00  0.00    -0.184 C  
HETATM   10  H   UNL     1      -8.782  15.254  68.022  1.00  0.00     0.000 HD 
HETATM   11  O   UNL     1      -6.321  13.391  67.163  1.00  0.00    -0.238 OA 
BRANCH   9  12
HETATM   12  C   UNL     1      -6.403  15.193  68.690  1.00  0.00    -0.088 C  
HETATM   13  C   UNL     1      -5.300  14.667  69.603  1.00  0.00    -0.092 C  
HETATM   14  C   UNL     1      -6.669  14.889  70.159  1.00  0.00    -0.117 C  
BRANCH  12  15
HETATM   15  C   UNL     1      -6.376  16.652  68.229  1.00  0.00    -0.136 A  
HETATM   16  C   UNL     1      -6.533  19.039  68.840  1.00  0.00    -0.290 A  
HETATM   17  C   UNL     1      -6.367  17.696  69.192  1.00  0.00    -0.232 A  
HETATM   18  C   UNL     1      -6.698  19.329  67.507  1.00  0.00    -0.195 A  
HETATM   19  O   UNL     1      -6.932  20.562  66.983  1.00  0.00    -0.256 OA 
HETATM   20  C   UNL     1      -7.087  20.215  65.602  1.00  0.00    -0.292 C  
HETATM   21  F   UNL     1      -8.346  20.543  65.211  1.00  0.00    -0.005 F  
HETATM   22  F   UNL     1      -6.227  20.964  64.871  1.00  0.00    -0.278 F  
HETATM   23  O   UNL     1      -6.865  18.833  65.295  1.00  0.00    -0.488 OA 
HETATM   24  C   UNL     1      -6.666  18.344  66.549  1.00  0.00    -0.203 A  
HETATM   25  C   UNL     1      -6.498  17.013  66.873  1.00  0.00    -0.248 A  
ENDBRANCH  12  15
ENDBRANCH   9  12
ENDBRANCH   5   8
BRANCH   7  26
HETATM   26  C   UNL     1      -9.884  10.193  66.112  1.00  0.00    -0.297 A  
HETATM   27  C   UNL     1     -10.684   9.552  67.084  1.00  0.00    -0.252 A  
HETATM   28  C   UNL     1      -8.958   7.975  65.590  1.00  0.00    -0.102 A  
HETATM   29  O   UNL     1      -8.363   5.933  64.519  1.00  0.00    -0.132 OA 
HETATM   30  C   UNL     1      -9.043   9.359  65.356  1.00  0.00    -0.280 A  
HETATM   31  C   UNL     1      -9.739   7.382  66.584  1.00  0.00    -0.262 A  
HETATM   32  C   UNL     1      -7.982   7.200  64.783  1.00  0.00    -0.122 C  
HETATM   33  O   UNL     1      -6.941   7.681  64.371  1.00  0.00    -0.057 OA 
HETATM   34  C   UNL     1     -10.617   8.171  67.318  1.00  0.00    -0.344 A  
ENDBRANCH   7  26
TORSDOF 4
ENDMDL
MODEL      126
REMARK 921   NORMALIZED FREE ENERGY PREDICTED BY IDOCK:   -5.94 KCAL/MOL
REMARK 922        TOTAL FREE ENERGY PREDICTED BY IDOCK:   -8.47 KCAL/MOL
REMARK 923 INTER-LIGAND FREE ENERGY PREDICTED BY IDOCK:   -8.42 KCAL/MOL
REMARK 924 INTRA-LIGAND FREE ENERGY PREDICTED BY IDOCK:   -0.05 KCAL/MOL
REMARK 927      BINDING AFFINITY PREDICTED BY RF-SCORE:    0.00 PKD
ROOT
HETATM    1  C   UNL     1     -12.125   8.651  72.165  1.00  0.00    -0.451 C  
HETATM    2  C   UNL     1     -11.949   9.626  71.038  1.00  0.00    -0.427 A  
HETATM    3  C   UNL     1     -12.439  10.927  71.230  1.00  0.00    -0.493 A  
HETATM    4  C   UNL     1     -12.385  11.860  70.203  1.00  0.00    -0.247 A  
HETATM    5  C   UNL     1     -11.850  11.470  68.989  1.00  0.00    -0.343 A  
HETATM    6  N   UNL     1     -11.330  10.247  68.802  1.00  0.00    -0.206 NA 
HETATM    7  C   UNL     1     -11.348   9.327  69.807  1.00  0.00    -0.005 A  
ENDROOT
BRANCH   5   8
HETATM    8  N   UNL     1     -11.880  12.402  67.948  1.00  0.00    -0.349 N  
HETATM    9  C   UNL     1     -10.788  12.807  67.220  1.00  0.00    -0.251 C  
HETATM   10  H   UNL     1     -12.783  12.812  67.710  1.00  0.00     0.000 HD 
HETATM   11  O   UNL     1      -9.626  12.439  67.310  1.00  0.00    -0.193 OA 
BRANCH   9  12
HETATM   12  C   UNL     1     -11.141  13.872  66.197  1.00  0.00    -0.299 C  
HETATM   13  C   UNL     1     -12.570  13.926  65.666  1.00  0.00    -0.553 C  
HETATM   14  C   UNL     1     -11.486  13.373  64.799  1.00  0.00    -0.359 C  
BRANCH  12  15
HETATM   15  C   UNL     1     -10.336  15.164  66.343  1.00  0.00    -0.292 A  
HETATM   16  C   UNL     1     -10.275  17.624  66.128  1.00  0.00    -0.345 A  
HETATM   17  C   UNL     1     -10.984  16.419  66.194  1.00  0.00     0.052 A  
HETATM   18  C   UNL     1      -8.905  17.559  66.223  1.00  0.00    -0.184 A  
HETATM   19  O   UNL     1      -8.049  18.610  66.119  1.00  0.00    -0.383 OA 
HETATM   20  C   UNL     1      -6.799  17.918  66.218  1.00  0.00    -0.264 C  
HETATM   21  F   UNL     1      -6.109  18.101  65.062  1.00  0.00    -0.235 F  
HETATM   22  F   UNL     1      -6.074  18.477  67.217  1.00  0.00    -0.160 F  
HETATM   23  O   UNL     1      -6.903  16.509  66.462  1.00  0.00    -0.192 OA 
HETATM   24  C   UNL     1      -8.254  16.363  66.411  1.00  0.00    -0.331 A  
HETATM   25  C   UNL     1      -8.934  15.163  66.485  1.00  0.00    -0.326 A  
ENDBRANCH  12  15
ENDBRANCH   9  12
ENDBRANCH   5   8
BRANCH   7  26
HETATM   26  C   UNL     1     -10.696   8.042  69.423  1.00  0.00    -0.167 A  
HETATM   27  C   UNL     1     -10.229   7.843  68.104  1.00  0.00    -0.248 A  
HETATM   28  C   UNL     1      -9.837   5.796  69.934  1.00  0.00    -0.234 A  
HETATM   29  O   UNL     1      -8.599   3.959  70.808  1.00  0.00    -0.069 OA 
HETATM   30  C   UNL     1     -10.456   6.995  70.328  1.00  0.00    -0.227 A  
HETATM   31  C   UNL     1      -9.420   5.622  68.613  1.00  0.00    -0.152 A  
HETATM   32  C   UNL     1      -9.699   4.726  70.955  1.00  0.00    -0.187 C  
HETATM   33  O   UNL     1     -10.496   4.578  71.864  1.00  0.00    -0.166 OA 
HETATM   34  C   UNL     1      -9.599   6.656  67.703  1.00  0.00    -0.135 A  
ENDBRANCH   7  26
TORSDOF 4
ENDMDL
MODEL      127
REMARK 921   NORMALIZED FREE ENERGY PREDICTED BY IDOCK:   -5.94 KCAL/MOL
REMARK 922        TOTAL FREE ENERGY PREDICTED BY IDOCK:   -8.47 KCAL/MOL
REMARK 923 INTER-LIGAND FREE ENERGY PREDICTED BY IDOCK:   -7.87 KCAL/MOL
REMARK 924 INTRA-LIGAND FREE ENERGY PREDICTED BY IDOCK:   -0.60 KCAL/MOL
REMARK 927      BINDING AFFINITY PREDICTED BY RF-SCORE:    0.00 PKD
ROOT
HETATM    1  C   UNL     1     -14.117   9.073  72.702  1.00  0.00    -0.335 C  
HETATM    2  C   UNL     1     -13.042   8.671  71.735  1.00  0.00    -0.396 A  
HETATM    3  C   UNL     1     -12.803   7.298  71.572  1.00  0.00    -0.430 A  
HETATM    4  C   UNL     1     -11.771   6.853  70.757  1.00  0.00    -0.417 A  
HETATM    5  C   UNL     1     -10.983   7.795  70.123  1.00  0.00    -0.241 A  
HETATM    6  N   UNL     1     -11.227   9.111  70.224  1.00  0.00    -0.240 NA 
HETATM    7  C   UNL     1     -12.253   9.565  70.997  1.00  0.00    -0.304 A  
ENDROOT
BRANCH   5   8
HETATM    8  N   UNL     1      -9.902   7.324  69.372  1.00  0.00    -0.162 N  
HETATM    9  C   UNL     1      -8.679   6.968  69.886  1.00  0.00    -0.142 C  
HETATM   10  H   UNL     1     -10.032   7.238  68.364  1.00  0.00     0.000 HD 
HETATM   11  O   UNL     1      -8.307   6.966  71.050  1.00  0.00    -0.123 OA 
BRANCH   9  12
HETATM   12  C   UNL     1      -7.700   6.550  68.804  1.00  0.00    -0.109 C  
HETATM   13  C   UNL     1      -6.239   6.334  69.188  1.00  0.00    -0.033 C  
HETATM   14  C   UNL     1      -6.626   7.568  68.439  1.00  0.00    -0.050 C  
BRANCH  12  15
HETATM   15  C   UNL     1      -8.325   5.704  67.693  1.00  0.00    -0.100 A  
HETATM   16  C   UNL     1      -9.219   3.513  66.987  1.00  0.00    -0.213 A  
HETATM   17  C   UNL     1      -8.813   4.403  67.988  1.00  0.00    -0.125 A  
HETATM   18  C   UNL     1      -9.142   3.945  65.685  1.00  0.00    -0.144 A  
HETATM   19  O   UNL     1      -9.433   3.205  64.582  1.00  0.00    -0.142 OA 
HETATM   20  C   UNL     1      -9.092   4.148  63.559  1.00  0.00    -0.132 C  
HETATM   21  F   UNL     1      -8.076   3.634  62.817  1.00  0.00    -0.067 F  
HETATM   22  F   UNL     1     -10.160   4.298  62.738  1.00  0.00    -0.160 F  
HETATM   23  O   UNL     1      -8.694   5.441  64.033  1.00  0.00    -0.082 OA 
HETATM   24  C   UNL     1      -8.715   5.214  65.374  1.00  0.00    -0.149 A  
HETATM   25  C   UNL     1      -8.315   6.111  66.345  1.00  0.00    -0.120 A  
ENDBRANCH  12  15
ENDBRANCH   9  12
ENDBRANCH   5   8
BRANCH   7  26
HETATM   26  C   UNL     1     -12.389  11.050  70.959  1.00  0.00    -0.490 A  
HETATM   27  C   UNL     1     -12.930  11.747  72.062  1.00  0.00    -0.370 A  
HETATM   28  C   UNL     1     -12.088  13.239  69.880  1.00  0.00    -0.377 A  
HETATM   29  O   UNL     1     -11.169  15.205  68.900  1.00  0.00    -0.254 OA 
HETATM   30  C   UNL     1     -11.948  11.840  69.884  1.00  0.00    -0.405 A  
HETATM   31  C   UNL     1     -12.661  13.890  70.974  1.00  0.00    -0.428 A  
HETATM   32  C   UNL     1     -11.656  13.969  68.662  1.00  0.00    -0.325 C  
HETATM   33  O   UNL     1     -11.710  13.479  67.548  1.00  0.00    -0.324 OA 
HETATM   34  C   UNL     1     -13.065  13.143  72.074  1.00  0.00    -0.476 A  
ENDBRANCH   7  26
TORSDOF 4
ENDMDL
MODEL      128
REMARK 921   NORMALIZED FREE ENERGY PREDICTED BY IDOCK:   -5.92 KCAL/MOL
REMARK 922        TOTAL FREE ENERGY PREDICTED BY IDOCK:   -8.45 KCAL/MOL
REMARK 923 INTER-LIGAND FREE ENERGY PREDICTED BY IDOCK:   -7.84 KCAL/MOL
REMARK 924 INTRA-LIGAND FREE ENERGY PREDICTED BY IDOCK:   -0.61 KCAL/MOL
REMARK 927      BINDING AFFINITY PREDICTED BY RF-SCORE:    0.00 PKD
ROOT
HETATM    1  C   UNL     1      -8.559   8.227  62.928  1.00  0.00     0.072 C  
HETATM    2  C   UNL     1      -9.104   9.494  63.519  1.00  0.00    -0.145 A  
HETATM    3  C   UNL     1      -9.258  10.592  62.658  1.00  0.00    -0.329 A  
HETATM    4  C   UNL     1      -9.679  11.820  63.149  1.00  0.00    -0.321 A  
HETATM    5  C   UNL     1      -9.928  11.935  64.504  1.00  0.00    -0.228 A  
HETATM    6  N   UNL     1      -9.836  10.885  65.335  1.00  0.00    -0.239 NA 
HETATM    7  C   UNL     1      -9.451   9.665  64.867  1.00  0.00    -0.220 A  
ENDROOT
BRANCH   5   8
HETATM    8  N   UNL     1     -10.273  13.201  64.986  1.00  0.00    -0.432 N  
HETATM    9  C   UNL     1      -9.844  13.737  66.175  1.00  0.00    -0.297 C  
HETATM   10  H   UNL     1     -10.892  13.771  64.409  1.00  0.00     0.000 HD 
HETATM   11  O   UNL     1      -9.089  13.253  67.007  1.00  0.00    -0.218 OA 
BRANCH   9  12
HETATM   12  C   UNL     1     -10.441  15.108  66.438  1.00  0.00    -0.300 C  
HETATM   13  C   UNL     1     -11.020  15.888  65.262  1.00  0.00    -0.334 C  
HETATM   14  C   UNL     1      -9.699  16.292  65.830  1.00  0.00    -0.354 C  
BRANCH  12  15
HETATM   15  C   UNL     1     -11.061  15.258  67.828  1.00  0.00    -0.318 A  
HETATM   16  C   UNL     1     -10.969  16.323  70.054  1.00  0.00    -0.356 A  
HETATM   17  C   UNL     1     -10.577  16.258  68.712  1.00  0.00    -0.298 A  
HETATM   18  C   UNL     1     -11.862  15.379  70.500  1.00  0.00    -0.339 A  
HETATM   19  O   UNL     1     -12.309  15.246  71.777  1.00  0.00    -0.307 OA 
HETATM   20  C   UNL     1     -13.123  14.077  71.631  1.00  0.00    -0.359 C  
HETATM   21  F   UNL     1     -12.612  13.091  72.414  1.00  0.00    -0.198 F  
HETATM   22  F   UNL     1     -14.367  14.357  72.090  1.00  0.00    -0.499 F  
HETATM   23  O   UNL     1     -13.232  13.577  70.292  1.00  0.00     0.191 OA 
HETATM   24  C   UNL     1     -12.381  14.426  69.656  1.00  0.00    -0.255 A  
HETATM   25  C   UNL     1     -12.013  14.347  68.327  1.00  0.00    -0.323 A  
ENDBRANCH  12  15
ENDBRANCH   9  12
ENDBRANCH   5   8
BRANCH   7  26
HETATM   26  C   UNL     1      -9.439   8.618  65.929  1.00  0.00    -0.243 A  
HETATM   27  C   UNL     1     -10.466   8.571  66.898  1.00  0.00    -0.345 A  
HETATM   28  C   UNL     1      -8.489   6.629  67.018  1.00  0.00    -0.113 A  
HETATM   29  O   UNL     1      -7.724   4.428  67.506  1.00  0.00    -0.083 OA 
HETATM   30  C   UNL     1      -8.471   7.603  66.005  1.00  0.00    -0.149 A  
HETATM   31  C   UNL     1      -9.501   6.636  67.980  1.00  0.00    -0.118 A  
HETATM   32  C   UNL     1      -7.375   5.648  67.047  1.00  0.00    -0.080 C  
HETATM   33  O   UNL     1      -6.252   5.916  66.661  1.00  0.00    -0.031 OA 
HETATM   34  C   UNL     1     -10.502   7.597  67.907  1.00  0.00    -0.270 A  
ENDBRANCH   7  26
TORSDOF 4
ENDMDL
MODEL      129
REMARK 921   NORMALIZED FREE ENERGY PREDICTED BY IDOCK:   -5.89 KCAL/MOL
REMARK 922        TOTAL FREE ENERGY PREDICTED BY IDOCK:   -8.41 KCAL/MOL
REMARK 923 INTER-LIGAND FREE ENERGY PREDICTED BY IDOCK:   -7.87 KCAL/MOL
REMARK 924 INTRA-LIGAND FREE ENERGY PREDICTED BY IDOCK:   -0.54 KCAL/MOL
REMARK 927      BINDING AFFINITY PREDICTED BY RF-SCORE:    0.00 PKD
ROOT
HETATM    1  C   UNL     1      -9.019   9.367  62.334  1.00  0.00    -0.258 C  
HETATM    2  C   UNL     1      -9.407  10.129  63.569  1.00  0.00    -0.333 A  
HETATM    3  C   UNL     1      -9.885  11.437  63.394  1.00  0.00    -0.422 A  
HETATM    4  C   UNL     1     -10.186  12.230  64.493  1.00  0.00    -0.322 A  
HETATM    5  C   UNL     1      -9.990  11.703  65.756  1.00  0.00    -0.237 A  
HETATM    6  N   UNL     1      -9.583  10.439  65.944  1.00  0.00    -0.193 NA 
HETATM    7  C   UNL     1      -9.310   9.635  64.877  1.00  0.00    -0.242 A  
ENDROOT
BRANCH   5   8
HETATM    8  N   UNL     1     -10.225  12.548  66.845  1.00  0.00    -0.225 N  
HETATM    9  C   UNL     1     -11.393  13.232  67.076  1.00  0.00    -0.312 C  
HETATM   10  H   UNL     1      -9.469  12.666  67.520  1.00  0.00     0.000 HD 
HETATM   11  O   UNL     1     -12.428  13.226  66.425  1.00  0.00    -0.329 OA 
BRANCH   9  12
HETATM   12  C   UNL     1     -11.312  14.109  68.313  1.00  0.00    -0.319 C  
HETATM   13  C   UNL     1     -11.166  13.437  69.674  1.00  0.00    -0.115 C  
HETATM   14  C   UNL     1     -12.485  14.016  69.281  1.00  0.00    -0.046 C  
BRANCH  12  15
HETATM   15  C   UNL     1     -10.663  15.472  68.066  1.00  0.00    -0.283 A  
HETATM   16  C   UNL     1      -9.571  17.470  69.021  1.00  0.00    -0.151 A  
HETATM   17  C   UNL     1     -10.015  16.148  69.133  1.00  0.00    -0.251 A  
HETATM   18  C   UNL     1      -9.775  18.108  67.820  1.00  0.00    -0.293 A  
HETATM   19  O   UNL     1      -9.469  19.403  67.545  1.00  0.00    -0.299 OA 
HETATM   20  C   UNL     1      -9.975  19.495  66.208  1.00  0.00    -0.450 C  
HETATM   21  F   UNL     1     -10.969  20.421  66.183  1.00  0.00    -0.317 F  
HETATM   22  F   UNL     1      -8.983  19.941  65.401  1.00  0.00    -0.127 F  
HETATM   23  O   UNL     1     -10.488  18.270  65.668  1.00  0.00    -0.627 OA 
HETATM   24  C   UNL     1     -10.360  17.464  66.757  1.00  0.00    -0.305 A  
HETATM   25  C   UNL     1     -10.800  16.158  66.843  1.00  0.00    -0.175 A  
ENDBRANCH  12  15
ENDBRANCH   9  12
ENDBRANCH   5   8
BRANCH   7  26
HETATM   26  C   UNL     1      -8.904   8.259  65.283  1.00  0.00    -0.074 A  
HETATM   27  C   UNL     1      -7.886   7.577  64.580  1.00  0.00    -0.130 A  
HETATM   28  C   UNL     1      -9.041   6.289  66.749  1.00  0.00    -0.141 A  
HETATM   29  O   UNL     1      -8.954   4.806  68.609  1.00  0.00    -0.100 OA 
HETATM   30  C   UNL     1      -9.446   7.587  66.391  1.00  0.00    -0.208 A  
HETATM   31  C   UNL     1      -8.056   5.633  66.008  1.00  0.00    -0.109 A  
HETATM   32  C   UNL     1      -9.732   5.644  67.893  1.00  0.00    -0.125 C  
HETATM   33  O   UNL     1     -10.894   5.877  68.176  1.00  0.00    -0.271 OA 
HETATM   34  C   UNL     1      -7.464   6.287  64.934  1.00  0.00    -0.084 A  
ENDBRANCH   7  26
TORSDOF 4
ENDMDL
MODEL      130
REMARK 921   NORMALIZED FREE ENERGY PREDICTED BY IDOCK:   -5.88 KCAL/MOL
REMARK 922        TOTAL FREE ENERGY PREDICTED BY IDOCK:   -8.39 KCAL/MOL
REMARK 923 INTER-LIGAND FREE ENERGY PREDICTED BY IDOCK:   -7.60 KCAL/MOL
REMARK 924 INTRA-LIGAND FREE ENERGY PREDICTED BY IDOCK:   -0.79 KCAL/MOL
REMARK 927      BINDING AFFINITY PREDICTED BY RF-SCORE:    0.00 PKD
ROOT
HETATM    1  C   UNL     1     -11.851  16.345  68.031  1.00  0.00     0.409 C  
HETATM    2  C   UNL     1     -11.103  15.183  67.444  1.00  0.00    -0.325 A  
HETATM    3  C   UNL     1     -10.380  15.413  66.263  1.00  0.00    -0.304 A  
HETATM    4  C   UNL     1      -9.732  14.369  65.618  1.00  0.00    -0.258 A  
HETATM    5  C   UNL     1      -9.827  13.101  66.162  1.00  0.00    -0.280 A  
HETATM    6  N   UNL     1     -10.470  12.870  67.317  1.00  0.00    -0.233 NA 
HETATM    7  C   UNL     1     -11.089  13.888  67.979  1.00  0.00    -0.259 A  
ENDROOT
BRANCH   5   8
HETATM    8  N   UNL     1      -9.233  12.055  65.453  1.00  0.00    -0.432 N  
HETATM    9  C   UNL     1      -9.854  11.305  64.483  1.00  0.00    -0.270 C  
HETATM   10  H   UNL     1      -8.262  11.830  65.671  1.00  0.00     0.000 HD 
HETATM   11  O   UNL     1     -10.990  11.408  64.045  1.00  0.00    -0.364 OA 
BRANCH   9  12
HETATM   12  C   UNL     1      -8.957  10.207  63.941  1.00  0.00    -0.270 C  
HETATM   13  C   UNL     1      -8.018  10.538  62.784  1.00  0.00    -0.147 C  
HETATM   14  C   UNL     1      -9.252   9.736  62.522  1.00  0.00    -0.281 C  
BRANCH  12  15
HETATM   15  C   UNL     1      -8.534   9.176  64.990  1.00  0.00    -0.187 A  
HETATM   16  C   UNL     1      -6.706   7.883  66.031  1.00  0.00    -0.053 A  
HETATM   17  C   UNL     1      -7.155   8.939  65.230  1.00  0.00    -0.080 A  
HETATM   18  C   UNL     1      -7.658   7.071  66.601  1.00  0.00    -0.089 A  
HETATM   19  O   UNL     1      -7.413   5.967  67.356  1.00  0.00    -0.079 OA 
HETATM   20  C   UNL     1      -8.756   5.522  67.579  1.00  0.00    -0.107 C  
HETATM   21  F   UNL     1      -8.904   4.292  67.023  1.00  0.00    -0.109 F  
HETATM   22  F   UNL     1      -8.950   5.391  68.914  1.00  0.00    -0.112 F  
HETATM   23  O   UNL     1      -9.776   6.380  67.051  1.00  0.00    -0.137 OA 
HETATM   24  C   UNL     1      -9.000   7.304  66.421  1.00  0.00    -0.158 A  
HETATM   25  C   UNL     1      -9.466   8.342  65.639  1.00  0.00     0.015 A  
ENDBRANCH  12  15
ENDBRANCH   9  12
ENDBRANCH   5   8
BRANCH   7  26
HETATM   26  C   UNL     1     -11.720  13.444  69.256  1.00  0.00    -0.383 A  
HETATM   27  C   UNL     1     -12.239  14.394  70.165  1.00  0.00    -0.401 A  
HETATM   28  C   UNL     1     -12.491  11.710  70.819  1.00  0.00    -0.425 A  
HETATM   29  O   UNL     1     -13.635   9.888  71.839  1.00  0.00    -0.367 OA 
HETATM   30  C   UNL     1     -11.890  12.095  69.608  1.00  0.00    -0.391 A  
HETATM   31  C   UNL     1     -12.960  12.678  71.709  1.00  0.00    -0.417 A  
HETATM   32  C   UNL     1     -12.553  10.258  71.124  1.00  0.00    -0.400 C  
HETATM   33  O   UNL     1     -11.712   9.468  70.733  1.00  0.00    -0.278 OA 
HETATM   34  C   UNL     1     -12.850  14.021  71.371  1.00  0.00    -0.434 A  
ENDBRANCH   7  26
TORSDOF 4
ENDMDL
MODEL      131
REMARK 921   NORMALIZED FREE ENERGY PREDICTED BY IDOCK:   -5.86 KCAL/MOL
REMARK 922        TOTAL FREE ENERGY PREDICTED BY IDOCK:   -8.37 KCAL/MOL
REMARK 923 INTER-LIGAND FREE ENERGY PREDICTED BY IDOCK:   -7.74 KCAL/MOL
REMARK 924 INTRA-LIGAND FREE ENERGY PREDICTED BY IDOCK:   -0.63 KCAL/MOL
REMARK 927      BINDING AFFINITY PREDICTED BY RF-SCORE:    0.00 PKD
ROOT
HETATM    1  C   UNL     1     -10.971   6.389  69.032  1.00  0.00    -0.410 C  
HETATM    2  C   UNL     1     -10.508   7.816  69.063  1.00  0.00    -0.215 A  
HETATM    3  C   UNL     1     -10.736   8.593  67.916  1.00  0.00    -0.158 A  
HETATM    4  C   UNL     1     -10.264   9.896  67.841  1.00  0.00    -0.234 A  
HETATM    5  C   UNL     1      -9.555  10.400  68.916  1.00  0.00    -0.192 A  
HETATM    6  N   UNL     1      -9.370   9.692  70.040  1.00  0.00    -0.228 NA 
HETATM    7  C   UNL     1      -9.851   8.421  70.144  1.00  0.00    -0.181 A  
ENDROOT
BRANCH   5   8
HETATM    8  N   UNL     1      -9.022  11.685  68.784  1.00  0.00    -0.363 N  
HETATM    9  C   UNL     1      -8.335  12.146  67.687  1.00  0.00    -0.163 C  
HETATM   10  H   UNL     1      -9.153  12.331  69.563  1.00  0.00     0.000 HD 
HETATM   11  O   UNL     1      -8.081  11.567  66.641  1.00  0.00    -0.159 OA 
BRANCH   9  12
HETATM   12  C   UNL     1      -7.837  13.568  67.875  1.00  0.00    -0.159 C  
HETATM   13  C   UNL     1      -6.332  13.816  67.892  1.00  0.00    -0.162 C  
HETATM   14  C   UNL     1      -7.096  13.854  69.175  1.00  0.00    -0.069 C  
BRANCH  12  15
HETATM   15  C   UNL     1      -8.776  14.635  67.308  1.00  0.00    -0.224 A  
HETATM   16  C   UNL     1     -10.336  15.306  65.516  1.00  0.00    -0.408 A  
HETATM   17  C   UNL     1      -9.602  14.328  66.195  1.00  0.00    -0.300 A  
HETATM   18  C   UNL     1     -10.242  16.599  65.972  1.00  0.00    -0.351 A  
HETATM   19  O   UNL     1     -10.830  17.687  65.408  1.00  0.00    -0.541 OA 
HETATM   20  C   UNL     1     -10.310  18.715  66.259  1.00  0.00    -0.444 C  
HETATM   21  F   UNL     1      -9.558  19.562  65.509  1.00  0.00    -0.183 F  
HETATM   22  F   UNL     1     -11.349  19.427  66.758  1.00  0.00    -0.403 F  
HETATM   23  O   UNL     1      -9.508  18.250  67.352  1.00  0.00    -0.262 OA 
HETATM   24  C   UNL     1      -9.485  16.918  67.074  1.00  0.00    -0.244 A  
HETATM   25  C   UNL     1      -8.757  15.968  67.763  1.00  0.00    -0.170 A  
ENDBRANCH  12  15
ENDBRANCH   9  12
ENDBRANCH   5   8
BRANCH   7  26
HETATM   26  C   UNL     1      -9.577   7.809  71.476  1.00  0.00    -0.187 A  
HETATM   27  C   UNL     1     -10.614   7.668  72.425  1.00  0.00    -0.313 A  
HETATM   28  C   UNL     1      -8.099   6.718  73.111  1.00  0.00    -0.114 A  
HETATM   29  O   UNL     1      -6.658   5.196  74.241  1.00  0.00    -0.070 OA 
HETATM   30  C   UNL     1      -8.325   7.292  71.847  1.00  0.00    -0.112 A  
HETATM   31  C   UNL     1      -9.141   6.628  74.037  1.00  0.00    -0.190 A  
HETATM   32  C   UNL     1      -6.719   6.270  73.426  1.00  0.00    -0.074 C  
HETATM   33  O   UNL     1      -5.731   6.810  72.962  1.00  0.00    -0.041 OA 
HETATM   34  C   UNL     1     -10.404   7.087  73.684  1.00  0.00    -0.412 A  
ENDBRANCH   7  26
TORSDOF 4
ENDMDL
MODEL      132
REMARK 921   NORMALIZED FREE ENERGY PREDICTED BY IDOCK:   -5.85 KCAL/MOL
REMARK 922        TOTAL FREE ENERGY PREDICTED BY IDOCK:   -8.36 KCAL/MOL
REMARK 923 INTER-LIGAND FREE ENERGY PREDICTED BY IDOCK:   -7.81 KCAL/MOL
REMARK 924 INTRA-LIGAND FREE ENERGY PREDICTED BY IDOCK:   -0.55 KCAL/MOL
REMARK 927      BINDING AFFINITY PREDICTED BY RF-SCORE:    0.00 PKD
ROOT
HETATM    1  C   UNL     1     -10.612  13.194  65.522  1.00  0.00    -0.299 C  
HETATM    2  C   UNL     1     -10.659  12.042  66.482  1.00  0.00    -0.269 A  
HETATM    3  C   UNL     1     -10.229  10.792  66.009  1.00  0.00    -0.310 A  
HETATM    4  C   UNL     1     -10.319   9.664  66.813  1.00  0.00    -0.292 A  
HETATM    5  C   UNL     1     -10.853   9.803  68.081  1.00  0.00    -0.214 A  
HETATM    6  N   UNL     1     -11.222  10.997  68.570  1.00  0.00    -0.244 NA 
HETATM    7  C   UNL     1     -11.114  12.120  67.806  1.00  0.00    -0.250 A  
ENDROOT
BRANCH   5   8
HETATM    8  N   UNL     1     -11.007   8.641  68.841  1.00  0.00    -0.438 N  
HETATM    9  C   UNL     1     -10.383   8.392  70.040  1.00  0.00    -0.211 C  
HETATM   10  H   UNL     1     -11.631   7.920  68.478  1.00  0.00     0.000 HD 
HETATM   11  O   UNL     1      -9.622   9.110  70.671  1.00  0.00    -0.214 OA 
BRANCH   9  12
HETATM   12  C   UNL     1     -10.714   7.016  70.588  1.00  0.00    -0.255 C  
HETATM   13  C   UNL     1     -12.171   6.689  70.905  1.00  0.00    -0.324 C  
HETATM   14  C   UNL     1     -11.220   6.968  72.024  1.00  0.00    -0.288 C  
BRANCH  12  15
HETATM   15  C   UNL     1      -9.779   5.910  70.095  1.00  0.00    -0.211 A  
HETATM   16  C   UNL     1      -9.526   3.766  68.897  1.00  0.00    -0.223 A  
HETATM   17  C   UNL     1     -10.275   4.901  69.228  1.00  0.00    -0.205 A  
HETATM   18  C   UNL     1      -8.267   3.657  69.438  1.00  0.00    -0.053 A  
HETATM   19  O   UNL     1      -7.422   2.604  69.281  1.00  0.00    -0.044 OA 
HETATM   20  C   UNL     1      -6.342   3.030  70.120  1.00  0.00    -0.028 C  
HETATM   21  F   UNL     1      -6.201   2.135  71.132  1.00  0.00    -0.016 F  
HETATM   22  F   UNL     1      -5.198   3.008  69.394  1.00  0.00    -0.009 F  
HETATM   23  O   UNL     1      -6.497   4.336  70.691  1.00  0.00    -0.028 OA 
HETATM   24  C   UNL     1      -7.745   4.639  70.245  1.00  0.00    -0.057 A  
HETATM   25  C   UNL     1      -8.463   5.770  70.580  1.00  0.00    -0.127 A  
ENDBRANCH  12  15
ENDBRANCH   9  12
ENDBRANCH   5   8
BRANCH   7  26
HETATM   26  C   UNL     1     -11.540  13.352  68.530  1.00  0.00    -0.368 A  
HETATM   27  C   UNL     1     -11.192  14.629  68.034  1.00  0.00    -0.307 A  
HETATM   28  C   UNL     1     -12.727  14.515  70.342  1.00  0.00    -0.378 A  
HETATM   29  O   UNL     1     -14.394  15.375  71.809  1.00  0.00    -0.520 OA 
HETATM   30  C   UNL     1     -12.340  13.334  69.684  1.00  0.00    -0.154 A  
HETATM   31  C   UNL     1     -12.334  15.758  69.843  1.00  0.00    -0.204 A  
HETATM   32  C   UNL     1     -13.511  14.377  71.596  1.00  0.00    -0.372 C  
HETATM   33  O   UNL     1     -13.385  13.428  72.349  1.00  0.00    -0.508 OA 
HETATM   34  C   UNL     1     -11.582  15.814  68.675  1.00  0.00    -0.392 A  
ENDBRANCH   7  26
TORSDOF 4
ENDMDL
MODEL      133
REMARK 921   NORMALIZED FREE ENERGY PREDICTED BY IDOCK:   -5.85 KCAL/MOL
REMARK 922        TOTAL FREE ENERGY PREDICTED BY IDOCK:   -8.36 KCAL/MOL
REMARK 923 INTER-LIGAND FREE ENERGY PREDICTED BY IDOCK:   -7.61 KCAL/MOL
REMARK 924 INTRA-LIGAND FREE ENERGY PREDICTED BY IDOCK:   -0.74 KCAL/MOL
REMARK 927      BINDING AFFINITY PREDICTED BY RF-SCORE:    0.00 PKD
ROOT
HETATM    1  C   UNL     1      -5.972   7.842  69.180  1.00  0.00    -0.034 C  
HETATM    2  C   UNL     1      -6.988   8.745  68.543  1.00  0.00    -0.065 A  
HETATM    3  C   UNL     1      -6.506   9.842  67.812  1.00  0.00    -0.063 A  
HETATM    4  C   UNL     1      -7.386  10.766  67.264  1.00  0.00    -0.097 A  
HETATM    5  C   UNL     1      -8.741  10.583  67.468  1.00  0.00    -0.125 A  
HETATM    6  N   UNL     1      -9.224   9.514  68.119  1.00  0.00    -0.130 NA 
HETATM    7  C   UNL     1      -8.377   8.582  68.640  1.00  0.00    -0.123 A  
ENDROOT
BRANCH   5   8
HETATM    8  N   UNL     1      -9.600  11.568  66.974  1.00  0.00    -0.184 N  
HETATM    9  C   UNL     1     -10.009  11.677  65.667  1.00  0.00    -0.240 C  
HETATM   10  H   UNL     1      -9.952  12.260  67.637  1.00  0.00     0.000 HD 
HETATM   11  O   UNL     1      -9.738  10.958  64.717  1.00  0.00    -0.229 OA 
BRANCH   9  12
HETATM   12  C   UNL     1     -10.897  12.887  65.440  1.00  0.00    -0.307 C  
HETATM   13  C   UNL     1     -12.381  12.660  65.168  1.00  0.00    -0.547 C  
HETATM   14  C   UNL     1     -11.479  13.041  64.040  1.00  0.00    -0.473 C  
BRANCH  12  15
HETATM   15  C   UNL     1     -10.447  14.139  66.196  1.00  0.00    -0.297 A  
HETATM   16  C   UNL     1     -10.922  15.798  67.962  1.00  0.00    -0.330 A  
HETATM   17  C   UNL     1     -11.166  14.567  67.343  1.00  0.00    -0.337 A  
HETATM   18  C   UNL     1      -9.940  16.595  67.423  1.00  0.00    -0.265 A  
HETATM   19  O   UNL     1      -9.606  17.842  67.847  1.00  0.00    -0.267 OA 
HETATM   20  C   UNL     1      -8.609  18.172  66.874  1.00  0.00    -0.258 C  
HETATM   21  F   UNL     1      -9.034  19.251  66.165  1.00  0.00    -0.331 F  
HETATM   22  F   UNL     1      -7.475  18.533  67.522  1.00  0.00    -0.213 F  
HETATM   23  O   UNL     1      -8.292  17.123  65.949  1.00  0.00    -0.527 OA 
HETATM   24  C   UNL     1      -9.199  16.187  66.340  1.00  0.00    -0.300 A  
HETATM   25  C   UNL     1      -9.418  14.974  65.717  1.00  0.00    -0.260 A  
ENDBRANCH  12  15
ENDBRANCH   9  12
ENDBRANCH   5   8
BRANCH   7  26
HETATM   26  C   UNL     1      -9.098   7.453  69.297  1.00  0.00    -0.135 A  
HETATM   27  C   UNL     1     -10.370   7.657  69.875  1.00  0.00    -0.225 A  
HETATM   28  C   UNL     1      -9.310   5.095  69.961  1.00  0.00    -0.201 A  
HETATM   29  O   UNL     1      -9.527   2.724  69.960  1.00  0.00    -0.146 OA 
HETATM   30  C   UNL     1      -8.605   6.138  69.335  1.00  0.00    -0.123 A  
HETATM   31  C   UNL     1     -10.550   5.342  70.553  1.00  0.00    -0.312 A  
HETATM   32  C   UNL     1      -8.663   3.759  70.007  1.00  0.00    -0.069 C  
HETATM   33  O   UNL     1      -7.455   3.616  70.053  1.00  0.00    -0.044 OA 
HETATM   34  C   UNL     1     -11.089   6.622  70.492  1.00  0.00    -0.359 A  
ENDBRANCH   7  26
TORSDOF 4
ENDMDL
MODEL      134
REMARK 921   NORMALIZED FREE ENERGY PREDICTED BY IDOCK:   -5.83 KCAL/MOL
REMARK 922        TOTAL FREE ENERGY PREDICTED BY IDOCK:   -8.34 KCAL/MOL
REMARK 923 INTER-LIGAND FREE ENERGY PREDICTED BY IDOCK:   -7.61 KCAL/MOL
REMARK 924 INTRA-LIGAND FREE ENERGY PREDICTED BY IDOCK:   -0.73 KCAL/MOL
REMARK 927      BINDING AFFINITY PREDICTED BY RF-SCORE:    0.00 PKD
ROOT
HETATM    1  C   UNL     1     -12.876  15.005  70.308  1.00  0.00    -0.270 C  
HETATM    2  C   UNL     1     -12.129  13.792  69.834  1.00  0.00    -0.412 A  
HETATM    3  C   UNL     1     -12.296  12.606  70.567  1.00  0.00    -0.350 A  
HETATM    4  C   UNL     1     -11.575  11.466  70.238  1.00  0.00    -0.334 A  
HETATM    5  C   UNL     1     -10.684  11.535  69.183  1.00  0.00    -0.168 A  
HETATM    6  N   UNL     1     -10.547  12.643  68.439  1.00  0.00    -0.238 NA 
HETATM    7  C   UNL     1     -11.267  13.763  68.729  1.00  0.00    -0.271 A  
ENDROOT
BRANCH   5   8
HETATM    8  N   UNL     1      -9.913  10.399  68.923  1.00  0.00    -0.189 N  
HETATM    9  C   UNL     1     -10.181   9.470  67.947  1.00  0.00    -0.205 C  
HETATM   10  H   UNL     1      -9.087  10.247  69.503  1.00  0.00     0.000 HD 
HETATM   11  O   UNL     1     -11.088   9.457  67.128  1.00  0.00    -0.048 OA 
BRANCH   9  12
HETATM   12  C   UNL     1      -9.186   8.323  67.955  1.00  0.00    -0.142 C  
HETATM   13  C   UNL     1      -7.809   8.548  67.340  1.00  0.00    -0.098 C  
HETATM   14  C   UNL     1      -8.821   7.739  66.596  1.00  0.00    -0.166 C  
BRANCH  12  15
HETATM   15  C   UNL     1      -9.339   7.378  69.149  1.00  0.00    -0.146 A  
HETATM   16  C   UNL     1     -10.730   6.602  71.036  1.00  0.00    -0.278 A  
HETATM   17  C   UNL     1     -10.582   7.298  69.831  1.00  0.00    -0.244 A  
HETATM   18  C   UNL     1      -9.619   5.976  71.547  1.00  0.00    -0.156 A  
HETATM   19  O   UNL     1      -9.555   5.308  72.729  1.00  0.00    -0.148 OA 
HETATM   20  C   UNL     1      -8.164   4.965  72.741  1.00  0.00    -0.105 C  
HETATM   21  F   UNL     1      -7.579   5.563  73.811  1.00  0.00    -0.091 F  
HETATM   22  F   UNL     1      -8.052   3.625  72.912  1.00  0.00    -0.072 F  
HETATM   23  O   UNL     1      -7.437   5.338  71.563  1.00  0.00    -0.090 OA 
HETATM   24  C   UNL     1      -8.414   6.000  70.886  1.00  0.00    -0.127 A  
HETATM   25  C   UNL     1      -8.246   6.675  69.693  1.00  0.00    -0.127 A  
ENDBRANCH  12  15
ENDBRANCH   9  12
ENDBRANCH   5   8
BRANCH   7  26
HETATM   26  C   UNL     1     -11.005  14.879  67.774  1.00  0.00    -0.294 A  
HETATM   27  C   UNL     1     -10.883  14.622  66.390  1.00  0.00    -0.315 A  
HETATM   28  C   UNL     1     -10.676  17.256  67.236  1.00  0.00    -0.215 A  
HETATM   29  O   UNL     1     -10.972  19.598  66.926  1.00  0.00    -0.452 OA 
HETATM   30  C   UNL     1     -10.922  16.226  68.162  1.00  0.00    -0.343 A  
HETATM   31  C   UNL     1     -10.526  16.959  65.881  1.00  0.00    -0.294 A  
HETATM   32  C   UNL     1     -10.535  18.636  67.765  1.00  0.00    -0.411 C  
HETATM   33  O   UNL     1     -10.090  18.872  68.874  1.00  0.00    -0.391 OA 
HETATM   34  C   UNL     1     -10.649  15.641  65.456  1.00  0.00    -0.422 A  
ENDBRANCH   7  26
TORSDOF 4
ENDMDL
MODEL      135
REMARK 921   NORMALIZED FREE ENERGY PREDICTED BY IDOCK:   -5.82 KCAL/MOL
REMARK 922        TOTAL FREE ENERGY PREDICTED BY IDOCK:   -8.32 KCAL/MOL
REMARK 923 INTER-LIGAND FREE ENERGY PREDICTED BY IDOCK:   -7.26 KCAL/MOL
REMARK 924 INTRA-LIGAND FREE ENERGY PREDICTED BY IDOCK:   -1.06 KCAL/MOL
REMARK 927      BINDING AFFINITY PREDICTED BY RF-SCORE:    0.00 PKD
ROOT
HETATM    1  C   UNL     1      -8.148   8.393  62.547  1.00  0.00    -0.169 C  
HETATM    2  C   UNL     1      -8.833   9.351  63.479  1.00  0.00    -0.198 A  
HETATM    3  C   UNL     1      -9.402  10.503  62.914  1.00  0.00    -0.347 A  
HETATM    4  C   UNL     1      -9.980  11.473  63.721  1.00  0.00    -0.384 A  
HETATM    5  C   UNL     1      -9.969  11.279  65.090  1.00  0.00    -0.264 A  
HETATM    6  N   UNL     1      -9.476  10.162  65.646  1.00  0.00    -0.202 NA 
HETATM    7  C   UNL     1      -8.930   9.186  64.868  1.00  0.00    -0.151 A  
ENDROOT
BRANCH   5   8
HETATM    8  N   UNL     1     -10.485  12.306  65.885  1.00  0.00    -0.249 N  
HETATM    9  C   UNL     1      -9.758  13.056  66.777  1.00  0.00    -0.248 C  
HETATM   10  H   UNL     1     -11.480  12.515  65.796  1.00  0.00     0.000 HD 
HETATM   11  O   UNL     1      -8.564  13.000  67.031  1.00  0.00    -0.200 OA 
BRANCH   9  12
HETATM   12  C   UNL     1     -10.620  14.055  67.528  1.00  0.00    -0.260 C  
HETATM   13  C   UNL     1     -11.433  13.563  68.722  1.00  0.00    -0.349 C  
HETATM   14  C   UNL     1     -12.127  13.850  67.430  1.00  0.00    -0.380 C  
BRANCH  12  15
HETATM   15  C   UNL     1     -10.065  15.480  67.523  1.00  0.00    -0.241 A  
HETATM   16  C   UNL     1      -9.743  17.593  66.287  1.00  0.00    -0.275 A  
HETATM   17  C   UNL     1     -10.369  16.352  66.444  1.00  0.00    -0.319 A  
HETATM   18  C   UNL     1      -8.815  17.959  67.232  1.00  0.00    -0.243 A  
HETATM   19  O   UNL     1      -8.065  19.093  67.214  1.00  0.00    -0.259 OA 
HETATM   20  C   UNL     1      -7.259  18.872  68.377  1.00  0.00    -0.280 C  
HETATM   21  F   UNL     1      -5.957  18.801  67.996  1.00  0.00    -0.189 F  
HETATM   22  F   UNL     1      -7.385  19.942  69.198  1.00  0.00    -0.367 F  
HETATM   23  O   UNL     1      -7.576  17.687  69.118  1.00  0.00    -0.191 OA 
HETATM   24  C   UNL     1      -8.533  17.155  68.310  1.00  0.00    -0.236 A  
HETATM   25  C   UNL     1      -9.142  15.929  68.489  1.00  0.00    -0.200 A  
ENDBRANCH  12  15
ENDBRANCH   9  12
ENDBRANCH   5   8
BRANCH   7  26
HETATM   26  C   UNL     1      -8.467   8.010  65.660  1.00  0.00    -0.162 A  
HETATM   27  C   UNL     1      -7.193   8.014  66.269  1.00  0.00    -0.071 A  
HETATM   28  C   UNL     1      -8.797   5.784  66.651  1.00  0.00    -0.121 A  
HETATM   29  O   UNL     1      -9.574   3.944  67.948  1.00  0.00    -0.178 OA 
HETATM   30  C   UNL     1      -9.262   6.876  65.898  1.00  0.00     0.004 A  
HETATM   31  C   UNL     1      -7.517   5.809  67.208  1.00  0.00    -0.081 A  
HETATM   32  C   UNL     1      -9.692   4.606  66.778  1.00  0.00    -0.198 C  
HETATM   33  O   UNL     1     -10.486   4.287  65.911  1.00  0.00    -0.200 OA 
HETATM   34  C   UNL     1      -6.722   6.936  67.032  1.00  0.00    -0.056 A  
ENDBRANCH   7  26
TORSDOF 4
ENDMDL
MODEL      136
REMARK 921   NORMALIZED FREE ENERGY PREDICTED BY IDOCK:   -5.80 KCAL/MOL
REMARK 922        TOTAL FREE ENERGY PREDICTED BY IDOCK:   -8.30 KCAL/MOL
REMARK 923 INTER-LIGAND FREE ENERGY PREDICTED BY IDOCK:   -7.60 KCAL/MOL
REMARK 924 INTRA-LIGAND FREE ENERGY PREDICTED BY IDOCK:   -0.70 KCAL/MOL
REMARK 927      BINDING AFFINITY PREDICTED BY RF-SCORE:    0.00 PKD
ROOT
HETATM    1  C   UNL     1      -7.713   7.145  65.007  1.00  0.00    -0.115 C  
HETATM    2  C   UNL     1      -7.685   8.493  65.666  1.00  0.00    -0.095 A  
HETATM    3  C   UNL     1      -6.907   9.491  65.058  1.00  0.00    -0.097 A  
HETATM    4  C   UNL     1      -6.768  10.738  65.654  1.00  0.00    -0.019 A  
HETATM    5  C   UNL     1      -7.402  10.962  66.862  1.00  0.00    -0.128 A  
HETATM    6  N   UNL     1      -8.191  10.039  67.433  1.00  0.00    -0.117 NA 
HETATM    7  C   UNL     1      -8.362   8.820  66.850  1.00  0.00    -0.108 A  
ENDROOT
BRANCH   5   8
HETATM    8  N   UNL     1      -7.182  12.196  67.479  1.00  0.00    -0.122 N  
HETATM    9  C   UNL     1      -7.950  13.320  67.294  1.00  0.00    -0.125 C  
HETATM   10  H   UNL     1      -6.390  12.268  68.118  1.00  0.00     0.000 HD 
HETATM   11  O   UNL     1      -8.949  13.462  66.604  1.00  0.00    -0.213 OA 
BRANCH   9  12
HETATM   12  C   UNL     1      -7.418  14.515  68.064  1.00  0.00    -0.142 C  
HETATM   13  C   UNL     1      -5.907  14.713  68.149  1.00  0.00    -0.138 C  
HETATM   14  C   UNL     1      -6.649  14.204  69.342  1.00  0.00    -0.121 C  
BRANCH  12  15
HETATM   15  C   UNL     1      -8.342  15.734  68.035  1.00  0.00    -0.153 A  
HETATM   16  C   UNL     1     -10.490  16.744  68.716  1.00  0.00    -0.338 A  
HETATM   17  C   UNL     1      -9.513  15.750  68.838  1.00  0.00    -0.229 A  
HETATM   18  C   UNL     1     -10.276  17.732  67.784  1.00  0.00    -0.361 A  
HETATM   19  O   UNL     1     -11.135  18.740  67.481  1.00  0.00    -0.326 OA 
HETATM   20  C   UNL     1     -10.410  19.369  66.418  1.00  0.00    -0.483 C  
HETATM   21  F   UNL     1     -11.152  19.291  65.282  1.00  0.00    -0.466 F  
HETATM   22  F   UNL     1     -10.259  20.682  66.716  1.00  0.00    -0.554 F  
HETATM   23  O   UNL     1      -9.118  18.809  66.151  1.00  0.00    -0.445 OA 
HETATM   24  C   UNL     1      -9.131  17.765  67.024  1.00  0.00    -0.252 A  
HETATM   25  C   UNL     1      -8.151  16.798  67.132  1.00  0.00    -0.210 A  
ENDBRANCH  12  15
ENDBRANCH   9  12
ENDBRANCH   5   8
BRANCH   7  26
HETATM   26  C   UNL     1      -9.297   7.943  67.612  1.00  0.00    -0.161 A  
HETATM   27  C   UNL     1     -10.201   7.098  66.931  1.00  0.00    -0.330 A  
HETATM   28  C   UNL     1     -10.196   7.014  69.704  1.00  0.00    -0.212 A  
HETATM   29  O   UNL     1     -10.465   5.875  71.778  1.00  0.00    -0.212 OA 
HETATM   30  C   UNL     1      -9.303   7.853  69.014  1.00  0.00    -0.151 A  
HETATM   31  C   UNL     1     -11.101   6.220  68.997  1.00  0.00    -0.446 A  
HETATM   32  C   UNL     1     -10.167   7.052  71.188  1.00  0.00    -0.195 C  
HETATM   33  O   UNL     1      -9.871   8.054  71.814  1.00  0.00    -0.166 OA 
HETATM   34  C   UNL     1     -11.089   6.248  67.608  1.00  0.00    -0.368 A  
ENDBRANCH   7  26
TORSDOF 4
ENDMDL
MODEL      137
REMARK 921   NORMALIZED FREE ENERGY PREDICTED BY IDOCK:   -5.78 KCAL/MOL
REMARK 922        TOTAL FREE ENERGY PREDICTED BY IDOCK:   -8.28 KCAL/MOL
REMARK 923 INTER-LIGAND FREE ENERGY PREDICTED BY IDOCK:   -7.87 KCAL/MOL
REMARK 924 INTRA-LIGAND FREE ENERGY PREDICTED BY IDOCK:   -0.40 KCAL/MOL
REMARK 927      BINDING AFFINITY PREDICTED BY RF-SCORE:    0.00 PKD
ROOT
HETATM    1  C   UNL     1      -6.941   9.290  70.585  1.00  0.00    -0.101 C  
HETATM    2  C   UNL     1      -7.829  10.057  69.649  1.00  0.00    -0.171 A  
HETATM    3  C   UNL     1      -7.209  10.769  68.611  1.00  0.00    -0.089 A  
HETATM    4  C   UNL     1      -7.958  11.567  67.756  1.00  0.00    -0.128 A  
HETATM    5  C   UNL     1      -9.323  11.649  67.963  1.00  0.00    -0.178 A  
HETATM    6  N   UNL     1      -9.941  10.936  68.917  1.00  0.00    -0.196 NA 
HETATM    7  C   UNL     1      -9.226  10.127  69.748  1.00  0.00    -0.144 A  
ENDROOT
BRANCH   5   8
HETATM    8  N   UNL     1     -10.043  12.519  67.140  1.00  0.00    -0.213 N  
HETATM    9  C   UNL     1     -10.687  12.158  65.982  1.00  0.00    -0.273 C  
HETATM   10  H   UNL     1     -10.094  13.498  67.421  1.00  0.00     0.000 HD 
HETATM   11  O   UNL     1     -10.781  11.052  65.469  1.00  0.00    -0.232 OA 
BRANCH   9  12
HETATM   12  C   UNL     1     -11.332  13.344  65.288  1.00  0.00    -0.313 C  
HETATM   13  C   UNL     1     -12.790  13.230  64.852  1.00  0.00    -0.321 C  
HETATM   14  C   UNL     1     -11.708  13.144  63.825  1.00  0.00    -0.519 C  
BRANCH  12  15
HETATM   15  C   UNL     1     -10.776  14.699  65.729  1.00  0.00    -0.321 A  
HETATM   16  C   UNL     1      -8.817  16.190  65.930  1.00  0.00    -0.196 A  
HETATM   17  C   UNL     1      -9.442  15.057  65.397  1.00  0.00     0.051 A  
HETATM   18  C   UNL     1      -9.549  16.970  66.793  1.00  0.00    -0.264 A  
HETATM   19  O   UNL     1      -9.094  18.068  67.452  1.00  0.00    -0.247 OA 
HETATM   20  C   UNL     1     -10.254  18.383  68.231  1.00  0.00    -0.384 C  
HETATM   21  F   UNL     1      -9.933  18.283  69.548  1.00  0.00    -0.213 F  
HETATM   22  F   UNL     1     -10.595  19.673  67.993  1.00  0.00    -0.498 F  
HETATM   23  O   UNL     1     -11.396  17.554  67.981  1.00  0.00     0.021 OA 
HETATM   24  C   UNL     1     -10.855  16.672  67.098  1.00  0.00    -0.126 A  
HETATM   25  C   UNL     1     -11.494  15.563  66.580  1.00  0.00     0.080 A  
ENDBRANCH  12  15
ENDBRANCH   9  12
ENDBRANCH   5   8
BRANCH   7  26
HETATM   26  C   UNL     1     -10.088   9.393  70.719  1.00  0.00    -0.366 A  
HETATM   27  C   UNL     1     -11.495   9.509  70.657  1.00  0.00    -0.362 A  
HETATM   28  C   UNL     1     -10.423   7.839  72.595  1.00  0.00    -0.363 A  
HETATM   29  O   UNL     1     -10.496   5.909  73.988  1.00  0.00    -0.265 OA 
HETATM   30  C   UNL     1      -9.583   8.518  71.695  1.00  0.00    -0.319 A  
HETATM   31  C   UNL     1     -11.807   8.006  72.526  1.00  0.00    -0.419 A  
HETATM   32  C   UNL     1      -9.779   6.996  73.634  1.00  0.00    -0.245 C  
HETATM   33  O   UNL     1      -8.683   7.251  74.100  1.00  0.00    -0.181 OA 
HETATM   34  C   UNL     1     -12.343   8.828  71.541  1.00  0.00    -0.380 A  
ENDBRANCH   7  26
TORSDOF 4
ENDMDL
MODEL      138
REMARK 921   NORMALIZED FREE ENERGY PREDICTED BY IDOCK:   -5.76 KCAL/MOL
REMARK 922        TOTAL FREE ENERGY PREDICTED BY IDOCK:   -8.25 KCAL/MOL
REMARK 923 INTER-LIGAND FREE ENERGY PREDICTED BY IDOCK:   -7.71 KCAL/MOL
REMARK 924 INTRA-LIGAND FREE ENERGY PREDICTED BY IDOCK:   -0.54 KCAL/MOL
REMARK 927      BINDING AFFINITY PREDICTED BY RF-SCORE:    0.00 PKD
ROOT
HETATM    1  C   UNL     1      -5.322   9.414  70.907  1.00  0.00    -0.035 C  
HETATM    2  C   UNL     1      -6.421  10.132  70.179  1.00  0.00    -0.118 A  
HETATM    3  C   UNL     1      -6.047  11.164  69.304  1.00  0.00    -0.056 A  
HETATM    4  C   UNL     1      -7.012  11.926  68.658  1.00  0.00    -0.095 A  
HETATM    5  C   UNL     1      -8.342  11.648  68.908  1.00  0.00     0.038 A  
HETATM    6  N   UNL     1      -8.720  10.633  69.700  1.00  0.00     0.036 NA 
HETATM    7  C   UNL     1      -7.788   9.857  70.321  1.00  0.00    -0.129 A  
ENDROOT
BRANCH   5   8
HETATM    8  N   UNL     1      -9.292  12.479  68.308  1.00  0.00    -0.236 N  
HETATM    9  C   UNL     1      -9.488  12.607  66.955  1.00  0.00    -0.229 C  
HETATM   10  H   UNL     1      -9.888  13.034  68.924  1.00  0.00     0.000 HD 
HETATM   11  O   UNL     1      -8.917  12.031  66.040  1.00  0.00    -0.145 OA 
BRANCH   9  12
HETATM   12  C   UNL     1     -10.557  13.631  66.620  1.00  0.00    -0.277 C  
HETATM   13  C   UNL     1     -12.004  13.322  66.994  1.00  0.00    -0.419 C  
HETATM   14  C   UNL     1     -11.577  13.218  65.566  1.00  0.00    -0.351 C  
BRANCH  12  15
HETATM   15  C   UNL     1     -10.060  15.077  66.643  1.00  0.00    -0.267 A  
HETATM   16  C   UNL     1      -8.163  16.639  66.395  1.00  0.00    -0.353 A  
HETATM   17  C   UNL     1      -8.737  15.375  66.221  1.00  0.00    -0.240 A  
HETATM   18  C   UNL     1      -8.936  17.609  66.989  1.00  0.00    -0.250 A  
HETATM   19  O   UNL     1      -8.532  18.871  67.295  1.00  0.00    -0.271 OA 
HETATM   20  C   UNL     1      -9.714  19.354  67.945  1.00  0.00    -0.352 C  
HETATM   21  F   UNL     1      -9.406  19.659  69.233  1.00  0.00    -0.404 F  
HETATM   22  F   UNL     1     -10.102  20.501  67.336  1.00  0.00    -0.549 F  
HETATM   23  O   UNL     1     -10.819  18.442  67.950  1.00  0.00    -0.356 OA 
HETATM   24  C   UNL     1     -10.233  17.362  67.367  1.00  0.00    -0.326 A  
HETATM   25  C   UNL     1     -10.822  16.123  67.200  1.00  0.00    -0.216 A  
ENDBRANCH  12  15
ENDBRANCH   9  12
ENDBRANCH   5   8
BRANCH   7  26
HETATM   26  C   UNL     1      -8.397   8.762  71.130  1.00  0.00    -0.219 A  
HETATM   27  C   UNL     1      -7.781   8.329  72.326  1.00  0.00    -0.168 A  
HETATM   28  C   UNL     1     -10.165   7.116  71.590  1.00  0.00    -0.208 A  
HETATM   29  O   UNL     1     -12.237   6.059  72.100  1.00  0.00    -0.288 OA 
HETATM   30  C   UNL     1      -9.616   8.145  70.804  1.00  0.00    -0.185 A  
HETATM   31  C   UNL     1      -9.509   6.690  72.746  1.00  0.00    -0.153 A  
HETATM   32  C   UNL     1     -11.420   6.482  71.113  1.00  0.00    -0.326 C  
HETATM   33  O   UNL     1     -11.699   6.383  69.932  1.00  0.00    -0.426 OA 
HETATM   34  C   UNL     1      -8.325   7.312  73.124  1.00  0.00    -0.140 A  
ENDBRANCH   7  26
TORSDOF 4
ENDMDL
MODEL      139
REMARK 921   NORMALIZED FREE ENERGY PREDICTED BY IDOCK:   -5.75 KCAL/MOL
REMARK 922        TOTAL FREE ENERGY PREDICTED BY IDOCK:   -8.24 KCAL/MOL
REMARK 923 INTER-LIGAND FREE ENERGY PREDICTED BY IDOCK:   -7.65 KCAL/MOL
REMARK 924 INTRA-LIGAND FREE ENERGY PREDICTED BY IDOCK:   -0.59 KCAL/MOL
REMARK 927      BINDING AFFINITY PREDICTED BY RF-SCORE:    0.00 PKD
ROOT
HETATM    1  C   UNL     1      -7.607  12.839  66.924  1.00  0.00     0.158 C  
HETATM    2  C   UNL     1      -8.530  11.864  67.596  1.00  0.00    -0.156 A  
HETATM    3  C   UNL     1      -8.068  11.241  68.766  1.00  0.00    -0.130 A  
HETATM    4  C   UNL     1      -8.832  10.269  69.397  1.00  0.00    -0.177 A  
HETATM    5  C   UNL     1     -10.048   9.925  68.837  1.00  0.00    -0.184 A  
HETATM    6  N   UNL     1     -10.531  10.545  67.748  1.00  0.00    -0.207 NA 
HETATM    7  C   UNL     1      -9.808  11.521  67.131  1.00  0.00    -0.191 A  
ENDROOT
BRANCH   5   8
HETATM    8  N   UNL     1     -10.762   8.889  69.445  1.00  0.00    -0.322 N  
HETATM    9  C   UNL     1     -10.927   8.734  70.800  1.00  0.00    -0.247 C  
HETATM   10  H   UNL     1     -11.194   8.194  68.836  1.00  0.00     0.000 HD 
HETATM   11  O   UNL     1     -10.526   9.446  71.709  1.00  0.00    -0.282 OA 
BRANCH   9  12
HETATM   12  C   UNL     1     -11.706   7.477  71.145  1.00  0.00    -0.315 C  
HETATM   13  C   UNL     1     -13.133   7.338  70.621  1.00  0.00     0.209 C  
HETATM   14  C   UNL     1     -12.909   7.662  72.062  1.00  0.00    -0.242 C  
BRANCH  12  15
HETATM   15  C   UNL     1     -10.834   6.232  71.312  1.00  0.00    -0.317 A  
HETATM   16  C   UNL     1     -10.034   4.098  70.360  1.00  0.00    -0.163 A  
HETATM   17  C   UNL     1     -10.659   5.342  70.219  1.00  0.00    -0.329 A  
HETATM   18  C   UNL     1      -9.576   3.758  71.610  1.00  0.00    -0.157 A  
HETATM   19  O   UNL     1      -9.001   2.574  71.952  1.00  0.00    -0.075 OA 
HETATM   20  C   UNL     1      -8.821   2.786  73.357  1.00  0.00    -0.079 C  
HETATM   21  F   UNL     1      -9.554   1.863  74.033  1.00  0.00    -0.078 F  
HETATM   22  F   UNL     1      -7.518   2.574  73.662  1.00  0.00    -0.040 F  
HETATM   23  O   UNL     1      -9.194   4.088  73.826  1.00  0.00    -0.094 OA 
HETATM   24  C   UNL     1      -9.692   4.617  72.676  1.00  0.00    -0.143 A  
HETATM   25  C   UNL     1     -10.300   5.852  72.559  1.00  0.00    -0.227 A  
ENDBRANCH  12  15
ENDBRANCH   9  12
ENDBRANCH   5   8
BRANCH   7  26
HETATM   26  C   UNL     1     -10.519  12.113  65.962  1.00  0.00    -0.281 A  
HETATM   27  C   UNL     1     -11.137  11.279  65.004  1.00  0.00    -0.159 A  
HETATM   28  C   UNL     1     -11.351  14.023  64.656  1.00  0.00    -0.378 A  
HETATM   29  O   UNL     1     -12.512  15.970  63.927  1.00  0.00    -0.806 OA 
HETATM   30  C   UNL     1     -10.672  13.496  65.769  1.00  0.00    -0.278 A  
HETATM   31  C   UNL     1     -11.919  13.167  63.710  1.00  0.00    -0.572 A  
HETATM   32  C   UNL     1     -11.390  15.500  64.511  1.00  0.00    -0.314 C  
HETATM   33  O   UNL     1     -10.496  16.223  64.913  1.00  0.00    -0.624 OA 
HETATM   34  C   UNL     1     -11.827  11.793  63.896  1.00  0.00    -0.449 A  
ENDBRANCH   7  26
TORSDOF 4
ENDMDL
MODEL      140
REMARK 921   NORMALIZED FREE ENERGY PREDICTED BY IDOCK:   -5.75 KCAL/MOL
REMARK 922        TOTAL FREE ENERGY PREDICTED BY IDOCK:   -8.23 KCAL/MOL
REMARK 923 INTER-LIGAND FREE ENERGY PREDICTED BY IDOCK:   -7.43 KCAL/MOL
REMARK 924 INTRA-LIGAND FREE ENERGY PREDICTED BY IDOCK:   -0.80 KCAL/MOL
REMARK 927      BINDING AFFINITY PREDICTED BY RF-SCORE:    0.00 PKD
ROOT
HETATM    1  C   UNL     1     -10.741  16.377  64.967  1.00  0.00    -0.279 C  
HETATM    2  C   UNL     1     -10.767  15.135  65.809  1.00  0.00    -0.359 A  
HETATM    3  C   UNL     1     -11.734  14.166  65.497  1.00  0.00    -0.344 A  
HETATM    4  C   UNL     1     -11.871  13.029  66.281  1.00  0.00    -0.466 A  
HETATM    5  C   UNL     1     -11.042  12.883  67.378  1.00  0.00    -0.273 A  
HETATM    6  N   UNL     1     -10.077  13.772  67.662  1.00  0.00    -0.239 NA 
HETATM    7  C   UNL     1      -9.909  14.880  66.888  1.00  0.00    -0.240 A  
ENDROOT
BRANCH   5   8
HETATM    8  N   UNL     1     -11.253  11.770  68.196  1.00  0.00    -0.239 N  
HETATM    9  C   UNL     1     -10.283  10.876  68.578  1.00  0.00    -0.185 C  
HETATM   10  H   UNL     1     -12.201  11.609  68.536  1.00  0.00     0.000 HD 
HETATM   11  O   UNL     1      -9.089  10.880  68.315  1.00  0.00    -0.145 OA 
BRANCH   9  12
HETATM   12  C   UNL     1     -10.842   9.745  69.422  1.00  0.00    -0.256 C  
HETATM   13  C   UNL     1     -12.250   9.888  69.991  1.00  0.00     0.048 C  
HETATM   14  C   UNL     1     -11.073  10.056  70.895  1.00  0.00    -0.385 C  
BRANCH  12  15
HETATM   15  C   UNL     1     -10.318   8.361  69.031  1.00  0.00    -0.231 A  
HETATM   16  C   UNL     1     -10.287   6.530  67.375  1.00  0.00    -0.263 A  
HETATM   17  C   UNL     1     -10.571   7.853  67.729  1.00  0.00    -0.244 A  
HETATM   18  C   UNL     1      -9.734   5.720  68.339  1.00  0.00    -0.133 A  
HETATM   19  O   UNL     1      -9.447   4.399  68.200  1.00  0.00    -0.138 OA 
HETATM   20  C   UNL     1      -8.986   4.108  69.525  1.00  0.00    -0.103 C  
HETATM   21  F   UNL     1      -9.815   3.187  70.081  1.00  0.00    -0.234 F  
HETATM   22  F   UNL     1      -7.755   3.549  69.439  1.00  0.00    -0.051 F  
HETATM   23  O   UNL     1      -8.914   5.238  70.404  1.00  0.00    -0.123 OA 
HETATM   24  C   UNL     1      -9.438   6.198  69.594  1.00  0.00    -0.145 A  
HETATM   25  C   UNL     1      -9.704   7.501  69.963  1.00  0.00    -0.172 A  
ENDBRANCH  12  15
ENDBRANCH   9  12
ENDBRANCH   5   8
BRANCH   7  26
HETATM   26  C   UNL     1      -8.769  15.730  67.340  1.00  0.00    -0.199 A  
HETATM   27  C   UNL     1      -7.455  15.213  67.359  1.00  0.00    -0.239 A  
HETATM   28  C   UNL     1      -7.813  17.854  68.128  1.00  0.00    -0.266 A  
HETATM   29  O   UNL     1      -7.084  20.114  68.307  1.00  0.00    -0.297 OA 
HETATM   30  C   UNL     1      -8.909  17.078  67.709  1.00  0.00    -0.223 A  
HETATM   31  C   UNL     1      -6.534  17.297  68.169  1.00  0.00    -0.162 A  
HETATM   32  C   UNL     1      -8.085  19.246  68.567  1.00  0.00    -0.366 C  
HETATM   33  O   UNL     1      -9.134  19.578  69.088  1.00  0.00    -0.312 OA 
HETATM   34  C   UNL     1      -6.353  15.979  67.764  1.00  0.00    -0.166 A  
ENDBRANCH   7  26
TORSDOF 4
ENDMDL
MODEL      141
REMARK 921   NORMALIZED FREE ENERGY PREDICTED BY IDOCK:   -5.74 KCAL/MOL
REMARK 922        TOTAL FREE ENERGY PREDICTED BY IDOCK:   -8.22 KCAL/MOL
REMARK 923 INTER-LIGAND FREE ENERGY PREDICTED BY IDOCK:   -7.97 KCAL/MOL
REMARK 924 INTRA-LIGAND FREE ENERGY PREDICTED BY IDOCK:   -0.25 KCAL/MOL
REMARK 927      BINDING AFFINITY PREDICTED BY RF-SCORE:    0.00 PKD
ROOT
HETATM    1  C   UNL     1     -10.908  16.473  65.437  1.00  0.00    -0.216 C  
HETATM    2  C   UNL     1     -10.270  15.157  65.775  1.00  0.00    -0.365 A  
HETATM    3  C   UNL     1     -10.882  13.997  65.273  1.00  0.00    -0.352 A  
HETATM    4  C   UNL     1     -10.396  12.741  65.611  1.00  0.00    -0.296 A  
HETATM    5  C   UNL     1      -9.308  12.664  66.459  1.00  0.00    -0.228 A  
HETATM    6  N   UNL     1      -8.678  13.761  66.908  1.00  0.00    -0.196 NA 
HETATM    7  C   UNL     1      -9.122  15.002  66.565  1.00  0.00    -0.286 A  
ENDROOT
BRANCH   5   8
HETATM    8  N   UNL     1      -8.888  11.389  66.847  1.00  0.00    -0.167 N  
HETATM    9  C   UNL     1      -9.268  10.215  66.243  1.00  0.00    -0.157 C  
HETATM   10  H   UNL     1      -8.249  11.325  67.640  1.00  0.00     0.000 HD 
HETATM   11  O   UNL     1      -9.996  10.051  65.275  1.00  0.00    -0.315 OA 
BRANCH   9  12
HETATM   12  C   UNL     1      -8.684   8.996  66.934  1.00  0.00    -0.132 C  
HETATM   13  C   UNL     1      -7.167   8.836  66.970  1.00  0.00    -0.079 C  
HETATM   14  C   UNL     1      -7.971   7.991  66.037  1.00  0.00    -0.101 C  
BRANCH  12  15
HETATM   15  C   UNL     1      -9.529   8.478  68.099  1.00  0.00    -0.152 A  
HETATM   16  C   UNL     1     -11.019   6.716  68.978  1.00  0.00    -0.332 A  
HETATM   17  C   UNL     1     -10.088   7.174  68.039  1.00  0.00    -0.201 A  
HETATM   18  C   UNL     1     -11.379   7.578  69.987  1.00  0.00    -0.096 A  
HETATM   19  O   UNL     1     -12.308   7.334  70.948  1.00  0.00    -0.314 OA 
HETATM   20  C   UNL     1     -12.291   8.594  71.629  1.00  0.00    -0.333 C  
HETATM   21  F   UNL     1     -13.522   9.160  71.523  1.00  0.00    -0.352 F  
HETATM   22  F   UNL     1     -12.059   8.370  72.945  1.00  0.00    -0.455 F  
HETATM   23  O   UNL     1     -11.321   9.532  71.146  1.00  0.00    -0.309 OA 
HETATM   24  C   UNL     1     -10.822   8.829  70.094  1.00  0.00    -0.227 A  
HETATM   25  C   UNL     1      -9.897   9.300  69.182  1.00  0.00    -0.167 A  
ENDBRANCH  12  15
ENDBRANCH   9  12
ENDBRANCH   5   8
BRANCH   7  26
HETATM   26  C   UNL     1      -8.277  16.093  67.130  1.00  0.00    -0.225 A  
HETATM   27  C   UNL     1      -7.938  16.097  68.502  1.00  0.00    -0.175 A  
HETATM   28  C   UNL     1      -6.930  18.140  66.918  1.00  0.00    -0.216 A  
HETATM   29  O   UNL     1      -5.255  19.733  66.348  1.00  0.00    -0.165 OA 
HETATM   30  C   UNL     1      -7.726  17.126  66.355  1.00  0.00    -0.345 A  
HETATM   31  C   UNL     1      -6.647  18.131  68.285  1.00  0.00    -0.205 A  
HETATM   32  C   UNL     1      -6.461  19.225  66.020  1.00  0.00    -0.206 C  
HETATM   33  O   UNL     1      -7.100  19.599  65.053  1.00  0.00    -0.373 OA 
HETATM   34  C   UNL     1      -7.136  17.096  69.074  1.00  0.00    -0.232 A  
ENDBRANCH   7  26
TORSDOF 4
ENDMDL
MODEL      142
REMARK 921   NORMALIZED FREE ENERGY PREDICTED BY IDOCK:   -5.74 KCAL/MOL
REMARK 922        TOTAL FREE ENERGY PREDICTED BY IDOCK:   -8.22 KCAL/MOL
REMARK 923 INTER-LIGAND FREE ENERGY PREDICTED BY IDOCK:   -7.07 KCAL/MOL
REMARK 924 INTRA-LIGAND FREE ENERGY PREDICTED BY IDOCK:   -1.15 KCAL/MOL
REMARK 927      BINDING AFFINITY PREDICTED BY RF-SCORE:    0.00 PKD
ROOT
HETATM    1  C   UNL     1     -12.045  15.807  69.408  1.00  0.00    -0.245 C  
HETATM    2  C   UNL     1     -11.376  14.716  68.623  1.00  0.00    -0.305 A  
HETATM    3  C   UNL     1     -11.843  13.406  68.814  1.00  0.00    -0.386 A  
HETATM    4  C   UNL     1     -11.220  12.337  68.186  1.00  0.00    -0.320 A  
HETATM    5  C   UNL     1     -10.126  12.595  67.381  1.00  0.00    -0.218 A  
HETATM    6  N   UNL     1      -9.697  13.844  67.144  1.00  0.00    -0.237 NA 
HETATM    7  C   UNL     1     -10.312  14.909  67.730  1.00  0.00    -0.244 A  
ENDROOT
BRANCH   5   8
HETATM    8  N   UNL     1      -9.469  11.495  66.823  1.00  0.00    -0.185 N  
HETATM    9  C   UNL     1      -9.799  10.899  65.630  1.00  0.00    -0.241 C  
HETATM   10  H   UNL     1      -8.682  11.104  67.342  1.00  0.00     0.000 HD 
HETATM   11  O   UNL     1     -10.677  11.206  64.837  1.00  0.00    -0.302 OA 
BRANCH   9  12
HETATM   12  C   UNL     1      -8.930   9.692  65.329  1.00  0.00    -0.246 C  
HETATM   13  C   UNL     1      -7.586   9.915  64.642  1.00  0.00    -0.139 C  
HETATM   14  C   UNL     1      -8.729   9.359  63.856  1.00  0.00    -0.225 C  
BRANCH  12  15
HETATM   15  C   UNL     1      -9.089   8.547  66.331  1.00  0.00    -0.229 A  
HETATM   16  C   UNL     1     -10.612   7.142  67.675  1.00  0.00    -0.318 A  
HETATM   17  C   UNL     1     -10.384   8.050  66.635  1.00  0.00    -0.273 A  
HETATM   18  C   UNL     1      -9.522   6.727  68.403  1.00  0.00    -0.126 A  
HETATM   19  O   UNL     1      -9.555   5.900  69.482  1.00  0.00    -0.135 OA 
HETATM   20  C   UNL     1      -8.168   5.910  69.839  1.00  0.00    -0.117 C  
HETATM   21  F   UNL     1      -8.043   6.438  71.084  1.00  0.00    -0.109 F  
HETATM   22  F   UNL     1      -7.728   4.629  69.895  1.00  0.00    -0.055 F  
HETATM   23  O   UNL     1      -7.318   6.647  68.950  1.00  0.00    -0.088 OA 
HETATM   24  C   UNL     1      -8.252   7.157  68.104  1.00  0.00    -0.124 A  
HETATM   25  C   UNL     1      -8.003   8.049  67.079  1.00  0.00    -0.108 A  
ENDBRANCH  12  15
ENDBRANCH   9  12
ENDBRANCH   5   8
BRANCH   7  26
HETATM   26  C   UNL     1      -9.716  16.214  67.323  1.00  0.00    -0.233 A  
HETATM   27  C   UNL     1     -10.493  17.171  66.632  1.00  0.00    -0.259 A  
HETATM   28  C   UNL     1      -7.870  17.836  67.241  1.00  0.00    -0.225 A  
HETATM   29  O   UNL     1      -6.171  19.406  67.806  1.00  0.00    -0.205 OA 
HETATM   30  C   UNL     1      -8.402  16.597  67.638  1.00  0.00    -0.183 A  
HETATM   31  C   UNL     1      -8.658  18.742  66.528  1.00  0.00    -0.312 A  
HETATM   32  C   UNL     1      -6.446  18.108  67.563  1.00  0.00    -0.184 C  
HETATM   33  O   UNL     1      -5.608  17.226  67.631  1.00  0.00    -0.115 OA 
HETATM   34  C   UNL     1      -9.978  18.415  66.241  1.00  0.00    -0.378 A  
ENDBRANCH   7  26
TORSDOF 4
ENDMDL
MODEL      143
REMARK 921   NORMALIZED FREE ENERGY PREDICTED BY IDOCK:   -5.72 KCAL/MOL
REMARK 922        TOTAL FREE ENERGY PREDICTED BY IDOCK:   -8.20 KCAL/MOL
REMARK 923 INTER-LIGAND FREE ENERGY PREDICTED BY IDOCK:   -8.07 KCAL/MOL
REMARK 924 INTRA-LIGAND FREE ENERGY PREDICTED BY IDOCK:   -0.14 KCAL/MOL
REMARK 927      BINDING AFFINITY PREDICTED BY RF-SCORE:    0.00 PKD
ROOT
HETATM    1  C   UNL     1      -6.498   7.783  68.233  1.00  0.00    -0.057 C  
HETATM    2  C   UNL     1      -7.521   8.745  67.703  1.00  0.00    -0.093 A  
HETATM    3  C   UNL     1      -7.093   9.677  66.745  1.00  0.00    -0.086 A  
HETATM    4  C   UNL     1      -7.962  10.650  66.269  1.00  0.00    -0.149 A  
HETATM    5  C   UNL     1      -9.249  10.682  66.772  1.00  0.00    -0.156 A  
HETATM    6  N   UNL     1      -9.693   9.769  67.649  1.00  0.00    -0.152 NA 
HETATM    7  C   UNL     1      -8.863   8.789  68.107  1.00  0.00    -0.141 A  
ENDROOT
BRANCH   5   8
HETATM    8  N   UNL     1     -10.079  11.719  66.337  1.00  0.00    -0.205 N  
HETATM    9  C   UNL     1     -10.188  12.151  65.038  1.00  0.00    -0.283 C  
HETATM   10  H   UNL     1     -10.650  12.191  67.039  1.00  0.00     0.000 HD 
HETATM   11  O   UNL     1      -9.628  11.725  64.038  1.00  0.00    -0.191 OA 
BRANCH   9  12
HETATM   12  C   UNL     1     -11.132  13.331  64.900  1.00  0.00    -0.345 C  
HETATM   13  C   UNL     1     -12.614  13.117  65.194  1.00  0.00    -0.525 C  
HETATM   14  C   UNL     1     -12.159  13.244  63.777  1.00  0.00    -0.546 C  
BRANCH  12  15
HETATM   15  C   UNL     1     -10.486  14.683  65.208  1.00  0.00    -0.420 A  
HETATM   16  C   UNL     1      -8.719  15.931  66.399  1.00  0.00    -0.362 A  
HETATM   17  C   UNL     1      -9.260  14.732  65.924  1.00  0.00    -0.076 A  
HETATM   18  C   UNL     1      -9.415  17.088  66.138  1.00  0.00    -0.225 A  
HETATM   19  O   UNL     1      -9.080  18.332  66.568  1.00  0.00    -0.282 OA 
HETATM   20  C   UNL     1     -10.195  19.075  66.062  1.00  0.00    -0.401 C  
HETATM   21  F   UNL     1     -10.866  19.619  67.110  1.00  0.00    -0.541 F  
HETATM   22  F   UNL     1      -9.725  20.097  65.306  1.00  0.00    -0.242 F  
HETATM   23  O   UNL     1     -11.123  18.316  65.278  1.00  0.00    -0.431 OA 
HETATM   24  C   UNL     1     -10.580  17.075  65.410  1.00  0.00    -0.134 A  
HETATM   25  C   UNL     1     -11.130  15.904  64.927  1.00  0.00    -0.400 A  
ENDBRANCH  12  15
ENDBRANCH   9  12
ENDBRANCH   5   8
BRANCH   7  26
HETATM   26  C   UNL     1      -9.543   7.852  69.047  1.00  0.00    -0.155 A  
HETATM   27  C   UNL     1     -10.903   7.517  68.864  1.00  0.00    -0.063 A  
HETATM   28  C   UNL     1      -9.554   6.329  70.977  1.00  0.00    -0.191 A  
HETATM   29  O   UNL     1      -9.156   4.518  72.471  1.00  0.00    -0.122 OA 
HETATM   30  C   UNL     1      -8.885   7.210  70.109  1.00  0.00    -0.145 A  
HETATM   31  C   UNL     1     -10.909   6.050  70.787  1.00  0.00    -0.358 A  
HETATM   32  C   UNL     1      -8.781   5.764  72.112  1.00  0.00    -0.133 C  
HETATM   33  O   UNL     1      -7.868   6.364  72.649  1.00  0.00    -0.103 OA 
HETATM   34  C   UNL     1     -11.578   6.631  69.716  1.00  0.00    -0.354 A  
ENDBRANCH   7  26
TORSDOF 4
ENDMDL
MODEL      144
REMARK 921   NORMALIZED FREE ENERGY PREDICTED BY IDOCK:   -5.72 KCAL/MOL
REMARK 922        TOTAL FREE ENERGY PREDICTED BY IDOCK:   -8.20 KCAL/MOL
REMARK 923 INTER-LIGAND FREE ENERGY PREDICTED BY IDOCK:   -7.78 KCAL/MOL
REMARK 924 INTRA-LIGAND FREE ENERGY PREDICTED BY IDOCK:   -0.42 KCAL/MOL
REMARK 927      BINDING AFFINITY PREDICTED BY RF-SCORE:    0.00 PKD
ROOT
HETATM    1  C   UNL     1     -12.157  14.150  67.129  1.00  0.00    -0.432 C  
HETATM    2  C   UNL     1     -11.431  12.839  67.049  1.00  0.00    -0.397 A  
HETATM    3  C   UNL     1     -10.731  12.562  65.864  1.00  0.00    -0.294 A  
HETATM    4  C   UNL     1     -10.104  11.336  65.685  1.00  0.00    -0.295 A  
HETATM    5  C   UNL     1     -10.199  10.398  66.695  1.00  0.00    -0.234 A  
HETATM    6  N   UNL     1     -10.819  10.661  67.855  1.00  0.00    -0.254 NA 
HETATM    7  C   UNL     1     -11.416  11.869  68.061  1.00  0.00    -0.323 A  
ENDROOT
BRANCH   5   8
HETATM    8  N   UNL     1      -9.627   9.144  66.459  1.00  0.00    -0.206 N  
HETATM    9  C   UNL     1      -8.286   8.859  66.546  1.00  0.00    -0.115 C  
HETATM   10  H   UNL     1     -10.255   8.382  66.201  1.00  0.00     0.000 HD 
HETATM   11  O   UNL     1      -7.363   9.597  66.857  1.00  0.00    -0.090 OA 
BRANCH   9  12
HETATM   12  C   UNL     1      -7.978   7.419  66.175  1.00  0.00    -0.112 C  
HETATM   13  C   UNL     1      -6.777   7.140  65.277  1.00  0.00    -0.047 C  
HETATM   14  C   UNL     1      -8.155   7.051  64.707  1.00  0.00    -0.096 C  
BRANCH  12  15
HETATM   15  C   UNL     1      -8.377   6.403  67.247  1.00  0.00    -0.112 A  
HETATM   16  C   UNL     1     -10.121   5.553  68.774  1.00  0.00    -0.256 A  
HETATM   17  C   UNL     1      -9.730   6.322  67.673  1.00  0.00    -0.126 A  
HETATM   18  C   UNL     1      -9.142   4.855  69.440  1.00  0.00    -0.105 A  
HETATM   19  O   UNL     1      -9.321   4.107  70.561  1.00  0.00    -0.111 OA 
HETATM   20  C   UNL     1      -7.967   3.715  70.812  1.00  0.00    -0.054 C  
HETATM   21  F   UNL     1      -7.584   4.219  72.014  1.00  0.00    -0.065 F  
HETATM   22  F   UNL     1      -7.919   2.364  70.903  1.00  0.00    -0.047 F  
HETATM   23  O   UNL     1      -7.019   4.140  69.823  1.00  0.00    -0.041 OA 
HETATM   24  C   UNL     1      -7.833   4.880  69.023  1.00  0.00    -0.076 A  
HETATM   25  C   UNL     1      -7.425   5.627  67.936  1.00  0.00    -0.077 A  
ENDBRANCH  12  15
ENDBRANCH   9  12
ENDBRANCH   5   8
BRANCH   7  26
HETATM   26  C   UNL     1     -12.023  11.988  69.418  1.00  0.00    -0.334 A  
HETATM   27  C   UNL     1     -12.396  10.831  70.138  1.00  0.00    -0.401 A  
HETATM   28  C   UNL     1     -12.781  13.292  71.360  1.00  0.00    -0.401 A  
HETATM   29  O   UNL     1     -12.881  14.699  73.278  1.00  0.00    -0.504 OA 
HETATM   30  C   UNL     1     -12.207  13.214  70.078  1.00  0.00    -0.323 A  
HETATM   31  C   UNL     1     -13.170  12.129  72.027  1.00  0.00    -0.496 A  
HETATM   32  C   UNL     1     -12.996  14.644  71.935  1.00  0.00    -0.331 C  
HETATM   33  O   UNL     1     -13.227  15.622  71.246  1.00  0.00    -0.494 OA 
HETATM   34  C   UNL     1     -12.959  10.896  71.421  1.00  0.00    -0.527 A  
ENDBRANCH   7  26
TORSDOF 4
ENDMDL
MODEL      145
REMARK 921   NORMALIZED FREE ENERGY PREDICTED BY IDOCK:   -5.71 KCAL/MOL
REMARK 922        TOTAL FREE ENERGY PREDICTED BY IDOCK:   -8.19 KCAL/MOL
REMARK 923 INTER-LIGAND FREE ENERGY PREDICTED BY IDOCK:   -7.43 KCAL/MOL
REMARK 924 INTRA-LIGAND FREE ENERGY PREDICTED BY IDOCK:   -0.76 KCAL/MOL
REMARK 927      BINDING AFFINITY PREDICTED BY RF-SCORE:    0.00 PKD
ROOT
HETATM    1  C   UNL     1      -8.246   3.289  68.371  1.00  0.00    -0.085 C  
HETATM    2  C   UNL     1      -8.468   4.558  67.600  1.00  0.00    -0.103 A  
HETATM    3  C   UNL     1      -8.183   4.533  66.225  1.00  0.00    -0.106 A  
HETATM    4  C   UNL     1      -8.286   5.689  65.463  1.00  0.00    -0.129 A  
HETATM    5  C   UNL     1      -8.662   6.860  66.093  1.00  0.00    -0.145 A  
HETATM    6  N   UNL     1      -8.988   6.893  67.395  1.00  0.00    -0.117 NA 
HETATM    7  C   UNL     1      -8.920   5.764  68.153  1.00  0.00    -0.114 A  
ENDROOT
BRANCH   5   8
HETATM    8  N   UNL     1      -8.681   8.024  65.321  1.00  0.00    -0.356 N  
HETATM    9  C   UNL     1      -9.563   9.065  65.483  1.00  0.00    -0.096 C  
HETATM   10  H   UNL     1      -7.985   8.108  64.579  1.00  0.00     0.000 HD 
HETATM   11  O   UNL     1     -10.454   9.194  66.310  1.00  0.00    -0.185 OA 
BRANCH   9  12
HETATM   12  C   UNL     1      -9.359  10.159  64.450  1.00  0.00    -0.348 C  
HETATM   13  C   UNL     1      -9.189   9.758  62.988  1.00  0.00    -0.226 C  
HETATM   14  C   UNL     1      -7.995  10.198  63.772  1.00  0.00    -0.153 C  
BRANCH  12  15
HETATM   15  C   UNL     1     -10.050  11.478  64.799  1.00  0.00    -0.316 A  
HETATM   16  C   UNL     1     -11.631  13.252  64.126  1.00  0.00    -0.451 A  
HETATM   17  C   UNL     1     -11.093  11.970  63.970  1.00  0.00    -0.452 A  
HETATM   18  C   UNL     1     -11.118  14.036  65.132  1.00  0.00    -0.341 A  
HETATM   19  O   UNL     1     -11.470  15.322  65.395  1.00  0.00    -0.293 OA 
HETATM   20  C   UNL     1     -10.564  15.609  66.467  1.00  0.00    -0.307 C  
HETATM   21  F   UNL     1      -9.738  16.616  66.079  1.00  0.00    -0.281 F  
HETATM   22  F   UNL     1     -11.278  16.055  67.528  1.00  0.00    -0.321 F  
HETATM   23  O   UNL     1      -9.757  14.503  66.891  1.00  0.00    -0.237 OA 
HETATM   24  C   UNL     1     -10.140  13.571  65.977  1.00  0.00    -0.310 A  
HETATM   25  C   UNL     1      -9.598  12.307  65.845  1.00  0.00    -0.207 A  
ENDBRANCH  12  15
ENDBRANCH   9  12
ENDBRANCH   5   8
BRANCH   7  26
HETATM   26  C   UNL     1      -9.351   5.990  69.563  1.00  0.00    -0.151 A  
HETATM   27  C   UNL     1     -10.564   5.443  70.037  1.00  0.00    -0.354 A  
HETATM   28  C   UNL     1      -9.012   6.885  71.828  1.00  0.00    -0.138 A  
HETATM   29  O   UNL     1      -8.188   7.333  74.017  1.00  0.00    -0.130 OA 
HETATM   30  C   UNL     1      -8.579   6.690  70.505  1.00  0.00    -0.143 A  
HETATM   31  C   UNL     1     -10.235   6.359  72.251  1.00  0.00    -0.205 A  
HETATM   32  C   UNL     1      -8.152   7.704  72.720  1.00  0.00    -0.113 C  
HETATM   33  O   UNL     1      -7.453   8.611  72.306  1.00  0.00    -0.254 OA 
HETATM   34  C   UNL     1     -11.001   5.620  71.358  1.00  0.00    -0.260 A  
ENDBRANCH   7  26
TORSDOF 4
ENDMDL
MODEL      146
REMARK 921   NORMALIZED FREE ENERGY PREDICTED BY IDOCK:   -5.70 KCAL/MOL
REMARK 922        TOTAL FREE ENERGY PREDICTED BY IDOCK:   -8.18 KCAL/MOL
REMARK 923 INTER-LIGAND FREE ENERGY PREDICTED BY IDOCK:   -7.36 KCAL/MOL
REMARK 924 INTRA-LIGAND FREE ENERGY PREDICTED BY IDOCK:   -0.82 KCAL/MOL
REMARK 927      BINDING AFFINITY PREDICTED BY RF-SCORE:    0.00 PKD
ROOT
HETATM    1  C   UNL     1     -12.857  14.331  65.253  1.00  0.00    -0.300 C  
HETATM    2  C   UNL     1     -11.893  13.420  65.955  1.00  0.00    -0.423 A  
HETATM    3  C   UNL     1     -11.904  12.065  65.588  1.00  0.00    -0.242 A  
HETATM    4  C   UNL     1     -11.099  11.148  66.251  1.00  0.00    -0.176 A  
HETATM    5  C   UNL     1     -10.300  11.602  67.283  1.00  0.00    -0.204 A  
HETATM    6  N   UNL     1     -10.237  12.901  67.615  1.00  0.00    -0.217 NA 
HETATM    7  C   UNL     1     -10.998  13.820  66.958  1.00  0.00    -0.290 A  
ENDROOT
BRANCH   5   8
HETATM    8  N   UNL     1      -9.559  10.648  67.986  1.00  0.00    -0.155 N  
HETATM    9  C   UNL     1      -8.206  10.710  68.215  1.00  0.00    -0.120 C  
HETATM   10  H   UNL     1     -10.063   9.842  68.357  1.00  0.00     0.000 HD 
HETATM   11  O   UNL     1      -7.413  11.582  67.890  1.00  0.00    -0.094 OA 
BRANCH   9  12
HETATM   12  C   UNL     1      -7.691   9.492  68.960  1.00  0.00    -0.076 C  
HETATM   13  C   UNL     1      -7.740   9.497  70.485  1.00  0.00    -0.177 C  
HETATM   14  C   UNL     1      -6.431   9.696  69.792  1.00  0.00    -0.049 C  
BRANCH  12  15
HETATM   15  C   UNL     1      -7.870   8.177  68.199  1.00  0.00    -0.122 A  
HETATM   16  C   UNL     1      -7.297   6.812  66.223  1.00  0.00    -0.073 A  
HETATM   17  C   UNL     1      -7.056   7.900  67.068  1.00  0.00    -0.078 A  
HETATM   18  C   UNL     1      -8.359   5.994  66.528  1.00  0.00    -0.113 A  
HETATM   19  O   UNL     1      -8.782   4.931  65.795  1.00  0.00    -0.123 OA 
HETATM   20  C   UNL     1      -9.934   4.551  66.556  1.00  0.00    -0.240 C  
HETATM   21  F   UNL     1     -11.035   4.682  65.771  1.00  0.00    -0.343 F  
HETATM   22  F   UNL     1      -9.821   3.241  66.884  1.00  0.00    -0.183 F  
HETATM   23  O   UNL     1     -10.144   5.307  67.756  1.00  0.00    -0.157 OA 
HETATM   24  C   UNL     1      -9.137   6.213  67.640  1.00  0.00    -0.109 A  
HETATM   25  C   UNL     1      -8.914   7.278  68.492  1.00  0.00    -0.130 A  
ENDBRANCH  12  15
ENDBRANCH   9  12
ENDBRANCH   5   8
BRANCH   7  26
HETATM   26  C   UNL     1     -10.768  15.211  67.443  1.00  0.00    -0.286 A  
HETATM   27  C   UNL     1     -10.627  15.473  68.824  1.00  0.00    -0.242 A  
HETATM   28  C   UNL     1     -10.402  17.615  67.075  1.00  0.00    -0.330 A  
HETATM   29  O   UNL     1      -9.507  19.726  66.433  1.00  0.00    -0.360 OA 
HETATM   30  C   UNL     1     -10.621  16.315  66.586  1.00  0.00    -0.252 A  
HETATM   31  C   UNL     1     -10.304  17.841  68.449  1.00  0.00    -0.378 A  
HETATM   32  C   UNL     1     -10.336  18.719  66.085  1.00  0.00    -0.448 C  
HETATM   33  O   UNL     1     -10.955  18.700  65.036  1.00  0.00    -0.559 OA 
HETATM   34  C   UNL     1     -10.397  16.764  69.323  1.00  0.00    -0.309 A  
ENDBRANCH   7  26
TORSDOF 4
ENDMDL
MODEL      147
REMARK 921   NORMALIZED FREE ENERGY PREDICTED BY IDOCK:   -5.70 KCAL/MOL
REMARK 922        TOTAL FREE ENERGY PREDICTED BY IDOCK:   -8.18 KCAL/MOL
REMARK 923 INTER-LIGAND FREE ENERGY PREDICTED BY IDOCK:   -7.11 KCAL/MOL
REMARK 924 INTRA-LIGAND FREE ENERGY PREDICTED BY IDOCK:   -1.07 KCAL/MOL
REMARK 927      BINDING AFFINITY PREDICTED BY RF-SCORE:    0.00 PKD
ROOT
HETATM    1  C   UNL     1     -10.720   5.596  72.578  1.00  0.00    -0.285 C  
HETATM    2  C   UNL     1     -10.245   6.712  71.693  1.00  0.00    -0.212 A  
HETATM    3  C   UNL     1     -10.632   8.017  72.038  1.00  0.00    -0.310 A  
HETATM    4  C   UNL     1     -10.300   9.090  71.223  1.00  0.00    -0.383 A  
HETATM    5  C   UNL     1      -9.592   8.838  70.062  1.00  0.00    -0.169 A  
HETATM    6  N   UNL     1      -9.168   7.606  69.741  1.00  0.00    -0.147 NA 
HETATM    7  C   UNL     1      -9.461   6.544  70.543  1.00  0.00    -0.166 A  
ENDROOT
BRANCH   5   8
HETATM    8  N   UNL     1      -9.338   9.924  69.220  1.00  0.00    -0.193 N  
HETATM    9  C   UNL     1      -8.139  10.586  69.124  1.00  0.00    -0.152 C  
HETATM   10  H   UNL     1     -10.104  10.250  68.629  1.00  0.00     0.000 HD 
HETATM   11  O   UNL     1      -7.089  10.360  69.708  1.00  0.00    -0.116 OA 
BRANCH   9  12
HETATM   12  C   UNL     1      -8.202  11.757  68.159  1.00  0.00    -0.153 C  
HETATM   13  C   UNL     1      -6.995  12.685  68.060  1.00  0.00    -0.099 C  
HETATM   14  C   UNL     1      -8.216  13.145  68.787  1.00  0.00     0.098 C  
BRANCH  12  15
HETATM   15  C   UNL     1      -9.062  11.496  66.922  1.00  0.00    -0.181 A  
HETATM   16  C   UNL     1      -9.191  10.638  64.610  1.00  0.00    -0.262 A  
HETATM   17  C   UNL     1      -8.530  10.749  65.837  1.00  0.00    -0.166 A  
HETATM   18  C   UNL     1     -10.401  11.277  64.482  1.00  0.00    -0.322 A  
HETATM   19  O   UNL     1     -11.156  11.332  63.353  1.00  0.00    -0.329 OA 
HETATM   20  C   UNL     1     -12.219  12.176  63.811  1.00  0.00    -0.531 C  
HETATM   21  F   UNL     1     -12.220  13.314  63.068  1.00  0.00    -0.619 F  
HETATM   22  F   UNL     1     -13.397  11.545  63.590  1.00  0.00    -0.402 F  
HETATM   23  O   UNL     1     -12.149  12.543  65.195  1.00  0.00    -0.417 OA 
HETATM   24  C   UNL     1     -10.961  11.970  65.528  1.00  0.00    -0.298 A  
HETATM   25  C   UNL     1     -10.329  12.088  66.750  1.00  0.00    -0.233 A  
ENDBRANCH  12  15
ENDBRANCH   9  12
ENDBRANCH   5   8
BRANCH   7  26
HETATM   26  C   UNL     1      -8.879   5.266  70.040  1.00  0.00    -0.140 A  
HETATM   27  C   UNL     1      -7.959   4.540  70.829  1.00  0.00    -0.068 A  
HETATM   28  C   UNL     1      -8.672   3.474  68.369  1.00  0.00    -0.138 A  
HETATM   29  O   UNL     1      -9.094   1.641  66.909  1.00  0.00    -0.121 OA 
HETATM   30  C   UNL     1      -9.237   4.682  68.814  1.00  0.00    -0.179 A  
HETATM   31  C   UNL     1      -7.738   2.803  69.161  1.00  0.00    -0.048 A  
HETATM   32  C   UNL     1      -9.066   2.985  67.024  1.00  0.00    -0.173 C  
HETATM   33  O   UNL     1      -9.368   3.736  66.114  1.00  0.00    -0.159 OA 
HETATM   34  C   UNL     1      -7.397   3.328  70.402  1.00  0.00    -0.040 A  
ENDBRANCH   7  26
TORSDOF 4
ENDMDL
MODEL      148
REMARK 921   NORMALIZED FREE ENERGY PREDICTED BY IDOCK:   -5.67 KCAL/MOL
REMARK 922        TOTAL FREE ENERGY PREDICTED BY IDOCK:   -8.13 KCAL/MOL
REMARK 923 INTER-LIGAND FREE ENERGY PREDICTED BY IDOCK:   -6.92 KCAL/MOL
REMARK 924 INTRA-LIGAND FREE ENERGY PREDICTED BY IDOCK:   -1.21 KCAL/MOL
REMARK 927      BINDING AFFINITY PREDICTED BY RF-SCORE:    0.00 PKD
ROOT
HETATM    1  C   UNL     1      -7.794  12.360  68.562  1.00  0.00    -0.112 C  
HETATM    2  C   UNL     1      -8.081  10.894  68.715  1.00  0.00    -0.145 A  
HETATM    3  C   UNL     1      -7.539  10.246  69.836  1.00  0.00    -0.153 A  
HETATM    4  C   UNL     1      -7.693   8.876  70.001  1.00  0.00    -0.078 A  
HETATM    5  C   UNL     1      -8.379   8.171  69.030  1.00  0.00    -0.128 A  
HETATM    6  N   UNL     1      -8.948   8.780  67.978  1.00  0.00    -0.140 NA 
HETATM    7  C   UNL     1      -8.832  10.127  67.813  1.00  0.00    -0.125 A  
ENDROOT
BRANCH   5   8
HETATM    8  N   UNL     1      -8.452   6.783  69.178  1.00  0.00    -0.127 N  
HETATM    9  C   UNL     1      -9.388   6.118  69.932  1.00  0.00    -0.149 C  
HETATM   10  H   UNL     1      -7.755   6.220  68.689  1.00  0.00     0.000 HD 
HETATM   11  O   UNL     1     -10.320   6.575  70.577  1.00  0.00    -0.194 OA 
BRANCH   9  12
HETATM   12  C   UNL     1      -9.164   4.616  69.935  1.00  0.00    -0.188 C  
HETATM   13  C   UNL     1      -9.588   3.819  71.165  1.00  0.00    -0.246 C  
HETATM   14  C   UNL     1      -8.137   4.092  70.931  1.00  0.00    -0.067 C  
BRANCH  12  15
HETATM   15  C   UNL     1      -9.245   3.974  68.549  1.00  0.00    -0.206 A  
HETATM   16  C   UNL     1      -8.202   2.499  66.865  1.00  0.00    -0.084 A  
HETATM   17  C   UNL     1      -8.298   2.984  68.174  1.00  0.00    -0.094 A  
HETATM   18  C   UNL     1      -9.076   3.010  65.934  1.00  0.00    -0.141 A  
HETATM   19  O   UNL     1      -9.093   2.707  64.609  1.00  0.00    -0.119 OA 
HETATM   20  C   UNL     1     -10.136   3.586  64.172  1.00  0.00    -0.204 C  
HETATM   21  F   UNL     1      -9.613   4.470  63.281  1.00  0.00    -0.147 F  
HETATM   22  F   UNL     1     -11.070   2.854  63.518  1.00  0.00    -0.246 F  
HETATM   23  O   UNL     1     -10.782   4.327  65.214  1.00  0.00    -0.240 OA 
HETATM   24  C   UNL     1     -10.031   3.936  66.279  1.00  0.00    -0.036 A  
HETATM   25  C   UNL     1     -10.148   4.424  67.565  1.00  0.00    -0.061 A  
ENDBRANCH  12  15
ENDBRANCH   9  12
ENDBRANCH   5   8
BRANCH   7  26
HETATM   26  C   UNL     1      -9.556  10.625  66.608  1.00  0.00    -0.209 A  
HETATM   27  C   UNL     1      -9.242  10.121  65.326  1.00  0.00    -0.257 A  
HETATM   28  C   UNL     1     -11.272  12.002  65.511  1.00  0.00    -0.372 A  
HETATM   29  O   UNL     1     -13.332  12.957  64.793  1.00  0.00    -0.655 OA 
HETATM   30  C   UNL     1     -10.608  11.555  66.666  1.00  0.00    -0.294 A  
HETATM   31  C   UNL     1     -10.910  11.508  64.257  1.00  0.00    -0.421 A  
HETATM   32  C   UNL     1     -12.319  13.042  65.680  1.00  0.00    -0.446 C  
HETATM   33  O   UNL     1     -12.276  13.880  66.563  1.00  0.00    -0.441 OA 
HETATM   34  C   UNL     1      -9.906  10.551  64.168  1.00  0.00    -0.401 A  
ENDBRANCH   7  26
TORSDOF 4
ENDMDL
MODEL      149
REMARK 921   NORMALIZED FREE ENERGY PREDICTED BY IDOCK:   -5.63 KCAL/MOL
REMARK 922        TOTAL FREE ENERGY PREDICTED BY IDOCK:   -8.09 KCAL/MOL
REMARK 923 INTER-LIGAND FREE ENERGY PREDICTED BY IDOCK:   -7.47 KCAL/MOL
REMARK 924 INTRA-LIGAND FREE ENERGY PREDICTED BY IDOCK:   -0.63 KCAL/MOL
REMARK 927      BINDING AFFINITY PREDICTED BY RF-SCORE:    0.00 PKD
ROOT
HETATM    1  C   UNL     1      -8.102   6.329  63.785  1.00  0.00    -0.050 C  
HETATM    2  C   UNL     1      -8.084   7.643  64.510  1.00  0.00    -0.098 A  
HETATM    3  C   UNL     1      -8.032   8.808  63.729  1.00  0.00    -0.157 A  
HETATM    4  C   UNL     1      -7.930  10.056  64.330  1.00  0.00    -0.152 A  
HETATM    5  C   UNL     1      -7.869  10.117  65.709  1.00  0.00    -0.139 A  
HETATM    6  N   UNL     1      -7.969   9.020  66.475  1.00  0.00    -0.103 NA 
HETATM    7  C   UNL     1      -8.098   7.789  65.905  1.00  0.00    -0.121 A  
ENDROOT
BRANCH   5   8
HETATM    8  N   UNL     1      -7.687  11.377  66.286  1.00  0.00    -0.356 N  
HETATM    9  C   UNL     1      -8.675  12.124  66.880  1.00  0.00    -0.194 C  
HETATM   10  H   UNL     1      -6.747  11.774  66.263  1.00  0.00     0.000 HD 
HETATM   11  O   UNL     1      -9.854  11.845  67.043  1.00  0.00    -0.190 OA 
BRANCH   9  12
HETATM   12  C   UNL     1      -8.169  13.472  67.361  1.00  0.00    -0.187 C  
HETATM   13  C   UNL     1      -6.665  13.666  67.533  1.00  0.00    -0.139 C  
HETATM   14  C   UNL     1      -7.526  13.496  68.742  1.00  0.00    -0.071 C  
BRANCH  12  15
HETATM   15  C   UNL     1      -9.042  14.652  66.930  1.00  0.00    -0.272 A  
HETATM   16  C   UNL     1     -10.529  15.638  65.223  1.00  0.00    -0.439 A  
HETATM   17  C   UNL     1      -9.858  14.541  65.773  1.00  0.00    -0.343 A  
HETATM   18  C   UNL     1     -10.382  16.852  65.852  1.00  0.00    -0.315 A  
HETATM   19  O   UNL     1     -10.904  18.034  65.432  1.00  0.00    -0.547 OA 
HETATM   20  C   UNL     1     -10.354  18.910  66.423  1.00  0.00    -0.443 C  
HETATM   21  F   UNL     1      -9.545  19.811  65.806  1.00  0.00    -0.397 F  
HETATM   22  F   UNL     1     -11.367  19.600  66.999  1.00  0.00    -0.510 F  
HETATM   23  O   UNL     1      -9.599  18.261  67.455  1.00  0.00    -0.276 OA 
HETATM   24  C   UNL     1      -9.634  16.980  66.998  1.00  0.00    -0.254 A  
HETATM   25  C   UNL     1      -8.968  15.909  67.562  1.00  0.00    -0.201 A  
ENDBRANCH  12  15
ENDBRANCH   9  12
ENDBRANCH   5   8
BRANCH   7  26
HETATM   26  C   UNL     1      -8.227   6.698  66.913  1.00  0.00    -0.113 A  
HETATM   27  C   UNL     1      -7.275   5.655  66.965  1.00  0.00    -0.075 A  
HETATM   28  C   UNL     1      -9.331   5.619  68.828  1.00  0.00    -0.145 A  
HETATM   29  O   UNL     1     -10.214   5.120  70.982  1.00  0.00    -0.213 OA 
HETATM   30  C   UNL     1      -9.238   6.662  67.889  1.00  0.00    -0.111 A  
HETATM   31  C   UNL     1      -8.392   4.587  68.826  1.00  0.00    -0.086 A  
HETATM   32  C   UNL     1     -10.481   5.641  69.766  1.00  0.00    -0.306 C  
HETATM   33  O   UNL     1     -11.563   6.117  69.469  1.00  0.00    -0.396 OA 
HETATM   34  C   UNL     1      -7.351   4.617  67.904  1.00  0.00    -0.066 A  
ENDBRANCH   7  26
TORSDOF 4
ENDMDL
MODEL      150
REMARK 921   NORMALIZED FREE ENERGY PREDICTED BY IDOCK:   -5.62 KCAL/MOL
REMARK 922        TOTAL FREE ENERGY PREDICTED BY IDOCK:   -8.07 KCAL/MOL
REMARK 923 INTER-LIGAND FREE ENERGY PREDICTED BY IDOCK:   -7.18 KCAL/MOL
REMARK 924 INTRA-LIGAND FREE ENERGY PREDICTED BY IDOCK:   -0.90 KCAL/MOL
REMARK 927      BINDING AFFINITY PREDICTED BY RF-SCORE:    0.00 PKD
ROOT
HETATM    1  C   UNL     1      -5.969   8.511  70.372  1.00  0.00    -0.027 C  
HETATM    2  C   UNL     1      -6.727   9.493  69.527  1.00  0.00    -0.049 A  
HETATM    3  C   UNL     1      -6.229  10.804  69.460  1.00  0.00    -0.064 A  
HETATM    4  C   UNL     1      -6.921  11.787  68.765  1.00  0.00    -0.103 A  
HETATM    5  C   UNL     1      -8.113  11.444  68.156  1.00  0.00    -0.137 A  
HETATM    6  N   UNL     1      -8.580  10.186  68.166  1.00  0.00    -0.117 NA 
HETATM    7  C   UNL     1      -7.901   9.201  68.818  1.00  0.00    -0.096 A  
ENDROOT
BRANCH   5   8
HETATM    8  N   UNL     1      -8.830  12.468  67.532  1.00  0.00    -0.174 N  
HETATM    9  C   UNL     1      -9.971  13.050  68.028  1.00  0.00    -0.233 C  
HETATM   10  H   UNL     1      -8.478  12.811  66.637  1.00  0.00     0.000 HD 
HETATM   11  O   UNL     1     -10.554  12.821  69.077  1.00  0.00    -0.169 OA 
BRANCH   9  12
HETATM   12  C   UNL     1     -10.541  14.095  67.086  1.00  0.00    -0.278 C  
HETATM   13  C   UNL     1     -11.976  13.927  66.594  1.00  0.00    -0.474 C  
HETATM   14  C   UNL     1     -10.843  13.628  65.667  1.00  0.00    -0.280 C  
BRANCH  12  15
HETATM   15  C   UNL     1      -9.972  15.499  67.298  1.00  0.00    -0.238 A  
HETATM   16  C   UNL     1      -8.202  16.908  68.288  1.00  0.00    -0.222 A  
HETATM   17  C   UNL     1      -8.694  15.658  67.896  1.00  0.00    -0.166 A  
HETATM   18  C   UNL     1      -9.003  18.003  68.063  1.00  0.00    -0.272 A  
HETATM   19  O   UNL     1      -8.723  19.282  68.428  1.00  0.00    -0.332 OA 
HETATM   20  C   UNL     1      -9.931  19.926  68.008  1.00  0.00    -0.429 C  
HETATM   21  F   UNL     1     -10.544  20.454  69.099  1.00  0.00    -0.470 F  
HETATM   22  F   UNL     1      -9.609  20.953  67.186  1.00  0.00    -0.575 F  
HETATM   23  O   UNL     1     -10.868  19.077  67.333  1.00  0.00    -0.473 OA 
HETATM   24  C   UNL     1     -10.225  17.883  67.446  1.00  0.00    -0.360 A  
HETATM   25  C   UNL     1     -10.728  16.661  67.046  1.00  0.00    -0.174 A  
ENDBRANCH  12  15
ENDBRANCH   9  12
ENDBRANCH   5   8
BRANCH   7  26
HETATM   26  C   UNL     1      -8.556   7.868  68.690  1.00  0.00    -0.128 A  
HETATM   27  C   UNL     1      -9.884   7.677  69.133  1.00  0.00    -0.171 A  
HETATM   28  C   UNL     1      -8.586   5.514  67.979  1.00  0.00    -0.100 A  
HETATM   29  O   UNL     1      -8.568   3.505  66.701  1.00  0.00    -0.105 OA 
HETATM   30  C   UNL     1      -7.941   6.759  68.086  1.00  0.00    -0.114 A  
HETATM   31  C   UNL     1      -9.887   5.354  68.461  1.00  0.00    -0.199 A  
HETATM   32  C   UNL     1      -7.817   4.389  67.389  1.00  0.00    -0.096 C  
HETATM   33  O   UNL     1      -6.607   4.294  67.495  1.00  0.00    -0.044 OA 
HETATM   34  C   UNL     1     -10.542   6.444  69.021  1.00  0.00    -0.305 A  
ENDBRANCH   7  26
TORSDOF 4
ENDMDL
MODEL      151
REMARK 921   NORMALIZED FREE ENERGY PREDICTED BY IDOCK:   -5.61 KCAL/MOL
REMARK 922        TOTAL FREE ENERGY PREDICTED BY IDOCK:   -8.06 KCAL/MOL
REMARK 923 INTER-LIGAND FREE ENERGY PREDICTED BY IDOCK:   -8.02 KCAL/MOL
REMARK 924 INTRA-LIGAND FREE ENERGY PREDICTED BY IDOCK:   -0.04 KCAL/MOL
REMARK 927      BINDING AFFINITY PREDICTED BY RF-SCORE:    0.00 PKD
ROOT
HETATM    1  C   UNL     1      -6.086   7.912  68.529  1.00  0.00    -0.040 C  
HETATM    2  C   UNL     1      -7.147   8.905  68.151  1.00  0.00    -0.078 A  
HETATM    3  C   UNL     1      -6.732  10.064  67.477  1.00  0.00    -0.072 A  
HETATM    4  C   UNL     1      -7.644  11.064  67.168  1.00  0.00    -0.117 A  
HETATM    5  C   UNL     1      -8.961  10.893  67.551  1.00  0.00    -0.136 A  
HETATM    6  N   UNL     1      -9.387   9.771  68.150  1.00  0.00    -0.129 NA 
HETATM    7  C   UNL     1      -8.512   8.766  68.437  1.00  0.00    -0.130 A  
ENDROOT
BRANCH   5   8
HETATM    8  N   UNL     1      -9.842  11.948  67.299  1.00  0.00    -0.186 N  
HETATM    9  C   UNL     1      -9.485  13.272  67.215  1.00  0.00    -0.233 C  
HETATM   10  H   UNL     1     -10.827  11.717  67.167  1.00  0.00     0.000 HD 
HETATM   11  O   UNL     1      -8.376  13.775  67.313  1.00  0.00    -0.180 OA 
BRANCH   9  12
HETATM   12  C   UNL     1     -10.682  14.178  66.986  1.00  0.00    -0.285 C  
HETATM   13  C   UNL     1     -11.664  13.821  65.874  1.00  0.00    -0.370 C  
HETATM   14  C   UNL     1     -10.702  14.947  65.671  1.00  0.00    -0.352 C  
BRANCH  12  15
HETATM   15  C   UNL     1     -11.189  14.868  68.254  1.00  0.00    -0.306 A  
HETATM   16  C   UNL     1     -10.919  16.701  69.887  1.00  0.00    -0.194 A  
HETATM   17  C   UNL     1     -10.636  16.115  68.648  1.00  0.00    -0.283 A  
HETATM   18  C   UNL     1     -11.773  16.026  70.726  1.00  0.00    -0.378 A  
HETATM   19  O   UNL     1     -12.115  16.406  71.986  1.00  0.00    -0.454 OA 
HETATM   20  C   UNL     1     -12.937  15.295  72.361  1.00  0.00    -0.380 C  
HETATM   21  F   UNL     1     -12.364  14.669  73.422  1.00  0.00    -0.445 F  
HETATM   22  F   UNL     1     -14.141  15.767  72.768  1.00  0.00    -0.619 F  
HETATM   23  O   UNL     1     -13.153  14.324  71.329  1.00  0.00    -0.331 OA 
HETATM   24  C   UNL     1     -12.357  14.839  70.354  1.00  0.00    -0.344 A  
HETATM   25  C   UNL     1     -12.097  14.246  69.134  1.00  0.00    -0.337 A  
ENDBRANCH  12  15
ENDBRANCH   9  12
ENDBRANCH   5   8
BRANCH   7  26
HETATM   26  C   UNL     1      -9.175   7.590  69.071  1.00  0.00    -0.146 A  
HETATM   27  C   UNL     1     -10.571   7.586  69.288  1.00  0.00    -0.215 A  
HETATM   28  C   UNL     1      -9.144   5.324  70.026  1.00  0.00    -0.163 A  
HETATM   29  O   UNL     1      -8.939   2.973  70.345  1.00  0.00    -0.079 OA 
HETATM   30  C   UNL     1      -8.490   6.417  69.432  1.00  0.00    -0.126 A  
HETATM   31  C   UNL     1     -10.520   5.371  70.258  1.00  0.00    -0.355 A  
HETATM   32  C   UNL     1      -8.312   4.164  70.435  1.00  0.00    -0.065 C  
HETATM   33  O   UNL     1      -7.153   4.281  70.791  1.00  0.00    -0.036 OA 
HETATM   34  C   UNL     1     -11.236   6.497  69.869  1.00  0.00    -0.456 A  
ENDBRANCH   7  26
TORSDOF 4
ENDMDL
MODEL      152
REMARK 921   NORMALIZED FREE ENERGY PREDICTED BY IDOCK:   -5.60 KCAL/MOL
REMARK 922        TOTAL FREE ENERGY PREDICTED BY IDOCK:   -8.05 KCAL/MOL
REMARK 923 INTER-LIGAND FREE ENERGY PREDICTED BY IDOCK:   -7.19 KCAL/MOL
REMARK 924 INTRA-LIGAND FREE ENERGY PREDICTED BY IDOCK:   -0.86 KCAL/MOL
REMARK 927      BINDING AFFINITY PREDICTED BY RF-SCORE:    0.00 PKD
ROOT
HETATM    1  C   UNL     1      -8.023  10.842  62.334  1.00  0.00    -0.200 C  
HETATM    2  C   UNL     1      -8.284   9.891  63.465  1.00  0.00    -0.163 A  
HETATM    3  C   UNL     1      -7.499   8.729  63.524  1.00  0.00    -0.108 A  
HETATM    4  C   UNL     1      -7.738   7.765  64.494  1.00  0.00    -0.122 A  
HETATM    5  C   UNL     1      -8.773   7.974  65.386  1.00  0.00    -0.068 A  
HETATM    6  N   UNL     1      -9.501   9.101  65.379  1.00  0.00    -0.216 NA 
HETATM    7  C   UNL     1      -9.263  10.071  64.453  1.00  0.00    -0.266 A  
ENDROOT
BRANCH   5   8
HETATM    8  N   UNL     1      -9.044   6.953  66.302  1.00  0.00    -0.195 N  
HETATM    9  C   UNL     1      -8.135   6.422  67.184  1.00  0.00    -0.113 C  
HETATM   10  H   UNL     1      -9.991   6.573  66.316  1.00  0.00     0.000 HD 
HETATM   11  O   UNL     1      -6.966   6.732  67.361  1.00  0.00    -0.076 OA 
BRANCH   9  12
HETATM   12  C   UNL     1      -8.723   5.289  68.005  1.00  0.00    -0.102 C  
HETATM   13  C   UNL     1      -8.588   3.862  67.481  1.00  0.00    -0.111 C  
HETATM   14  C   UNL     1      -9.908   4.556  67.388  1.00  0.00    -0.204 C  
BRANCH  12  15
HETATM   15  C   UNL     1      -8.716   5.547  69.513  1.00  0.00    -0.105 A  
HETATM   16  C   UNL     1      -8.690   4.602  71.795  1.00  0.00    -0.134 A  
HETATM   17  C   UNL     1      -8.519   4.465  70.413  1.00  0.00    -0.098 A  
HETATM   18  C   UNL     1      -9.052   5.840  72.269  1.00  0.00    -0.142 A  
HETATM   19  O   UNL     1      -9.321   6.148  73.566  1.00  0.00    -0.131 OA 
HETATM   20  C   UNL     1      -9.703   7.520  73.417  1.00  0.00    -0.291 C  
HETATM   21  F   UNL     1     -10.996   7.656  73.813  1.00  0.00    -0.370 F  
HETATM   22  F   UNL     1      -8.942   8.272  74.248  1.00  0.00    -0.254 F  
HETATM   23  O   UNL     1      -9.583   8.043  72.088  1.00  0.00    -0.179 OA 
HETATM   24  C   UNL     1      -9.207   6.915  71.427  1.00  0.00    -0.156 A  
HETATM   25  C   UNL     1      -9.038   6.805  70.061  1.00  0.00    -0.148 A  
ENDBRANCH  12  15
ENDBRANCH   9  12
ENDBRANCH   5   8
BRANCH   7  26
HETATM   26  C   UNL     1     -10.149  11.259  64.623  1.00  0.00    -0.343 A  
HETATM   27  C   UNL     1     -11.102  11.589  63.634  1.00  0.00    -0.469 A  
HETATM   28  C   UNL     1     -10.989  13.186  65.899  1.00  0.00    -0.288 A  
HETATM   29  O   UNL     1     -11.994  14.585  67.543  1.00  0.00    -0.382 OA 
HETATM   30  C   UNL     1     -10.139  12.074  65.768  1.00  0.00    -0.267 A  
HETATM   31  C   UNL     1     -11.894  13.502  64.883  1.00  0.00    -0.402 A  
HETATM   32  C   UNL     1     -10.844  14.022  67.118  1.00  0.00    -0.286 C  
HETATM   33  O   UNL     1      -9.782  14.159  67.698  1.00  0.00    -0.221 OA 
HETATM   34  C   UNL     1     -11.962  12.689  63.758  1.00  0.00    -0.588 A  
ENDBRANCH   7  26
TORSDOF 4
ENDMDL
MODEL      153
REMARK 921   NORMALIZED FREE ENERGY PREDICTED BY IDOCK:   -5.58 KCAL/MOL
REMARK 922        TOTAL FREE ENERGY PREDICTED BY IDOCK:   -8.03 KCAL/MOL
REMARK 923 INTER-LIGAND FREE ENERGY PREDICTED BY IDOCK:   -7.47 KCAL/MOL
REMARK 924 INTRA-LIGAND FREE ENERGY PREDICTED BY IDOCK:   -0.56 KCAL/MOL
REMARK 927      BINDING AFFINITY PREDICTED BY RF-SCORE:    0.00 PKD
ROOT
HETATM    1  C   UNL     1     -10.480  13.029  65.753  1.00  0.00    -0.292 C  
HETATM    2  C   UNL     1     -10.598  12.053  66.887  1.00  0.00    -0.260 A  
HETATM    3  C   UNL     1     -10.418  10.693  66.588  1.00  0.00    -0.296 A  
HETATM    4  C   UNL     1     -10.592   9.726  67.568  1.00  0.00    -0.335 A  
HETATM    5  C   UNL     1     -10.958  10.135  68.836  1.00  0.00    -0.223 A  
HETATM    6  N   UNL     1     -11.086  11.432  69.156  1.00  0.00    -0.242 NA 
HETATM    7  C   UNL     1     -10.891  12.398  68.214  1.00  0.00    -0.237 A  
ENDROOT
BRANCH   5   8
HETATM    8  N   UNL     1     -11.205   9.138  69.784  1.00  0.00    -0.420 N  
HETATM    9  C   UNL     1     -10.389   8.841  70.848  1.00  0.00    -0.223 C  
HETATM   10  H   UNL     1     -12.058   8.588  69.677  1.00  0.00     0.000 HD 
HETATM   11  O   UNL     1      -9.342   9.376  71.185  1.00  0.00    -0.224 OA 
BRANCH   9  12
HETATM   12  C   UNL     1     -10.906   7.668  71.661  1.00  0.00    -0.260 C  
HETATM   13  C   UNL     1     -12.408   7.560  71.910  1.00  0.00    -0.342 C  
HETATM   14  C   UNL     1     -11.510   8.006  73.019  1.00  0.00    -0.177 C  
BRANCH  12  15
HETATM   15  C   UNL     1     -10.067   6.397  71.521  1.00  0.00    -0.215 A  
HETATM   16  C   UNL     1      -9.834   4.146  70.532  1.00  0.00    -0.252 A  
HETATM   17  C   UNL     1     -10.443   5.405  70.577  1.00  0.00    -0.335 A  
HETATM   18  C   UNL     1      -8.833   3.894  71.440  1.00  0.00    -0.100 A  
HETATM   19  O   UNL     1      -8.171   2.716  71.587  1.00  0.00    -0.055 OA 
HETATM   20  C   UNL     1      -7.337   3.043  72.705  1.00  0.00    -0.048 C  
HETATM   21  F   UNL     1      -7.659   2.226  73.741  1.00  0.00    -0.037 F  
HETATM   22  F   UNL     1      -6.049   2.788  72.371  1.00  0.00    -0.008 F  
HETATM   23  O   UNL     1      -7.432   4.400  73.156  1.00  0.00    -0.077 OA 
HETATM   24  C   UNL     1      -8.419   4.851  72.335  1.00  0.00    -0.120 A  
HETATM   25  C   UNL     1      -9.001   6.101  72.393  1.00  0.00    -0.136 A  
ENDBRANCH  12  15
ENDBRANCH   9  12
ENDBRANCH   5   8
BRANCH   7  26
HETATM   26  C   UNL     1     -11.043  13.776  68.763  1.00  0.00    -0.295 A  
HETATM   27  C   UNL     1     -11.480  13.973  70.092  1.00  0.00    -0.199 A  
HETATM   28  C   UNL     1     -10.870  16.223  68.589  1.00  0.00    -0.322 A  
HETATM   29  O   UNL     1     -10.070  18.455  68.366  1.00  0.00    -0.357 OA 
HETATM   30  C   UNL     1     -10.717  14.937  68.042  1.00  0.00    -0.253 A  
HETATM   31  C   UNL     1     -11.339  16.379  69.894  1.00  0.00    -0.175 A  
HETATM   32  C   UNL     1     -10.567  17.383  67.713  1.00  0.00    -0.371 C  
HETATM   33  O   UNL     1     -10.725  17.354  66.506  1.00  0.00    -0.229 OA 
HETATM   34  C   UNL     1     -11.626  15.250  70.653  1.00  0.00    -0.355 A  
ENDBRANCH   7  26
TORSDOF 4
ENDMDL
MODEL      154
REMARK 921   NORMALIZED FREE ENERGY PREDICTED BY IDOCK:   -5.56 KCAL/MOL
REMARK 922        TOTAL FREE ENERGY PREDICTED BY IDOCK:   -8.00 KCAL/MOL
REMARK 923 INTER-LIGAND FREE ENERGY PREDICTED BY IDOCK:   -6.78 KCAL/MOL
REMARK 924 INTRA-LIGAND FREE ENERGY PREDICTED BY IDOCK:   -1.22 KCAL/MOL
REMARK 927      BINDING AFFINITY PREDICTED BY RF-SCORE:    0.00 PKD
ROOT
HETATM    1  C   UNL     1     -11.851  15.399  69.612  1.00  0.00    -0.368 C  
HETATM    2  C   UNL     1     -11.162  14.304  68.851  1.00  0.00    -0.289 A  
HETATM    3  C   UNL     1     -11.795  13.051  68.809  1.00  0.00    -0.355 A  
HETATM    4  C   UNL     1     -11.180  11.970  68.194  1.00  0.00    -0.316 A  
HETATM    5  C   UNL     1      -9.928  12.156  67.638  1.00  0.00    -0.197 A  
HETATM    6  N   UNL     1      -9.329  13.356  67.622  1.00  0.00    -0.208 NA 
HETATM    7  C   UNL     1      -9.929  14.437  68.196  1.00  0.00    -0.223 A  
ENDROOT
BRANCH   5   8
HETATM    8  N   UNL     1      -9.296  11.034  67.095  1.00  0.00    -0.163 N  
HETATM    9  C   UNL     1      -9.513  10.539  65.833  1.00  0.00    -0.190 C  
HETATM   10  H   UNL     1      -8.620  10.544  67.683  1.00  0.00     0.000 HD 
HETATM   11  O   UNL     1     -10.249  10.968  64.956  1.00  0.00    -0.264 OA 
BRANCH   9  12
HETATM   12  C   UNL     1      -8.715   9.276  65.563  1.00  0.00    -0.204 C  
HETATM   13  C   UNL     1      -7.511   9.361  64.629  1.00  0.00    -0.108 C  
HETATM   14  C   UNL     1      -8.776   8.732  64.141  1.00  0.00    -0.024 C  
BRANCH  12  15
HETATM   15  C   UNL     1      -8.700   8.290  66.733  1.00  0.00    -0.143 A  
HETATM   16  C   UNL     1      -7.364   6.923  68.297  1.00  0.00    -0.097 A  
HETATM   17  C   UNL     1      -7.469   7.953  67.356  1.00  0.00    -0.093 A  
HETATM   18  C   UNL     1      -8.512   6.237  68.616  1.00  0.00    -0.122 A  
HETATM   19  O   UNL     1      -8.595   5.173  69.457  1.00  0.00    -0.091 OA 
HETATM   20  C   UNL     1      -9.986   4.861  69.320  1.00  0.00    -0.199 C  
HETATM   21  F   UNL     1     -10.102   3.611  68.801  1.00  0.00    -0.100 F  
HETATM   22  F   UNL     1     -10.548   4.842  70.554  1.00  0.00    -0.306 F  
HETATM   23  O   UNL     1     -10.732   5.764  68.493  1.00  0.00    -0.236 OA 
HETATM   24  C   UNL     1      -9.725   6.570  68.062  1.00  0.00    -0.118 A  
HETATM   25  C   UNL     1      -9.853   7.587  67.136  1.00  0.00    -0.263 A  
ENDBRANCH  12  15
ENDBRANCH   9  12
ENDBRANCH   5   8
BRANCH   7  26
HETATM   26  C   UNL     1      -9.129  15.686  68.050  1.00  0.00    -0.183 A  
HETATM   27  C   UNL     1      -7.978  15.895  68.842  1.00  0.00    -0.204 A  
HETATM   28  C   UNL     1      -8.641  17.851  66.990  1.00  0.00    -0.248 A  
HETATM   29  O   UNL     1      -8.069  19.569  65.444  1.00  0.00    -0.263 OA 
HETATM   30  C   UNL     1      -9.417  16.684  67.104  1.00  0.00    -0.236 A  
HETATM   31  C   UNL     1      -7.531  18.039  67.816  1.00  0.00    -0.211 A  
HETATM   32  C   UNL     1      -9.079  18.874  66.008  1.00  0.00    -0.016 C  
HETATM   33  O   UNL     1     -10.249  19.047  65.716  1.00  0.00    -0.517 OA 
HETATM   34  C   UNL     1      -7.189  17.049  68.730  1.00  0.00    -0.226 A  
ENDBRANCH   7  26
TORSDOF 4
ENDMDL
MODEL      155
REMARK 921   NORMALIZED FREE ENERGY PREDICTED BY IDOCK:   -5.56 KCAL/MOL
REMARK 922        TOTAL FREE ENERGY PREDICTED BY IDOCK:   -8.00 KCAL/MOL
REMARK 923 INTER-LIGAND FREE ENERGY PREDICTED BY IDOCK:   -6.95 KCAL/MOL
REMARK 924 INTRA-LIGAND FREE ENERGY PREDICTED BY IDOCK:   -1.05 KCAL/MOL
REMARK 927      BINDING AFFINITY PREDICTED BY RF-SCORE:    0.00 PKD
ROOT
HETATM    1  C   UNL     1      -6.026   7.341  63.571  1.00  0.00    -0.045 C  
HETATM    2  C   UNL     1      -7.129   8.139  64.203  1.00  0.00    -0.082 A  
HETATM    3  C   UNL     1      -7.273   9.474  63.793  1.00  0.00    -0.107 A  
HETATM    4  C   UNL     1      -8.218  10.297  64.391  1.00  0.00    -0.159 A  
HETATM    5  C   UNL     1      -9.000   9.772  65.403  1.00  0.00    -0.190 A  
HETATM    6  N   UNL     1      -8.913   8.485  65.773  1.00  0.00    -0.190 NA 
HETATM    7  C   UNL     1      -8.011   7.654  65.179  1.00  0.00    -0.130 A  
ENDROOT
BRANCH   5   8
HETATM    8  N   UNL     1      -9.888  10.641  66.042  1.00  0.00    -0.217 N  
HETATM    9  C   UNL     1      -9.564  11.475  67.085  1.00  0.00    -0.177 C  
HETATM   10  H   UNL     1     -10.852  10.659  65.708  1.00  0.00     0.000 HD 
HETATM   11  O   UNL     1      -8.481  11.639  67.628  1.00  0.00    -0.132 OA 
BRANCH   9  12
HETATM   12  C   UNL     1     -10.763  12.253  67.595  1.00  0.00    -0.250 C  
HETATM   13  C   UNL     1     -11.233  12.011  69.027  1.00  0.00    -0.313 C  
HETATM   14  C   UNL     1     -12.016  11.438  67.891  1.00  0.00    -0.120 C  
BRANCH  12  15
HETATM   15  C   UNL     1     -10.913  13.641  66.972  1.00  0.00    -0.298 A  
HETATM   16  C   UNL     1     -11.197  14.994  64.925  1.00  0.00    -0.423 A  
HETATM   17  C   UNL     1     -11.232  13.765  65.593  1.00  0.00    -0.306 A  
HETATM   18  C   UNL     1     -10.847  16.103  65.657  1.00  0.00    -0.238 A  
HETATM   19  O   UNL     1     -10.701  17.364  65.170  1.00  0.00    -0.684 OA 
HETATM   20  C   UNL     1     -10.264  18.035  66.357  1.00  0.00    -0.393 C  
HETATM   21  F   UNL     1      -9.014  18.524  66.145  1.00  0.00    -0.295 F  
HETATM   22  F   UNL     1     -11.081  19.093  66.580  1.00  0.00    -0.439 F  
HETATM   23  O   UNL     1     -10.235  17.223  67.538  1.00  0.00    -0.305 OA 
HETATM   24  C   UNL     1     -10.576  16.020  67.002  1.00  0.00    -0.302 A  
HETATM   25  C   UNL     1     -10.611  14.819  67.683  1.00  0.00    -0.262 A  
ENDBRANCH  12  15
ENDBRANCH   9  12
ENDBRANCH   5   8
BRANCH   7  26
HETATM   26  C   UNL     1      -8.085   6.258  65.698  1.00  0.00    -0.129 A  
HETATM   27  C   UNL     1      -7.775   5.980  67.047  1.00  0.00    -0.101 A  
HETATM   28  C   UNL     1      -8.572   3.861  65.443  1.00  0.00    -0.114 A  
HETATM   29  O   UNL     1      -9.647   1.764  65.103  1.00  0.00    -0.012 OA 
HETATM   30  C   UNL     1      -8.511   5.166  64.923  1.00  0.00    -0.149 A  
HETATM   31  C   UNL     1      -8.223   3.619  66.773  1.00  0.00    -0.096 A  
HETATM   32  C   UNL     1      -8.965   2.770  64.517  1.00  0.00    -0.120 C  
HETATM   33  O   UNL     1      -8.719   2.799  63.324  1.00  0.00    -0.085 OA 
HETATM   34  C   UNL     1      -7.843   4.684  67.581  1.00  0.00    -0.089 A  
ENDBRANCH   7  26
TORSDOF 4
ENDMDL
MODEL      156
REMARK 921   NORMALIZED FREE ENERGY PREDICTED BY IDOCK:   -5.55 KCAL/MOL
REMARK 922        TOTAL FREE ENERGY PREDICTED BY IDOCK:   -7.99 KCAL/MOL
REMARK 923 INTER-LIGAND FREE ENERGY PREDICTED BY IDOCK:   -7.39 KCAL/MOL
REMARK 924 INTRA-LIGAND FREE ENERGY PREDICTED BY IDOCK:   -0.60 KCAL/MOL
REMARK 927      BINDING AFFINITY PREDICTED BY RF-SCORE:    0.00 PKD
ROOT
HETATM    1  C   UNL     1     -11.769  14.740  64.632  1.00  0.00    -0.426 C  
HETATM    2  C   UNL     1     -10.983  13.581  65.172  1.00  0.00    -0.328 A  
HETATM    3  C   UNL     1     -10.573  12.599  64.257  1.00  0.00    -0.408 A  
HETATM    4  C   UNL     1      -9.912  11.459  64.694  1.00  0.00    -0.315 A  
HETATM    5  C   UNL     1      -9.683  11.313  66.050  1.00  0.00    -0.220 A  
HETATM    6  N   UNL     1     -10.021  12.264  66.934  1.00  0.00    -0.210 NA 
HETATM    7  C   UNL     1     -10.644  13.403  66.521  1.00  0.00    -0.287 A  
ENDROOT
BRANCH   5   8
HETATM    8  N   UNL     1      -9.088  10.121  66.473  1.00  0.00    -0.143 N  
HETATM    9  C   UNL     1      -9.759   9.054  67.018  1.00  0.00    -0.189 C  
HETATM   10  H   UNL     1      -8.076  10.037  66.368  1.00  0.00     0.000 HD 
HETATM   11  O   UNL     1     -10.958   8.921  67.215  1.00  0.00    -0.124 OA 
BRANCH   9  12
HETATM   12  C   UNL     1      -8.822   7.932  67.427  1.00  0.00    -0.129 C  
HETATM   13  C   UNL     1      -7.493   7.788  66.691  1.00  0.00    -0.089 C  
HETATM   14  C   UNL     1      -8.602   6.831  66.396  1.00  0.00    -0.131 C  
BRANCH  12  15
HETATM   15  C   UNL     1      -8.916   7.552  68.906  1.00  0.00    -0.134 A  
HETATM   16  C   UNL     1      -9.958   7.963  71.107  1.00  0.00    -0.198 A  
HETATM   17  C   UNL     1      -9.934   8.121  69.717  1.00  0.00    -0.191 A  
HETATM   18  C   UNL     1      -8.953   7.220  71.678  1.00  0.00    -0.124 A  
HETATM   19  O   UNL     1      -8.776   7.009  73.009  1.00  0.00    -0.120 OA 
HETATM   20  C   UNL     1      -7.559   6.255  72.978  1.00  0.00    -0.096 C  
HETATM   21  F   UNL     1      -6.599   6.953  73.639  1.00  0.00    -0.066 F  
HETATM   22  F   UNL     1      -7.754   5.095  73.650  1.00  0.00    -0.093 F  
HETATM   23  O   UNL     1      -7.069   5.947  71.666  1.00  0.00    -0.076 OA 
HETATM   24  C   UNL     1      -7.979   6.622  70.913  1.00  0.00    -0.110 A  
HETATM   25  C   UNL     1      -7.940   6.759  69.540  1.00  0.00    -0.125 A  
ENDBRANCH  12  15
ENDBRANCH   9  12
ENDBRANCH   5   8
BRANCH   7  26
HETATM   26  C   UNL     1     -10.910  14.353  67.639  1.00  0.00    -0.276 A  
HETATM   27  C   UNL     1     -10.311  15.632  67.648  1.00  0.00    -0.275 A  
HETATM   28  C   UNL     1     -12.021  14.993  69.737  1.00  0.00    -0.366 A  
HETATM   29  O   UNL     1     -13.628  15.571  71.396  1.00  0.00    -0.501 OA 
HETATM   30  C   UNL     1     -11.790  14.075  68.698  1.00  0.00    -0.396 A  
HETATM   31  C   UNL     1     -11.383  16.235  69.730  1.00  0.00    -0.265 A  
HETATM   32  C   UNL     1     -12.914  14.568  70.844  1.00  0.00    -0.361 C  
HETATM   33  O   UNL     1     -13.012  13.408  71.200  1.00  0.00    -0.304 OA 
HETATM   34  C   UNL     1     -10.542  16.561  68.673  1.00  0.00    -0.316 A  
ENDBRANCH   7  26
TORSDOF 4
ENDMDL
MODEL      157
REMARK 921   NORMALIZED FREE ENERGY PREDICTED BY IDOCK:   -5.53 KCAL/MOL
REMARK 922        TOTAL FREE ENERGY PREDICTED BY IDOCK:   -7.97 KCAL/MOL
REMARK 923 INTER-LIGAND FREE ENERGY PREDICTED BY IDOCK:   -7.94 KCAL/MOL
REMARK 924 INTRA-LIGAND FREE ENERGY PREDICTED BY IDOCK:   -0.03 KCAL/MOL
REMARK 927      BINDING AFFINITY PREDICTED BY RF-SCORE:    0.00 PKD
ROOT
HETATM    1  C   UNL     1     -11.990  14.505  64.271  1.00  0.00    -0.419 C  
HETATM    2  C   UNL     1     -11.104  13.525  64.984  1.00  0.00    -0.338 A  
HETATM    3  C   UNL     1     -10.871  12.292  64.355  1.00  0.00    -0.370 A  
HETATM    4  C   UNL     1     -10.129  11.305  64.990  1.00  0.00    -0.331 A  
HETATM    5  C   UNL     1      -9.641  11.565  66.257  1.00  0.00    -0.218 A  
HETATM    6  N   UNL     1      -9.809  12.755  66.854  1.00  0.00    -0.231 NA 
HETATM    7  C   UNL     1     -10.510  13.746  66.235  1.00  0.00    -0.291 A  
ENDROOT
BRANCH   5   8
HETATM    8  N   UNL     1      -8.966  10.528  66.907  1.00  0.00    -0.140 N  
HETATM    9  C   UNL     1      -9.355   9.210  66.907  1.00  0.00    -0.156 C  
HETATM   10  H   UNL     1      -8.118  10.768  67.421  1.00  0.00     0.000 HD 
HETATM   11  O   UNL     1     -10.311   8.693  66.347  1.00  0.00    -0.262 OA 
BRANCH   9  12
HETATM   12  C   UNL     1      -8.442   8.340  67.751  1.00  0.00    -0.131 C  
HETATM   13  C   UNL     1      -7.050   8.862  68.094  1.00  0.00    -0.078 C  
HETATM   14  C   UNL     1      -7.199   7.797  67.056  1.00  0.00    -0.089 C  
BRANCH  12  15
HETATM   15  C   UNL     1      -9.183   7.445  68.746  1.00  0.00    -0.144 A  
HETATM   16  C   UNL     1     -11.346   6.679  69.659  1.00  0.00    -0.387 A  
HETATM   17  C   UNL     1     -10.597   7.325  68.670  1.00  0.00    -0.194 A  
HETATM   18  C   UNL     1     -10.662   6.143  70.724  1.00  0.00    -0.266 A  
HETATM   19  O   UNL     1     -11.221   5.536  71.804  1.00  0.00    -0.206 OA 
HETATM   20  C   UNL     1     -10.042   5.275  72.574  1.00  0.00    -0.181 C  
HETATM   21  F   UNL     1     -10.130   5.956  73.747  1.00  0.00    -0.164 F  
HETATM   22  F   UNL     1     -10.006   3.954  72.873  1.00  0.00    -0.157 F  
HETATM   23  O   UNL     1      -8.809   5.634  71.938  1.00  0.00    -0.134 OA 
HETATM   24  C   UNL     1      -9.292   6.206  70.801  1.00  0.00    -0.158 A  
HETATM   25  C   UNL     1      -8.531   6.833  69.834  1.00  0.00    -0.140 A  
ENDBRANCH  12  15
ENDBRANCH   9  12
ENDBRANCH   5   8
BRANCH   7  26
HETATM   26  C   UNL     1     -10.563  15.002  67.037  1.00  0.00    -0.293 A  
HETATM   27  C   UNL     1     -11.310  15.055  68.235  1.00  0.00    -0.331 A  
HETATM   28  C   UNL     1      -9.918  17.333  67.480  1.00  0.00    -0.296 A  
HETATM   29  O   UNL     1      -8.706  19.322  67.975  1.00  0.00    -0.298 OA 
HETATM   30  C   UNL     1      -9.849  16.164  66.701  1.00  0.00    -0.262 A  
HETATM   31  C   UNL     1     -10.696  17.359  68.639  1.00  0.00    -0.249 A  
HETATM   32  C   UNL     1      -9.183  18.527  66.994  1.00  0.00    -0.284 C  
HETATM   33  O   UNL     1      -9.002  18.751  65.810  1.00  0.00    -0.397 OA 
HETATM   34  C   UNL     1     -11.377  16.211  69.026  1.00  0.00    -0.340 A  
ENDBRANCH   7  26
TORSDOF 4
ENDMDL
MODEL      158
REMARK 921   NORMALIZED FREE ENERGY PREDICTED BY IDOCK:   -5.47 KCAL/MOL
REMARK 922        TOTAL FREE ENERGY PREDICTED BY IDOCK:   -7.89 KCAL/MOL
REMARK 923 INTER-LIGAND FREE ENERGY PREDICTED BY IDOCK:   -7.58 KCAL/MOL
REMARK 924 INTRA-LIGAND FREE ENERGY PREDICTED BY IDOCK:   -0.31 KCAL/MOL
REMARK 927      BINDING AFFINITY PREDICTED BY RF-SCORE:    0.00 PKD
ROOT
HETATM    1  C   UNL     1     -11.559  16.232  64.740  1.00  0.00     0.005 C  
HETATM    2  C   UNL     1     -10.823  14.942  64.958  1.00  0.00    -0.439 A  
HETATM    3  C   UNL     1     -11.234  13.831  64.206  1.00  0.00    -0.321 A  
HETATM    4  C   UNL     1     -10.655  12.586  64.412  1.00  0.00    -0.376 A  
HETATM    5  C   UNL     1      -9.677  12.470  65.382  1.00  0.00    -0.086 A  
HETATM    6  N   UNL     1      -9.234  13.529  66.075  1.00  0.00     0.010 NA 
HETATM    7  C   UNL     1      -9.770  14.765  65.867  1.00  0.00    -0.323 A  
ENDROOT
BRANCH   5   8
HETATM    8  N   UNL     1      -9.167  11.192  65.625  1.00  0.00    -0.215 N  
HETATM    9  C   UNL     1      -9.200  10.146  64.735  1.00  0.00    -0.242 C  
HETATM   10  H   UNL     1      -8.736  11.022  66.534  1.00  0.00     0.000 HD 
HETATM   11  O   UNL     1      -9.638  10.123  63.594  1.00  0.00    -0.294 OA 
BRANCH   9  12
HETATM   12  C   UNL     1      -8.614   8.873  65.319  1.00  0.00    -0.209 C  
HETATM   13  C   UNL     1      -7.201   8.467  64.912  1.00  0.00    -0.084 C  
HETATM   14  C   UNL     1      -8.369   7.733  64.338  1.00  0.00     0.028 C  
BRANCH  12  15
HETATM   15  C   UNL     1      -9.124   8.543  66.724  1.00  0.00    -0.186 A  
HETATM   16  C   UNL     1      -8.713   8.586  69.158  1.00  0.00    -0.134 A  
HETATM   17  C   UNL     1      -8.410   9.009  67.860  1.00  0.00    -0.117 A  
HETATM   18  C   UNL     1      -9.750   7.696  69.309  1.00  0.00    -0.164 A  
HETATM   19  O   UNL     1     -10.149   7.130  70.478  1.00  0.00    -0.194 OA 
HETATM   20  C   UNL     1     -11.182   6.265  69.991  1.00  0.00    -0.412 C  
HETATM   21  F   UNL     1     -10.833   4.979  70.260  1.00  0.00    -0.297 F  
HETATM   22  F   UNL     1     -12.322   6.528  70.674  1.00  0.00    -0.423 F  
HETATM   23  O   UNL     1     -11.453   6.374  68.588  1.00  0.00    -0.254 OA 
HETATM   24  C   UNL     1     -10.486   7.262  68.232  1.00  0.00    -0.199 A  
HETATM   25  C   UNL     1     -10.208   7.671  66.943  1.00  0.00    -0.365 A  
ENDBRANCH  12  15
ENDBRANCH   9  12
ENDBRANCH   5   8
BRANCH   7  26
HETATM   26  C   UNL     1      -9.129  15.819  66.704  1.00  0.00    -0.298 A  
HETATM   27  C   UNL     1      -9.151  15.725  68.114  1.00  0.00    -0.185 A  
HETATM   28  C   UNL     1      -7.833  17.890  66.986  1.00  0.00    -0.234 A  
HETATM   29  O   UNL     1      -6.114  19.538  66.975  1.00  0.00    -0.181 OA 
HETATM   30  C   UNL     1      -8.429  16.913  66.169  1.00  0.00    -0.281 A  
HETATM   31  C   UNL     1      -7.906  17.782  68.376  1.00  0.00    -0.284 A  
HETATM   32  C   UNL     1      -7.182  19.043  66.314  1.00  0.00    -0.248 C  
HETATM   33  O   UNL     1      -7.564  19.482  65.244  1.00  0.00    -0.342 OA 
HETATM   34  C   UNL     1      -8.550  16.687  68.939  1.00  0.00    -0.235 A  
ENDBRANCH   7  26
TORSDOF 4
ENDMDL
MODEL      159
REMARK 921   NORMALIZED FREE ENERGY PREDICTED BY IDOCK:   -5.44 KCAL/MOL
REMARK 922        TOTAL FREE ENERGY PREDICTED BY IDOCK:   -7.86 KCAL/MOL
REMARK 923 INTER-LIGAND FREE ENERGY PREDICTED BY IDOCK:   -7.43 KCAL/MOL
REMARK 924 INTRA-LIGAND FREE ENERGY PREDICTED BY IDOCK:   -0.43 KCAL/MOL
REMARK 927      BINDING AFFINITY PREDICTED BY RF-SCORE:    0.00 PKD
ROOT
HETATM    1  C   UNL     1      -9.172   3.801  68.689  1.00  0.00    -0.216 C  
HETATM    2  C   UNL     1      -9.465   5.099  67.995  1.00  0.00    -0.156 A  
HETATM    3  C   UNL     1      -8.984   5.252  66.685  1.00  0.00    -0.117 A  
HETATM    4  C   UNL     1      -9.146   6.455  66.010  1.00  0.00    -0.118 A  
HETATM    5  C   UNL     1      -9.779   7.495  66.664  1.00  0.00    -0.203 A  
HETATM    6  N   UNL     1     -10.291   7.353  67.897  1.00  0.00    -0.193 NA 
HETATM    7  C   UNL     1     -10.167   6.171  68.564  1.00  0.00    -0.185 A  
ENDROOT
BRANCH   5   8
HETATM    8  N   UNL     1      -9.858   8.718  65.994  1.00  0.00    -0.445 N  
HETATM    9  C   UNL     1      -8.868   9.669  65.966  1.00  0.00    -0.152 C  
HETATM   10  H   UNL     1     -10.719   8.921  65.484  1.00  0.00     0.000 HD 
HETATM   11  O   UNL     1      -7.757   9.636  66.476  1.00  0.00    -0.097 OA 
BRANCH   9  12
HETATM   12  C   UNL     1      -9.282  10.911  65.197  1.00  0.00    -0.240 C  
HETATM   13  C   UNL     1     -10.130  10.741  63.940  1.00  0.00    -0.397 C  
HETATM   14  C   UNL     1      -8.679  11.075  63.808  1.00  0.00     0.067 C  
BRANCH  12  15
HETATM   15  C   UNL     1      -9.467  12.151  66.074  1.00  0.00    -0.215 A  
HETATM   16  C   UNL     1      -8.510  13.676  67.764  1.00  0.00    -0.183 A  
HETATM   17  C   UNL     1      -8.364  12.669  66.805  1.00  0.00    -0.011 A  
HETATM   18  C   UNL     1      -9.775  14.170  67.978  1.00  0.00    -0.226 A  
HETATM   19  O   UNL     1     -10.120  15.101  68.906  1.00  0.00    -0.221 OA 
HETATM   20  C   UNL     1     -11.537  15.136  68.703  1.00  0.00    -0.338 C  
HETATM   21  F   UNL     1     -12.150  14.738  69.848  1.00  0.00    -0.300 F  
HETATM   22  F   UNL     1     -11.907  16.418  68.468  1.00  0.00    -0.327 F  
HETATM   23  O   UNL     1     -12.016  14.318  67.628  1.00  0.00    -0.383 OA 
HETATM   24  C   UNL     1     -10.853  13.719  67.255  1.00  0.00    -0.285 A  
HETATM   25  C   UNL     1     -10.732  12.729  66.299  1.00  0.00    -0.291 A  
ENDBRANCH  12  15
ENDBRANCH   9  12
ENDBRANCH   5   8
BRANCH   7  26
HETATM   26  C   UNL     1     -10.826   6.194  69.902  1.00  0.00    -0.420 A  
HETATM   27  C   UNL     1     -10.542   5.192  70.856  1.00  0.00    -0.202 A  
HETATM   28  C   UNL     1     -12.303   7.207  71.587  1.00  0.00    -0.398 A  
HETATM   29  O   UNL     1     -13.291   8.662  73.192  1.00  0.00    -0.165 OA 
HETATM   30  C   UNL     1     -11.700   7.213  70.317  1.00  0.00    -0.226 A  
HETATM   31  C   UNL     1     -12.027   6.179  72.490  1.00  0.00    -0.171 A  
HETATM   32  C   UNL     1     -13.268   8.293  71.894  1.00  0.00    -0.344 C  
HETATM   33  O   UNL     1     -13.956   8.822  71.040  1.00  0.00    -0.139 OA 
HETATM   34  C   UNL     1     -11.129   5.181  72.130  1.00  0.00    -0.129 A  
ENDBRANCH   7  26
TORSDOF 4
ENDMDL
MODEL      160
REMARK 921   NORMALIZED FREE ENERGY PREDICTED BY IDOCK:   -5.44 KCAL/MOL
REMARK 922        TOTAL FREE ENERGY PREDICTED BY IDOCK:   -7.85 KCAL/MOL
REMARK 923 INTER-LIGAND FREE ENERGY PREDICTED BY IDOCK:   -7.47 KCAL/MOL
REMARK 924 INTRA-LIGAND FREE ENERGY PREDICTED BY IDOCK:   -0.38 KCAL/MOL
REMARK 927      BINDING AFFINITY PREDICTED BY RF-SCORE:    0.00 PKD
ROOT
HETATM    1  C   UNL     1     -11.629   5.814  72.309  1.00  0.00    -0.300 C  
HETATM    2  C   UNL     1     -11.075   6.747  71.271  1.00  0.00    -0.303 A  
HETATM    3  C   UNL     1     -11.312   8.119  71.446  1.00  0.00    -0.299 A  
HETATM    4  C   UNL     1     -10.901   9.034  70.486  1.00  0.00    -0.296 A  
HETATM    5  C   UNL     1     -10.267   8.557  69.354  1.00  0.00    -0.211 A  
HETATM    6  N   UNL     1      -9.986   7.255  69.192  1.00  0.00    -0.167 NA 
HETATM    7  C   UNL     1     -10.356   6.345  70.136  1.00  0.00    -0.198 A  
ENDROOT
BRANCH   5   8
HETATM    8  N   UNL     1      -9.935   9.489  68.367  1.00  0.00    -0.159 N  
HETATM    9  C   UNL     1     -10.832  10.291  67.704  1.00  0.00    -0.307 C  
HETATM   10  H   UNL     1      -8.949   9.582  68.120  1.00  0.00     0.000 HD 
HETATM   11  O   UNL     1     -12.043  10.370  67.849  1.00  0.00     0.079 OA 
BRANCH   9  12
HETATM   12  C   UNL     1     -10.163  11.156  66.651  1.00  0.00    -0.274 C  
HETATM   13  C   UNL     1     -10.407  10.832  65.180  1.00  0.00    -0.341 C  
HETATM   14  C   UNL     1      -9.096  10.476  65.802  1.00  0.00    -0.204 C  
BRANCH  12  15
HETATM   15  C   UNL     1      -9.951  12.608  67.083  1.00  0.00    -0.217 A  
HETATM   16  C   UNL     1      -8.379  14.352  67.848  1.00  0.00    -0.162 A  
HETATM   17  C   UNL     1      -8.633  13.101  67.275  1.00  0.00    -0.210 A  
HETATM   18  C   UNL     1      -9.464  15.111  68.219  1.00  0.00    -0.201 A  
HETATM   19  O   UNL     1      -9.414  16.318  68.842  1.00  0.00    -0.231 OA 
HETATM   20  C   UNL     1     -10.815  16.554  69.029  1.00  0.00    -0.329 C  
HETATM   21  F   UNL     1     -11.070  16.624  70.361  1.00  0.00    -0.368 F  
HETATM   22  F   UNL     1     -11.124  17.759  68.492  1.00  0.00    -0.204 F  
HETATM   23  O   UNL     1     -11.678  15.563  68.456  1.00  0.00    -0.363 OA 
HETATM   24  C   UNL     1     -10.750  14.678  68.005  1.00  0.00    -0.246 A  
HETATM   25  C   UNL     1     -11.024  13.450  67.436  1.00  0.00    -0.287 A  
ENDBRANCH  12  15
ENDBRANCH   9  12
ENDBRANCH   5   8
BRANCH   7  26
HETATM   26  C   UNL     1      -9.930   4.957  69.797  1.00  0.00    -0.314 A  
HETATM   27  C   UNL     1      -9.794   3.983  70.810  1.00  0.00    -0.233 A  
HETATM   28  C   UNL     1      -9.297   3.202  68.195  1.00  0.00    -0.247 A  
HETATM   29  O   UNL     1      -9.296   1.591  66.442  1.00  0.00    -0.018 OA 
HETATM   30  C   UNL     1      -9.697   4.519  68.483  1.00  0.00    -0.198 A  
HETATM   31  C   UNL     1      -9.139   2.275  69.228  1.00  0.00    -0.182 A  
HETATM   32  C   UNL     1      -9.006   2.865  66.779  1.00  0.00    -0.158 C  
HETATM   33  O   UNL     1      -8.573   3.681  65.985  1.00  0.00    -0.109 OA 
HETATM   34  C   UNL     1      -9.408   2.663  70.535  1.00  0.00    -0.213 A  
ENDBRANCH   7  26
TORSDOF 4
ENDMDL
MODEL      161
REMARK 921   NORMALIZED FREE ENERGY PREDICTED BY IDOCK:   -5.43 KCAL/MOL
REMARK 922        TOTAL FREE ENERGY PREDICTED BY IDOCK:   -7.84 KCAL/MOL
REMARK 923 INTER-LIGAND FREE ENERGY PREDICTED BY IDOCK:   -7.49 KCAL/MOL
REMARK 924 INTRA-LIGAND FREE ENERGY PREDICTED BY IDOCK:   -0.35 KCAL/MOL
REMARK 927      BINDING AFFINITY PREDICTED BY RF-SCORE:    0.00 PKD
ROOT
HETATM    1  C   UNL     1      -9.626  10.080  62.510  1.00  0.00    -0.119 C  
HETATM    2  C   UNL     1      -9.875  10.831  63.786  1.00  0.00    -0.396 A  
HETATM    3  C   UNL     1     -10.534  12.066  63.687  1.00  0.00    -0.494 A  
HETATM    4  C   UNL     1     -10.727  12.855  64.814  1.00  0.00    -0.354 A  
HETATM    5  C   UNL     1     -10.244  12.397  66.025  1.00  0.00    -0.245 A  
HETATM    6  N   UNL     1      -9.658  11.197  66.150  1.00  0.00    -0.202 NA 
HETATM    7  C   UNL     1      -9.485  10.396  65.061  1.00  0.00    -0.253 A  
ENDROOT
BRANCH   5   8
HETATM    8  N   UNL     1     -10.381  13.244  67.129  1.00  0.00    -0.247 N  
HETATM    9  C   UNL     1     -11.561  13.804  67.553  1.00  0.00    -0.354 C  
HETATM   10  H   UNL     1      -9.538  13.463  67.661  1.00  0.00     0.000 HD 
HETATM   11  O   UNL     1     -12.685  13.666  67.093  1.00  0.00     0.031 OA 
BRANCH   9  12
HETATM   12  C   UNL     1     -11.367  14.722  68.747  1.00  0.00    -0.301 C  
HETATM   13  C   UNL     1     -11.097  14.094  70.112  1.00  0.00     0.044 C  
HETATM   14  C   UNL     1     -12.447  14.665  69.821  1.00  0.00    -0.247 C  
BRANCH  12  15
HETATM   15  C   UNL     1     -10.742  16.073  68.396  1.00  0.00    -0.289 A  
HETATM   16  C   UNL     1     -10.080  18.329  69.153  1.00  0.00    -0.186 A  
HETATM   17  C   UNL     1     -10.471  17.013  69.426  1.00  0.00    -0.250 A  
HETATM   18  C   UNL     1      -9.954  18.692  67.833  1.00  0.00    -0.350 A  
HETATM   19  O   UNL     1      -9.645  19.934  67.376  1.00  0.00    -0.332 OA 
HETATM   20  C   UNL     1      -9.739  19.705  65.965  1.00  0.00    -0.344 C  
HETATM   21  F   UNL     1     -10.727  20.492  65.462  1.00  0.00    -0.328 F  
HETATM   22  F   UNL     1      -8.577  20.092  65.386  1.00  0.00    -0.196 F  
HETATM   23  O   UNL     1     -10.009  18.348  65.587  1.00  0.00    -0.477 OA 
HETATM   24  C   UNL     1     -10.167  17.791  66.817  1.00  0.00    -0.351 A  
HETATM   25  C   UNL     1     -10.548  16.486  67.063  1.00  0.00    -0.255 A  
ENDBRANCH  12  15
ENDBRANCH   9  12
ENDBRANCH   5   8
BRANCH   7  26
HETATM   26  C   UNL     1      -8.847   9.092  65.400  1.00  0.00    -0.237 A  
HETATM   27  C   UNL     1      -8.934   8.573  66.712  1.00  0.00    -0.173 A  
HETATM   28  C   UNL     1      -7.597   7.058  64.811  1.00  0.00    -0.105 A  
HETATM   29  O   UNL     1      -6.913   4.978  63.875  1.00  0.00    -0.046 OA 
HETATM   30  C   UNL     1      -8.187   8.285  64.459  1.00  0.00    -0.138 A  
HETATM   31  C   UNL     1      -7.673   6.594  66.126  1.00  0.00    -0.095 A  
HETATM   32  C   UNL     1      -6.861   6.321  63.753  1.00  0.00    -0.041 C  
HETATM   33  O   UNL     1      -6.287   6.883  62.838  1.00  0.00    -0.042 OA 
HETATM   34  C   UNL     1      -8.359   7.346  67.072  1.00  0.00    -0.121 A  
ENDBRANCH   7  26
TORSDOF 4
ENDMDL
MODEL      162
REMARK 921   NORMALIZED FREE ENERGY PREDICTED BY IDOCK:   -5.42 KCAL/MOL
REMARK 922        TOTAL FREE ENERGY PREDICTED BY IDOCK:   -7.84 KCAL/MOL
REMARK 923 INTER-LIGAND FREE ENERGY PREDICTED BY IDOCK:   -7.20 KCAL/MOL
REMARK 924 INTRA-LIGAND FREE ENERGY PREDICTED BY IDOCK:   -0.64 KCAL/MOL
REMARK 927      BINDING AFFINITY PREDICTED BY RF-SCORE:    0.00 PKD
ROOT
HETATM    1  C   UNL     1     -10.580   8.000  66.859  1.00  0.00    -0.324 C  
HETATM    2  C   UNL     1     -10.108   9.299  67.445  1.00  0.00    -0.280 A  
HETATM    3  C   UNL     1     -10.439  10.475  66.753  1.00  0.00    -0.302 A  
HETATM    4  C   UNL     1      -9.968  11.706  67.189  1.00  0.00    -0.219 A  
HETATM    5  C   UNL     1      -9.159  11.739  68.309  1.00  0.00    -0.187 A  
HETATM    6  N   UNL     1      -8.873  10.634  69.013  1.00  0.00    -0.161 NA 
HETATM    7  C   UNL     1      -9.349   9.420  68.617  1.00  0.00    -0.142 A  
ENDROOT
BRANCH   5   8
HETATM    8  N   UNL     1      -8.633  12.980  68.681  1.00  0.00    -0.367 N  
HETATM    9  C   UNL     1      -7.609  13.629  68.036  1.00  0.00    -0.139 C  
HETATM   10  H   UNL     1      -9.042  13.439  69.495  1.00  0.00     0.000 HD 
HETATM   11  O   UNL     1      -6.991  13.286  67.039  1.00  0.00    -0.020 OA 
BRANCH   9  12
HETATM   12  C   UNL     1      -7.232  14.932  68.718  1.00  0.00    -0.123 C  
HETATM   13  C   UNL     1      -5.752  15.253  68.909  1.00  0.00    -0.098 C  
HETATM   14  C   UNL     1      -6.563  14.807  70.082  1.00  0.00    -0.145 C  
BRANCH  12  15
HETATM   15  C   UNL     1      -8.230  16.067  68.485  1.00  0.00    -0.181 A  
HETATM   16  C   UNL     1     -10.576  16.742  68.115  1.00  0.00    -0.350 A  
HETATM   17  C   UNL     1      -9.624  15.795  68.506  1.00  0.00    -0.204 A  
HETATM   18  C   UNL     1     -10.117  17.973  67.711  1.00  0.00    -0.353 A  
HETATM   19  O   UNL     1     -10.883  18.993  67.241  1.00  0.00    -0.472 OA 
HETATM   20  C   UNL     1      -9.858  19.941  66.922  1.00  0.00    -0.414 C  
HETATM   21  F   UNL     1      -9.892  20.185  65.585  1.00  0.00    -0.485 F  
HETATM   22  F   UNL     1     -10.135  21.107  67.555  1.00  0.00    -0.526 F  
HETATM   23  O   UNL     1      -8.527  19.537  67.271  1.00  0.00    -0.283 OA 
HETATM   24  C   UNL     1      -8.777  18.278  67.722  1.00  0.00    -0.256 A  
HETATM   25  C   UNL     1      -7.820  17.361  68.110  1.00  0.00    -0.234 A  
ENDBRANCH  12  15
ENDBRANCH   9  12
ENDBRANCH   5   8
BRANCH   7  26
HETATM   26  C   UNL     1      -8.954   8.317  69.541  1.00  0.00    -0.150 A  
HETATM   27  C   UNL     1      -9.514   8.234  70.835  1.00  0.00    -0.192 A  
HETATM   28  C   UNL     1      -7.722   6.257  70.074  1.00  0.00    -0.101 A  
HETATM   29  O   UNL     1      -6.907   4.021  70.122  1.00  0.00    -0.033 OA 
HETATM   30  C   UNL     1      -8.072   7.285  69.180  1.00  0.00    -0.121 A  
HETATM   31  C   UNL     1      -8.269   6.228  71.359  1.00  0.00    -0.122 A  
HETATM   32  C   UNL     1      -6.724   5.258  69.616  1.00  0.00    -0.051 C  
HETATM   33  O   UNL     1      -5.837   5.529  68.826  1.00  0.00    -0.017 OA 
HETATM   34  C   UNL     1      -9.181   7.207  71.731  1.00  0.00    -0.147 A  
ENDBRANCH   7  26
TORSDOF 4
ENDMDL
MODEL      163
REMARK 921   NORMALIZED FREE ENERGY PREDICTED BY IDOCK:   -5.36 KCAL/MOL
REMARK 922        TOTAL FREE ENERGY PREDICTED BY IDOCK:   -7.75 KCAL/MOL
REMARK 923 INTER-LIGAND FREE ENERGY PREDICTED BY IDOCK:   -7.06 KCAL/MOL
REMARK 924 INTRA-LIGAND FREE ENERGY PREDICTED BY IDOCK:   -0.69 KCAL/MOL
REMARK 927      BINDING AFFINITY PREDICTED BY RF-SCORE:    0.00 PKD
ROOT
HETATM    1  C   UNL     1     -12.044  14.445  67.120  1.00  0.00    -0.367 C  
HETATM    2  C   UNL     1     -11.285  13.227  66.680  1.00  0.00    -0.332 A  
HETATM    3  C   UNL     1     -10.725  13.248  65.393  1.00  0.00    -0.308 A  
HETATM    4  C   UNL     1     -10.079  12.128  64.887  1.00  0.00    -0.280 A  
HETATM    5  C   UNL     1     -10.014  10.995  65.677  1.00  0.00    -0.248 A  
HETATM    6  N   UNL     1     -10.497  10.972  66.929  1.00  0.00    -0.235 NA 
HETATM    7  C   UNL     1     -11.109  12.071  67.453  1.00  0.00    -0.281 A  
ENDROOT
BRANCH   5   8
HETATM    8  N   UNL     1      -9.429   9.857  65.115  1.00  0.00    -0.256 N  
HETATM    9  C   UNL     1      -8.077   9.631  65.017  1.00  0.00    -0.127 C  
HETATM   10  H   UNL     1     -10.054   9.138  64.750  1.00  0.00     0.000 HD 
HETATM   11  O   UNL     1      -7.152  10.330  65.403  1.00  0.00    -0.134 OA 
BRANCH   9  12
HETATM   12  C   UNL     1      -7.762   8.327  64.306  1.00  0.00    -0.134 C  
HETATM   13  C   UNL     1      -6.809   8.359  63.114  1.00  0.00    -0.089 C  
HETATM   14  C   UNL     1      -8.276   8.198  62.877  1.00  0.00    -0.120 C  
BRANCH  12  15
HETATM   15  C   UNL     1      -7.795   7.099  65.218  1.00  0.00    -0.121 A  
HETATM   16  C   UNL     1      -8.140   4.663  65.430  1.00  0.00    -0.107 A  
HETATM   17  C   UNL     1      -7.915   5.802  64.650  1.00  0.00    -0.122 A  
HETATM   18  C   UNL     1      -8.235   4.835  66.791  1.00  0.00    -0.107 A  
HETATM   19  O   UNL     1      -8.510   3.861  67.698  1.00  0.00    -0.093 OA 
HETATM   20  C   UNL     1      -8.553   4.647  68.894  1.00  0.00    -0.084 C  
HETATM   21  F   UNL     1      -9.802   4.566  69.423  1.00  0.00    -0.235 F  
HETATM   22  F   UNL     1      -7.695   4.109  69.795  1.00  0.00    -0.052 F  
HETATM   23  O   UNL     1      -8.226   6.032  68.722  1.00  0.00    -0.103 OA 
HETATM   24  C   UNL     1      -8.080   6.071  67.370  1.00  0.00    -0.106 A  
HETATM   25  C   UNL     1      -7.851   7.208  66.621  1.00  0.00    -0.109 A  
ENDBRANCH  12  15
ENDBRANCH   9  12
ENDBRANCH   5   8
BRANCH   7  26
HETATM   26  C   UNL     1     -11.550  11.866  68.863  1.00  0.00    -0.370 A  
HETATM   27  C   UNL     1     -12.202  12.903  69.566  1.00  0.00    -0.177 A  
HETATM   28  C   UNL     1     -11.834  10.488  70.880  1.00  0.00    -0.455 A  
HETATM   29  O   UNL     1     -12.498   8.814  72.437  1.00  0.00    -0.379 OA 
HETATM   30  C   UNL     1     -11.406  10.649  69.550  1.00  0.00    -0.342 A  
HETATM   31  C   UNL     1     -12.443  11.547  71.554  1.00  0.00    -0.266 A  
HETATM   32  C   UNL     1     -11.565   9.182  71.534  1.00  0.00    -0.368 C  
HETATM   33  O   UNL     1     -10.601   8.493  71.254  1.00  0.00    -0.211 OA 
HETATM   34  C   UNL     1     -12.644  12.751  70.888  1.00  0.00    -0.342 A  
ENDBRANCH   7  26
TORSDOF 4
ENDMDL
MODEL      164
REMARK 921   NORMALIZED FREE ENERGY PREDICTED BY IDOCK:   -5.36 KCAL/MOL
REMARK 922        TOTAL FREE ENERGY PREDICTED BY IDOCK:   -7.75 KCAL/MOL
REMARK 923 INTER-LIGAND FREE ENERGY PREDICTED BY IDOCK:   -7.27 KCAL/MOL
REMARK 924 INTRA-LIGAND FREE ENERGY PREDICTED BY IDOCK:   -0.48 KCAL/MOL
REMARK 927      BINDING AFFINITY PREDICTED BY RF-SCORE:    0.00 PKD
ROOT
HETATM    1  C   UNL     1     -10.443   8.625  67.292  1.00  0.00    -0.360 C  
HETATM    2  C   UNL     1     -10.337  10.114  67.448  1.00  0.00    -0.289 A  
HETATM    3  C   UNL     1     -10.724  10.662  68.681  1.00  0.00    -0.239 A  
HETATM    4  C   UNL     1     -10.731  12.037  68.872  1.00  0.00    -0.222 A  
HETATM    5  C   UNL     1     -10.361  12.847  67.815  1.00  0.00    -0.222 A  
HETATM    6  N   UNL     1      -9.939  12.343  66.646  1.00  0.00    -0.221 NA 
HETATM    7  C   UNL     1      -9.899  10.995  66.449  1.00  0.00    -0.212 A  
ENDROOT
BRANCH   5   8
HETATM    8  N   UNL     1     -10.453  14.229  68.007  1.00  0.00    -0.232 N  
HETATM    9  C   UNL     1      -9.441  15.128  67.771  1.00  0.00    -0.194 C  
HETATM   10  H   UNL     1     -11.340  14.599  68.349  1.00  0.00     0.000 HD 
HETATM   11  O   UNL     1      -8.315  14.920  67.342  1.00  0.00    -0.166 OA 
BRANCH   9  12
HETATM   12  C   UNL     1      -9.837  16.548  68.130  1.00  0.00    -0.244 C  
HETATM   13  C   UNL     1     -10.715  16.772  69.358  1.00  0.00    -0.300 C  
HETATM   14  C   UNL     1     -11.316  16.889  67.995  1.00  0.00     0.073 C  
BRANCH  12  15
HETATM   15  C   UNL     1      -8.797  17.600  67.740  1.00  0.00    -0.240 A  
HETATM   16  C   UNL     1      -7.612  19.686  68.326  1.00  0.00    -0.351 A  
HETATM   17  C   UNL     1      -8.409  18.592  68.680  1.00  0.00    -0.330 A  
HETATM   18  C   UNL     1      -7.197  19.771  67.019  1.00  0.00    -0.215 A  
HETATM   19  O   UNL     1      -6.472  20.787  66.479  1.00  0.00    -0.243 OA 
HETATM   20  C   UNL     1      -6.428  20.356  65.113  1.00  0.00    -0.284 C  
HETATM   21  F   UNL     1      -7.056  21.284  64.345  1.00  0.00    -0.068 F  
HETATM   22  F   UNL     1      -5.133  20.310  64.718  1.00  0.00    -0.168 F  
HETATM   23  O   UNL     1      -7.030  19.080  64.860  1.00  0.00    -0.392 OA 
HETATM   24  C   UNL     1      -7.520  18.804  66.098  1.00  0.00    -0.258 A  
HETATM   25  C   UNL     1      -8.301  17.712  66.426  1.00  0.00    -0.288 A  
ENDBRANCH  12  15
ENDBRANCH   9  12
ENDBRANCH   5   8
BRANCH   7  26
HETATM   26  C   UNL     1      -9.373  10.625  65.103  1.00  0.00    -0.254 A  
HETATM   27  C   UNL     1      -9.874  11.256  63.942  1.00  0.00    -0.341 A  
HETATM   28  C   UNL     1      -7.862   9.373  63.622  1.00  0.00    -0.131 A  
HETATM   29  O   UNL     1      -5.948   8.503  62.505  1.00  0.00    -0.082 OA 
HETATM   30  C   UNL     1      -8.337   9.698  64.905  1.00  0.00    -0.152 A  
HETATM   31  C   UNL     1      -8.406   9.991  62.495  1.00  0.00    -0.164 A  
HETATM   32  C   UNL     1      -6.815   8.325  63.523  1.00  0.00    -0.084 C  
HETATM   33  O   UNL     1      -6.732   7.401  64.313  1.00  0.00    -0.049 OA 
HETATM   34  C   UNL     1      -9.400  10.948  62.658  1.00  0.00    -0.343 A  
ENDBRANCH   7  26
TORSDOF 4
ENDMDL
MODEL      165
REMARK 921   NORMALIZED FREE ENERGY PREDICTED BY IDOCK:   -5.35 KCAL/MOL
REMARK 922        TOTAL FREE ENERGY PREDICTED BY IDOCK:   -7.74 KCAL/MOL
REMARK 923 INTER-LIGAND FREE ENERGY PREDICTED BY IDOCK:   -7.03 KCAL/MOL
REMARK 924 INTRA-LIGAND FREE ENERGY PREDICTED BY IDOCK:   -0.71 KCAL/MOL
REMARK 927      BINDING AFFINITY PREDICTED BY RF-SCORE:    0.00 PKD
ROOT
HETATM    1  C   UNL     1      -6.357  14.084  67.463  1.00  0.00    -0.036 C  
HETATM    2  C   UNL     1      -7.330  13.122  68.078  1.00  0.00    -0.125 A  
HETATM    3  C   UNL     1      -6.854  11.840  68.397  1.00  0.00    -0.069 A  
HETATM    4  C   UNL     1      -7.715  10.871  68.894  1.00  0.00    -0.135 A  
HETATM    5  C   UNL     1      -9.049  11.197  69.052  1.00  0.00    -0.023 A  
HETATM    6  N   UNL     1      -9.513  12.431  68.802  1.00  0.00     0.010 NA 
HETATM    7  C   UNL     1      -8.678  13.404  68.341  1.00  0.00    -0.134 A  
ENDROOT
BRANCH   5   8
HETATM    8  N   UNL     1      -9.909  10.182  69.478  1.00  0.00    -0.227 N  
HETATM    9  C   UNL     1      -9.582   9.194  70.375  1.00  0.00    -0.224 C  
HETATM   10  H   UNL     1     -10.854  10.173  69.092  1.00  0.00     0.000 HD 
HETATM   11  O   UNL     1      -8.532   9.021  70.977  1.00  0.00    -0.185 OA 
BRANCH   9  12
HETATM   12  C   UNL     1     -10.717   8.209  70.587  1.00  0.00    -0.238 C  
HETATM   13  C   UNL     1     -12.116   8.756  70.859  1.00  0.00    -0.195 C  
HETATM   14  C   UNL     1     -11.325   8.173  71.984  1.00  0.00    -0.378 C  
BRANCH  12  15
HETATM   15  C   UNL     1     -10.552   6.897  69.818  1.00  0.00    -0.261 A  
HETATM   16  C   UNL     1      -9.994   4.492  69.884  1.00  0.00    -0.273 A  
HETATM   17  C   UNL     1     -10.339   5.685  70.529  1.00  0.00    -0.327 A  
HETATM   18  C   UNL     1      -9.874   4.523  68.515  1.00  0.00    -0.089 A  
HETATM   19  O   UNL     1      -9.490   3.484  67.727  1.00  0.00    -0.195 OA 
HETATM   20  C   UNL     1      -9.480   4.136  66.452  1.00  0.00    -0.189 C  
HETATM   21  F   UNL     1      -8.214   4.109  65.960  1.00  0.00    -0.102 F  
HETATM   22  F   UNL     1     -10.263   3.430  65.600  1.00  0.00    -0.010 F  
HETATM   23  O   UNL     1      -9.929   5.498  66.463  1.00  0.00    -0.159 OA 
HETATM   24  C   UNL     1     -10.118   5.670  67.799  1.00  0.00    -0.171 A  
HETATM   25  C   UNL     1     -10.465   6.857  68.413  1.00  0.00    -0.235 A  
ENDBRANCH  12  15
ENDBRANCH   9  12
ENDBRANCH   5   8
BRANCH   7  26
HETATM   26  C   UNL     1      -9.367  14.713  68.154  1.00  0.00    -0.197 A  
HETATM   27  C   UNL     1      -9.660  15.532  69.266  1.00  0.00    -0.266 A  
HETATM   28  C   UNL     1     -10.357  16.474  66.752  1.00  0.00    -0.296 A  
HETATM   29  O   UNL     1     -10.703  18.229  65.181  1.00  0.00    -0.586 OA 
HETATM   30  C   UNL     1      -9.709  15.234  66.895  1.00  0.00    -0.243 A  
HETATM   31  C   UNL     1     -10.663  17.240  67.878  1.00  0.00    -0.351 A  
HETATM   32  C   UNL     1     -10.739  16.896  65.380  1.00  0.00    -0.150 C  
HETATM   33  O   UNL     1     -11.029  16.100  64.505  1.00  0.00    -0.645 OA 
HETATM   34  C   UNL     1     -10.295  16.776  69.136  1.00  0.00    -0.326 A  
ENDBRANCH   7  26
TORSDOF 4
ENDMDL
MODEL      166
REMARK 921   NORMALIZED FREE ENERGY PREDICTED BY IDOCK:   -5.34 KCAL/MOL
REMARK 922        TOTAL FREE ENERGY PREDICTED BY IDOCK:   -7.74 KCAL/MOL
REMARK 923 INTER-LIGAND FREE ENERGY PREDICTED BY IDOCK:   -6.73 KCAL/MOL
REMARK 924 INTRA-LIGAND FREE ENERGY PREDICTED BY IDOCK:   -1.01 KCAL/MOL
REMARK 927      BINDING AFFINITY PREDICTED BY RF-SCORE:    0.00 PKD
ROOT
HETATM    1  C   UNL     1     -11.243   6.219  70.575  1.00  0.00    -0.420 C  
HETATM    2  C   UNL     1     -10.677   7.575  70.269  1.00  0.00    -0.247 A  
HETATM    3  C   UNL     1     -11.265   8.297  69.218  1.00  0.00     0.277 A  
HETATM    4  C   UNL     1     -10.743   9.521  68.825  1.00  0.00    -0.218 A  
HETATM    5  C   UNL     1      -9.628  10.002  69.485  1.00  0.00    -0.230 A  
HETATM    6  N   UNL     1      -9.083   9.353  70.525  1.00  0.00    -0.253 NA 
HETATM    7  C   UNL     1      -9.598   8.163  70.944  1.00  0.00    -0.162 A  
ENDROOT
BRANCH   5   8
HETATM    8  N   UNL     1      -9.075  11.198  69.019  1.00  0.00    -0.377 N  
HETATM    9  C   UNL     1      -7.953  11.295  68.233  1.00  0.00    -0.134 C  
HETATM   10  H   UNL     1      -9.542  12.067  69.282  1.00  0.00     0.000 HD 
HETATM   11  O   UNL     1      -7.253  10.401  67.781  1.00  0.00    -0.084 OA 
BRANCH   9  12
HETATM   12  C   UNL     1      -7.576  12.737  67.942  1.00  0.00    -0.138 C  
HETATM   13  C   UNL     1      -6.099  13.117  67.935  1.00  0.00    -0.139 C  
HETATM   14  C   UNL     1      -6.954  13.516  69.094  1.00  0.00    -0.055 C  
BRANCH  12  15
HETATM   15  C   UNL     1      -8.548  13.455  67.003  1.00  0.00    -0.168 A  
HETATM   16  C   UNL     1      -9.421  15.597  66.139  1.00  0.00    -0.376 A  
HETATM   17  C   UNL     1      -8.452  14.861  66.829  1.00  0.00    -0.215 A  
HETATM   18  C   UNL     1     -10.488  14.906  65.615  1.00  0.00    -0.349 A  
HETATM   19  O   UNL     1     -11.551  15.454  64.970  1.00  0.00    -0.291 OA 
HETATM   20  C   UNL     1     -12.334  14.276  64.745  1.00  0.00    -0.426 C  
HETATM   21  F   UNL     1     -13.515  14.407  65.404  1.00  0.00    -0.388 F  
HETATM   22  F   UNL     1     -12.614  14.191  63.422  1.00  0.00    -0.396 F  
HETATM   23  O   UNL     1     -11.719  13.050  65.162  1.00  0.00    -0.316 OA 
HETATM   24  C   UNL     1     -10.585  13.540  65.731  1.00  0.00    -0.283 A  
HETATM   25  C   UNL     1      -9.637  12.793  66.402  1.00  0.00    -0.254 A  
ENDBRANCH  12  15
ENDBRANCH   9  12
ENDBRANCH   5   8
BRANCH   7  26
HETATM   26  C   UNL     1      -8.882   7.611  72.130  1.00  0.00    -0.161 A  
HETATM   27  C   UNL     1      -9.094   8.162  73.414  1.00  0.00    -0.309 A  
HETATM   28  C   UNL     1      -7.360   6.007  73.205  1.00  0.00    -0.089 A  
HETATM   29  O   UNL     1      -6.343   4.030  74.058  1.00  0.00    -0.037 OA 
HETATM   30  C   UNL     1      -8.019   6.505  72.067  1.00  0.00    -0.103 A  
HETATM   31  C   UNL     1      -7.567   6.599  74.452  1.00  0.00    -0.101 A  
HETATM   32  C   UNL     1      -6.413   4.879  73.012  1.00  0.00    -0.051 C  
HETATM   33  O   UNL     1      -5.779   4.722  71.984  1.00  0.00    -0.010 OA 
HETATM   34  C   UNL     1      -8.452   7.666  74.558  1.00  0.00    -0.223 A  
ENDBRANCH   7  26
TORSDOF 4
ENDMDL
MODEL      167
REMARK 921   NORMALIZED FREE ENERGY PREDICTED BY IDOCK:   -5.26 KCAL/MOL
REMARK 922        TOTAL FREE ENERGY PREDICTED BY IDOCK:   -7.63 KCAL/MOL
REMARK 923 INTER-LIGAND FREE ENERGY PREDICTED BY IDOCK:   -7.02 KCAL/MOL
REMARK 924 INTRA-LIGAND FREE ENERGY PREDICTED BY IDOCK:   -0.61 KCAL/MOL
REMARK 927      BINDING AFFINITY PREDICTED BY RF-SCORE:    0.00 PKD
ROOT
HETATM    1  C   UNL     1     -11.483  12.581  66.731  1.00  0.00    -0.422 C  
HETATM    2  C   UNL     1     -11.117  11.257  67.336  1.00  0.00    -0.358 A  
HETATM    3  C   UNL     1     -10.458  10.333  66.510  1.00  0.00    -0.241 A  
HETATM    4  C   UNL     1     -10.161   9.059  66.975  1.00  0.00    -0.318 A  
HETATM    5  C   UNL     1     -10.541   8.724  68.261  1.00  0.00    -0.142 A  
HETATM    6  N   UNL     1     -11.126   9.609  69.082  1.00  0.00    -0.149 NA 
HETATM    7  C   UNL     1     -11.400  10.873  68.654  1.00  0.00    -0.295 A  
ENDROOT
BRANCH   5   8
HETATM    8  N   UNL     1     -10.302   7.411  68.677  1.00  0.00    -0.195 N  
HETATM    9  C   UNL     1      -9.299   7.025  69.533  1.00  0.00    -0.148 C  
HETATM   10  H   UNL     1     -10.920   6.684  68.317  1.00  0.00     0.000 HD 
HETATM   11  O   UNL     1      -8.465   7.716  70.100  1.00  0.00    -0.134 OA 
BRANCH   9  12
HETATM   12  C   UNL     1      -9.270   5.522  69.744  1.00  0.00    -0.168 C  
HETATM   13  C   UNL     1     -10.454   4.861  70.443  1.00  0.00    -0.164 C  
HETATM   14  C   UNL     1      -9.173   5.047  71.189  1.00  0.00    -0.187 C  
BRANCH  12  15
HETATM   15  C   UNL     1      -8.505   4.758  68.662  1.00  0.00    -0.090 A  
HETATM   16  C   UNL     1      -6.458   3.536  68.017  1.00  0.00    -0.037 A  
HETATM   17  C   UNL     1      -7.297   4.087  68.992  1.00  0.00    -0.054 A  
HETATM   18  C   UNL     1      -6.848   3.653  66.705  1.00  0.00    -0.054 A  
HETATM   19  O   UNL     1      -6.138   3.236  65.623  1.00  0.00    -0.022 OA 
HETATM   20  C   UNL     1      -6.999   3.695  64.574  1.00  0.00    -0.049 C  
HETATM   21  F   UNL     1      -6.325   4.610  63.829  1.00  0.00    -0.023 F  
HETATM   22  F   UNL     1      -7.290   2.648  63.766  1.00  0.00    -0.053 F  
HETATM   23  O   UNL     1      -8.227   4.290  65.013  1.00  0.00    -0.100 OA 
HETATM   24  C   UNL     1      -8.033   4.259  66.359  1.00  0.00    -0.098 A  
HETATM   25  C   UNL     1      -8.879   4.805  67.304  1.00  0.00    -0.104 A  
ENDBRANCH  12  15
ENDBRANCH   9  12
ENDBRANCH   5   8
BRANCH   7  26
HETATM   26  C   UNL     1     -12.018  11.719  69.715  1.00  0.00    -0.392 A  
HETATM   27  C   UNL     1     -12.589  11.124  70.862  1.00  0.00    -0.483 A  
HETATM   28  C   UNL     1     -12.614  13.893  70.697  1.00  0.00    -0.405 A  
HETATM   29  O   UNL     1     -12.546  16.063  71.676  1.00  0.00    -0.448 OA 
HETATM   30  C   UNL     1     -12.024  13.124  69.679  1.00  0.00    -0.370 A  
HETATM   31  C   UNL     1     -13.201  13.268  71.799  1.00  0.00    -0.495 A  
HETATM   32  C   UNL     1     -12.630  15.367  70.523  1.00  0.00    -0.423 C  
HETATM   33  O   UNL     1     -12.684  15.899  69.428  1.00  0.00     0.068 OA 
HETATM   34  C   UNL     1     -13.170  11.881  71.890  1.00  0.00    -0.467 A  
ENDBRANCH   7  26
TORSDOF 4
ENDMDL
MODEL      168
REMARK 921   NORMALIZED FREE ENERGY PREDICTED BY IDOCK:   -5.25 KCAL/MOL
REMARK 922        TOTAL FREE ENERGY PREDICTED BY IDOCK:   -7.62 KCAL/MOL
REMARK 923 INTER-LIGAND FREE ENERGY PREDICTED BY IDOCK:   -7.27 KCAL/MOL
REMARK 924 INTRA-LIGAND FREE ENERGY PREDICTED BY IDOCK:   -0.35 KCAL/MOL
REMARK 927      BINDING AFFINITY PREDICTED BY RF-SCORE:    0.00 PKD
ROOT
HETATM    1  C   UNL     1     -12.114  14.179  64.188  1.00  0.00    -0.437 C  
HETATM    2  C   UNL     1     -11.271  13.027  64.651  1.00  0.00    -0.355 A  
HETATM    3  C   UNL     1     -11.464  11.790  64.015  1.00  0.00    -0.444 A  
HETATM    4  C   UNL     1     -10.780  10.662  64.444  1.00  0.00     0.047 A  
HETATM    5  C   UNL     1      -9.916  10.786  65.516  1.00  0.00    -0.263 A  
HETATM    6  N   UNL     1      -9.678  11.968  66.104  1.00  0.00    -0.234 NA 
HETATM    7  C   UNL     1     -10.320  13.093  65.679  1.00  0.00    -0.284 A  
ENDROOT
BRANCH   5   8
HETATM    8  N   UNL     1      -9.300   9.620  65.979  1.00  0.00    -0.190 N  
HETATM    9  C   UNL     1      -9.767   8.833  67.003  1.00  0.00    -0.198 C  
HETATM   10  H   UNL     1      -8.435   9.331  65.519  1.00  0.00     0.000 HD 
HETATM   11  O   UNL     1     -10.780   8.968  67.673  1.00  0.00    -0.248 OA 
BRANCH   9  12
HETATM   12  C   UNL     1      -8.841   7.668  67.303  1.00  0.00    -0.122 C  
HETATM   13  C   UNL     1      -7.790   7.287  66.264  1.00  0.00    -0.106 C  
HETATM   14  C   UNL     1      -9.007   6.434  66.424  1.00  0.00    -0.162 C  
BRANCH  12  15
HETATM   15  C   UNL     1      -8.540   7.482  68.791  1.00  0.00    -0.129 A  
HETATM   16  C   UNL     1      -7.884   5.951  70.614  1.00  0.00    -0.105 A  
HETATM   17  C   UNL     1      -8.003   6.250  69.253  1.00  0.00    -0.109 A  
HETATM   18  C   UNL     1      -8.300   6.905  71.512  1.00  0.00    -0.114 A  
HETATM   19  O   UNL     1      -8.318   6.771  72.864  1.00  0.00    -0.116 OA 
HETATM   20  C   UNL     1      -8.910   8.024  73.226  1.00  0.00    -0.265 C  
HETATM   21  F   UNL     1     -10.091   7.782  73.854  1.00  0.00    -0.337 F  
HETATM   22  F   UNL     1      -8.097   8.644  74.115  1.00  0.00    -0.279 F  
HETATM   23  O   UNL     1      -9.157   8.917  72.132  1.00  0.00    -0.375 OA 
HETATM   24  C   UNL     1      -8.783   8.122  71.094  1.00  0.00    -0.138 A  
HETATM   25  C   UNL     1      -8.903   8.441  69.756  1.00  0.00    -0.134 A  
ENDBRANCH  12  15
ENDBRANCH   9  12
ENDBRANCH   5   8
BRANCH   7  26
HETATM   26  C   UNL     1      -9.903  14.312  66.430  1.00  0.00    -0.309 A  
HETATM   27  C   UNL     1     -10.861  15.271  66.825  1.00  0.00    -0.312 A  
HETATM   28  C   UNL     1      -8.219  15.716  67.544  1.00  0.00    -0.185 A  
HETATM   29  O   UNL     1      -6.550  16.560  69.018  1.00  0.00    -0.168 OA 
HETATM   30  C   UNL     1      -8.580  14.556  66.835  1.00  0.00    -0.207 A  
HETATM   31  C   UNL     1      -9.189  16.660  67.886  1.00  0.00    -0.219 A  
HETATM   32  C   UNL     1      -6.781  15.910  67.858  1.00  0.00    -0.146 C  
HETATM   33  O   UNL     1      -5.890  15.489  67.143  1.00  0.00    -0.320 OA 
HETATM   34  C   UNL     1     -10.516  16.426  67.542  1.00  0.00    -0.304 A  
ENDBRANCH   7  26
TORSDOF 4
ENDMDL
MODEL      169
REMARK 921   NORMALIZED FREE ENERGY PREDICTED BY IDOCK:   -5.24 KCAL/MOL
REMARK 922        TOTAL FREE ENERGY PREDICTED BY IDOCK:   -7.61 KCAL/MOL
REMARK 923 INTER-LIGAND FREE ENERGY PREDICTED BY IDOCK:   -6.99 KCAL/MOL
REMARK 924 INTRA-LIGAND FREE ENERGY PREDICTED BY IDOCK:   -0.62 KCAL/MOL
REMARK 927      BINDING AFFINITY PREDICTED BY RF-SCORE:    0.00 PKD
ROOT
HETATM    1  C   UNL     1     -11.825  15.681  64.215  1.00  0.00    -0.151 C  
HETATM    2  C   UNL     1     -11.163  14.458  64.782  1.00  0.00    -0.391 A  
HETATM    3  C   UNL     1     -11.522  13.218  64.230  1.00  0.00    -0.435 A  
HETATM    4  C   UNL     1     -11.014  12.038  64.756  1.00  0.00    -0.361 A  
HETATM    5  C   UNL     1     -10.160  12.118  65.840  1.00  0.00    -0.245 A  
HETATM    6  N   UNL     1      -9.765  13.295  66.349  1.00  0.00    -0.275 NA 
HETATM    7  C   UNL     1     -10.230  14.464  65.828  1.00  0.00    -0.337 A  
ENDROOT
BRANCH   5   8
HETATM    8  N   UNL     1      -9.725  10.914  66.401  1.00  0.00    -0.195 N  
HETATM    9  C   UNL     1      -9.430   9.774  65.694  1.00  0.00    -0.246 C  
HETATM   10  H   UNL     1      -9.618  10.879  67.415  1.00  0.00     0.000 HD 
HETATM   11  O   UNL     1      -9.462   9.591  64.485  1.00  0.00    -0.200 OA 
BRANCH   9  12
HETATM   12  C   UNL     1      -9.039   8.619  66.598  1.00  0.00    -0.203 C  
HETATM   13  C   UNL     1      -7.799   7.804  66.243  1.00  0.00    -0.091 C  
HETATM   14  C   UNL     1      -9.153   7.224  65.995  1.00  0.00    -0.117 C  
BRANCH  12  15
HETATM   15  C   UNL     1      -9.417   8.824  68.066  1.00  0.00    -0.158 A  
HETATM   16  C   UNL     1      -8.661   9.223  70.383  1.00  0.00    -0.263 A  
HETATM   17  C   UNL     1      -8.421   9.204  69.004  1.00  0.00    -0.132 A  
HETATM   18  C   UNL     1      -9.917   8.865  70.812  1.00  0.00    -0.226 A  
HETATM   19  O   UNL     1     -10.316   8.765  72.108  1.00  0.00    -0.331 OA 
HETATM   20  C   UNL     1     -11.654   8.292  71.915  1.00  0.00    -0.315 C  
HETATM   21  F   UNL     1     -11.766   7.063  72.483  1.00  0.00    -0.283 F  
HETATM   22  F   UNL     1     -12.503   9.121  72.570  1.00  0.00    -0.416 F  
HETATM   23  O   UNL     1     -12.073   8.196  70.548  1.00  0.00    -0.058 OA 
HETATM   24  C   UNL     1     -10.912   8.535  69.924  1.00  0.00    -0.165 A  
HETATM   25  C   UNL     1     -10.700   8.516  68.560  1.00  0.00    -0.080 A  
ENDBRANCH  12  15
ENDBRANCH   9  12
ENDBRANCH   5   8
BRANCH   7  26
HETATM   26  C   UNL     1      -9.655  15.664  66.501  1.00  0.00    -0.293 A  
HETATM   27  C   UNL     1      -8.465  16.253  66.019  1.00  0.00    -0.185 A  
HETATM   28  C   UNL     1      -9.700  17.440  68.201  1.00  0.00    -0.291 A  
HETATM   29  O   UNL     1     -10.277  19.336  69.522  1.00  0.00    -0.147 OA 
HETATM   30  C   UNL     1     -10.267  16.309  67.590  1.00  0.00    -0.272 A  
HETATM   31  C   UNL     1      -8.503  17.973  67.719  1.00  0.00    -0.247 A  
HETATM   32  C   UNL     1     -10.391  17.998  69.391  1.00  0.00     0.183 C  
HETATM   33  O   UNL     1     -11.032  17.306  70.163  1.00  0.00     0.229 OA 
HETATM   34  C   UNL     1      -7.896  17.388  66.614  1.00  0.00    -0.292 A  
ENDBRANCH   7  26
TORSDOF 4
ENDMDL
MODEL      170
REMARK 921   NORMALIZED FREE ENERGY PREDICTED BY IDOCK:   -5.24 KCAL/MOL
REMARK 922        TOTAL FREE ENERGY PREDICTED BY IDOCK:   -7.60 KCAL/MOL
REMARK 923 INTER-LIGAND FREE ENERGY PREDICTED BY IDOCK:   -7.23 KCAL/MOL
REMARK 924 INTRA-LIGAND FREE ENERGY PREDICTED BY IDOCK:   -0.37 KCAL/MOL
REMARK 927      BINDING AFFINITY PREDICTED BY RF-SCORE:    0.00 PKD
ROOT
HETATM    1  C   UNL     1      -7.972   6.600  68.674  1.00  0.00    -0.118 C  
HETATM    2  C   UNL     1      -8.364   7.973  68.212  1.00  0.00    -0.123 A  
HETATM    3  C   UNL     1      -8.575   8.948  69.200  1.00  0.00    -0.134 A  
HETATM    4  C   UNL     1      -9.018  10.218  68.854  1.00  0.00    -0.164 A  
HETATM    5  C   UNL     1      -9.256  10.489  67.520  1.00  0.00    -0.142 A  
HETATM    6  N   UNL     1      -9.012   9.587  66.557  1.00  0.00    -0.144 NA 
HETATM    7  C   UNL     1      -8.550   8.345  66.873  1.00  0.00    -0.125 A  
ENDROOT
BRANCH   5   8
HETATM    8  N   UNL     1      -9.777  11.747  67.206  1.00  0.00    -0.178 N  
HETATM    9  C   UNL     1      -9.044  12.905  67.115  1.00  0.00    -0.220 C  
HETATM   10  H   UNL     1     -10.781  11.811  67.031  1.00  0.00     0.000 HD 
HETATM   11  O   UNL     1      -7.840  13.064  67.259  1.00  0.00    -0.171 OA 
BRANCH   9  12
HETATM   12  C   UNL     1      -9.910  14.114  66.813  1.00  0.00    -0.275 C  
HETATM   13  C   UNL     1     -10.259  14.416  65.359  1.00  0.00    -0.408 C  
HETATM   14  C   UNL     1      -9.237  15.253  66.057  1.00  0.00    -0.308 C  
BRANCH  12  15
HETATM   15  C   UNL     1     -10.912  14.452  67.919  1.00  0.00    -0.272 A  
HETATM   16  C   UNL     1     -12.091  16.196  69.209  1.00  0.00     0.030 A  
HETATM   17  C   UNL     1     -11.331  15.796  68.105  1.00  0.00    -0.337 A  
HETATM   18  C   UNL     1     -12.439  15.230  70.123  1.00  0.00    -0.334 A  
HETATM   19  O   UNL     1     -13.119  15.438  71.281  1.00  0.00    -0.427 OA 
HETATM   20  C   UNL     1     -13.101  14.110  71.817  1.00  0.00    -0.357 C  
HETATM   21  F   UNL     1     -12.421  14.125  72.993  1.00  0.00    -0.345 F  
HETATM   22  F   UNL     1     -14.376  13.738  72.090  1.00  0.00    -0.531 F  
HETATM   23  O   UNL     1     -12.508  13.120  70.966  1.00  0.00    -0.370 OA 
HETATM   24  C   UNL     1     -12.085  13.914  69.946  1.00  0.00    -0.344 A  
HETATM   25  C   UNL     1     -11.340  13.495  68.861  1.00  0.00    -0.332 A  
ENDBRANCH  12  15
ENDBRANCH   9  12
ENDBRANCH   5   8
BRANCH   7  26
HETATM   26  C   UNL     1      -8.308   7.497  65.671  1.00  0.00    -0.144 A  
HETATM   27  C   UNL     1      -7.662   8.034  64.535  1.00  0.00    -0.125 A  
HETATM   28  C   UNL     1      -8.395   5.360  64.458  1.00  0.00    -0.138 A  
HETATM   29  O   UNL     1      -8.076   3.107  63.757  1.00  0.00    -0.080 OA 
HETATM   30  C   UNL     1      -8.639   6.134  65.606  1.00  0.00    -0.148 A  
HETATM   31  C   UNL     1      -7.787   5.935  63.340  1.00  0.00    -0.100 A  
HETATM   32  C   UNL     1      -8.853   3.948  64.470  1.00  0.00    -0.124 C  
HETATM   33  O   UNL     1      -9.831   3.579  65.097  1.00  0.00    -0.157 OA 
HETATM   34  C   UNL     1      -7.403   7.270  63.388  1.00  0.00    -0.086 A  
ENDBRANCH   7  26
TORSDOF 4
ENDMDL
MODEL      171
REMARK 921   NORMALIZED FREE ENERGY PREDICTED BY IDOCK:   -5.23 KCAL/MOL
REMARK 922        TOTAL FREE ENERGY PREDICTED BY IDOCK:   -7.59 KCAL/MOL
REMARK 923 INTER-LIGAND FREE ENERGY PREDICTED BY IDOCK:   -7.40 KCAL/MOL
REMARK 924 INTRA-LIGAND FREE ENERGY PREDICTED BY IDOCK:   -0.19 KCAL/MOL
REMARK 927      BINDING AFFINITY PREDICTED BY RF-SCORE:    0.00 PKD
ROOT
HETATM    1  C   UNL     1      -8.391   8.669  62.369  1.00  0.00    -0.200 C  
HETATM    2  C   UNL     1      -8.635   9.616  63.507  1.00  0.00    -0.215 A  
HETATM    3  C   UNL     1      -9.287  10.824  63.211  1.00  0.00    -0.324 A  
HETATM    4  C   UNL     1      -9.475  11.784  64.196  1.00  0.00    -0.001 A  
HETATM    5  C   UNL     1      -8.993  11.525  65.466  1.00  0.00    -0.031 A  
HETATM    6  N   UNL     1      -8.413  10.357  65.781  1.00  0.00    -0.160 NA 
HETATM    7  C   UNL     1      -8.245   9.391  64.835  1.00  0.00    -0.142 A  
ENDROOT
BRANCH   5   8
HETATM    8  N   UNL     1      -9.124  12.539  66.418  1.00  0.00    -0.378 N  
HETATM    9  C   UNL     1     -10.183  13.409  66.505  1.00  0.00    -0.282 C  
HETATM   10  H   UNL     1      -8.374  12.641  67.103  1.00  0.00     0.000 HD 
HETATM   11  O   UNL     1     -11.192  13.460  65.818  1.00  0.00    -0.289 OA 
BRANCH   9  12
HETATM   12  C   UNL     1     -10.000  14.431  67.613  1.00  0.00    -0.224 C  
HETATM   13  C   UNL     1      -9.851  15.900  67.232  1.00  0.00    -0.234 C  
HETATM   14  C   UNL     1      -8.648  15.130  67.668  1.00  0.00    -0.180 C  
BRANCH  12  15
HETATM   15  C   UNL     1     -10.691  14.053  68.925  1.00  0.00    -0.265 A  
HETATM   16  C   UNL     1     -12.110  12.448  70.153  1.00  0.00    -0.366 A  
HETATM   17  C   UNL     1     -11.305  12.779  69.058  1.00  0.00    -0.346 A  
HETATM   18  C   UNL     1     -12.286  13.406  71.123  1.00  0.00    -0.259 A  
HETATM   19  O   UNL     1     -13.077  13.290  72.222  1.00  0.00    -0.396 OA 
HETATM   20  C   UNL     1     -12.913  14.598  72.782  1.00  0.00    -0.470 C  
HETATM   21  F   UNL     1     -14.121  15.218  72.799  1.00  0.00    -0.524 F  
HETATM   22  F   UNL     1     -12.504  14.469  74.067  1.00  0.00    -0.573 F  
HETATM   23  O   UNL     1     -11.984  15.441  72.089  1.00  0.00    -0.354 OA 
HETATM   24  C   UNL     1     -11.669  14.631  71.042  1.00  0.00    -0.277 A  
HETATM   25  C   UNL     1     -10.866  14.978  69.974  1.00  0.00    -0.243 A  
ENDBRANCH  12  15
ENDBRANCH   9  12
ENDBRANCH   5   8
BRANCH   7  26
HETATM   26  C   UNL     1      -7.614   8.154  65.380  1.00  0.00    -0.089 A  
HETATM   27  C   UNL     1      -6.684   8.234  66.440  1.00  0.00    -0.062 A  
HETATM   28  C   UNL     1      -7.320   5.715  65.470  1.00  0.00    -0.073 A  
HETATM   29  O   UNL     1      -7.657   3.374  65.745  1.00  0.00    -0.076 OA 
HETATM   30  C   UNL     1      -7.932   6.861  64.933  1.00  0.00    -0.124 A  
HETATM   31  C   UNL     1      -6.378   5.836  66.493  1.00  0.00    -0.038 A  
HETATM   32  C   UNL     1      -7.676   4.403  64.873  1.00  0.00    -0.081 C  
HETATM   33  O   UNL     1      -7.987   4.276  63.702  1.00  0.00    -0.084 OA 
HETATM   34  C   UNL     1      -6.075   7.097  66.992  1.00  0.00    -0.041 A  
ENDBRANCH   7  26
TORSDOF 4
ENDMDL
MODEL      172
REMARK 921   NORMALIZED FREE ENERGY PREDICTED BY IDOCK:   -5.17 KCAL/MOL
REMARK 922        TOTAL FREE ENERGY PREDICTED BY IDOCK:   -7.52 KCAL/MOL
REMARK 923 INTER-LIGAND FREE ENERGY PREDICTED BY IDOCK:   -7.72 KCAL/MOL
REMARK 924 INTRA-LIGAND FREE ENERGY PREDICTED BY IDOCK:    0.20 KCAL/MOL
REMARK 927      BINDING AFFINITY PREDICTED BY RF-SCORE:    0.00 PKD
ROOT
HETATM    1  C   UNL     1     -10.798  16.570  64.926  1.00  0.00    -0.222 C  
HETATM    2  C   UNL     1     -10.299  15.281  65.512  1.00  0.00    -0.408 A  
HETATM    3  C   UNL     1     -10.786  14.088  64.954  1.00  0.00    -0.421 A  
HETATM    4  C   UNL     1     -10.433  12.860  65.495  1.00  0.00    -0.305 A  
HETATM    5  C   UNL     1      -9.603  12.844  66.601  1.00  0.00    -0.257 A  
HETATM    6  N   UNL     1      -9.085  13.969  67.117  1.00  0.00    -0.222 NA 
HETATM    7  C   UNL     1      -9.398  15.183  66.582  1.00  0.00    -0.267 A  
ENDROOT
BRANCH   5   8
HETATM    8  N   UNL     1      -9.327  11.601  67.175  1.00  0.00    -0.172 N  
HETATM    9  C   UNL     1      -9.693  10.387  66.645  1.00  0.00    -0.190 C  
HETATM   10  H   UNL     1      -8.813  11.593  68.056  1.00  0.00     0.000 HD 
HETATM   11  O   UNL     1     -10.285  10.153  65.601  1.00  0.00    -0.275 OA 
BRANCH   9  12
HETATM   12  C   UNL     1      -9.293   9.225  67.536  1.00  0.00    -0.148 C  
HETATM   13  C   UNL     1      -9.392   9.399  69.049  1.00  0.00    -0.153 C  
HETATM   14  C   UNL     1      -8.050   9.430  68.393  1.00  0.00    -0.109 C  
BRANCH  12  15
HETATM   15  C   UNL     1      -9.544   7.850  66.913  1.00  0.00    -0.263 A  
HETATM   16  C   UNL     1     -10.909   5.793  66.868  1.00  0.00    -0.337 A  
HETATM   17  C   UNL     1     -10.716   7.125  67.253  1.00  0.00    -0.399 A  
HETATM   18  C   UNL     1      -9.916   5.197  66.128  1.00  0.00    -0.194 A  
HETATM   19  O   UNL     1      -9.899   3.901  65.718  1.00  0.00    -0.184 OA 
HETATM   20  C   UNL     1      -8.615   3.863  65.084  1.00  0.00    -0.114 C  
HETATM   21  F   UNL     1      -7.832   2.969  65.743  1.00  0.00    -0.080 F  
HETATM   22  F   UNL     1      -8.773   3.410  63.817  1.00  0.00    -0.092 F  
HETATM   23  O   UNL     1      -7.924   5.118  65.038  1.00  0.00    -0.095 OA 
HETATM   24  C   UNL     1      -8.791   5.888  65.748  1.00  0.00    -0.139 A  
HETATM   25  C   UNL     1      -8.582   7.204  66.111  1.00  0.00    -0.151 A  
ENDBRANCH  12  15
ENDBRANCH   9  12
ENDBRANCH   5   8
BRANCH   7  26
HETATM   26  C   UNL     1      -8.703  16.311  67.267  1.00  0.00    -0.200 A  
HETATM   27  C   UNL     1      -7.730  16.054  68.258  1.00  0.00    -0.142 A  
HETATM   28  C   UNL     1      -8.243  18.702  67.609  1.00  0.00    -0.274 A  
HETATM   29  O   UNL     1      -7.576  20.971  67.331  1.00  0.00    -0.334 OA 
HETATM   30  C   UNL     1      -8.916  17.661  66.945  1.00  0.00    -0.258 A  
HETATM   31  C   UNL     1      -7.313  18.411  68.609  1.00  0.00    -0.311 A  
HETATM   32  C   UNL     1      -8.599  20.095  67.240  1.00  0.00    -0.343 C  
HETATM   33  O   UNL     1      -9.712  20.411  66.860  1.00  0.00    -0.428 OA 
HETATM   34  C   UNL     1      -7.043  17.083  68.919  1.00  0.00    -0.233 A  
ENDBRANCH   7  26
TORSDOF 4
ENDMDL
MODEL      173
REMARK 921   NORMALIZED FREE ENERGY PREDICTED BY IDOCK:   -5.12 KCAL/MOL
REMARK 922        TOTAL FREE ENERGY PREDICTED BY IDOCK:   -7.47 KCAL/MOL
REMARK 923 INTER-LIGAND FREE ENERGY PREDICTED BY IDOCK:   -6.29 KCAL/MOL
REMARK 924 INTRA-LIGAND FREE ENERGY PREDICTED BY IDOCK:   -1.17 KCAL/MOL
REMARK 927      BINDING AFFINITY PREDICTED BY RF-SCORE:    0.00 PKD
ROOT
HETATM    1  C   UNL     1      -6.478   7.249  64.374  1.00  0.00    -0.040 C  
HETATM    2  C   UNL     1      -7.531   8.031  65.104  1.00  0.00    -0.085 A  
HETATM    3  C   UNL     1      -7.639   9.398  64.805  1.00  0.00    -0.111 A  
HETATM    4  C   UNL     1      -8.534  10.203  65.498  1.00  0.00    -0.159 A  
HETATM    5  C   UNL     1      -9.302   9.625  66.492  1.00  0.00    -0.165 A  
HETATM    6  N   UNL     1      -9.250   8.311  66.757  1.00  0.00    -0.159 NA 
HETATM    7  C   UNL     1      -8.398   7.500  66.069  1.00  0.00    -0.136 A  
ENDROOT
BRANCH   5   8
HETATM    8  N   UNL     1     -10.136  10.471  67.228  1.00  0.00    -0.192 N  
HETATM    9  C   UNL     1      -9.810  11.052  68.429  1.00  0.00    -0.182 C  
HETATM   10  H   UNL     1     -11.059  10.672  66.843  1.00  0.00     0.000 HD 
HETATM   11  O   UNL     1      -8.767  10.974  69.061  1.00  0.00    -0.147 OA 
BRANCH   9  12
HETATM   12  C   UNL     1     -10.953  11.871  69.002  1.00  0.00    -0.267 C  
HETATM   13  C   UNL     1     -11.611  11.400  70.295  1.00  0.00    -0.334 C  
HETATM   14  C   UNL     1     -12.325  11.208  68.996  1.00  0.00    -0.032 C  
BRANCH  12  15
HETATM   15  C   UNL     1     -10.854  13.368  68.703  1.00  0.00    -0.287 A  
HETATM   16  C   UNL     1     -11.757  15.637  69.071  1.00  0.00    -0.408 A  
HETATM   17  C   UNL     1     -11.662  14.287  69.424  1.00  0.00    -0.363 A  
HETATM   18  C   UNL     1     -11.022  16.062  67.990  1.00  0.00    -0.341 A  
HETATM   19  O   UNL     1     -11.033  17.315  67.464  1.00  0.00    -0.256 OA 
HETATM   20  C   UNL     1     -10.159  17.119  66.346  1.00  0.00    -0.320 C  
HETATM   21  F   UNL     1     -10.856  17.354  65.203  1.00  0.00    -0.388 F  
HETATM   22  F   UNL     1      -9.163  18.036  66.411  1.00  0.00    -0.265 F  
HETATM   23  O   UNL     1      -9.573  15.814  66.256  1.00  0.00    -0.264 OA 
HETATM   24  C   UNL     1     -10.198  15.205  67.300  1.00  0.00    -0.243 A  
HETATM   25  C   UNL     1     -10.084  13.870  67.635  1.00  0.00    -0.241 A  
ENDBRANCH  12  15
ENDBRANCH   9  12
ENDBRANCH   5   8
BRANCH   7  26
HETATM   26  C   UNL     1      -8.506   6.070  66.479  1.00  0.00    -0.115 A  
HETATM   27  C   UNL     1      -9.097   5.121  65.616  1.00  0.00    -0.161 A  
HETATM   28  C   UNL     1      -8.108   4.216  68.044  1.00  0.00    -0.089 A  
HETATM   29  O   UNL     1      -7.102   2.555  69.422  1.00  0.00    -0.043 OA 
HETATM   30  C   UNL     1      -7.992   5.571  67.687  1.00  0.00    -0.101 A  
HETATM   31  C   UNL     1      -8.731   3.313  67.181  1.00  0.00    -0.134 A  
HETATM   32  C   UNL     1      -7.595   3.810  69.377  1.00  0.00    -0.052 C  
HETATM   33  O   UNL     1      -7.594   4.560  70.337  1.00  0.00    -0.052 OA 
HETATM   34  C   UNL     1      -9.209   3.765  65.956  1.00  0.00    -0.161 A  
ENDBRANCH   7  26
TORSDOF 4
ENDMDL
MODEL      174
REMARK 921   NORMALIZED FREE ENERGY PREDICTED BY IDOCK:   -5.12 KCAL/MOL
REMARK 922        TOTAL FREE ENERGY PREDICTED BY IDOCK:   -7.46 KCAL/MOL
REMARK 923 INTER-LIGAND FREE ENERGY PREDICTED BY IDOCK:   -6.85 KCAL/MOL
REMARK 924 INTRA-LIGAND FREE ENERGY PREDICTED BY IDOCK:   -0.62 KCAL/MOL
REMARK 927      BINDING AFFINITY PREDICTED BY RF-SCORE:    0.00 PKD
ROOT
HETATM    1  C   UNL     1      -7.121   7.368  70.971  1.00  0.00    -0.060 C  
HETATM    2  C   UNL     1      -7.753   8.131  69.844  1.00  0.00    -0.098 A  
HETATM    3  C   UNL     1      -6.893   8.722  68.904  1.00  0.00    -0.061 A  
HETATM    4  C   UNL     1      -7.402   9.511  67.881  1.00  0.00    -0.083 A  
HETATM    5  C   UNL     1      -8.769   9.707  67.821  1.00  0.00    -0.122 A  
HETATM    6  N   UNL     1      -9.611   9.110  68.678  1.00  0.00    -0.150 NA 
HETATM    7  C   UNL     1      -9.133   8.309  69.672  1.00  0.00    -0.154 A  
ENDROOT
BRANCH   5   8
HETATM    8  N   UNL     1      -9.248  10.568  66.831  1.00  0.00    -0.154 N  
HETATM    9  C   UNL     1      -9.375  10.249  65.500  1.00  0.00    -0.199 C  
HETATM   10  H   UNL     1      -9.526  11.507  67.118  1.00  0.00     0.000 HD 
HETATM   11  O   UNL     1      -9.130   9.192  64.939  1.00  0.00    -0.210 OA 
BRANCH   9  12
HETATM   12  C   UNL     1      -9.872  11.420  64.672  1.00  0.00    -0.302 C  
HETATM   13  C   UNL     1     -10.484  11.136  63.303  1.00  0.00    -0.323 C  
HETATM   14  C   UNL     1      -9.106  11.708  63.387  1.00  0.00     0.067 C  
BRANCH  12  15
HETATM   15  C   UNL     1     -10.388  12.595  65.505  1.00  0.00    -0.305 A  
HETATM   16  C   UNL     1     -12.306  13.999  66.174  1.00  0.00    -0.491 A  
HETATM   17  C   UNL     1     -11.785  12.839  65.591  1.00  0.00    -0.443 A  
HETATM   18  C   UNL     1     -11.411  14.910  66.683  1.00  0.00    -0.296 A  
HETATM   19  O   UNL     1     -11.726  16.114  67.229  1.00  0.00     0.245 OA 
HETATM   20  C   UNL     1     -10.410  16.617  67.488  1.00  0.00    -0.294 C  
HETATM   21  F   UNL     1     -10.225  17.747  66.756  1.00  0.00    -0.297 F  
HETATM   22  F   UNL     1     -10.329  16.961  68.796  1.00  0.00    -0.246 F  
HETATM   23  O   UNL     1      -9.344  15.707  67.188  1.00  0.00    -0.210 OA 
HETATM   24  C   UNL     1     -10.057  14.680  66.652  1.00  0.00    -0.273 A  
HETATM   25  C   UNL     1      -9.520  13.540  66.087  1.00  0.00    -0.159 A  
ENDBRANCH  12  15
ENDBRANCH   9  12
ENDBRANCH   5   8
BRANCH   7  26
HETATM   26  C   UNL     1     -10.219   7.710  70.501  1.00  0.00    -0.201 A  
HETATM   27  C   UNL     1     -10.137   6.364  70.921  1.00  0.00    -0.218 A  
HETATM   28  C   UNL     1     -12.339   7.840  71.739  1.00  0.00    -0.346 A  
HETATM   29  O   UNL     1     -14.050   8.379  73.304  1.00  0.00     0.062 OA 
HETATM   30  C   UNL     1     -11.333   8.434  70.957  1.00  0.00    -0.303 A  
HETATM   31  C   UNL     1     -12.242   6.496  72.106  1.00  0.00    -0.277 A  
HETATM   32  C   UNL     1     -13.510   8.677  72.104  1.00  0.00    -0.398 C  
HETATM   33  O   UNL     1     -13.924   9.574  71.392  1.00  0.00    -0.245 OA 
HETATM   34  C   UNL     1     -11.128   5.764  71.711  1.00  0.00    -0.301 A  
ENDBRANCH   7  26
TORSDOF 4
ENDMDL
MODEL      175
REMARK 921   NORMALIZED FREE ENERGY PREDICTED BY IDOCK:   -5.12 KCAL/MOL
REMARK 922        TOTAL FREE ENERGY PREDICTED BY IDOCK:   -7.46 KCAL/MOL
REMARK 923 INTER-LIGAND FREE ENERGY PREDICTED BY IDOCK:   -7.49 KCAL/MOL
REMARK 924 INTRA-LIGAND FREE ENERGY PREDICTED BY IDOCK:    0.03 KCAL/MOL
REMARK 927      BINDING AFFINITY PREDICTED BY RF-SCORE:    0.00 PKD
ROOT
HETATM    1  C   UNL     1      -9.201   2.565  69.933  1.00  0.00    -0.195 C  
HETATM    2  C   UNL     1      -9.470   4.032  69.764  1.00  0.00    -0.265 A  
HETATM    3  C   UNL     1      -9.843   4.755  70.908  1.00  0.00    -0.279 A  
HETATM    4  C   UNL     1     -10.185   6.097  70.815  1.00  0.00    -0.249 A  
HETATM    5  C   UNL     1     -10.161   6.695  69.569  1.00  0.00    -0.177 A  
HETATM    6  N   UNL     1      -9.758   6.036  68.472  1.00  0.00    -0.120 NA 
HETATM    7  C   UNL     1      -9.391   4.726  68.548  1.00  0.00    -0.133 A  
ENDROOT
BRANCH   5   8
HETATM    8  N   UNL     1     -10.586   8.024  69.490  1.00  0.00    -0.240 N  
HETATM    9  C   UNL     1     -10.591   8.785  68.346  1.00  0.00    -0.137 C  
HETATM   10  H   UNL     1     -10.919   8.464  70.348  1.00  0.00     0.000 HD 
HETATM   11  O   UNL     1     -10.263   8.467  67.212  1.00  0.00    -0.227 OA 
BRANCH   9  12
HETATM   12  C   UNL     1     -11.058  10.206  68.601  1.00  0.00    -0.254 C  
HETATM   13  C   UNL     1     -10.857  10.801  69.992  1.00  0.00    -0.218 C  
HETATM   14  C   UNL     1     -12.223  10.368  69.570  1.00  0.00    -0.068 C  
BRANCH  12  15
HETATM   15  C   UNL     1     -10.988  11.113  67.371  1.00  0.00    -0.347 A  
HETATM   16  C   UNL     1      -9.669  11.929  65.449  1.00  0.00    -0.228 A  
HETATM   17  C   UNL     1      -9.887  11.008  66.479  1.00  0.00    -0.241 A  
HETATM   18  C   UNL     1     -10.574  12.955  65.314  1.00  0.00    -0.297 A  
HETATM   19  O   UNL     1     -10.495  13.973  64.417  1.00  0.00    -0.368 OA 
HETATM   20  C   UNL     1     -11.642  14.735  64.810  1.00  0.00    -0.418 C  
HETATM   21  F   UNL     1     -11.227  15.959  65.230  1.00  0.00    -0.318 F  
HETATM   22  F   UNL     1     -12.428  14.923  63.723  1.00  0.00    -0.423 F  
HETATM   23  O   UNL     1     -12.433  14.147  65.851  1.00  0.00    -0.471 OA 
HETATM   24  C   UNL     1     -11.672  13.056  66.135  1.00  0.00    -0.394 A  
HETATM   25  C   UNL     1     -11.910  12.155  67.154  1.00  0.00    -0.292 A  
ENDBRANCH  12  15
ENDBRANCH   9  12
ENDBRANCH   5   8
BRANCH   7  26
HETATM   26  C   UNL     1      -8.943   4.176  67.236  1.00  0.00    -0.142 A  
HETATM   27  C   UNL     1      -7.577   3.901  67.005  1.00  0.00    -0.080 A  
HETATM   28  C   UNL     1      -9.371   3.330  64.968  1.00  0.00    -0.150 A  
HETATM   29  O   UNL     1     -10.099   2.045  63.100  1.00  0.00    -0.104 OA 
HETATM   30  C   UNL     1      -9.825   3.849  66.193  1.00  0.00    -0.131 A  
HETATM   31  C   UNL     1      -8.009   3.104  64.763  1.00  0.00    -0.086 A  
HETATM   32  C   UNL     1     -10.382   3.089  63.907  1.00  0.00    -0.174 C  
HETATM   33  O   UNL     1     -11.393   3.759  63.798  1.00  0.00    -0.197 OA 
HETATM   34  C   UNL     1      -7.114   3.372  65.792  1.00  0.00    -0.066 A  
ENDBRANCH   7  26
TORSDOF 4
ENDMDL
MODEL      176
REMARK 921   NORMALIZED FREE ENERGY PREDICTED BY IDOCK:   -5.06 KCAL/MOL
REMARK 922        TOTAL FREE ENERGY PREDICTED BY IDOCK:   -7.38 KCAL/MOL
REMARK 923 INTER-LIGAND FREE ENERGY PREDICTED BY IDOCK:   -6.87 KCAL/MOL
REMARK 924 INTRA-LIGAND FREE ENERGY PREDICTED BY IDOCK:   -0.51 KCAL/MOL
REMARK 927      BINDING AFFINITY PREDICTED BY RF-SCORE:    0.00 PKD
ROOT
HETATM    1  C   UNL     1      -8.633   9.250  67.839  1.00  0.00    -0.120 C  
HETATM    2  C   UNL     1      -8.198  10.686  67.845  1.00  0.00    -0.112 A  
HETATM    3  C   UNL     1      -7.430  11.122  68.936  1.00  0.00    -0.125 A  
HETATM    4  C   UNL     1      -7.060  12.455  69.051  1.00  0.00    -0.041 A  
HETATM    5  C   UNL     1      -7.477  13.338  68.073  1.00  0.00    -0.138 A  
HETATM    6  N   UNL     1      -8.167  12.933  66.996  1.00  0.00    -0.130 NA 
HETATM    7  C   UNL     1      -8.516  11.623  66.851  1.00  0.00    -0.168 A  
ENDROOT
BRANCH   5   8
HETATM    8  N   UNL     1      -7.160  14.687  68.253  1.00  0.00    -0.105 N  
HETATM    9  C   UNL     1      -6.739  15.249  69.434  1.00  0.00    -0.164 C  
HETATM   10  H   UNL     1      -7.246  15.303  67.444  1.00  0.00     0.000 HD 
HETATM   11  O   UNL     1      -6.542  14.709  70.513  1.00  0.00    -0.148 OA 
BRANCH   9  12
HETATM   12  C   UNL     1      -6.529  16.748  69.317  1.00  0.00    -0.219 C  
HETATM   13  C   UNL     1      -5.133  17.263  68.980  1.00  0.00    -0.151 C  
HETATM   14  C   UNL     1      -5.644  17.388  70.379  1.00  0.00    -0.200 C  
BRANCH  12  15
HETATM   15  C   UNL     1      -7.759  17.510  68.821  1.00  0.00    -0.252 A  
HETATM   16  C   UNL     1     -10.206  17.827  68.931  1.00  0.00    -0.345 A  
HETATM   17  C   UNL     1      -9.015  17.309  69.452  1.00  0.00     0.344 A  
HETATM   18  C   UNL     1     -10.123  18.560  67.771  1.00  0.00    -0.364 A  
HETATM   19  O   UNL     1     -11.173  19.088  67.087  1.00  0.00    -0.223 OA 
HETATM   20  C   UNL     1     -10.478  19.647  65.966  1.00  0.00    -0.523 C  
HETATM   21  F   UNL     1     -10.911  19.030  64.835  1.00  0.00    -0.137 F  
HETATM   22  F   UNL     1     -10.805  20.958  65.865  1.00  0.00     0.226 F  
HETATM   23  O   UNL     1      -9.050  19.535  66.021  1.00  0.00    -0.386 OA 
HETATM   24  C   UNL     1      -8.916  18.808  67.162  1.00  0.00    -0.281 A  
HETATM   25  C   UNL     1      -7.728  18.312  67.663  1.00  0.00    -0.230 A  
ENDBRANCH  12  15
ENDBRANCH   9  12
ENDBRANCH   5   8
BRANCH   7  26
HETATM   26  C   UNL     1      -9.249  11.360  65.580  1.00  0.00    -0.193 A  
HETATM   27  C   UNL     1      -8.748  10.425  64.646  1.00  0.00    -0.198 A  
HETATM   28  C   UNL     1     -11.145  11.687  64.049  1.00  0.00    -0.458 A  
HETATM   29  O   UNL     1     -13.310  11.737  63.060  1.00  0.00    -0.405 OA 
HETATM   30  C   UNL     1     -10.478  11.958  65.256  1.00  0.00    -0.317 A  
HETATM   31  C   UNL     1     -10.601  10.783  63.134  1.00  0.00     0.202 A  
HETATM   32  C   UNL     1     -12.401  12.430  63.776  1.00  0.00    -0.528 C  
HETATM   33  O   UNL     1     -12.600  13.558  64.190  1.00  0.00    -0.647 OA 
HETATM   34  C   UNL     1      -9.410  10.137  63.444  1.00  0.00    -0.334 A  
ENDBRANCH   7  26
TORSDOF 4
ENDMDL
MODEL      177
REMARK 921   NORMALIZED FREE ENERGY PREDICTED BY IDOCK:   -5.05 KCAL/MOL
REMARK 922        TOTAL FREE ENERGY PREDICTED BY IDOCK:   -7.37 KCAL/MOL
REMARK 923 INTER-LIGAND FREE ENERGY PREDICTED BY IDOCK:   -6.38 KCAL/MOL
REMARK 924 INTRA-LIGAND FREE ENERGY PREDICTED BY IDOCK:   -0.99 KCAL/MOL
REMARK 927      BINDING AFFINITY PREDICTED BY RF-SCORE:    0.00 PKD
ROOT
HETATM    1  C   UNL     1      -8.581   1.562  65.676  1.00  0.00    -0.105 C  
HETATM    2  C   UNL     1      -8.531   3.062  65.705  1.00  0.00    -0.105 A  
HETATM    3  C   UNL     1      -8.627   3.733  64.476  1.00  0.00    -0.105 A  
HETATM    4  C   UNL     1      -8.507   5.115  64.415  1.00  0.00    -0.138 A  
HETATM    5  C   UNL     1      -8.277   5.806  65.590  1.00  0.00    -0.128 A  
HETATM    6  N   UNL     1      -8.233   5.188  66.781  1.00  0.00    -0.108 NA 
HETATM    7  C   UNL     1      -8.377   3.836  66.864  1.00  0.00    -0.100 A  
ENDROOT
BRANCH   5   8
HETATM    8  N   UNL     1      -8.081   7.186  65.493  1.00  0.00    -0.129 N  
HETATM    9  C   UNL     1      -8.966   8.142  65.926  1.00  0.00    -0.151 C  
HETATM   10  H   UNL     1      -7.211   7.508  65.066  1.00  0.00     0.000 HD 
HETATM   11  O   UNL     1     -10.045   7.994  66.481  1.00  0.00    -0.260 OA 
BRANCH   9  12
HETATM   12  C   UNL     1      -8.486   9.551  65.626  1.00  0.00    -0.143 C  
HETATM   13  C   UNL     1      -7.074   9.738  65.078  1.00  0.00    -0.120 C  
HETATM   14  C   UNL     1      -7.359  10.079  66.505  1.00  0.00    -0.101 C  
BRANCH  12  15
HETATM   15  C   UNL     1      -9.599  10.508  65.196  1.00  0.00    -0.316 A  
HETATM   16  C   UNL     1     -10.874  11.535  63.348  1.00  0.00    -0.423 A  
HETATM   17  C   UNL     1     -10.002  10.556  63.835  1.00  0.00    -0.348 A  
HETATM   18  C   UNL     1     -11.348  12.464  64.243  1.00  0.00    -0.360 A  
HETATM   19  O   UNL     1     -12.151  13.520  63.945  1.00  0.00    -0.476 OA 
HETATM   20  C   UNL     1     -12.228  14.140  65.233  1.00  0.00    -0.434 C  
HETATM   21  F   UNL     1     -11.687  15.383  65.150  1.00  0.00    -0.294 F  
HETATM   22  F   UNL     1     -13.534  14.286  65.563  1.00  0.00    -0.467 F  
HETATM   23  O   UNL     1     -11.567  13.431  66.289  1.00  0.00    -0.318 OA 
HETATM   24  C   UNL     1     -11.010  12.416  65.574  1.00  0.00    -0.293 A  
HETATM   25  C   UNL     1     -10.156  11.455  66.079  1.00  0.00    -0.275 A  
ENDBRANCH  12  15
ENDBRANCH   9  12
ENDBRANCH   5   8
BRANCH   7  26
HETATM   26  C   UNL     1      -8.333   3.337  68.268  1.00  0.00    -0.094 A  
HETATM   27  C   UNL     1      -9.410   2.593  68.798  1.00  0.00    -0.230 A  
HETATM   28  C   UNL     1      -7.216   3.029  70.437  1.00  0.00    -0.037 A  
HETATM   29  O   UNL     1      -5.723   2.383  72.176  1.00  0.00    -0.007 OA 
HETATM   30  C   UNL     1      -7.228   3.514  69.117  1.00  0.00    -0.049 A  
HETATM   31  C   UNL     1      -8.315   2.329  70.938  1.00  0.00    -0.075 A  
HETATM   32  C   UNL     1      -6.027   3.337  71.272  1.00  0.00    -0.014 C  
HETATM   33  O   UNL     1      -5.368   4.351  71.128  1.00  0.00     0.000 OA 
HETATM   34  C   UNL     1      -9.405   2.094  70.109  1.00  0.00    -0.173 A  
ENDBRANCH   7  26
TORSDOF 4
ENDMDL
MODEL      178
REMARK 921   NORMALIZED FREE ENERGY PREDICTED BY IDOCK:   -5.03 KCAL/MOL
REMARK 922        TOTAL FREE ENERGY PREDICTED BY IDOCK:   -7.35 KCAL/MOL
REMARK 923 INTER-LIGAND FREE ENERGY PREDICTED BY IDOCK:   -7.01 KCAL/MOL
REMARK 924 INTRA-LIGAND FREE ENERGY PREDICTED BY IDOCK:   -0.34 KCAL/MOL
REMARK 927      BINDING AFFINITY PREDICTED BY RF-SCORE:    0.00 PKD
ROOT
HETATM    1  C   UNL     1     -11.715  11.439  63.932  1.00  0.00    -0.077 C  
HETATM    2  C   UNL     1     -10.860  12.064  64.995  1.00  0.00    -0.351 A  
HETATM    3  C   UNL     1     -11.128  13.399  65.334  1.00  0.00    -0.301 A  
HETATM    4  C   UNL     1     -10.328  14.069  66.250  1.00  0.00    -0.294 A  
HETATM    5  C   UNL     1      -9.258  13.391  66.805  1.00  0.00    -0.236 A  
HETATM    6  N   UNL     1      -9.016  12.100  66.534  1.00  0.00    -0.203 NA 
HETATM    7  C   UNL     1      -9.808  11.418  65.659  1.00  0.00    -0.235 A  
ENDROOT
BRANCH   5   8
HETATM    8  N   UNL     1      -8.422  14.111  67.663  1.00  0.00    -0.172 N  
HETATM    9  C   UNL     1      -7.063  13.940  67.767  1.00  0.00    -0.172 C  
HETATM   10  H   UNL     1      -8.854  14.818  68.258  1.00  0.00     0.000 HD 
HETATM   11  O   UNL     1      -6.335  13.179  67.145  1.00  0.00    -0.257 OA 
BRANCH   9  12
HETATM   12  C   UNL     1      -6.449  14.835  68.829  1.00  0.00    -0.087 C  
HETATM   13  C   UNL     1      -5.127  14.413  69.462  1.00  0.00    -0.090 C  
HETATM   14  C   UNL     1      -6.393  14.263  70.240  1.00  0.00    -0.140 C  
BRANCH  12  15
HETATM   15  C   UNL     1      -6.762  16.321  68.644  1.00  0.00    -0.138 A  
HETATM   16  C   UNL     1      -6.534  18.626  69.501  1.00  0.00    -0.239 A  
HETATM   17  C   UNL     1      -6.148  17.281  69.493  1.00  0.00    -0.247 A  
HETATM   18  C   UNL     1      -7.536  19.003  68.639  1.00  0.00    -0.337 A  
HETATM   19  O   UNL     1      -8.083  20.245  68.549  1.00  0.00    -0.042 OA 
HETATM   20  C   UNL     1      -9.095  19.995  67.567  1.00  0.00    -0.356 C  
HETATM   21  F   UNL     1     -10.311  20.229  68.128  1.00  0.00    -0.521 F  
HETATM   22  F   UNL     1      -8.939  20.880  66.552  1.00  0.00    -0.148 F  
HETATM   23  O   UNL     1      -9.098  18.670  67.022  1.00  0.00    -0.279 OA 
HETATM   24  C   UNL     1      -8.117  18.105  67.777  1.00  0.00    -0.238 A  
HETATM   25  C   UNL     1      -7.749  16.774  67.747  1.00  0.00    -0.180 A  
ENDBRANCH  12  15
ENDBRANCH   9  12
ENDBRANCH   5   8
BRANCH   7  26
HETATM   26  C   UNL     1      -9.404   9.990  65.511  1.00  0.00    -0.271 A  
HETATM   27  C   UNL     1      -8.438   9.616  64.550  1.00  0.00    -0.186 A  
HETATM   28  C   UNL     1      -9.492   7.621  66.163  1.00  0.00    -0.117 A  
HETATM   29  O   UNL     1      -9.328   5.561  67.347  1.00  0.00    -0.113 OA 
HETATM   30  C   UNL     1      -9.895   8.958  66.328  1.00  0.00    -0.355 A  
HETATM   31  C   UNL     1      -8.562   7.284  65.179  1.00  0.00     0.044 A  
HETATM   32  C   UNL     1     -10.130   6.600  67.033  1.00  0.00    -0.187 C  
HETATM   33  O   UNL     1     -11.270   6.709  67.448  1.00  0.00    -0.344 OA 
HETATM   34  C   UNL     1      -8.020   8.287  64.385  1.00  0.00    -0.144 A  
ENDBRANCH   7  26
TORSDOF 4
ENDMDL
MODEL      179
REMARK 921   NORMALIZED FREE ENERGY PREDICTED BY IDOCK:   -5.02 KCAL/MOL
REMARK 922        TOTAL FREE ENERGY PREDICTED BY IDOCK:   -7.33 KCAL/MOL
REMARK 923 INTER-LIGAND FREE ENERGY PREDICTED BY IDOCK:   -6.50 KCAL/MOL
REMARK 924 INTRA-LIGAND FREE ENERGY PREDICTED BY IDOCK:   -0.83 KCAL/MOL
REMARK 927      BINDING AFFINITY PREDICTED BY RF-SCORE:    0.00 PKD
ROOT
HETATM    1  C   UNL     1      -8.141   7.211  63.455  1.00  0.00    -0.007 C  
HETATM    2  C   UNL     1      -7.969   8.424  64.321  1.00  0.00    -0.149 A  
HETATM    3  C   UNL     1      -7.361   9.549  63.740  1.00  0.00    -0.113 A  
HETATM    4  C   UNL     1      -7.095  10.679  64.502  1.00  0.00     0.208 A  
HETATM    5  C   UNL     1      -7.431  10.661  65.842  1.00  0.00    -0.131 A  
HETATM    6  N   UNL     1      -8.059   9.616  66.404  1.00  0.00    -0.111 NA 
HETATM    7  C   UNL     1      -8.354   8.509  65.667  1.00  0.00    -0.148 A  
ENDROOT
BRANCH   5   8
HETATM    8  N   UNL     1      -7.081  11.779  66.604  1.00  0.00    -0.360 N  
HETATM    9  C   UNL     1      -7.971  12.658  67.171  1.00  0.00    -0.122 C  
HETATM   10  H   UNL     1      -6.087  11.956  66.751  1.00  0.00     0.000 HD 
HETATM   11  O   UNL     1      -9.193  12.634  67.150  1.00  0.00    -0.199 OA 
BRANCH   9  12
HETATM   12  C   UNL     1      -7.275  13.800  67.890  1.00  0.00    -0.156 C  
HETATM   13  C   UNL     1      -5.799  13.646  68.244  1.00  0.00    -0.103 C  
HETATM   14  C   UNL     1      -6.828  13.522  69.320  1.00  0.00    -0.051 C  
BRANCH  12  15
HETATM   15  C   UNL     1      -7.832  15.182  67.545  1.00  0.00    -0.203 A  
HETATM   16  C   UNL     1      -7.402  17.446  66.656  1.00  0.00    -0.282 A  
HETATM   17  C   UNL     1      -7.024  16.111  66.835  1.00  0.00    -0.187 A  
HETATM   18  C   UNL     1      -8.606  17.841  67.189  1.00  0.00    -0.233 A  
HETATM   19  O   UNL     1      -9.109  19.104  67.169  1.00  0.00    -0.279 OA 
HETATM   20  C   UNL     1     -10.309  18.900  67.925  1.00  0.00    -0.404 C  
HETATM   21  F   UNL     1     -10.246  19.658  69.051  1.00  0.00    -0.488 F  
HETATM   22  F   UNL     1     -11.359  19.345  67.193  1.00  0.00    -0.524 F  
HETATM   23  O   UNL     1     -10.561  17.543  68.309  1.00  0.00    -0.372 OA 
HETATM   24  C   UNL     1      -9.427  16.954  67.842  1.00  0.00    -0.239 A  
HETATM   25  C   UNL     1      -9.078  15.630  68.025  1.00  0.00    -0.183 A  
ENDBRANCH  12  15
ENDBRANCH   9  12
ENDBRANCH   5   8
BRANCH   7  26
HETATM   26  C   UNL     1      -9.079   7.470  66.453  1.00  0.00    -0.210 A  
HETATM   27  C   UNL     1     -10.436   7.653  66.799  1.00  0.00    -0.319 A  
HETATM   28  C   UNL     1      -9.212   5.289  67.581  1.00  0.00    -0.121 A  
HETATM   29  O   UNL     1      -9.247   2.959  68.069  1.00  0.00    -0.162 OA 
HETATM   30  C   UNL     1      -8.500   6.250  66.841  1.00  0.00    -0.109 A  
HETATM   31  C   UNL     1     -10.542   5.520  67.936  1.00  0.00    -0.219 A  
HETATM   32  C   UNL     1      -8.481   4.068  68.003  1.00  0.00    -0.094 C  
HETATM   33  O   UNL     1      -7.286   4.065  68.239  1.00  0.00    -0.058 OA 
HETATM   34  C   UNL     1     -11.160   6.696  67.526  1.00  0.00    -0.374 A  
ENDBRANCH   7  26
TORSDOF 4
ENDMDL
MODEL      180
REMARK 921   NORMALIZED FREE ENERGY PREDICTED BY IDOCK:   -4.99 KCAL/MOL
REMARK 922        TOTAL FREE ENERGY PREDICTED BY IDOCK:   -7.31 KCAL/MOL
REMARK 923 INTER-LIGAND FREE ENERGY PREDICTED BY IDOCK:   -6.99 KCAL/MOL
REMARK 924 INTRA-LIGAND FREE ENERGY PREDICTED BY IDOCK:   -0.32 KCAL/MOL
REMARK 927      BINDING AFFINITY PREDICTED BY RF-SCORE:    0.00 PKD
ROOT
HETATM    1  C   UNL     1     -10.347   7.371  69.449  1.00  0.00    -0.211 C  
HETATM    2  C   UNL     1      -9.814   8.700  69.001  1.00  0.00    -0.184 A  
HETATM    3  C   UNL     1      -8.768   8.692  68.064  1.00  0.00    -0.141 A  
HETATM    4  C   UNL     1      -8.170   9.879  67.664  1.00  0.00    -0.114 A  
HETATM    5  C   UNL     1      -8.622  11.061  68.220  1.00  0.00    -0.143 A  
HETATM    6  N   UNL     1      -9.653  11.095  69.077  1.00  0.00    -0.138 NA 
HETATM    7  C   UNL     1     -10.272   9.943  69.460  1.00  0.00    -0.225 A  
ENDROOT
BRANCH   5   8
HETATM    8  N   UNL     1      -7.951  12.233  67.862  1.00  0.00    -0.140 N  
HETATM    9  C   UNL     1      -7.171  12.987  68.705  1.00  0.00    -0.082 C  
HETATM   10  H   UNL     1      -8.047  12.555  66.898  1.00  0.00     0.000 HD 
HETATM   11  O   UNL     1      -6.896  12.786  69.879  1.00  0.00     0.138 OA 
BRANCH   9  12
HETATM   12  C   UNL     1      -6.626  14.231  68.028  1.00  0.00    -0.156 C  
HETATM   13  C   UNL     1      -5.322  14.121  67.243  1.00  0.00     0.609 C  
HETATM   14  C   UNL     1      -5.317  14.780  68.584  1.00  0.00    -0.095 C  
BRANCH  12  15
HETATM   15  C   UNL     1      -7.706  15.214  67.573  1.00  0.00    -0.205 A  
HETATM   16  C   UNL     1      -9.341  15.867  65.841  1.00  0.00    -0.353 A  
HETATM   17  C   UNL     1      -8.476  14.928  66.414  1.00  0.00     0.099 A  
HETATM   18  C   UNL     1      -9.435  17.096  66.449  1.00  0.00    -0.269 A  
HETATM   19  O   UNL     1     -10.171  18.149  66.005  1.00  0.00    -0.490 OA 
HETATM   20  C   UNL     1      -9.807  19.130  66.982  1.00  0.00    -0.336 C  
HETATM   21  F   UNL     1      -9.182  20.160  66.352  1.00  0.00    -0.391 F  
HETATM   22  F   UNL     1     -10.939  19.623  67.541  1.00  0.00    -0.552 F  
HETATM   23  O   UNL     1      -8.950  18.656  68.029  1.00  0.00    -0.288 OA 
HETATM   24  C   UNL     1      -8.735  17.385  67.595  1.00  0.00    -0.221 A  
HETATM   25  C   UNL     1      -7.880  16.472  68.182  1.00  0.00    -0.168 A  
ENDBRANCH  12  15
ENDBRANCH   9  12
ENDBRANCH   5   8
BRANCH   7  26
HETATM   26  C   UNL     1     -11.414  10.184  70.389  1.00  0.00    -0.400 A  
HETATM   27  C   UNL     1     -11.976   9.116  71.123  1.00  0.00    -0.374 A  
HETATM   28  C   UNL     1     -13.032  11.651  71.519  1.00  0.00    -0.463 A  
HETATM   29  O   UNL     1     -14.057  13.318  72.875  1.00  0.00    -0.538 OA 
HETATM   30  C   UNL     1     -11.955  11.456  70.636  1.00  0.00    -0.413 A  
HETATM   31  C   UNL     1     -13.585  10.565  72.201  1.00  0.00    -0.167 A  
HETATM   32  C   UNL     1     -13.574  13.026  71.649  1.00  0.00    -0.090 C  
HETATM   33  O   UNL     1     -13.555  13.830  70.734  1.00  0.00     0.022 OA 
HETATM   34  C   UNL     1     -13.042   9.299  72.016  1.00  0.00    -0.512 A  
ENDBRANCH   7  26
TORSDOF 4
ENDMDL
MODEL      181
REMARK 921   NORMALIZED FREE ENERGY PREDICTED BY IDOCK:   -4.94 KCAL/MOL
REMARK 922        TOTAL FREE ENERGY PREDICTED BY IDOCK:   -7.24 KCAL/MOL
REMARK 923 INTER-LIGAND FREE ENERGY PREDICTED BY IDOCK:   -6.83 KCAL/MOL
REMARK 924 INTRA-LIGAND FREE ENERGY PREDICTED BY IDOCK:   -0.41 KCAL/MOL
REMARK 927      BINDING AFFINITY PREDICTED BY RF-SCORE:    0.00 PKD
ROOT
HETATM    1  C   UNL     1     -12.838  13.555  65.678  1.00  0.00    -0.380 C  
HETATM    2  C   UNL     1     -11.640  13.857  66.530  1.00  0.00    -0.385 A  
HETATM    3  C   UNL     1     -11.774  14.868  67.495  1.00  0.00    -0.328 A  
HETATM    4  C   UNL     1     -10.687  15.259  68.264  1.00  0.00    -0.254 A  
HETATM    5  C   UNL     1      -9.472  14.637  68.046  1.00  0.00    -0.207 A  
HETATM    6  N   UNL     1      -9.334  13.634  67.165  1.00  0.00    -0.231 NA 
HETATM    7  C   UNL     1     -10.397  13.217  66.421  1.00  0.00    -0.286 A  
ENDROOT
BRANCH   5   8
HETATM    8  N   UNL     1      -8.375  15.102  68.777  1.00  0.00    -0.163 N  
HETATM    9  C   UNL     1      -7.191  14.425  68.941  1.00  0.00    -0.125 C  
HETATM   10  H   UNL     1      -8.460  16.016  69.223  1.00  0.00     0.000 HD 
HETATM   11  O   UNL     1      -6.858  13.341  68.486  1.00  0.00    -0.084 OA 
BRANCH   9  12
HETATM   12  C   UNL     1      -6.219  15.173  69.836  1.00  0.00    -0.154 C  
HETATM   13  C   UNL     1      -5.146  14.376  70.573  1.00  0.00    -0.103 C  
HETATM   14  C   UNL     1      -6.327  14.892  71.330  1.00  0.00     0.453 C  
BRANCH  12  15
HETATM   15  C   UNL     1      -5.919  16.599  69.371  1.00  0.00    -0.184 A  
HETATM   16  C   UNL     1      -5.302  18.911  69.983  1.00  0.00    -0.224 A  
HETATM   17  C   UNL     1      -5.415  17.552  70.296  1.00  0.00    -0.248 A  
HETATM   18  C   UNL     1      -5.690  19.306  68.725  1.00  0.00    -0.209 A  
HETATM   19  O   UNL     1      -5.708  20.584  68.264  1.00  0.00    -0.235 OA 
HETATM   20  C   UNL     1      -6.265  20.365  66.962  1.00  0.00    -0.197 C  
HETATM   21  F   UNL     1      -7.450  21.025  66.880  1.00  0.00    -0.341 F  
HETATM   22  F   UNL     1      -5.433  20.909  66.041  1.00  0.00    -0.202 F  
HETATM   23  O   UNL     1      -6.490  18.991  66.621  1.00  0.00    -0.186 OA 
HETATM   24  C   UNL     1      -6.140  18.400  67.795  1.00  0.00    -0.184 A  
HETATM   25  C   UNL     1      -6.255  17.053  68.080  1.00  0.00    -0.132 A  
ENDBRANCH  12  15
ENDBRANCH   9  12
ENDBRANCH   5   8
BRANCH   7  26
HETATM   26  C   UNL     1     -10.060  12.074  65.525  1.00  0.00    -0.281 A  
HETATM   27  C   UNL     1      -9.989  12.259  64.126  1.00  0.00    -0.261 A  
HETATM   28  C   UNL     1      -9.425   9.732  65.124  1.00  0.00    -0.338 A  
HETATM   29  O   UNL     1      -8.276   7.648  65.056  1.00  0.00    -0.137 OA 
HETATM   30  C   UNL     1      -9.741  10.789  65.996  1.00  0.00    -0.264 A  
HETATM   31  C   UNL     1      -9.400   9.944  63.744  1.00  0.00    -0.250 A  
HETATM   32  C   UNL     1      -9.177   8.397  65.725  1.00  0.00    -0.111 C  
HETATM   33  O   UNL     1      -9.720   8.027  66.750  1.00  0.00    -0.198 OA 
HETATM   34  C   UNL     1      -9.663  11.215  63.247  1.00  0.00    -0.398 A  
ENDBRANCH   7  26
TORSDOF 4
ENDMDL
MODEL      182
REMARK 921   NORMALIZED FREE ENERGY PREDICTED BY IDOCK:   -4.89 KCAL/MOL
REMARK 922        TOTAL FREE ENERGY PREDICTED BY IDOCK:   -7.17 KCAL/MOL
REMARK 923 INTER-LIGAND FREE ENERGY PREDICTED BY IDOCK:   -6.44 KCAL/MOL
REMARK 924 INTRA-LIGAND FREE ENERGY PREDICTED BY IDOCK:   -0.74 KCAL/MOL
REMARK 927      BINDING AFFINITY PREDICTED BY RF-SCORE:    0.00 PKD
ROOT
HETATM    1  C   UNL     1      -5.597   7.281  64.763  1.00  0.00    -0.033 C  
HETATM    2  C   UNL     1      -6.622   8.335  65.068  1.00  0.00    -0.059 A  
HETATM    3  C   UNL     1      -6.214   9.675  64.982  1.00  0.00    -0.087 A  
HETATM    4  C   UNL     1      -7.083  10.701  65.328  1.00  0.00     0.025 A  
HETATM    5  C   UNL     1      -8.350  10.367  65.768  1.00  0.00    -0.158 A  
HETATM    6  N   UNL     1      -8.777   9.095  65.808  1.00  0.00    -0.154 NA 
HETATM    7  C   UNL     1      -7.948   8.076  65.446  1.00  0.00    -0.121 A  
ENDROOT
BRANCH   5   8
HETATM    8  N   UNL     1      -9.178  11.412  66.186  1.00  0.00    -0.206 N  
HETATM    9  C   UNL     1      -9.377  11.789  67.492  1.00  0.00    -0.174 C  
HETATM   10  H   UNL     1      -9.673  11.937  65.464  1.00  0.00     0.000 HD 
HETATM   11  O   UNL     1      -8.878  11.328  68.508  1.00  0.00    -0.154 OA 
BRANCH   9  12
HETATM   12  C   UNL     1     -10.377  12.924  67.619  1.00  0.00    -0.218 C  
HETATM   13  C   UNL     1     -11.712  12.645  68.302  1.00  0.00    -0.389 C  
HETATM   14  C   UNL     1     -11.663  12.779  66.814  1.00  0.00    -0.459 C  
BRANCH  12  15
HETATM   15  C   UNL     1      -9.735  14.307  67.745  1.00  0.00    -0.222 A  
HETATM   16  C   UNL     1      -7.920  15.689  68.689  1.00  0.00    -0.152 A  
HETATM   17  C   UNL     1      -8.469  14.442  68.375  1.00  0.00    -0.165 A  
HETATM   18  C   UNL     1      -8.649  16.805  68.354  1.00  0.00    -0.235 A  
HETATM   19  O   UNL     1      -8.308  18.091  68.632  1.00  0.00    -0.304 OA 
HETATM   20  C   UNL     1      -9.464  18.766  68.122  1.00  0.00    -0.326 C  
HETATM   21  F   UNL     1     -10.080  19.410  69.148  1.00  0.00    -0.459 F  
HETATM   22  F   UNL     1      -9.057  19.708  67.237  1.00  0.00    -0.321 F  
HETATM   23  O   UNL     1     -10.426  17.920  67.479  1.00  0.00    -0.368 OA 
HETATM   24  C   UNL     1      -9.856  16.706  67.704  1.00  0.00    -0.256 A  
HETATM   25  C   UNL     1     -10.414  15.485  67.380  1.00  0.00    -0.281 A  
ENDBRANCH  12  15
ENDBRANCH   9  12
ENDBRANCH   5   8
BRANCH   7  26
HETATM   26  C   UNL     1      -8.608   6.741  65.524  1.00  0.00    -0.095 A  
HETATM   27  C   UNL     1      -9.391   6.395  66.648  1.00  0.00    -0.175 A  
HETATM   28  C   UNL     1      -9.185   4.538  64.597  1.00  0.00    -0.145 A  
HETATM   29  O   UNL     1     -10.055   2.769  63.261  1.00  0.00    -0.114 OA 
HETATM   30  C   UNL     1      -8.549   5.788  64.494  1.00  0.00     0.028 A  
HETATM   31  C   UNL     1      -9.921   4.217  65.739  1.00  0.00    -0.233 A  
HETATM   32  C   UNL     1      -8.996   3.577  63.481  1.00  0.00    -0.095 C  
HETATM   33  O   UNL     1      -7.983   3.544  62.806  1.00  0.00    -0.069 OA 
HETATM   34  C   UNL     1     -10.039   5.157  66.757  1.00  0.00    -0.264 A  
ENDBRANCH   7  26
TORSDOF 4
ENDMDL
MODEL      183
REMARK 921   NORMALIZED FREE ENERGY PREDICTED BY IDOCK:   -4.86 KCAL/MOL
REMARK 922        TOTAL FREE ENERGY PREDICTED BY IDOCK:   -7.14 KCAL/MOL
REMARK 923 INTER-LIGAND FREE ENERGY PREDICTED BY IDOCK:   -7.88 KCAL/MOL
REMARK 924 INTRA-LIGAND FREE ENERGY PREDICTED BY IDOCK:    0.75 KCAL/MOL
REMARK 927      BINDING AFFINITY PREDICTED BY RF-SCORE:    0.00 PKD
ROOT
HETATM    1  C   UNL     1      -8.542   4.859  68.211  1.00  0.00    -0.105 C  
HETATM    2  C   UNL     1      -9.164   6.125  67.697  1.00  0.00    -0.107 A  
HETATM    3  C   UNL     1      -8.788   6.551  66.414  1.00  0.00    -0.149 A  
HETATM    4  C   UNL     1      -9.259   7.754  65.904  1.00  0.00    -0.078 A  
HETATM    5  C   UNL     1     -10.093   8.521  66.697  1.00  0.00    -0.294 A  
HETATM    6  N   UNL     1     -10.504   8.107  67.905  1.00  0.00    -0.217 NA 
HETATM    7  C   UNL     1     -10.076   6.916  68.410  1.00  0.00    -0.168 A  
ENDROOT
BRANCH   5   8
HETATM    8  N   UNL     1     -10.489   9.763  66.193  1.00  0.00    -0.127 N  
HETATM    9  C   UNL     1     -10.036  10.321  65.022  1.00  0.00    -0.283 C  
HETATM   10  H   UNL     1     -11.167  10.297  66.737  1.00  0.00     0.000 HD 
HETATM   11  O   UNL     1      -9.251   9.860  64.206  1.00  0.00    -0.245 OA 
BRANCH   9  12
HETATM   12  C   UNL     1     -10.615  11.704  64.782  1.00  0.00    -0.358 C  
HETATM   13  C   UNL     1     -11.945  11.819  64.044  1.00  0.00    -0.380 C  
HETATM   14  C   UNL     1     -10.679  12.163  63.330  1.00  0.00    -0.461 C  
BRANCH  12  15
HETATM   15  C   UNL     1     -10.257  12.723  65.865  1.00  0.00    -0.300 A  
HETATM   16  C   UNL     1      -9.489  13.134  68.176  1.00  0.00    -0.222 A  
HETATM   17  C   UNL     1      -9.663  12.284  67.078  1.00  0.00    -0.207 A  
HETATM   18  C   UNL     1      -9.907  14.437  68.041  1.00  0.00    -0.221 A  
HETATM   19  O   UNL     1      -9.875  15.387  69.013  1.00  0.00    -0.209 OA 
HETATM   20  C   UNL     1     -10.497  16.471  68.314  1.00  0.00    -0.313 C  
HETATM   21  F   UNL     1     -11.647  16.801  68.959  1.00  0.00    -0.189 F  
HETATM   22  F   UNL     1      -9.676  17.548  68.371  1.00  0.00    -0.263 F  
HETATM   23  O   UNL     1     -10.811  16.208  66.940  1.00  0.00    -0.282 OA 
HETATM   24  C   UNL     1     -10.445  14.900  66.864  1.00  0.00    -0.280 A  
HETATM   25  C   UNL     1     -10.621  14.081  65.767  1.00  0.00    -0.303 A  
ENDBRANCH  12  15
ENDBRANCH   9  12
ENDBRANCH   5   8
BRANCH   7  26
HETATM   26  C   UNL     1     -10.664   6.612  69.746  1.00  0.00    -0.304 A  
HETATM   27  C   UNL     1     -11.769   7.351  70.226  1.00  0.00    -0.100 A  
HETATM   28  C   UNL     1     -10.794   5.304  71.824  1.00  0.00    -0.198 A  
HETATM   29  O   UNL     1     -11.077   3.562  73.423  1.00  0.00    -0.211 OA 
HETATM   30  C   UNL     1     -10.216   5.566  70.570  1.00  0.00    -0.311 A  
HETATM   31  C   UNL     1     -11.862   6.079  72.281  1.00  0.00    -0.305 A  
HETATM   32  C   UNL     1     -10.194   4.222  72.645  1.00  0.00    -0.171 C  
HETATM   33  O   UNL     1      -9.010   3.939  72.594  1.00  0.00    -0.103 OA 
HETATM   34  C   UNL     1     -12.362   7.091  71.470  1.00  0.00    -0.420 A  
ENDBRANCH   7  26
TORSDOF 4
ENDMDL
MODEL      184
REMARK 921   NORMALIZED FREE ENERGY PREDICTED BY IDOCK:   -4.78 KCAL/MOL
REMARK 922        TOTAL FREE ENERGY PREDICTED BY IDOCK:   -7.05 KCAL/MOL
REMARK 923 INTER-LIGAND FREE ENERGY PREDICTED BY IDOCK:   -6.76 KCAL/MOL
REMARK 924 INTRA-LIGAND FREE ENERGY PREDICTED BY IDOCK:   -0.29 KCAL/MOL
REMARK 927      BINDING AFFINITY PREDICTED BY RF-SCORE:    0.00 PKD
ROOT
HETATM    1  C   UNL     1     -10.429  13.925  65.354  1.00  0.00    -0.357 C  
HETATM    2  C   UNL     1     -10.417  12.753  66.292  1.00  0.00    -0.273 A  
HETATM    3  C   UNL     1     -10.252  11.478  65.728  1.00  0.00    -0.293 A  
HETATM    4  C   UNL     1     -10.312  10.342  66.523  1.00  0.00    -0.276 A  
HETATM    5  C   UNL     1     -10.550  10.499  67.876  1.00  0.00    -0.232 A  
HETATM    6  N   UNL     1     -10.659  11.711  68.442  1.00  0.00    -0.202 NA 
HETATM    7  C   UNL     1     -10.575  12.839  67.683  1.00  0.00    -0.219 A  
ENDROOT
BRANCH   5   8
HETATM    8  N   UNL     1     -10.684   9.338  68.641  1.00  0.00    -0.368 N  
HETATM    9  C   UNL     1     -11.506   9.202  69.733  1.00  0.00     0.130 C  
HETATM   10  H   UNL     1     -10.130   8.526  68.366  1.00  0.00     0.000 HD 
HETATM   11  O   UNL     1     -12.270  10.021  70.225  1.00  0.00    -0.215 OA 
BRANCH   9  12
HETATM   12  C   UNL     1     -11.384   7.834  70.380  1.00  0.00    -0.219 C  
HETATM   13  C   UNL     1     -11.785   6.606  69.568  1.00  0.00    -0.148 C  
HETATM   14  C   UNL     1     -12.691   7.099  70.650  1.00  0.00    -0.021 C  
BRANCH  12  15
HETATM   15  C   UNL     1     -10.253   7.730  71.404  1.00  0.00    -0.211 A  
HETATM   16  C   UNL     1      -9.592   7.486  73.771  1.00  0.00    -0.321 A  
HETATM   17  C   UNL     1     -10.551   7.410  72.755  1.00  0.00    -0.345 A  
HETATM   18  C   UNL     1      -8.323   7.877  73.417  1.00  0.00    -0.203 A  
HETATM   19  O   UNL     1      -7.281   8.066  74.269  1.00  0.00    -0.134 OA 
HETATM   20  C   UNL     1      -6.291   8.532  73.345  1.00  0.00    -0.095 C  
HETATM   21  F   UNL     1      -5.936   9.798  73.690  1.00  0.00     0.119 F  
HETATM   22  F   UNL     1      -5.188   7.754  73.466  1.00  0.00    -0.041 F  
HETATM   23  O   UNL     1      -6.698   8.538  71.971  1.00  0.00    -0.075 OA 
HETATM   24  C   UNL     1      -7.995   8.151  72.110  1.00  0.00    -0.128 A  
HETATM   25  C   UNL     1      -8.924   8.078  71.091  1.00  0.00    -0.162 A  
ENDBRANCH  12  15
ENDBRANCH   9  12
ENDBRANCH   5   8
BRANCH   7  26
HETATM   26  C   UNL     1     -10.687  14.087  68.491  1.00  0.00    -0.266 A  
HETATM   27  C   UNL     1     -11.119  14.033  69.835  1.00  0.00    -0.040 A  
HETATM   28  C   UNL     1     -10.442  16.515  68.797  1.00  0.00    -0.309 A  
HETATM   29  O   UNL     1      -9.576  18.723  69.010  1.00  0.00    -0.326 OA 
HETATM   30  C   UNL     1     -10.326  15.356  68.008  1.00  0.00    -0.249 A  
HETATM   31  C   UNL     1     -10.906  16.426  70.111  1.00  0.00    -0.265 A  
HETATM   32  C   UNL     1     -10.103  17.814  68.163  1.00  0.00    -0.362 C  
HETATM   33  O   UNL     1     -10.262  18.026  66.975  1.00  0.00    -0.331 OA 
HETATM   34  C   UNL     1     -11.227  15.179  70.635  1.00  0.00    -0.321 A  
ENDBRANCH   7  26
TORSDOF 4
ENDMDL
MODEL      185
REMARK 921   NORMALIZED FREE ENERGY PREDICTED BY IDOCK:   -4.76 KCAL/MOL
REMARK 922        TOTAL FREE ENERGY PREDICTED BY IDOCK:   -7.01 KCAL/MOL
REMARK 923 INTER-LIGAND FREE ENERGY PREDICTED BY IDOCK:   -5.88 KCAL/MOL
REMARK 924 INTRA-LIGAND FREE ENERGY PREDICTED BY IDOCK:   -1.13 KCAL/MOL
REMARK 927      BINDING AFFINITY PREDICTED BY RF-SCORE:    0.00 PKD
ROOT
HETATM    1  C   UNL     1      -5.181  16.868  70.267  1.00  0.00    -0.210 C  
HETATM    2  C   UNL     1      -6.067  15.834  69.637  1.00  0.00    -0.159 A  
HETATM    3  C   UNL     1      -6.015  14.534  70.163  1.00  0.00    -0.150 A  
HETATM    4  C   UNL     1      -6.744  13.506  69.580  1.00  0.00     0.039 A  
HETATM    5  C   UNL     1      -7.508  13.796  68.465  1.00  0.00    -0.119 A  
HETATM    6  N   UNL     1      -7.612  15.041  67.977  1.00  0.00    -0.110 NA 
HETATM    7  C   UNL     1      -6.926  16.068  68.553  1.00  0.00    -0.131 A  
ENDROOT
BRANCH   5   8
HETATM    8  N   UNL     1      -8.170  12.729  67.850  1.00  0.00    -0.155 N  
HETATM    9  C   UNL     1      -9.533  12.565  67.806  1.00  0.00    -0.197 C  
HETATM   10  H   UNL     1      -7.596  12.018  67.397  1.00  0.00     0.000 HD 
HETATM   11  O   UNL     1     -10.408  13.292  68.253  1.00  0.00    -0.237 OA 
BRANCH   9  12
HETATM   12  C   UNL     1      -9.936  11.276  67.113  1.00  0.00    -0.219 C  
HETATM   13  C   UNL     1      -9.898  11.227  65.588  1.00  0.00    -0.277 C  
HETATM   14  C   UNL     1     -11.215  11.329  66.286  1.00  0.00    -0.160 C  
BRANCH  12  15
HETATM   15  C   UNL     1      -9.629  10.014  67.921  1.00  0.00    -0.163 A  
HETATM   16  C   UNL     1      -9.192   9.002  70.130  1.00  0.00    -0.212 A  
HETATM   17  C   UNL     1      -9.646  10.064  69.340  1.00  0.00    -0.237 A  
HETATM   18  C   UNL     1      -8.730   7.882  69.482  1.00  0.00    -0.134 A  
HETATM   19  O   UNL     1      -8.196   6.782  70.077  1.00  0.00    -0.129 OA 
HETATM   20  C   UNL     1      -7.841   6.024  68.915  1.00  0.00    -0.096 C  
HETATM   21  F   UNL     1      -6.493   5.852  68.904  1.00  0.00    -0.040 F  
HETATM   22  F   UNL     1      -8.407   4.797  69.010  1.00  0.00    -0.080 F  
HETATM   23  O   UNL     1      -8.229   6.611  67.666  1.00  0.00    -0.120 OA 
HETATM   24  C   UNL     1      -8.743   7.789  68.111  1.00  0.00    -0.126 A  
HETATM   25  C   UNL     1      -9.191   8.822  67.311  1.00  0.00    -0.165 A  
ENDBRANCH  12  15
ENDBRANCH   9  12
ENDBRANCH   5   8
BRANCH   7  26
HETATM   26  C   UNL     1      -7.192  17.379  67.895  1.00  0.00    -0.193 A  
HETATM   27  C   UNL     1      -6.336  17.855  66.876  1.00  0.00    -0.199 A  
HETATM   28  C   UNL     1      -8.531  19.412  67.549  1.00  0.00    -0.328 A  
HETATM   29  O   UNL     1     -10.269  20.949  67.010  1.00  0.00    -0.127 OA 
HETATM   30  C   UNL     1      -8.307  18.181  68.189  1.00  0.00    -0.285 A  
HETATM   31  C   UNL     1      -7.644  19.866  66.571  1.00  0.00    -0.303 A  
HETATM   32  C   UNL     1      -9.701  20.213  67.989  1.00  0.00    -0.334 C  
HETATM   33  O   UNL     1     -10.127  20.182  69.130  1.00  0.00    -0.297 OA 
HETATM   34  C   UNL     1      -6.555  19.076  66.222  1.00  0.00    -0.228 A  
ENDBRANCH   7  26
TORSDOF 4
ENDMDL
MODEL      186
REMARK 921   NORMALIZED FREE ENERGY PREDICTED BY IDOCK:   -4.68 KCAL/MOL
REMARK 922        TOTAL FREE ENERGY PREDICTED BY IDOCK:   -6.92 KCAL/MOL
REMARK 923 INTER-LIGAND FREE ENERGY PREDICTED BY IDOCK:   -5.98 KCAL/MOL
REMARK 924 INTRA-LIGAND FREE ENERGY PREDICTED BY IDOCK:   -0.94 KCAL/MOL
REMARK 927      BINDING AFFINITY PREDICTED BY RF-SCORE:    0.00 PKD
ROOT
HETATM    1  C   UNL     1     -12.227   6.483  71.222  1.00  0.00    -0.287 C  
HETATM    2  C   UNL     1     -11.360   7.364  70.370  1.00  0.00    -0.273 A  
HETATM    3  C   UNL     1     -11.522   8.752  70.504  1.00  0.00    -0.222 A  
HETATM    4  C   UNL     1     -10.814   9.627  69.692  1.00  0.00    -0.266 A  
HETATM    5  C   UNL     1      -9.958   9.096  68.745  1.00  0.00    -0.176 A  
HETATM    6  N   UNL     1      -9.750   7.775  68.636  1.00  0.00    -0.154 NA 
HETATM    7  C   UNL     1     -10.415   6.901  69.443  1.00  0.00    -0.217 A  
ENDROOT
BRANCH   5   8
HETATM    8  N   UNL     1      -9.317   9.994  67.888  1.00  0.00    -0.140 N  
HETATM    9  C   UNL     1      -8.252  10.790  68.232  1.00  0.00    -0.124 C  
HETATM   10  H   UNL     1      -9.667  10.063  66.932  1.00  0.00     0.000 HD 
HETATM   11  O   UNL     1      -7.657  10.858  69.298  1.00  0.00    -0.130 OA 
BRANCH   9  12
HETATM   12  C   UNL     1      -7.819  11.696  67.093  1.00  0.00    -0.163 C  
HETATM   13  C   UNL     1      -6.421  11.514  66.508  1.00  0.00    -0.037 C  
HETATM   14  C   UNL     1      -6.695  12.678  67.405  1.00  0.00    -0.143 C  
BRANCH  12  15
HETATM   15  C   UNL     1      -8.966  12.149  66.189  1.00  0.00    -0.043 A  
HETATM   16  C   UNL     1      -9.969  12.160  63.932  1.00  0.00    -0.329 A  
HETATM   17  C   UNL     1      -9.061  11.645  64.864  1.00  0.00     0.160 A  
HETATM   18  C   UNL     1     -10.792  13.180  64.345  1.00  0.00    -0.397 A  
HETATM   19  O   UNL     1     -11.689  13.843  63.568  1.00  0.00    -0.107 OA 
HETATM   20  C   UNL     1     -12.162  14.810  64.512  1.00  0.00    -0.428 C  
HETATM   21  F   UNL     1     -11.854  16.052  64.053  1.00  0.00    -0.486 F  
HETATM   22  F   UNL     1     -13.513  14.725  64.578  1.00  0.00     0.449 F  
HETATM   23  O   UNL     1     -11.631  14.676  65.837  1.00  0.00    -0.354 OA 
HETATM   24  C   UNL     1     -10.752  13.657  65.633  1.00  0.00    -0.283 A  
HETATM   25  C   UNL     1      -9.869  13.161  66.571  1.00  0.00    -0.265 A  
ENDBRANCH  12  15
ENDBRANCH   9  12
ENDBRANCH   5   8
BRANCH   7  26
HETATM   26  C   UNL     1     -10.030   5.482  69.197  1.00  0.00    -0.256 A  
HETATM   27  C   UNL     1     -10.006   4.965  67.882  1.00  0.00    -0.181 A  
HETATM   28  C   UNL     1      -9.260   3.271  69.949  1.00  0.00    -0.222 A  
HETATM   29  O   UNL     1      -7.985   1.468  70.839  1.00  0.00    -0.035 OA 
HETATM   30  C   UNL     1      -9.620   4.604  70.214  1.00  0.00    -0.270 A  
HETATM   31  C   UNL     1      -9.283   2.785  68.640  1.00  0.00    -0.238 A  
HETATM   32  C   UNL     1      -8.914   2.409  71.107  1.00  0.00    -0.084 C  
HETATM   33  O   UNL     1      -9.407   2.561  72.210  1.00  0.00    -0.084 OA 
HETATM   34  C   UNL     1      -9.638   3.640  67.604  1.00  0.00    -0.193 A  
ENDBRANCH   7  26
TORSDOF 4
ENDMDL
MODEL      187
REMARK 921   NORMALIZED FREE ENERGY PREDICTED BY IDOCK:   -4.65 KCAL/MOL
REMARK 922        TOTAL FREE ENERGY PREDICTED BY IDOCK:   -6.88 KCAL/MOL
REMARK 923 INTER-LIGAND FREE ENERGY PREDICTED BY IDOCK:   -6.02 KCAL/MOL
REMARK 924 INTRA-LIGAND FREE ENERGY PREDICTED BY IDOCK:   -0.86 KCAL/MOL
REMARK 927      BINDING AFFINITY PREDICTED BY RF-SCORE:    0.00 PKD
ROOT
HETATM    1  C   UNL     1     -10.725   7.431  67.379  1.00  0.00    -0.348 C  
HETATM    2  C   UNL     1     -10.042   8.708  67.774  1.00  0.00    -0.266 A  
HETATM    3  C   UNL     1     -10.859   9.787  68.147  1.00  0.00    -0.264 A  
HETATM    4  C   UNL     1     -10.302  11.023  68.446  1.00  0.00    -0.200 A  
HETATM    5  C   UNL     1      -8.930  11.164  68.354  1.00  0.00    -0.165 A  
HETATM    6  N   UNL     1      -8.128  10.132  68.050  1.00  0.00    -0.111 NA 
HETATM    7  C   UNL     1      -8.654   8.904  67.781  1.00  0.00    -0.125 A  
ENDROOT
BRANCH   5   8
HETATM    8  N   UNL     1      -8.402  12.438  68.583  1.00  0.00    -0.345 N  
HETATM    9  C   UNL     1      -7.505  13.079  67.763  1.00  0.00    -0.146 C  
HETATM   10  H   UNL     1      -8.706  12.929  69.423  1.00  0.00     0.000 HD 
HETATM   11  O   UNL     1      -7.025  12.699  66.705  1.00  0.00     0.117 OA 
BRANCH   9  12
HETATM   12  C   UNL     1      -7.081  14.427  68.317  1.00  0.00    -0.112 C  
HETATM   13  C   UNL     1      -5.590  14.737  68.418  1.00  0.00    -0.110 C  
HETATM   14  C   UNL     1      -6.356  14.406  69.657  1.00  0.00    -0.140 C  
BRANCH  12  15
HETATM   15  C   UNL     1      -8.072  15.556  68.029  1.00  0.00    -0.140 A  
HETATM   16  C   UNL     1      -9.888  16.429  66.602  1.00  0.00    -0.272 A  
HETATM   17  C   UNL     1      -9.078  15.377  67.043  1.00  0.00    -0.247 A  
HETATM   18  C   UNL     1      -9.688  17.665  67.170  1.00  0.00    -0.291 A  
HETATM   19  O   UNL     1     -10.333  18.811  66.828  1.00  0.00    -0.367 OA 
HETATM   20  C   UNL     1      -9.654  19.738  67.685  1.00  0.00    -0.355 C  
HETATM   21  F   UNL     1      -9.015  20.655  66.913  1.00  0.00    -0.401 F  
HETATM   22  F   UNL     1     -10.579  20.400  68.422  1.00  0.00    -0.463 F  
HETATM   23  O   UNL     1      -8.695  19.151  68.574  1.00  0.00    -0.342 OA 
HETATM   24  C   UNL     1      -8.752  17.857  68.157  1.00  0.00    -0.268 A  
HETATM   25  C   UNL     1      -7.945  16.833  68.612  1.00  0.00    -0.246 A  
ENDBRANCH  12  15
ENDBRANCH   9  12
ENDBRANCH   5   8
BRANCH   7  26
HETATM   26  C   UNL     1      -7.608   7.880  67.497  1.00  0.00    -0.105 A  
HETATM   27  C   UNL     1      -6.858   7.312  68.551  1.00  0.00    -0.073 A  
HETATM   28  C   UNL     1      -6.351   6.412  65.976  1.00  0.00    -0.039 A  
HETATM   29  O   UNL     1      -5.720   4.724  64.420  1.00  0.00    -0.016 OA 
HETATM   30  C   UNL     1      -7.343   7.380  66.211  1.00  0.00    -0.082 A  
HETATM   31  C   UNL     1      -5.605   5.899  67.039  1.00  0.00    -0.016 A  
HETATM   32  C   UNL     1      -6.103   6.009  64.569  1.00  0.00    -0.026 C  
HETATM   33  O   UNL     1      -6.263   6.768  63.630  1.00  0.00    -0.040 OA 
HETATM   34  C   UNL     1      -5.874   6.337  68.331  1.00  0.00    -0.016 A  
ENDBRANCH   7  26
TORSDOF 4
ENDMDL
MODEL      188
REMARK 921   NORMALIZED FREE ENERGY PREDICTED BY IDOCK:   -4.62 KCAL/MOL
REMARK 922        TOTAL FREE ENERGY PREDICTED BY IDOCK:   -6.84 KCAL/MOL
REMARK 923 INTER-LIGAND FREE ENERGY PREDICTED BY IDOCK:   -6.42 KCAL/MOL
REMARK 924 INTRA-LIGAND FREE ENERGY PREDICTED BY IDOCK:   -0.42 KCAL/MOL
REMARK 927      BINDING AFFINITY PREDICTED BY RF-SCORE:    0.00 PKD
ROOT
HETATM    1  C   UNL     1     -10.549  13.321  65.553  1.00  0.00    -0.295 C  
HETATM    2  C   UNL     1     -10.234  12.174  66.467  1.00  0.00    -0.230 A  
HETATM    3  C   UNL     1      -9.583  11.063  65.907  1.00  0.00    -0.255 A  
HETATM    4  C   UNL     1      -9.333   9.932  66.672  1.00  0.00    -0.196 A  
HETATM    5  C   UNL     1      -9.750   9.925  67.990  1.00  0.00    -0.140 A  
HETATM    6  N   UNL     1     -10.327  10.995  68.558  1.00  0.00    -0.182 NA 
HETATM    7  C   UNL     1     -10.556  12.125  67.831  1.00  0.00    -0.207 A  
ENDROOT
BRANCH   5   8
HETATM    8  N   UNL     1      -9.557   8.747  68.715  1.00  0.00    -0.156 N  
HETATM    9  C   UNL     1      -9.080   8.680  70.002  1.00  0.00    -0.156 C  
HETATM   10  H   UNL     1      -9.789   7.867  68.254  1.00  0.00     0.000 HD 
HETATM   11  O   UNL     1      -8.764   9.593  70.750  1.00  0.00    -0.214 OA 
BRANCH   9  12
HETATM   12  C   UNL     1      -8.933   7.250  70.489  1.00  0.00    -0.154 C  
HETATM   13  C   UNL     1     -10.134   6.578  71.148  1.00  0.00    -0.206 C  
HETATM   14  C   UNL     1      -8.996   7.043  71.997  1.00  0.00    -0.138 C  
BRANCH  12  15
HETATM   15  C   UNL     1      -7.950   6.413  69.668  1.00  0.00    -0.116 A  
HETATM   16  C   UNL     1      -5.602   5.811  69.200  1.00  0.00    -0.008 A  
HETATM   17  C   UNL     1      -6.573   6.399  70.017  1.00  0.00    -0.048 A  
HETATM   18  C   UNL     1      -6.026   5.226  68.031  1.00  0.00    -0.022 A  
HETATM   19  O   UNL     1      -5.226   4.662  67.087  1.00  0.00    -0.010 OA 
HETATM   20  C   UNL     1      -6.211   4.314  66.107  1.00  0.00    -0.032 C  
HETATM   21  F   UNL     1      -5.948   5.000  64.964  1.00  0.00    -0.022 F  
HETATM   22  F   UNL     1      -6.093   2.994  65.826  1.00  0.00    -0.021 F  
HETATM   23  O   UNL     1      -7.567   4.581  66.489  1.00  0.00    -0.088 OA 
HETATM   24  C   UNL     1      -7.356   5.186  67.689  1.00  0.00    -0.075 A  
HETATM   25  C   UNL     1      -8.333   5.755  68.483  1.00  0.00    -0.107 A  
ENDBRANCH  12  15
ENDBRANCH   9  12
ENDBRANCH   5   8
BRANCH   7  26
HETATM   26  C   UNL     1     -11.173  13.215  68.640  1.00  0.00    -0.314 A  
HETATM   27  C   UNL     1     -10.992  14.567  68.274  1.00  0.00    -0.258 A  
HETATM   28  C   UNL     1     -12.567  14.032  70.494  1.00  0.00    -0.399 A  
HETATM   29  O   UNL     1     -14.383  14.517  71.956  1.00  0.00    -0.491 OA 
HETATM   30  C   UNL     1     -11.998  12.981  69.753  1.00  0.00    -0.377 A  
HETATM   31  C   UNL     1     -12.336  15.358  70.122  1.00  0.00    -0.395 A  
HETATM   32  C   UNL     1     -13.362  13.674  71.695  1.00  0.00    -0.346 C  
HETATM   33  O   UNL     1     -13.128  12.685  72.367  1.00  0.00    -0.365 OA 
HETATM   34  C   UNL     1     -11.563  15.624  68.998  1.00  0.00    -0.396 A  
ENDBRANCH   7  26
TORSDOF 4
ENDMDL
MODEL      189
REMARK 921   NORMALIZED FREE ENERGY PREDICTED BY IDOCK:   -4.61 KCAL/MOL
REMARK 922        TOTAL FREE ENERGY PREDICTED BY IDOCK:   -6.84 KCAL/MOL
REMARK 923 INTER-LIGAND FREE ENERGY PREDICTED BY IDOCK:   -6.56 KCAL/MOL
REMARK 924 INTRA-LIGAND FREE ENERGY PREDICTED BY IDOCK:   -0.27 KCAL/MOL
REMARK 927      BINDING AFFINITY PREDICTED BY RF-SCORE:    0.00 PKD
ROOT
HETATM    1  C   UNL     1      -8.452   3.572  64.216  1.00  0.00    -0.090 C  
HETATM    2  C   UNL     1      -8.345   4.930  64.846  1.00  0.00    -0.138 A  
HETATM    3  C   UNL     1      -8.083   6.016  63.996  1.00  0.00    -0.089 A  
HETATM    4  C   UNL     1      -7.890   7.289  64.515  1.00  0.00    -0.121 A  
HETATM    5  C   UNL     1      -7.951   7.454  65.886  1.00  0.00    -0.118 A  
HETATM    6  N   UNL     1      -8.251   6.440  66.712  1.00  0.00    -0.109 NA 
HETATM    7  C   UNL     1      -8.471   5.189  66.219  1.00  0.00    -0.114 A  
ENDROOT
BRANCH   5   8
HETATM    8  N   UNL     1      -7.675   8.728  66.390  1.00  0.00    -0.097 N  
HETATM    9  C   UNL     1      -8.457   9.407  67.292  1.00  0.00    -0.125 C  
HETATM   10  H   UNL     1      -6.826   9.190  66.061  1.00  0.00     0.000 HD 
HETATM   11  O   UNL     1      -9.492   9.047  67.833  1.00  0.00    -0.140 OA 
BRANCH   9  12
HETATM   12  C   UNL     1      -7.915  10.792  67.597  1.00  0.00    -0.110 C  
HETATM   13  C   UNL     1      -6.412  10.956  67.806  1.00  0.00    -0.063 C  
HETATM   14  C   UNL     1      -7.325  10.991  68.988  1.00  0.00    -0.123 C  
BRANCH  12  15
HETATM   15  C   UNL     1      -8.722  11.928  66.966  1.00  0.00    -0.181 A  
HETATM   16  C   UNL     1      -9.276  14.334  66.941  1.00  0.00    -0.268 A  
HETATM   17  C   UNL     1      -8.454  13.273  67.335  1.00  0.00    -0.206 A  
HETATM   18  C   UNL     1     -10.369  14.035  66.163  1.00  0.00    -0.297 A  
HETATM   19  O   UNL     1     -11.309  14.919  65.737  1.00  0.00    -0.341 OA 
HETATM   20  C   UNL     1     -12.200  14.023  65.063  1.00  0.00    -0.433 C  
HETATM   21  F   UNL     1     -13.407  14.060  65.685  1.00  0.00    -0.522 F  
HETATM   22  F   UNL     1     -12.382  14.468  63.796  1.00  0.00    -0.486 F  
HETATM   23  O   UNL     1     -11.762  12.659  65.009  1.00  0.00    -0.326 OA 
HETATM   24  C   UNL     1     -10.628  12.748  65.755  1.00  0.00    -0.273 A  
HETATM   25  C   UNL     1      -9.828  11.686  66.127  1.00  0.00    -0.250 A  
ENDBRANCH  12  15
ENDBRANCH   9  12
ENDBRANCH   5   8
BRANCH   7  26
HETATM   26  C   UNL     1      -8.822   4.204  67.282  1.00  0.00    -0.126 A  
HETATM   27  C   UNL     1      -8.765   2.817  67.019  1.00  0.00    -0.132 A  
HETATM   28  C   UNL     1      -9.490   3.617  69.575  1.00  0.00    -0.246 A  
HETATM   29  O   UNL     1      -9.561   3.317  71.936  1.00  0.00    -0.129 OA 
HETATM   30  C   UNL     1      -9.166   4.571  68.594  1.00  0.00    -0.181 A  
HETATM   31  C   UNL     1      -9.457   2.255  69.268  1.00  0.00    -0.126 A  
HETATM   32  C   UNL     1      -9.910   4.118  70.908  1.00  0.00    -0.177 C  
HETATM   33  O   UNL     1     -10.493   5.176  71.058  1.00  0.00    -0.221 OA 
HETATM   34  C   UNL     1      -9.075   1.856  67.992  1.00  0.00    -0.206 A  
ENDBRANCH   7  26
TORSDOF 4
ENDMDL
MODEL      190
REMARK 921   NORMALIZED FREE ENERGY PREDICTED BY IDOCK:   -4.60 KCAL/MOL
REMARK 922        TOTAL FREE ENERGY PREDICTED BY IDOCK:   -6.82 KCAL/MOL
REMARK 923 INTER-LIGAND FREE ENERGY PREDICTED BY IDOCK:   -6.20 KCAL/MOL
REMARK 924 INTRA-LIGAND FREE ENERGY PREDICTED BY IDOCK:   -0.62 KCAL/MOL
REMARK 927      BINDING AFFINITY PREDICTED BY RF-SCORE:    0.00 PKD
ROOT
HETATM    1  C   UNL     1     -13.986  10.626  71.769  1.00  0.00     0.421 C  
HETATM    2  C   UNL     1     -12.706  10.026  71.263  1.00  0.00    -0.500 A  
HETATM    3  C   UNL     1     -12.407   8.714  71.666  1.00  0.00    -0.384 A  
HETATM    4  C   UNL     1     -11.204   8.123  71.305  1.00  0.00    -0.297 A  
HETATM    5  C   UNL     1     -10.309   8.862  70.554  1.00  0.00    -0.203 A  
HETATM    6  N   UNL     1     -10.598  10.097  70.116  1.00  0.00    -0.285 NA 
HETATM    7  C   UNL     1     -11.785  10.683  70.436  1.00  0.00    -0.353 A  
ENDROOT
BRANCH   5   8
HETATM    8  N   UNL     1      -9.073   8.273  70.272  1.00  0.00    -0.149 N  
HETATM    9  C   UNL     1      -8.014   8.203  71.144  1.00  0.00    -0.099 C  
HETATM   10  H   UNL     1      -8.948   7.864  69.346  1.00  0.00     0.000 HD 
HETATM   11  O   UNL     1      -7.944   8.599  72.298  1.00  0.00    -0.301 OA 
BRANCH   9  12
HETATM   12  C   UNL     1      -6.794   7.552  70.518  1.00  0.00    -0.047 C  
HETATM   13  C   UNL     1      -5.411   8.047  70.931  1.00  0.00    -0.029 C  
HETATM   14  C   UNL     1      -5.960   8.433  69.596  1.00  0.00    -0.032 C  
BRANCH  12  15
HETATM   15  C   UNL     1      -6.995   6.080  70.152  1.00  0.00    -0.069 A  
HETATM   16  C   UNL     1      -6.203   3.750  70.355  1.00  0.00    -0.023 A  
HETATM   17  C   UNL     1      -6.201   5.083  70.779  1.00  0.00    -0.019 A  
HETATM   18  C   UNL     1      -7.020   3.422  69.299  1.00  0.00    -0.042 A  
HETATM   19  O   UNL     1      -7.109   2.200  68.712  1.00  0.00    -0.043 OA 
HETATM   20  C   UNL     1      -8.031   2.501  67.658  1.00  0.00    -0.064 C  
HETATM   21  F   UNL     1      -7.414   2.290  66.467  1.00  0.00    -0.061 F  
HETATM   22  F   UNL     1      -9.072   1.637  67.736  1.00  0.00    -0.120 F  
HETATM   23  O   UNL     1      -8.546   3.839  67.667  1.00  0.00    -0.094 OA 
HETATM   24  C   UNL     1      -7.831   4.357  68.702  1.00  0.00    -0.074 A  
HETATM   25  C   UNL     1      -7.850   5.677  69.108  1.00  0.00    -0.089 A  
ENDBRANCH  12  15
ENDBRANCH   9  12
ENDBRANCH   5   8
BRANCH   7  26
HETATM   26  C   UNL     1     -11.939  12.039  69.834  1.00  0.00    -0.391 A  
HETATM   27  C   UNL     1     -12.260  13.150  70.645  1.00  0.00    -0.402 A  
HETATM   28  C   UNL     1     -11.875  13.600  67.935  1.00  0.00    -0.402 A  
HETATM   29  O   UNL     1     -11.183  14.951  66.100  1.00  0.00    -0.335 OA 
HETATM   30  C   UNL     1     -11.724  12.309  68.472  1.00  0.00    -0.381 A  
HETATM   31  C   UNL     1     -12.228  14.667  68.762  1.00  0.00    -0.154 A  
HETATM   32  C   UNL     1     -11.696  13.759  66.469  1.00  0.00    -0.385 C  
HETATM   33  O   UNL     1     -11.963  12.875  65.675  1.00  0.00    -0.392 OA 
HETATM   34  C   UNL     1     -12.402  14.444  70.123  1.00  0.00    -0.406 A  
ENDBRANCH   7  26
TORSDOF 4
ENDMDL
MODEL      191
REMARK 921   NORMALIZED FREE ENERGY PREDICTED BY IDOCK:   -4.59 KCAL/MOL
REMARK 922        TOTAL FREE ENERGY PREDICTED BY IDOCK:   -6.80 KCAL/MOL
REMARK 923 INTER-LIGAND FREE ENERGY PREDICTED BY IDOCK:   -6.88 KCAL/MOL
REMARK 924 INTRA-LIGAND FREE ENERGY PREDICTED BY IDOCK:    0.08 KCAL/MOL
REMARK 927      BINDING AFFINITY PREDICTED BY RF-SCORE:    0.00 PKD
ROOT
HETATM    1  C   UNL     1     -11.270  16.829  67.018  1.00  0.00     0.329 C  
HETATM    2  C   UNL     1     -10.940  15.442  67.486  1.00  0.00    -0.315 A  
HETATM    3  C   UNL     1     -11.855  14.423  67.177  1.00  0.00    -0.437 A  
HETATM    4  C   UNL     1     -11.658  13.131  67.646  1.00  0.00    -0.392 A  
HETATM    5  C   UNL     1     -10.549  12.881  68.432  1.00  0.00    -0.253 A  
HETATM    6  N   UNL     1      -9.636  13.828  68.696  1.00  0.00    -0.170 NA 
HETATM    7  C   UNL     1      -9.797  15.095  68.221  1.00  0.00    -0.223 A  
ENDROOT
BRANCH   5   8
HETATM    8  N   UNL     1     -10.415  11.592  68.957  1.00  0.00    -0.366 N  
HETATM    9  C   UNL     1      -9.239  10.885  69.025  1.00  0.00    -0.115 C  
HETATM   10  H   UNL     1     -11.256  11.142  69.318  1.00  0.00     0.000 HD 
HETATM   11  O   UNL     1      -8.117  11.228  68.680  1.00  0.00    -0.137 OA 
BRANCH   9  12
HETATM   12  C   UNL     1      -9.436   9.493  69.597  1.00  0.00    -0.213 C  
HETATM   13  C   UNL     1     -10.438   9.308  70.733  1.00  0.00    -0.343 C  
HETATM   14  C   UNL     1      -8.975   9.286  71.035  1.00  0.00    -0.225 C  
BRANCH  12  15
HETATM   15  C   UNL     1      -9.222   8.369  68.583  1.00  0.00    -0.143 A  
HETATM   16  C   UNL     1      -8.302   7.671  66.400  1.00  0.00    -0.129 A  
HETATM   17  C   UNL     1      -8.387   8.586  67.454  1.00  0.00    -0.120 A  
HETATM   18  C   UNL     1      -9.057   6.526  66.492  1.00  0.00    -0.152 A  
HETATM   19  O   UNL     1      -9.151   5.557  65.544  1.00  0.00    -0.155 OA 
HETATM   20  C   UNL     1     -10.116   4.700  66.165  1.00  0.00    -0.266 C  
HETATM   21  F   UNL     1     -11.221   4.646  65.377  1.00  0.00    -0.351 F  
HETATM   22  F   UNL     1      -9.602   3.448  66.230  1.00  0.00    -0.181 F  
HETATM   23  O   UNL     1     -10.520   5.096  67.482  1.00  0.00    -0.163 OA 
HETATM   24  C   UNL     1      -9.840   6.269  67.591  1.00  0.00    -0.121 A  
HETATM   25  C   UNL     1      -9.935   7.155  68.647  1.00  0.00    -0.161 A  
ENDBRANCH  12  15
ENDBRANCH   9  12
ENDBRANCH   5   8
BRANCH   7  26
HETATM   26  C   UNL     1      -8.668  15.996  68.589  1.00  0.00    -0.206 A  
HETATM   27  C   UNL     1      -7.531  15.484  69.253  1.00  0.00    -0.212 A  
HETATM   28  C   UNL     1      -7.547  18.185  68.621  1.00  0.00    -0.306 A  
HETATM   29  O   UNL     1      -6.458  20.212  68.009  1.00  0.00    -0.241 OA 
HETATM   30  C   UNL     1      -8.629  17.362  68.261  1.00  0.00    -0.260 A  
HETATM   31  C   UNL     1      -6.456  17.650  69.308  1.00  0.00    -0.240 A  
HETATM   32  C   UNL     1      -7.642  19.629  68.289  1.00  0.00    -0.316 C  
HETATM   33  O   UNL     1      -8.704  20.224  68.246  1.00  0.00    -0.111 OA 
HETATM   34  C   UNL     1      -6.441  16.292  69.607  1.00  0.00    -0.190 A  
ENDBRANCH   7  26
TORSDOF 4
ENDMDL
MODEL      192
REMARK 921   NORMALIZED FREE ENERGY PREDICTED BY IDOCK:   -4.56 KCAL/MOL
REMARK 922        TOTAL FREE ENERGY PREDICTED BY IDOCK:   -6.77 KCAL/MOL
REMARK 923 INTER-LIGAND FREE ENERGY PREDICTED BY IDOCK:   -6.82 KCAL/MOL
REMARK 924 INTRA-LIGAND FREE ENERGY PREDICTED BY IDOCK:    0.05 KCAL/MOL
REMARK 927      BINDING AFFINITY PREDICTED BY RF-SCORE:    0.00 PKD
ROOT
HETATM    1  C   UNL     1     -10.923   5.862  67.052  1.00  0.00    -0.301 C  
HETATM    2  C   UNL     1     -10.194   7.128  67.393  1.00  0.00    -0.291 A  
HETATM    3  C   UNL     1      -9.637   7.856  66.330  1.00  0.00    -0.251 A  
HETATM    4  C   UNL     1      -8.879   8.994  66.574  1.00  0.00    -0.158 A  
HETATM    5  C   UNL     1      -8.679   9.379  67.887  1.00  0.00    -0.120 A  
HETATM    6  N   UNL     1      -9.245   8.727  68.914  1.00  0.00    -0.141 NA 
HETATM    7  C   UNL     1     -10.015   7.625  68.692  1.00  0.00    -0.174 A  
ENDROOT
BRANCH   5   8
HETATM    8  N   UNL     1      -7.848  10.480  68.110  1.00  0.00    -0.107 N  
HETATM    9  C   UNL     1      -8.021  11.726  67.556  1.00  0.00    -0.148 C  
HETATM   10  H   UNL     1      -7.050  10.349  68.732  1.00  0.00     0.000 HD 
HETATM   11  O   UNL     1      -8.907  12.117  66.811  1.00  0.00    -0.197 OA 
BRANCH   9  12
HETATM   12  C   UNL     1      -6.917  12.690  67.951  1.00  0.00    -0.110 C  
HETATM   13  C   UNL     1      -5.469  12.222  67.846  1.00  0.00    -0.075 C  
HETATM   14  C   UNL     1      -6.112  12.321  69.191  1.00  0.00    -0.083 C  
BRANCH  12  15
HETATM   15  C   UNL     1      -7.259  14.160  67.701  1.00  0.00    -0.195 A  
HETATM   16  C   UNL     1      -6.615  16.530  67.966  1.00  0.00    -0.147 A  
HETATM   17  C   UNL     1      -6.300  15.167  67.992  1.00  0.00    -0.158 A  
HETATM   18  C   UNL     1      -7.903  16.876  67.634  1.00  0.00    -0.173 A  
HETATM   19  O   UNL     1      -8.408  18.138  67.616  1.00  0.00    -0.239 OA 
HETATM   20  C   UNL     1      -9.772  17.851  67.285  1.00  0.00    -0.289 C  
HETATM   21  F   UNL     1     -10.563  18.264  68.309  1.00  0.00    -0.365 F  
HETATM   22  F   UNL     1     -10.111  18.574  66.191  1.00  0.00    -0.343 F  
HETATM   23  O   UNL     1     -10.055  16.470  67.027  1.00  0.00    -0.265 OA 
HETATM   24  C   UNL     1      -8.840  15.926  67.306  1.00  0.00    -0.196 A  
HETATM   25  C   UNL     1      -8.550  14.576  67.319  1.00  0.00    -0.231 A  
ENDBRANCH  12  15
ENDBRANCH   9  12
ENDBRANCH   5   8
BRANCH   7  26
HETATM   26  C   UNL     1     -10.583   7.058  69.949  1.00  0.00    -0.249 A  
HETATM   27  C   UNL     1     -11.697   7.667  70.569  1.00  0.00    -0.148 A  
HETATM   28  C   UNL     1     -10.665   5.372  71.737  1.00  0.00    -0.271 A  
HETATM   29  O   UNL     1     -10.896   3.349  72.972  1.00  0.00    -0.160 OA 
HETATM   30  C   UNL     1     -10.105   5.883  70.552  1.00  0.00    -0.254 A  
HETATM   31  C   UNL     1     -11.743   6.022  72.341  1.00  0.00    -0.322 A  
HETATM   32  C   UNL     1     -10.035   4.165  72.330  1.00  0.00    -0.174 C  
HETATM   33  O   UNL     1      -8.847   3.922  72.217  1.00  0.00    -0.102 OA 
HETATM   34  C   UNL     1     -12.271   7.160  71.744  1.00  0.00    -0.379 A  
ENDBRANCH   7  26
TORSDOF 4
ENDMDL
MODEL      193
REMARK 921   NORMALIZED FREE ENERGY PREDICTED BY IDOCK:   -4.51 KCAL/MOL
REMARK 922        TOTAL FREE ENERGY PREDICTED BY IDOCK:   -6.71 KCAL/MOL
REMARK 923 INTER-LIGAND FREE ENERGY PREDICTED BY IDOCK:   -5.96 KCAL/MOL
REMARK 924 INTRA-LIGAND FREE ENERGY PREDICTED BY IDOCK:   -0.75 KCAL/MOL
REMARK 927      BINDING AFFINITY PREDICTED BY RF-SCORE:    0.00 PKD
ROOT
HETATM    1  C   UNL     1     -11.341   8.505  69.407  1.00  0.00     0.339 C  
HETATM    2  C   UNL     1     -11.093   9.978  69.254  1.00  0.00    -0.248 A  
HETATM    3  C   UNL     1     -11.714  10.835  70.176  1.00  0.00    -0.425 A  
HETATM    4  C   UNL     1     -11.597  12.213  70.048  1.00  0.00    -0.251 A  
HETATM    5  C   UNL     1     -10.867  12.713  68.986  1.00  0.00    -0.146 A  
HETATM    6  N   UNL     1     -10.224  11.911  68.124  1.00  0.00    -0.193 NA 
HETATM    7  C   UNL     1     -10.303  10.557  68.250  1.00  0.00    -0.168 A  
ENDROOT
BRANCH   5   8
HETATM    8  N   UNL     1     -10.831  14.102  68.834  1.00  0.00    -0.254 N  
HETATM    9  C   UNL     1      -9.689  14.849  68.669  1.00  0.00    -0.226 C  
HETATM   10  H   UNL     1     -11.721  14.600  68.846  1.00  0.00     0.000 HD 
HETATM   11  O   UNL     1      -8.529  14.471  68.600  1.00  0.00    -0.158 OA 
BRANCH   9  12
HETATM   12  C   UNL     1      -9.981  16.336  68.588  1.00  0.00    -0.233 C  
HETATM   13  C   UNL     1     -10.934  16.949  69.610  1.00  0.00    -0.007 C  
HETATM   14  C   UNL     1     -11.405  16.723  68.211  1.00  0.00    -0.051 C  
BRANCH  12  15
HETATM   15  C   UNL     1      -8.819  17.168  68.040  1.00  0.00    -0.229 A  
HETATM   16  C   UNL     1      -7.152  18.945  68.438  1.00  0.00    -0.295 A  
HETATM   17  C   UNL     1      -8.093  18.025  68.910  1.00  0.00    -0.168 A  
HETATM   18  C   UNL     1      -6.936  18.992  67.081  1.00  0.00    -0.203 A  
HETATM   19  O   UNL     1      -6.110  19.857  66.436  1.00  0.00    -0.168 OA 
HETATM   20  C   UNL     1      -6.368  19.477  65.080  1.00  0.00    -0.274 C  
HETATM   21  F   UNL     1      -6.901  20.541  64.424  1.00  0.00    -0.312 F  
HETATM   22  F   UNL     1      -5.188  19.181  64.483  1.00  0.00    -0.174 F  
HETATM   23  O   UNL     1      -7.252  18.360  64.921  1.00  0.00     0.144 OA 
HETATM   24  C   UNL     1      -7.591  18.144  66.221  1.00  0.00    -0.264 A  
HETATM   25  C   UNL     1      -8.520  17.224  66.665  1.00  0.00    -0.292 A  
ENDBRANCH  12  15
ENDBRANCH   9  12
ENDBRANCH   5   8
BRANCH   7  26
HETATM   26  C   UNL     1      -9.498   9.835  67.223  1.00  0.00    -0.183 A  
HETATM   27  C   UNL     1      -8.676   8.747  67.594  1.00  0.00    -0.135 A  
HETATM   28  C   UNL     1      -8.771   9.436  64.908  1.00  0.00    -0.220 A  
HETATM   29  O   UNL     1      -8.694   8.896  62.590  1.00  0.00    -0.210 OA 
HETATM   30  C   UNL     1      -9.542  10.137  65.852  1.00  0.00    -0.274 A  
HETATM   31  C   UNL     1      -7.943   8.388  65.317  1.00  0.00    -0.125 A  
HETATM   32  C   UNL     1      -8.838   9.887  63.495  1.00  0.00    -0.234 C  
HETATM   33  O   UNL     1      -9.036  11.048  63.184  1.00  0.00    -0.221 OA 
HETATM   34  C   UNL     1      -7.912   8.032  66.660  1.00  0.00    -0.102 A  
ENDBRANCH   7  26
TORSDOF 4
ENDMDL
MODEL      194
REMARK 921   NORMALIZED FREE ENERGY PREDICTED BY IDOCK:   -4.45 KCAL/MOL
REMARK 922        TOTAL FREE ENERGY PREDICTED BY IDOCK:   -6.63 KCAL/MOL
REMARK 923 INTER-LIGAND FREE ENERGY PREDICTED BY IDOCK:   -5.81 KCAL/MOL
REMARK 924 INTRA-LIGAND FREE ENERGY PREDICTED BY IDOCK:   -0.82 KCAL/MOL
REMARK 927      BINDING AFFINITY PREDICTED BY RF-SCORE:    0.00 PKD
ROOT
HETATM    1  C   UNL     1      -9.614   2.699  69.693  1.00  0.00    -0.055 C  
HETATM    2  C   UNL     1      -9.142   4.116  69.539  1.00  0.00    -0.185 A  
HETATM    3  C   UNL     1      -9.214   4.945  70.669  1.00  0.00    -0.189 A  
HETATM    4  C   UNL     1      -8.873   6.288  70.583  1.00  0.00    -0.144 A  
HETATM    5  C   UNL     1      -8.474   6.785  69.356  1.00  0.00    -0.132 A  
HETATM    6  N   UNL     1      -8.349   5.999  68.276  1.00  0.00    -0.113 NA 
HETATM    7  C   UNL     1      -8.653   4.672  68.348  1.00  0.00    -0.097 A  
ENDROOT
BRANCH   5   8
HETATM    8  N   UNL     1      -8.212   8.156  69.277  1.00  0.00    -0.117 N  
HETATM    9  C   UNL     1      -8.457   8.945  68.179  1.00  0.00    -0.129 C  
HETATM   10  H   UNL     1      -7.807   8.606  70.098  1.00  0.00     0.000 HD 
HETATM   11  O   UNL     1      -8.953   8.633  67.106  1.00  0.00    -0.129 OA 
BRANCH   9  12
HETATM   12  C   UNL     1      -8.011  10.380  68.389  1.00  0.00    -0.110 C  
HETATM   13  C   UNL     1      -6.542  10.726  68.166  1.00  0.00    -0.062 C  
HETATM   14  C   UNL     1      -7.068  10.627  69.561  1.00  0.00    -0.127 C  
BRANCH  12  15
HETATM   15  C   UNL     1      -9.091  11.418  68.078  1.00  0.00    -0.171 A  
HETATM   16  C   UNL     1     -11.488  12.010  68.097  1.00  0.00    -0.383 A  
HETATM   17  C   UNL     1     -10.426  11.199  68.510  1.00  0.00    -0.212 A  
HETATM   18  C   UNL     1     -11.197  13.053  67.251  1.00  0.00    -0.289 A  
HETATM   19  O   UNL     1     -12.101  13.906  66.699  1.00  0.00    -0.423 OA 
HETATM   20  C   UNL     1     -11.227  14.691  65.880  1.00  0.00    -0.336 C  
HETATM   21  F   UNL     1     -11.587  14.527  64.580  1.00  0.00    -0.368 F  
HETATM   22  F   UNL     1     -11.404  15.998  66.189  1.00  0.00    -0.135 F  
HETATM   23  O   UNL     1      -9.834  14.377  66.004  1.00  0.00    -0.299 OA 
HETATM   24  C   UNL     1      -9.909  13.315  66.851  1.00  0.00    -0.247 A  
HETATM   25  C   UNL     1      -8.844  12.532  67.251  1.00  0.00    -0.195 A  
ENDBRANCH  12  15
ENDBRANCH   9  12
ENDBRANCH   5   8
BRANCH   7  26
HETATM   26  C   UNL     1      -8.421   3.958  67.060  1.00  0.00    -0.101 A  
HETATM   27  C   UNL     1      -7.153   3.410  66.765  1.00  0.00    -0.055 A  
HETATM   28  C   UNL     1      -9.178   3.054  64.903  1.00  0.00    -0.148 A  
HETATM   29  O   UNL     1     -10.278   1.806  63.199  1.00  0.00    -0.107 OA 
HETATM   30  C   UNL     1      -9.428   3.734  66.107  1.00  0.00    -0.184 A  
HETATM   31  C   UNL     1      -7.902   2.557  64.629  1.00  0.00    -0.077 A  
HETATM   32  C   UNL     1     -10.297   2.938  63.934  1.00  0.00    -0.148 C  
HETATM   33  O   UNL     1     -11.171   3.780  63.835  1.00  0.00    -0.296 OA 
HETATM   34  C   UNL     1      -6.894   2.719  65.572  1.00  0.00    -0.048 A  
ENDBRANCH   7  26
TORSDOF 4
ENDMDL
MODEL      195
REMARK 921   NORMALIZED FREE ENERGY PREDICTED BY IDOCK:   -4.33 KCAL/MOL
REMARK 922        TOTAL FREE ENERGY PREDICTED BY IDOCK:   -6.49 KCAL/MOL
REMARK 923 INTER-LIGAND FREE ENERGY PREDICTED BY IDOCK:   -5.39 KCAL/MOL
REMARK 924 INTRA-LIGAND FREE ENERGY PREDICTED BY IDOCK:   -1.10 KCAL/MOL
REMARK 927      BINDING AFFINITY PREDICTED BY RF-SCORE:    0.00 PKD
ROOT
HETATM    1  C   UNL     1     -10.758   5.517  66.605  1.00  0.00    -0.332 C  
HETATM    2  C   UNL     1      -9.993   6.785  66.850  1.00  0.00    -0.252 A  
HETATM    3  C   UNL     1     -10.735   7.931  67.179  1.00  0.00    -0.306 A  
HETATM    4  C   UNL     1     -10.104   9.157  67.339  1.00  0.00    -0.289 A  
HETATM    5  C   UNL     1      -8.736   9.221  67.154  1.00  0.00    -0.127 A  
HETATM    6  N   UNL     1      -8.003   8.128  66.890  1.00  0.00    -0.102 NA 
HETATM    7  C   UNL     1      -8.600   6.911  66.757  1.00  0.00    -0.120 A  
ENDROOT
BRANCH   5   8
HETATM    8  N   UNL     1      -8.137  10.480  67.243  1.00  0.00    -0.114 N  
HETATM    9  C   UNL     1      -7.823  11.124  68.414  1.00  0.00    -0.133 C  
HETATM   10  H   UNL     1      -7.915  10.958  66.369  1.00  0.00     0.000 HD 
HETATM   11  O   UNL     1      -7.972  10.740  69.565  1.00  0.00    -0.118 OA 
BRANCH   9  12
HETATM   12  C   UNL     1      -7.232  12.502  68.174  1.00  0.00    -0.106 C  
HETATM   13  C   UNL     1      -5.861  12.602  67.514  1.00  0.00    -0.140 C  
HETATM   14  C   UNL     1      -5.988  12.851  68.981  1.00  0.00    -0.084 C  
BRANCH  12  15
HETATM   15  C   UNL     1      -8.278  13.590  67.920  1.00  0.00    -0.168 A  
HETATM   16  C   UNL     1     -10.601  14.367  68.227  1.00  0.00    -0.243 A  
HETATM   17  C   UNL     1      -9.543  13.515  68.561  1.00  0.00    -0.151 A  
HETATM   18  C   UNL     1     -10.375  15.305  67.248  1.00  0.00    -0.264 A  
HETATM   19  O   UNL     1     -11.295  16.173  66.751  1.00  0.00     0.057 OA 
HETATM   20  C   UNL     1     -10.507  16.811  65.739  1.00  0.00    -0.292 C  
HETATM   21  F   UNL     1     -11.070  16.560  64.528  1.00  0.00    -0.464 F  
HETATM   22  F   UNL     1     -10.551  18.150  65.938  1.00  0.00    -0.393 F  
HETATM   23  O   UNL     1      -9.135  16.400  65.691  1.00  0.00    -0.446 OA 
HETATM   24  C   UNL     1      -9.148  15.428  66.642  1.00  0.00    -0.279 A  
HETATM   25  C   UNL     1      -8.088  14.603  66.960  1.00  0.00    -0.153 A  
ENDBRANCH  12  15
ENDBRANCH   9  12
ENDBRANCH   5   8
BRANCH   7  26
HETATM   26  C   UNL     1      -7.622   5.815  66.498  1.00  0.00    -0.091 A  
HETATM   27  C   UNL     1      -6.880   5.253  67.560  1.00  0.00    -0.060 A  
HETATM   28  C   UNL     1      -6.490   4.208  65.020  1.00  0.00    -0.035 A  
HETATM   29  O   UNL     1      -5.997   2.416  63.532  1.00  0.00    -0.009 OA 
HETATM   30  C   UNL     1      -7.419   5.242  65.231  1.00  0.00    -0.077 A  
HETATM   31  C   UNL     1      -5.748   3.702  66.089  1.00  0.00    -0.018 A  
HETATM   32  C   UNL     1      -6.302   3.727  63.628  1.00  0.00    -0.026 C  
HETATM   33  O   UNL     1      -6.442   4.450  62.658  1.00  0.00    -0.025 OA 
HETATM   34  C   UNL     1      -5.959   4.213  67.364  1.00  0.00    -0.024 A  
ENDBRANCH   7  26
TORSDOF 4
ENDMDL
MODEL      196
REMARK 921   NORMALIZED FREE ENERGY PREDICTED BY IDOCK:   -4.32 KCAL/MOL
REMARK 922        TOTAL FREE ENERGY PREDICTED BY IDOCK:   -6.48 KCAL/MOL
REMARK 923 INTER-LIGAND FREE ENERGY PREDICTED BY IDOCK:   -5.68 KCAL/MOL
REMARK 924 INTRA-LIGAND FREE ENERGY PREDICTED BY IDOCK:   -0.80 KCAL/MOL
REMARK 927      BINDING AFFINITY PREDICTED BY RF-SCORE:    0.00 PKD
ROOT
HETATM    1  C   UNL     1      -9.023   7.710  64.669  1.00  0.00     0.684 C  
HETATM    2  C   UNL     1      -8.617   8.943  65.422  1.00  0.00    -0.200 A  
HETATM    3  C   UNL     1      -8.619  10.158  64.719  1.00  0.00    -0.191 A  
HETATM    4  C   UNL     1      -8.178  11.326  65.326  1.00  0.00     0.320 A  
HETATM    5  C   UNL     1      -7.727  11.257  66.631  1.00  0.00    -0.148 A  
HETATM    6  N   UNL     1      -7.764  10.116  67.337  1.00  0.00    -0.095 NA 
HETATM    7  C   UNL     1      -8.220   8.965  66.767  1.00  0.00    -0.111 A  
ENDROOT
BRANCH   5   8
HETATM    8  N   UNL     1      -7.214  12.429  67.193  1.00  0.00    -0.309 N  
HETATM    9  C   UNL     1      -7.936  13.327  67.941  1.00  0.00    -0.159 C  
HETATM   10  H   UNL     1      -6.227  12.634  67.035  1.00  0.00     0.000 HD 
HETATM   11  O   UNL     1      -9.111  13.278  68.276  1.00  0.00    -0.196 OA 
BRANCH   9  12
HETATM   12  C   UNL     1      -7.105  14.527  68.361  1.00  0.00    -0.111 C  
HETATM   13  C   UNL     1      -5.607  14.335  68.579  1.00  0.00    -0.097 C  
HETATM   14  C   UNL     1      -6.509  14.475  69.762  1.00  0.00    -0.154 C  
BRANCH  12  15
HETATM   15  C   UNL     1      -7.630  15.861  67.828  1.00  0.00    -0.157 A  
HETATM   16  C   UNL     1      -7.118  18.154  67.066  1.00  0.00    -0.217 A  
HETATM   17  C   UNL     1      -6.715  16.852  67.383  1.00  0.00    -0.187 A  
HETATM   18  C   UNL     1      -8.454  18.451  67.190  1.00  0.00    -0.254 A  
HETATM   19  O   UNL     1      -9.020  19.670  66.987  1.00  0.00    -0.293 OA 
HETATM   20  C   UNL     1     -10.376  19.372  67.337  1.00  0.00    -0.446 C  
HETATM   21  F   UNL     1     -10.724  20.130  68.410  1.00  0.00    -0.492 F  
HETATM   22  F   UNL     1     -11.178  19.734  66.307  1.00  0.00    -0.448 F  
HETATM   23  O   UNL     1     -10.632  17.998  67.655  1.00  0.00    -0.400 OA 
HETATM   24  C   UNL     1      -9.368  17.501  67.577  1.00  0.00    -0.246 A  
HETATM   25  C   UNL     1      -8.994  16.209  67.889  1.00  0.00    -0.183 A  
ENDBRANCH  12  15
ENDBRANCH   9  12
ENDBRANCH   5   8
BRANCH   7  26
HETATM   26  C   UNL     1      -8.217   7.813  67.714  1.00  0.00    -0.126 A  
HETATM   27  C   UNL     1      -7.043   7.052  67.910  1.00  0.00    -0.086 A  
HETATM   28  C   UNL     1      -9.290   6.361  69.383  1.00  0.00    -0.143 A  
HETATM   29  O   UNL     1     -10.347   5.508  71.339  1.00  0.00    -0.212 OA 
HETATM   30  C   UNL     1      -9.326   7.452  68.497  1.00  0.00    -0.141 A  
HETATM   31  C   UNL     1      -8.122   5.609  69.523  1.00  0.00    -0.103 A  
HETATM   32  C   UNL     1     -10.542   6.022  70.106  1.00  0.00    -0.276 C  
HETATM   33  O   UNL     1     -11.647   6.220  69.635  1.00  0.00    -0.430 OA 
HETATM   34  C   UNL     1      -6.992   5.968  68.799  1.00  0.00    -0.072 A  
ENDBRANCH   7  26
TORSDOF 4
ENDMDL
MODEL      197
REMARK 921   NORMALIZED FREE ENERGY PREDICTED BY IDOCK:   -4.31 KCAL/MOL
REMARK 922        TOTAL FREE ENERGY PREDICTED BY IDOCK:   -6.47 KCAL/MOL
REMARK 923 INTER-LIGAND FREE ENERGY PREDICTED BY IDOCK:   -6.39 KCAL/MOL
REMARK 924 INTRA-LIGAND FREE ENERGY PREDICTED BY IDOCK:   -0.08 KCAL/MOL
REMARK 927      BINDING AFFINITY PREDICTED BY RF-SCORE:    0.00 PKD
ROOT
HETATM    1  C   UNL     1      -5.493   8.260  69.563  1.00  0.00    -0.030 C  
HETATM    2  C   UNL     1      -6.632   9.208  69.328  1.00  0.00    -0.049 A  
HETATM    3  C   UNL     1      -6.394  10.305  68.485  1.00  0.00    -0.051 A  
HETATM    4  C   UNL     1      -7.374  11.267  68.286  1.00  0.00    -0.095 A  
HETATM    5  C   UNL     1      -8.580  11.123  68.947  1.00  0.00    -0.087 A  
HETATM    6  N   UNL     1      -8.846  10.056  69.716  1.00  0.00    -0.203 NA 
HETATM    7  C   UNL     1      -7.906   9.086  69.901  1.00  0.00    -0.090 A  
ENDROOT
BRANCH   5   8
HETATM    8  N   UNL     1      -9.520  12.145  68.792  1.00  0.00    -0.405 N  
HETATM    9  C   UNL     1      -9.703  12.884  67.648  1.00  0.00    -0.212 C  
HETATM   10  H   UNL     1     -10.118  12.360  69.591  1.00  0.00     0.000 HD 
HETATM   11  O   UNL     1      -9.128  12.789  66.574  1.00  0.00    -0.218 OA 
BRANCH   9  12
HETATM   12  C   UNL     1     -10.764  13.956  67.818  1.00  0.00    -0.252 C  
HETATM   13  C   UNL     1     -12.139  13.545  68.338  1.00  0.00    -0.293 C  
HETATM   14  C   UNL     1     -11.968  13.864  66.888  1.00  0.00    -0.467 C  
BRANCH  12  15
HETATM   15  C   UNL     1     -10.202  15.335  68.167  1.00  0.00    -0.230 A  
HETATM   16  C   UNL     1     -10.473  17.788  68.068  1.00  0.00    -0.399 A  
HETATM   17  C   UNL     1     -10.993  16.495  67.949  1.00  0.00    -0.288 A  
HETATM   18  C   UNL     1      -9.149  17.909  68.419  1.00  0.00    -0.289 A  
HETATM   19  O   UNL     1      -8.457  19.074  68.522  1.00  0.00    -0.330 OA 
HETATM   20  C   UNL     1      -7.156  18.558  68.828  1.00  0.00    -0.291 C  
HETATM   21  F   UNL     1      -6.302  18.914  67.833  1.00  0.00    -0.195 F  
HETATM   22  F   UNL     1      -6.717  19.144  69.969  1.00  0.00    -0.235 F  
HETATM   23  O   UNL     1      -7.090  17.135  68.990  1.00  0.00    -0.226 OA 
HETATM   24  C   UNL     1      -8.372  16.805  68.678  1.00  0.00    -0.252 A  
HETATM   25  C   UNL     1      -8.866  15.520  68.573  1.00  0.00    -0.186 A  
ENDBRANCH  12  15
ENDBRANCH   9  12
ENDBRANCH   5   8
BRANCH   7  26
HETATM   26  C   UNL     1      -8.395   7.967  70.757  1.00  0.00    -0.115 A  
HETATM   27  C   UNL     1      -9.757   7.890  71.124  1.00  0.00    -0.182 A  
HETATM   28  C   UNL     1      -8.067   5.872  72.001  1.00  0.00    -0.108 A  
HETATM   29  O   UNL     1      -7.621   3.614  72.612  1.00  0.00    -0.057 OA 
HETATM   30  C   UNL     1      -7.575   6.914  71.196  1.00  0.00    -0.087 A  
HETATM   31  C   UNL     1      -9.412   5.848  72.374  1.00  0.00    -0.155 A  
HETATM   32  C   UNL     1      -7.098   4.850  72.470  1.00  0.00    -0.077 C  
HETATM   33  O   UNL     1      -5.925   5.103  72.678  1.00  0.00    -0.024 OA 
HETATM   34  C   UNL     1     -10.262   6.849  71.917  1.00  0.00    -0.206 A  
ENDBRANCH   7  26
TORSDOF 4
ENDMDL
MODEL      198
REMARK 921   NORMALIZED FREE ENERGY PREDICTED BY IDOCK:   -4.19 KCAL/MOL
REMARK 922        TOTAL FREE ENERGY PREDICTED BY IDOCK:   -6.32 KCAL/MOL
REMARK 923 INTER-LIGAND FREE ENERGY PREDICTED BY IDOCK:   -5.95 KCAL/MOL
REMARK 924 INTRA-LIGAND FREE ENERGY PREDICTED BY IDOCK:   -0.37 KCAL/MOL
REMARK 927      BINDING AFFINITY PREDICTED BY RF-SCORE:    0.00 PKD
ROOT
HETATM    1  C   UNL     1      -5.913   6.621  65.659  1.00  0.00    -0.034 C  
HETATM    2  C   UNL     1      -6.869   7.741  65.369  1.00  0.00    -0.048 A  
HETATM    3  C   UNL     1      -6.335   8.916  64.815  1.00  0.00    -0.066 A  
HETATM    4  C   UNL     1      -7.144  10.023  64.596  1.00  0.00    -0.140 A  
HETATM    5  C   UNL     1      -8.478   9.941  64.948  1.00  0.00    -0.161 A  
HETATM    6  N   UNL     1      -9.018   8.811  65.431  1.00  0.00    -0.188 NA 
HETATM    7  C   UNL     1      -8.246   7.705  65.627  1.00  0.00    -0.136 A  
ENDROOT
BRANCH   5   8
HETATM    8  N   UNL     1      -9.253  11.093  64.791  1.00  0.00    -0.327 N  
HETATM    9  C   UNL     1     -10.234  11.509  65.658  1.00  0.00    -0.248 C  
HETATM   10  H   UNL     1      -9.076  11.671  63.969  1.00  0.00     0.000 HD 
HETATM   11  O   UNL     1     -10.599  10.998  66.706  1.00  0.00    -0.244 OA 
BRANCH   9  12
HETATM   12  C   UNL     1     -10.930  12.770  65.178  1.00  0.00    -0.323 C  
HETATM   13  C   UNL     1     -12.429  12.712  64.895  1.00  0.00    -0.564 C  
HETATM   14  C   UNL     1     -11.467  12.741  63.752  1.00  0.00    -0.533 C  
BRANCH  12  15
HETATM   15  C   UNL     1     -10.308  14.063  65.708  1.00  0.00    -0.330 A  
HETATM   16  C   UNL     1     -10.302  16.533  65.707  1.00  0.00    -0.359 A  
HETATM   17  C   UNL     1     -10.920  15.311  65.416  1.00  0.00    -0.380 A  
HETATM   18  C   UNL     1      -9.065  16.491  66.305  1.00  0.00    -0.313 A  
HETATM   19  O   UNL     1      -8.290  17.566  66.606  1.00  0.00    -0.234 OA 
HETATM   20  C   UNL     1      -7.132  16.897  67.117  1.00  0.00    -0.181 C  
HETATM   21  F   UNL     1      -6.071  17.194  66.321  1.00  0.00    -0.223 F  
HETATM   22  F   UNL     1      -6.862  17.384  68.352  1.00  0.00    -0.169 F  
HETATM   23  O   UNL     1      -7.244  15.470  67.203  1.00  0.00    -0.209 OA 
HETATM   24  C   UNL     1      -8.469  15.298  66.638  1.00  0.00    -0.229 A  
HETATM   25  C   UNL     1      -9.062  14.081  66.366  1.00  0.00    -0.120 A  
ENDBRANCH  12  15
ENDBRANCH   9  12
ENDBRANCH   5   8
BRANCH   7  26
HETATM   26  C   UNL     1      -9.027   6.541  66.137  1.00  0.00    -0.161 A  
HETATM   27  C   UNL     1     -10.352   6.715  66.596  1.00  0.00    -0.215 A  
HETATM   28  C   UNL     1      -9.301   4.147  66.627  1.00  0.00    -0.189 A  
HETATM   29  O   UNL     1      -9.513   1.782  66.456  1.00  0.00     0.072 OA 
HETATM   30  C   UNL     1      -8.539   5.224  66.141  1.00  0.00    -0.120 A  
HETATM   31  C   UNL     1     -10.595   4.363  67.107  1.00  0.00     0.547 A  
HETATM   32  C   UNL     1      -8.660   2.809  66.655  1.00  0.00    -0.110 C  
HETATM   33  O   UNL     1      -7.462   2.657  66.812  1.00  0.00    -0.068 OA 
HETATM   34  C   UNL     1     -11.126   5.647  67.072  1.00  0.00     0.054 A  
ENDBRANCH   7  26
TORSDOF 4
ENDMDL
MODEL      199
REMARK 921   NORMALIZED FREE ENERGY PREDICTED BY IDOCK:   -4.18 KCAL/MOL
REMARK 922        TOTAL FREE ENERGY PREDICTED BY IDOCK:   -6.30 KCAL/MOL
REMARK 923 INTER-LIGAND FREE ENERGY PREDICTED BY IDOCK:   -5.68 KCAL/MOL
REMARK 924 INTRA-LIGAND FREE ENERGY PREDICTED BY IDOCK:   -0.63 KCAL/MOL
REMARK 927      BINDING AFFINITY PREDICTED BY RF-SCORE:    0.00 PKD
ROOT
HETATM    1  C   UNL     1     -10.677   6.087  66.790  1.00  0.00    -0.374 C  
HETATM    2  C   UNL     1      -9.901   7.333  67.102  1.00  0.00    -0.242 A  
HETATM    3  C   UNL     1     -10.525   8.563  66.838  1.00  0.00    -0.345 A  
HETATM    4  C   UNL     1      -9.840   9.756  67.024  1.00  0.00    -0.245 A  
HETATM    5  C   UNL     1      -8.530   9.699  67.462  1.00  0.00    -0.125 A  
HETATM    6  N   UNL     1      -7.933   8.537  67.769  1.00  0.00    -0.107 NA 
HETATM    7  C   UNL     1      -8.599   7.358  67.620  1.00  0.00    -0.119 A  
ENDROOT
BRANCH   5   8
HETATM    8  N   UNL     1      -7.838  10.909  67.566  1.00  0.00    -0.112 N  
HETATM    9  C   UNL     1      -8.328  12.052  68.149  1.00  0.00    -0.165 C  
HETATM   10  H   UNL     1      -6.895  10.945  67.178  1.00  0.00     0.000 HD 
HETATM   11  O   UNL     1      -9.407  12.233  68.693  1.00  0.00    -0.133 OA 
BRANCH   9  12
HETATM   12  C   UNL     1      -7.353  13.211  68.052  1.00  0.00    -0.125 C  
HETATM   13  C   UNL     1      -5.965  12.950  67.476  1.00  0.00    -0.130 C  
HETATM   14  C   UNL     1      -6.125  13.134  68.950  1.00  0.00    -0.083 C  
BRANCH  12  15
HETATM   15  C   UNL     1      -8.024  14.569  67.831  1.00  0.00    -0.152 A  
HETATM   16  C   UNL     1      -9.265  16.062  66.305  1.00  0.00    -0.368 A  
HETATM   17  C   UNL     1      -8.789  14.794  66.656  1.00  0.00    -0.262 A  
HETATM   18  C   UNL     1      -8.975  17.104  67.153  1.00  0.00    -0.228 A  
HETATM   19  O   UNL     1      -9.299  18.409  66.949  1.00  0.00    -0.274 OA 
HETATM   20  C   UNL     1      -8.677  18.997  68.098  1.00  0.00    -0.316 C  
HETATM   21  F   UNL     1      -7.717  19.861  67.677  1.00  0.00    -0.293 F  
HETATM   22  F   UNL     1      -9.607  19.717  68.770  1.00  0.00    -0.408 F  
HETATM   23  O   UNL     1      -8.076  18.065  69.006  1.00  0.00    -0.193 OA 
HETATM   24  C   UNL     1      -8.274  16.908  68.318  1.00  0.00    -0.222 A  
HETATM   25  C   UNL     1      -7.799  15.665  68.687  1.00  0.00    -0.152 A  
ENDBRANCH  12  15
ENDBRANCH   9  12
ENDBRANCH   5   8
BRANCH   7  26
HETATM   26  C   UNL     1      -7.786   6.181  68.042  1.00  0.00    -0.102 A  
HETATM   27  C   UNL     1      -6.521   5.939  67.460  1.00  0.00    -0.047 A  
HETATM   28  C   UNL     1      -7.389   4.191  69.432  1.00  0.00    -0.054 A  
HETATM   29  O   UNL     1      -6.999   2.708  71.253  1.00  0.00    -0.031 OA 
HETATM   30  C   UNL     1      -8.180   5.291  69.055  1.00  0.00    -0.085 A  
HETATM   31  C   UNL     1      -6.160   3.965  68.809  1.00  0.00    -0.028 A  
HETATM   32  C   UNL     1      -7.935   3.273  70.462  1.00  0.00    -0.042 C  
HETATM   33  O   UNL     1      -9.129   3.074  70.599  1.00  0.00    -0.097 OA 
HETATM   34  C   UNL     1      -5.718   4.853  67.835  1.00  0.00    -0.017 A  
ENDBRANCH   7  26
TORSDOF 4
ENDMDL
MODEL      200
REMARK 921   NORMALIZED FREE ENERGY PREDICTED BY IDOCK:   -4.02 KCAL/MOL
REMARK 922        TOTAL FREE ENERGY PREDICTED BY IDOCK:   -6.10 KCAL/MOL
REMARK 923 INTER-LIGAND FREE ENERGY PREDICTED BY IDOCK:   -6.12 KCAL/MOL
REMARK 924 INTRA-LIGAND FREE ENERGY PREDICTED BY IDOCK:    0.02 KCAL/MOL
REMARK 927      BINDING AFFINITY PREDICTED BY RF-SCORE:    0.00 PKD
ROOT
HETATM    1  C   UNL     1      -5.313  11.516  71.775  1.00  0.00     0.255 C  
HETATM    2  C   UNL     1      -5.703  12.429  70.648  1.00  0.00    -0.138 A  
HETATM    3  C   UNL     1      -5.268  13.761  70.719  1.00  0.00    -0.123 A  
HETATM    4  C   UNL     1      -5.657  14.683  69.756  1.00  0.00    -0.099 A  
HETATM    5  C   UNL     1      -6.490  14.256  68.738  1.00  0.00    -0.089 A  
HETATM    6  N   UNL     1      -6.875  12.975  68.624  1.00  0.00    -0.093 NA 
HETATM    7  C   UNL     1      -6.480  12.051  69.544  1.00  0.00    -0.109 A  
ENDROOT
BRANCH   5   8
HETATM    8  N   UNL     1      -6.932  15.219  67.827  1.00  0.00    -0.148 N  
HETATM    9  C   UNL     1      -7.095  16.554  68.107  1.00  0.00    -0.145 C  
HETATM   10  H   UNL     1      -7.149  14.907  66.881  1.00  0.00     0.000 HD 
HETATM   11  O   UNL     1      -6.876  17.152  69.150  1.00  0.00    -0.227 OA 
BRANCH   9  12
HETATM   12  C   UNL     1      -7.641  17.329  66.921  1.00  0.00    -0.248 C  
HETATM   13  C   UNL     1      -6.689  18.223  66.133  1.00  0.00    -0.288 C  
HETATM   14  C   UNL     1      -7.676  18.845  67.066  1.00  0.00    -0.241 C  
BRANCH  12  15
HETATM   15  C   UNL     1      -8.795  16.628  66.200  1.00  0.00    -0.323 A  
HETATM   16  C   UNL     1     -11.031  16.807  65.168  1.00  0.00    -0.109 A  
HETATM   17  C   UNL     1      -9.864  17.396  65.667  1.00  0.00     0.109 A  
HETATM   18  C   UNL     1     -11.113  15.436  65.200  1.00  0.00    -0.394 A  
HETATM   19  O   UNL     1     -12.185  14.693  64.819  1.00  0.00    -0.423 OA 
HETATM   20  C   UNL     1     -11.708  13.385  65.152  1.00  0.00    -0.321 C  
HETATM   21  F   UNL     1     -12.521  12.855  66.103  1.00  0.00    -0.462 F  
HETATM   22  F   UNL     1     -11.803  12.598  64.052  1.00  0.00    -0.371 F  
HETATM   23  O   UNL     1     -10.359  13.336  65.634  1.00  0.00    -0.278 OA 
HETATM   24  C   UNL     1     -10.076  14.666  65.670  1.00  0.00    -0.363 A  
HETATM   25  C   UNL     1      -8.912  15.224  66.162  1.00  0.00    -0.251 A  
ENDBRANCH  12  15
ENDBRANCH   9  12
ENDBRANCH   5   8
BRANCH   7  26
HETATM   26  C   UNL     1      -6.979  10.680  69.233  1.00  0.00    -0.096 A  
HETATM   27  C   UNL     1      -6.138   9.742  68.593  1.00  0.00    -0.042 A  
HETATM   28  C   UNL     1      -8.695   8.920  69.288  1.00  0.00    -0.138 A  
HETATM   29  O   UNL     1     -10.262   7.267  69.982  1.00  0.00    -0.195 OA 
HETATM   30  C   UNL     1      -8.256  10.220  69.594  1.00  0.00    -0.146 A  
HETATM   31  C   UNL     1      -7.849   8.032  68.623  1.00  0.00    -0.118 A  
HETATM   32  C   UNL     1     -10.090   8.563  69.650  1.00  0.00    -0.202 C  
HETATM   33  O   UNL     1     -10.993   9.381  69.675  1.00  0.00    -0.239 OA 
HETATM   34  C   UNL     1      -6.561   8.439  68.293  1.00  0.00    -0.060 A  
ENDBRANCH   7  26
TORSDOF 4
ENDMDL
MODEL      201
REMARK 921   NORMALIZED FREE ENERGY PREDICTED BY IDOCK:   -3.99 KCAL/MOL
REMARK 922        TOTAL FREE ENERGY PREDICTED BY IDOCK:   -6.07 KCAL/MOL
REMARK 923 INTER-LIGAND FREE ENERGY PREDICTED BY IDOCK:   -5.00 KCAL/MOL
REMARK 924 INTRA-LIGAND FREE ENERGY PREDICTED BY IDOCK:   -1.07 KCAL/MOL
REMARK 927      BINDING AFFINITY PREDICTED BY RF-SCORE:    0.00 PKD
ROOT
HETATM    1  C   UNL     1      -7.902  11.025  62.343  1.00  0.00    -0.129 C  
HETATM    2  C   UNL     1      -7.918   9.755  63.142  1.00  0.00    -0.145 A  
HETATM    3  C   UNL     1      -7.273   8.638  62.589  1.00  0.00    -0.097 A  
HETATM    4  C   UNL     1      -7.316   7.408  63.233  1.00  0.00    -0.086 A  
HETATM    5  C   UNL     1      -8.018   7.313  64.420  1.00  0.00    -0.106 A  
HETATM    6  N   UNL     1      -8.598   8.380  64.991  1.00  0.00    -0.146 NA 
HETATM    7  C   UNL     1      -8.542   9.601  64.388  1.00  0.00    -0.191 A  
ENDROOT
BRANCH   5   8
HETATM    8  N   UNL     1      -8.113   6.048  65.006  1.00  0.00    -0.129 N  
HETATM    9  C   UNL     1      -7.137   5.458  65.772  1.00  0.00    -0.067 C  
HETATM   10  H   UNL     1      -8.975   5.523  64.855  1.00  0.00     0.000 HD 
HETATM   11  O   UNL     1      -6.048   5.902  66.103  1.00  0.00    -0.030 OA 
BRANCH   9  12
HETATM   12  C   UNL     1      -7.522   4.058  66.217  1.00  0.00    -0.088 C  
HETATM   13  C   UNL     1      -7.125   2.878  65.335  1.00  0.00    -0.058 C  
HETATM   14  C   UNL     1      -8.548   3.336  65.352  1.00  0.00    -0.112 C  
BRANCH  12  15
HETATM   15  C   UNL     1      -7.582   3.884  67.736  1.00  0.00    -0.067 A  
HETATM   16  C   UNL     1      -8.538   4.625  69.888  1.00  0.00    -0.096 A  
HETATM   17  C   UNL     1      -8.554   4.594  68.490  1.00  0.00    -0.106 A  
HETATM   18  C   UNL     1      -7.542   3.927  70.527  1.00  0.00    -0.044 A  
HETATM   19  O   UNL     1      -7.330   3.890  71.869  1.00  0.00    -0.055 OA 
HETATM   20  C   UNL     1      -6.141   3.093  71.908  1.00  0.00    -0.014 C  
HETATM   21  F   UNL     1      -5.137   3.836  72.442  1.00  0.00     0.000 F  
HETATM   22  F   UNL     1      -6.354   2.041  72.735  1.00  0.00    -0.008 F  
HETATM   23  O   UNL     1      -5.704   2.594  70.637  1.00  0.00    -0.015 OA 
HETATM   24  C   UNL     1      -6.614   3.196  69.824  1.00  0.00    -0.033 A  
HETATM   25  C   UNL     1      -6.613   3.146  68.444  1.00  0.00    -0.037 A  
ENDBRANCH  12  15
ENDBRANCH   9  12
ENDBRANCH   5   8
BRANCH   7  26
HETATM   26  C   UNL     1      -9.213  10.668  65.186  1.00  0.00    -0.241 A  
HETATM   27  C   UNL     1      -8.674  11.079  66.426  1.00  0.00    -0.174 A  
HETATM   28  C   UNL     1     -10.964  12.361  65.525  1.00  0.00    -0.328 A  
HETATM   29  O   UNL     1     -12.373  14.271  65.337  1.00  0.00    -0.417 OA 
HETATM   30  C   UNL     1     -10.356  11.358  64.750  1.00  0.00    -0.349 A  
HETATM   31  C   UNL     1     -10.423  12.716  66.763  1.00  0.00    -0.254 A  
HETATM   32  C   UNL     1     -12.210  12.974  65.002  1.00  0.00    -0.453 C  
HETATM   33  O   UNL     1     -13.000  12.363  64.304  1.00  0.00    -0.737 OA 
HETATM   34  C   UNL     1      -9.265  12.086  67.203  1.00  0.00    -0.190 A  
ENDBRANCH   7  26
TORSDOF 4
ENDMDL
MODEL      202
REMARK 921   NORMALIZED FREE ENERGY PREDICTED BY IDOCK:   -3.98 KCAL/MOL
REMARK 922        TOTAL FREE ENERGY PREDICTED BY IDOCK:   -6.06 KCAL/MOL
REMARK 923 INTER-LIGAND FREE ENERGY PREDICTED BY IDOCK:   -5.20 KCAL/MOL
REMARK 924 INTRA-LIGAND FREE ENERGY PREDICTED BY IDOCK:   -0.86 KCAL/MOL
REMARK 927      BINDING AFFINITY PREDICTED BY RF-SCORE:    0.00 PKD
ROOT
HETATM    1  C   UNL     1     -10.979   5.707  66.626  1.00  0.00    -0.173 C  
HETATM    2  C   UNL     1     -10.134   6.930  66.837  1.00  0.00    -0.286 A  
HETATM    3  C   UNL     1     -10.768   8.069  67.357  1.00  0.00    -0.260 A  
HETATM    4  C   UNL     1     -10.071   9.260  67.503  1.00  0.00    -0.273 A  
HETATM    5  C   UNL     1      -8.745   9.296  67.113  1.00  0.00    -0.127 A  
HETATM    6  N   UNL     1      -8.107   8.206  66.662  1.00  0.00    -0.101 NA 
HETATM    7  C   UNL     1      -8.767   7.020  66.538  1.00  0.00    -0.134 A  
ENDROOT
BRANCH   5   8
HETATM    8  N   UNL     1      -8.088  10.527  67.195  1.00  0.00    -0.118 N  
HETATM    9  C   UNL     1      -7.750  11.165  68.364  1.00  0.00    -0.125 C  
HETATM   10  H   UNL     1      -7.839  10.987  66.319  1.00  0.00     0.000 HD 
HETATM   11  O   UNL     1      -7.924  10.797  69.517  1.00  0.00    -0.118 OA 
BRANCH   9  12
HETATM   12  C   UNL     1      -7.094  12.512  68.117  1.00  0.00    -0.103 C  
HETATM   13  C   UNL     1      -5.780  12.551  67.343  1.00  0.00    -0.124 C  
HETATM   14  C   UNL     1      -5.766  12.752  68.823  1.00  0.00    -0.067 C  
BRANCH  12  15
HETATM   15  C   UNL     1      -8.085  13.670  67.989  1.00  0.00    -0.161 A  
HETATM   16  C   UNL     1      -9.951  14.695  66.739  1.00  0.00    -0.265 A  
HETATM   17  C   UNL     1      -9.134  13.599  67.035  1.00  0.00    -0.254 A  
HETATM   18  C   UNL     1      -9.712  15.866  67.419  1.00  0.00    -0.227 A  
HETATM   19  O   UNL     1     -10.359  17.046  67.224  1.00  0.00    -0.301 OA 
HETATM   20  C   UNL     1      -9.634  17.876  68.139  1.00  0.00    -0.306 C  
HETATM   21  F   UNL     1      -9.018  18.862  67.435  1.00  0.00    -0.275 F  
HETATM   22  F   UNL     1     -10.517  18.466  68.979  1.00  0.00    -0.345 F  
HETATM   23  O   UNL     1      -8.643  17.196  68.921  1.00  0.00    -0.263 OA 
HETATM   24  C   UNL     1      -8.732  15.951  68.379  1.00  0.00    -0.183 A  
HETATM   25  C   UNL     1      -7.918  14.881  68.691  1.00  0.00    -0.144 A  
ENDBRANCH  12  15
ENDBRANCH   9  12
ENDBRANCH   5   8
BRANCH   7  26
HETATM   26  C   UNL     1      -7.886   5.918  66.054  1.00  0.00    -0.105 A  
HETATM   27  C   UNL     1      -7.317   5.973  64.763  1.00  0.00    -0.074 A  
HETATM   28  C   UNL     1      -6.690   3.792  66.358  1.00  0.00    -0.049 A  
HETATM   29  O   UNL     1      -5.211   2.079  67.099  1.00  0.00    -0.008 OA 
HETATM   30  C   UNL     1      -7.525   4.814  66.843  1.00  0.00    -0.086 A  
HETATM   31  C   UNL     1      -6.174   3.862  65.062  1.00  0.00    -0.024 A  
HETATM   32  C   UNL     1      -6.432   2.633  67.250  1.00  0.00    -0.036 C  
HETATM   33  O   UNL     1      -7.244   2.241  68.069  1.00  0.00    -0.047 OA 
HETATM   34  C   UNL     1      -6.473   4.966  64.272  1.00  0.00    -0.038 A  
ENDBRANCH   7  26
TORSDOF 4
ENDMDL
MODEL      203
REMARK 921   NORMALIZED FREE ENERGY PREDICTED BY IDOCK:   -3.86 KCAL/MOL
REMARK 922        TOTAL FREE ENERGY PREDICTED BY IDOCK:   -5.91 KCAL/MOL
REMARK 923 INTER-LIGAND FREE ENERGY PREDICTED BY IDOCK:   -5.49 KCAL/MOL
REMARK 924 INTRA-LIGAND FREE ENERGY PREDICTED BY IDOCK:   -0.42 KCAL/MOL
REMARK 927      BINDING AFFINITY PREDICTED BY RF-SCORE:    0.00 PKD
ROOT
HETATM    1  C   UNL     1      -7.230   8.342  72.274  1.00  0.00    -0.121 C  
HETATM    2  C   UNL     1      -7.362   8.491  70.786  1.00  0.00    -0.066 A  
HETATM    3  C   UNL     1      -7.583   9.784  70.286  1.00  0.00    -0.184 A  
HETATM    4  C   UNL     1      -7.795   9.989  68.930  1.00  0.00    -0.095 A  
HETATM    5  C   UNL     1      -7.795   8.889  68.092  1.00  0.00    -0.101 A  
HETATM    6  N   UNL     1      -7.535   7.653  68.543  1.00  0.00    -0.101 NA 
HETATM    7  C   UNL     1      -7.296   7.435  69.866  1.00  0.00    -0.083 A  
ENDROOT
BRANCH   5   8
HETATM    8  N   UNL     1      -8.090   9.113  66.744  1.00  0.00    -0.111 N  
HETATM    9  C   UNL     1      -7.306   9.829  65.873  1.00  0.00    -0.103 C  
HETATM   10  H   UNL     1      -8.954   8.712  66.379  1.00  0.00     0.000 HD 
HETATM   11  O   UNL     1      -6.230  10.372  66.078  1.00  0.00    -0.090 OA 
BRANCH   9  12
HETATM   12  C   UNL     1      -7.929   9.937  64.493  1.00  0.00    -0.145 C  
HETATM   13  C   UNL     1      -7.788   8.757  63.536  1.00  0.00    -0.149 C  
HETATM   14  C   UNL     1      -6.959   9.981  63.318  1.00  0.00    -0.130 C  
BRANCH  12  15
HETATM   15  C   UNL     1      -9.187  10.806  64.446  1.00  0.00    -0.250 A  
HETATM   16  C   UNL     1     -11.054  11.710  63.106  1.00  0.00    -0.209 A  
HETATM   17  C   UNL     1     -10.004  10.802  63.284  1.00  0.00    -0.369 A  
HETATM   18  C   UNL     1     -11.285  12.617  64.112  1.00  0.00    -0.386 A  
HETATM   19  O   UNL     1     -12.215  13.608  64.091  1.00  0.00    -0.520 OA 
HETATM   20  C   UNL     1     -11.924  14.243  65.342  1.00  0.00    -0.383 C  
HETATM   21  F   UNL     1     -11.528  15.520  65.099  1.00  0.00    -0.328 F  
HETATM   22  F   UNL     1     -13.065  14.302  66.071  1.00  0.00    -0.480 F  
HETATM   23  O   UNL     1     -10.912  13.599  66.127  1.00  0.00    -0.283 OA 
HETATM   24  C   UNL     1     -10.539  12.615  65.266  1.00  0.00    -0.291 A  
HETATM   25  C   UNL     1      -9.502  11.725  65.466  1.00  0.00    -0.185 A  
ENDBRANCH  12  15
ENDBRANCH   9  12
ENDBRANCH   5   8
BRANCH   7  26
HETATM   26  C   UNL     1      -6.995   6.006  70.170  1.00  0.00    -0.069 A  
HETATM   27  C   UNL     1      -6.915   5.055  69.129  1.00  0.00    -0.055 A  
HETATM   28  C   UNL     1      -6.438   4.178  71.717  1.00  0.00    -0.018 A  
HETATM   29  O   UNL     1      -5.359   2.759  73.296  1.00  0.00     0.000 OA 
HETATM   30  C   UNL     1      -6.721   5.532  71.464  1.00  0.00    -0.060 A  
HETATM   31  C   UNL     1      -6.403   3.260  70.666  1.00  0.00    -0.023 A  
HETATM   32  C   UNL     1      -6.237   3.771  73.130  1.00  0.00    -0.012 C  
HETATM   33  O   UNL     1      -6.794   4.326  74.060  1.00  0.00    -0.056 OA 
HETATM   34  C   UNL     1      -6.623   3.705  69.367  1.00  0.00    -0.034 A  
ENDBRANCH   7  26
TORSDOF 4
ENDMDL
MODEL      204
REMARK 921   NORMALIZED FREE ENERGY PREDICTED BY IDOCK:   -3.84 KCAL/MOL
REMARK 922        TOTAL FREE ENERGY PREDICTED BY IDOCK:   -5.88 KCAL/MOL
REMARK 923 INTER-LIGAND FREE ENERGY PREDICTED BY IDOCK:   -6.32 KCAL/MOL
REMARK 924 INTRA-LIGAND FREE ENERGY PREDICTED BY IDOCK:    0.45 KCAL/MOL
REMARK 927      BINDING AFFINITY PREDICTED BY RF-SCORE:    0.00 PKD
ROOT
HETATM    1  C   UNL     1     -10.188   7.059  66.976  1.00  0.00    -0.330 C  
HETATM    2  C   UNL     1     -10.250   8.541  67.210  1.00  0.00    -0.346 A  
HETATM    3  C   UNL     1     -10.603   9.350  66.118  1.00  0.00     0.152 A  
HETATM    4  C   UNL     1     -10.602  10.733  66.237  1.00  0.00    -0.257 A  
HETATM    5  C   UNL     1     -10.234  11.288  67.448  1.00  0.00    -0.188 A  
HETATM    6  N   UNL     1      -9.944  10.532  68.518  1.00  0.00    -0.163 NA 
HETATM    7  C   UNL     1      -9.966   9.172  68.429  1.00  0.00    -0.181 A  
ENDROOT
BRANCH   5   8
HETATM    8  N   UNL     1     -10.165  12.682  67.518  1.00  0.00    -0.213 N  
HETATM    9  C   UNL     1      -9.187  13.454  66.939  1.00  0.00    -0.248 C  
HETATM   10  H   UNL     1     -10.897  13.164  68.040  1.00  0.00     0.000 HD 
HETATM   11  O   UNL     1      -8.236  13.102  66.256  1.00  0.00     0.509 OA 
BRANCH   9  12
HETATM   12  C   UNL     1      -9.362  14.931  67.244  1.00  0.00    -0.210 C  
HETATM   13  C   UNL     1      -9.125  15.939  66.125  1.00  0.00    -0.385 C  
HETATM   14  C   UNL     1      -8.099  15.781  67.199  1.00  0.00    -0.244 C  
BRANCH  12  15
HETATM   15  C   UNL     1     -10.411  15.222  68.319  1.00  0.00    -0.244 A  
HETATM   16  C   UNL     1     -11.528  16.897  69.749  1.00  0.00     0.632 A  
HETATM   17  C   UNL     1     -10.724  16.567  68.653  1.00  0.00    -0.334 A  
HETATM   18  C   UNL     1     -12.026  15.862  70.504  1.00  0.00    -0.333 A  
HETATM   19  O   UNL     1     -12.771  15.988  71.635  1.00  0.00    -0.446 OA 
HETATM   20  C   UNL     1     -12.909  14.608  71.991  1.00  0.00    -0.330 C  
HETATM   21  F   UNL     1     -12.321  14.411  73.200  1.00  0.00    -0.370 F  
HETATM   22  F   UNL     1     -14.228  14.329  72.131  1.00  0.00    -0.482 F  
HETATM   23  O   UNL     1     -12.342  13.680  71.058  1.00  0.00    -0.356 OA 
HETATM   24  C   UNL     1     -11.776  14.551  70.179  1.00  0.00    -0.297 A  
HETATM   25  C   UNL     1     -10.990  14.201  69.098  1.00  0.00    -0.280 A  
ENDBRANCH  12  15
ENDBRANCH   9  12
ENDBRANCH   5   8
BRANCH   7  26
HETATM   26  C   UNL     1      -9.649   8.505  69.725  1.00  0.00    -0.170 A  
HETATM   27  C   UNL     1     -10.444   8.747  70.867  1.00  0.00    -0.278 A  
HETATM   28  C   UNL     1      -8.335   6.962  71.117  1.00  0.00    -0.119 A  
HETATM   29  O   UNL     1      -7.311   5.029  72.057  1.00  0.00    -0.083 OA 
HETATM   30  C   UNL     1      -8.607   7.576  69.882  1.00  0.00    -0.139 A  
HETATM   31  C   UNL     1      -9.121   7.253  72.234  1.00  0.00    -0.152 A  
HETATM   32  C   UNL     1      -7.164   6.052  71.189  1.00  0.00    -0.075 C  
HETATM   33  O   UNL     1      -6.172   6.202  70.500  1.00  0.00    -0.033 OA 
HETATM   34  C   UNL     1     -10.190   8.132  72.102  1.00  0.00    -0.330 A  
ENDBRANCH   7  26
TORSDOF 4
ENDMDL
MODEL      205
REMARK 921   NORMALIZED FREE ENERGY PREDICTED BY IDOCK:   -3.82 KCAL/MOL
REMARK 922        TOTAL FREE ENERGY PREDICTED BY IDOCK:   -5.86 KCAL/MOL
REMARK 923 INTER-LIGAND FREE ENERGY PREDICTED BY IDOCK:   -5.44 KCAL/MOL
REMARK 924 INTRA-LIGAND FREE ENERGY PREDICTED BY IDOCK:   -0.42 KCAL/MOL
REMARK 927      BINDING AFFINITY PREDICTED BY RF-SCORE:    0.00 PKD
ROOT
HETATM    1  C   UNL     1      -8.714   3.547  65.199  1.00  0.00    -0.118 C  
HETATM    2  C   UNL     1      -8.604   4.991  65.594  1.00  0.00    -0.135 A  
HETATM    3  C   UNL     1      -8.342   5.919  64.574  1.00  0.00    -0.069 A  
HETATM    4  C   UNL     1      -8.147   7.261  64.875  1.00  0.00    -0.108 A  
HETATM    5  C   UNL     1      -8.204   7.651  66.199  1.00  0.00    -0.124 A  
HETATM    6  N   UNL     1      -8.504   6.789  67.183  1.00  0.00    -0.120 NA 
HETATM    7  C   UNL     1      -8.727   5.474  66.904  1.00  0.00    -0.112 A  
ENDROOT
BRANCH   5   8
HETATM    8  N   UNL     1      -7.926   8.991  66.483  1.00  0.00    -0.103 N  
HETATM    9  C   UNL     1      -8.814   9.883  67.034  1.00  0.00    -0.134 C  
HETATM   10  H   UNL     1      -6.990   9.334  66.265  1.00  0.00     0.000 HD 
HETATM   11  O   UNL     1      -9.967   9.694  67.394  1.00  0.00    -0.166 OA 
BRANCH   9  12
HETATM   12  C   UNL     1      -8.225  11.276  67.166  1.00  0.00    -0.149 C  
HETATM   13  C   UNL     1      -6.888  11.569  66.491  1.00  0.00    -0.016 C  
HETATM   14  C   UNL     1      -6.938  11.388  67.974  1.00  0.00    -0.069 C  
BRANCH  12  15
HETATM   15  C   UNL     1      -9.273  12.384  67.286  1.00  0.00    -0.187 A  
HETATM   16  C   UNL     1     -11.036  13.721  66.189  1.00  0.00    -0.292 A  
HETATM   17  C   UNL     1     -10.185  12.610  66.221  1.00  0.00    -0.264 A  
HETATM   18  C   UNL     1     -10.970  14.600  67.244  1.00  0.00    -0.317 A  
HETATM   19  O   UNL     1     -11.671  15.759  67.358  1.00  0.00    -0.025 OA 
HETATM   20  C   UNL     1     -11.129  16.252  68.589  1.00  0.00    -0.356 C  
HETATM   21  F   UNL     1     -10.503  17.433  68.346  1.00  0.00    -0.314 F  
HETATM   22  F   UNL     1     -12.153  16.502  69.440  1.00  0.00    -0.078 F  
HETATM   23  O   UNL     1     -10.200  15.374  69.237  1.00  0.00    -0.221 OA 
HETATM   24  C   UNL     1     -10.128  14.383  68.308  1.00  0.00    -0.239 A  
HETATM   25  C   UNL     1      -9.285  13.291  68.364  1.00  0.00    -0.145 A  
ENDBRANCH  12  15
ENDBRANCH   9  12
ENDBRANCH   5   8
BRANCH   7  26
HETATM   26  C   UNL     1      -9.077   4.680  68.117  1.00  0.00    -0.148 A  
HETATM   27  C   UNL     1      -8.719   3.316  68.207  1.00  0.00    -0.137 A  
HETATM   28  C   UNL     1     -10.028   4.452  70.373  1.00  0.00    -0.253 A  
HETATM   29  O   UNL     1     -10.470   4.643  72.705  1.00  0.00    -0.188 OA 
HETATM   30  C   UNL     1      -9.714   5.228  69.243  1.00  0.00    -0.235 A  
HETATM   31  C   UNL     1      -9.690   3.098  70.411  1.00  0.00    -0.099 A  
HETATM   32  C   UNL     1     -10.768   5.114  71.477  1.00  0.00    -0.095 C  
HETATM   33  O   UNL     1     -11.554   6.026  71.287  1.00  0.00    -0.256 OA 
HETATM   34  C   UNL     1      -9.017   2.535  69.334  1.00  0.00    -0.168 A  
ENDBRANCH   7  26
TORSDOF 4
ENDMDL
MODEL      206
REMARK 921   NORMALIZED FREE ENERGY PREDICTED BY IDOCK:   -3.66 KCAL/MOL
REMARK 922        TOTAL FREE ENERGY PREDICTED BY IDOCK:   -5.66 KCAL/MOL
REMARK 923 INTER-LIGAND FREE ENERGY PREDICTED BY IDOCK:   -5.25 KCAL/MOL
REMARK 924 INTRA-LIGAND FREE ENERGY PREDICTED BY IDOCK:   -0.41 KCAL/MOL
REMARK 927      BINDING AFFINITY PREDICTED BY RF-SCORE:    0.00 PKD
ROOT
HETATM    1  C   UNL     1      -6.990   8.748  65.299  1.00  0.00    -0.076 C  
HETATM    2  C   UNL     1      -6.838  10.048  66.035  1.00  0.00    -0.105 A  
HETATM    3  C   UNL     1      -5.776  10.151  66.947  1.00  0.00    -0.050 A  
HETATM    4  C   UNL     1      -5.621  11.291  67.723  1.00  0.00    -0.044 A  
HETATM    5  C   UNL     1      -6.543  12.312  67.582  1.00  0.00    -0.122 A  
HETATM    6  N   UNL     1      -7.534  12.254  66.679  1.00  0.00     0.136 NA 
HETATM    7  C   UNL     1      -7.686  11.155  65.889  1.00  0.00     0.062 A  
ENDROOT
BRANCH   5   8
HETATM    8  N   UNL     1      -6.411  13.415  68.430  1.00  0.00    -0.079 N  
HETATM    9  C   UNL     1      -6.408  13.359  69.802  1.00  0.00    -0.083 C  
HETATM   10  H   UNL     1      -6.307  14.332  67.996  1.00  0.00     0.000 HD 
HETATM   11  O   UNL     1      -6.493  12.381  70.531  1.00  0.00    -0.009 OA 
BRANCH   9  12
HETATM   12  C   UNL     1      -6.303  14.736  70.434  1.00  0.00    -0.135 C  
HETATM   13  C   UNL     1      -5.152  15.009  71.398  1.00  0.00    -0.147 C  
HETATM   14  C   UNL     1      -6.529  14.803  71.940  1.00  0.00     1.014 C  
BRANCH  12  15
HETATM   15  C   UNL     1      -6.841  15.866  69.554  1.00  0.00    -0.192 A  
HETATM   16  C   UNL     1      -6.732  18.248  68.914  1.00  0.00    -0.259 A  
HETATM   17  C   UNL     1      -6.185  17.125  69.545  1.00  0.00    -0.242 A  
HETATM   18  C   UNL     1      -7.942  18.093  68.281  1.00  0.00    -0.295 A  
HETATM   19  O   UNL     1      -8.652  19.077  67.670  1.00  0.00    -0.283 OA 
HETATM   20  C   UNL     1      -9.816  18.337  67.286  1.00  0.00    -0.321 C  
HETATM   21  F   UNL     1     -10.896  18.867  67.918  1.00  0.00    -0.422 F  
HETATM   22  F   UNL     1     -10.008  18.493  65.954  1.00  0.00    -0.324 F  
HETATM   23  O   UNL     1      -9.767  16.934  67.579  1.00  0.00    -0.243 OA 
HETATM   24  C   UNL     1      -8.577  16.875  68.236  1.00  0.00    -0.230 A  
HETATM   25  C   UNL     1      -8.054  15.753  68.847  1.00  0.00    -0.207 A  
ENDBRANCH  12  15
ENDBRANCH   9  12
ENDBRANCH   5   8
BRANCH   7  26
HETATM   26  C   UNL     1      -8.819  11.289  64.928  1.00  0.00     0.094 A  
HETATM   27  C   UNL     1      -8.701  10.795  63.610  1.00  0.00    -0.096 A  
HETATM   28  C   UNL     1     -11.113  11.953  64.342  1.00  0.00    -0.395 A  
HETATM   29  O   UNL     1     -13.483  12.143  64.217  1.00  0.00    -0.708 OA 
HETATM   30  C   UNL     1     -10.064  11.843  65.272  1.00  0.00    -0.290 A  
HETATM   31  C   UNL     1     -10.947  11.486  63.037  1.00  0.00    -0.035 A  
HETATM   32  C   UNL     1     -12.360  12.622  64.791  1.00  0.00    -0.489 C  
HETATM   33  O   UNL     1     -12.367  13.507  65.628  1.00  0.00    -0.425 OA 
HETATM   34  C   UNL     1      -9.744  10.889  62.677  1.00  0.00    -0.250 A  
ENDBRANCH   7  26
TORSDOF 4
ENDMDL
MODEL      207
REMARK 921   NORMALIZED FREE ENERGY PREDICTED BY IDOCK:   -3.64 KCAL/MOL
REMARK 922        TOTAL FREE ENERGY PREDICTED BY IDOCK:   -5.64 KCAL/MOL
REMARK 923 INTER-LIGAND FREE ENERGY PREDICTED BY IDOCK:   -4.73 KCAL/MOL
REMARK 924 INTRA-LIGAND FREE ENERGY PREDICTED BY IDOCK:   -0.91 KCAL/MOL
REMARK 927      BINDING AFFINITY PREDICTED BY RF-SCORE:    0.00 PKD
ROOT
HETATM    1  C   UNL     1      -7.005  11.361  65.580  1.00  0.00     0.596 C  
HETATM    2  C   UNL     1      -7.862  10.487  66.449  1.00  0.00    -0.138 A  
HETATM    3  C   UNL     1      -7.212   9.711  67.422  1.00  0.00    -0.086 A  
HETATM    4  C   UNL     1      -7.929   8.819  68.207  1.00  0.00    -0.106 A  
HETATM    5  C   UNL     1      -9.290   8.707  67.997  1.00  0.00    -0.136 A  
HETATM    6  N   UNL     1      -9.938   9.475  67.108  1.00  0.00    -0.191 NA 
HETATM    7  C   UNL     1      -9.256  10.377  66.348  1.00  0.00    -0.161 A  
ENDROOT
BRANCH   5   8
HETATM    8  N   UNL     1      -9.976   7.745  68.744  1.00  0.00    -0.171 N  
HETATM    9  C   UNL     1     -10.184   7.800  70.101  1.00  0.00    -0.205 C  
HETATM   10  H   UNL     1     -10.351   6.939  68.243  1.00  0.00     0.000 HD 
HETATM   11  O   UNL     1      -9.851   8.669  70.893  1.00  0.00    -0.182 OA 
BRANCH   9  12
HETATM   12  C   UNL     1     -10.914   6.576  70.622  1.00  0.00    -0.340 C  
HETATM   13  C   UNL     1     -12.358   6.347  70.185  1.00  0.00     0.591 C  
HETATM   14  C   UNL     1     -12.079   6.840  71.568  1.00  0.00    -0.410 C  
BRANCH  12  15
HETATM   15  C   UNL     1     -10.003   5.376  70.888  1.00  0.00    -0.265 A  
HETATM   16  C   UNL     1      -9.216   3.662  72.482  1.00  0.00    -0.145 A  
HETATM   17  C   UNL     1     -10.136   4.643  72.097  1.00  0.00    -0.256 A  
HETATM   18  C   UNL     1      -8.163   3.414  71.634  1.00  0.00    -0.065 A  
HETATM   19  O   UNL     1      -7.142   2.546  71.866  1.00  0.00    -0.032 OA 
HETATM   20  C   UNL     1      -6.349   2.785  70.698  1.00  0.00    -0.024 C  
HETATM   21  F   UNL     1      -5.140   3.269  71.086  1.00  0.00     0.000 F  
HETATM   22  F   UNL     1      -6.132   1.601  70.074  1.00  0.00    -0.020 F  
HETATM   23  O   UNL     1      -6.918   3.701  69.754  1.00  0.00    -0.040 OA 
HETATM   24  C   UNL     1      -8.033   4.076  70.437  1.00  0.00    -0.051 A  
HETATM   25  C   UNL     1      -8.932   5.044  70.034  1.00  0.00    -0.146 A  
ENDBRANCH  12  15
ENDBRANCH   9  12
ENDBRANCH   5   8
BRANCH   7  26
HETATM   26  C   UNL     1     -10.148  11.160  65.444  1.00  0.00    -0.317 A  
HETATM   27  C   UNL     1     -10.170  10.896  64.057  1.00  0.00    -0.422 A  
HETATM   28  C   UNL     1     -11.872  12.862  65.022  1.00  0.00    -0.411 A  
HETATM   29  O   UNL     1     -13.903  14.103  64.969  1.00  0.00     0.455 OA 
HETATM   30  C   UNL     1     -11.042  12.143  65.901  1.00  0.00    -0.360 A  
HETATM   31  C   UNL     1     -11.840  12.597  63.652  1.00  0.00    -0.606 A  
HETATM   32  C   UNL     1     -12.725  13.929  65.603  1.00  0.00    -0.495 C  
HETATM   33  O   UNL     1     -12.398  14.570  66.586  1.00  0.00    -0.342 OA 
HETATM   34  C   UNL     1     -11.001  11.598  63.172  1.00  0.00    -0.247 A  
ENDBRANCH   7  26
TORSDOF 4
ENDMDL
MODEL      208
REMARK 921   NORMALIZED FREE ENERGY PREDICTED BY IDOCK:   -3.37 KCAL/MOL
REMARK 922        TOTAL FREE ENERGY PREDICTED BY IDOCK:   -5.30 KCAL/MOL
REMARK 923 INTER-LIGAND FREE ENERGY PREDICTED BY IDOCK:   -4.60 KCAL/MOL
REMARK 924 INTRA-LIGAND FREE ENERGY PREDICTED BY IDOCK:   -0.69 KCAL/MOL
REMARK 927      BINDING AFFINITY PREDICTED BY RF-SCORE:    0.00 PKD
ROOT
HETATM    1  C   UNL     1      -5.971  10.337  63.564  1.00  0.00    -0.142 C  
HETATM    2  C   UNL     1      -6.606   9.218  64.337  1.00  0.00    -0.086 A  
HETATM    3  C   UNL     1      -5.875   8.025  64.460  1.00  0.00    -0.045 A  
HETATM    4  C   UNL     1      -6.430   6.920  65.090  1.00  0.00    -0.043 A  
HETATM    5  C   UNL     1      -7.719   7.021  65.578  1.00  0.00    -0.105 A  
HETATM    6  N   UNL     1      -8.415   8.167  65.517  1.00  0.00    -0.156 NA 
HETATM    7  C   UNL     1      -7.876   9.271  64.927  1.00  0.00    -0.116 A  
ENDROOT
BRANCH   5   8
HETATM    8  N   UNL     1      -8.283   5.871  66.137  1.00  0.00    -0.112 N  
HETATM    9  C   UNL     1      -7.608   4.953  66.905  1.00  0.00    -0.088 C  
HETATM   10  H   UNL     1      -9.273   5.699  65.961  1.00  0.00     0.000 HD 
HETATM   11  O   UNL     1      -6.439   4.963  67.262  1.00  0.00    -0.042 OA 
BRANCH   9  12
HETATM   12  C   UNL     1      -8.488   3.786  67.315  1.00  0.00    -0.103 C  
HETATM   13  C   UNL     1      -8.865   2.752  66.258  1.00  0.00    -0.146 C  
HETATM   14  C   UNL     1      -9.884   3.750  66.704  1.00  0.00    -0.056 C  
BRANCH  12  15
HETATM   15  C   UNL     1      -8.306   3.352  68.770  1.00  0.00    -0.091 A  
HETATM   16  C   UNL     1      -7.680   1.564  70.355  1.00  0.00    -0.035 A  
HETATM   17  C   UNL     1      -7.703   2.100  69.062  1.00  0.00    -0.045 A  
HETATM   18  C   UNL     1      -8.259   2.304  71.357  1.00  0.00    -0.054 A  
HETATM   19  O   UNL     1      -8.387   1.923  72.656  1.00  0.00    -0.053 OA 
HETATM   20  C   UNL     1      -9.120   3.041  73.168  1.00  0.00    -0.089 C  
HETATM   21  F   UNL     1     -10.325   2.602  73.617  1.00  0.00    -0.141 F  
HETATM   22  F   UNL     1      -8.449   3.545  74.233  1.00  0.00    -0.081 F  
HETATM   23  O   UNL     1      -9.348   4.099  72.229  1.00  0.00    -0.118 OA 
HETATM   24  C   UNL     1      -8.811   3.538  71.111  1.00  0.00    -0.082 A  
HETATM   25  C   UNL     1      -8.840   4.089  69.845  1.00  0.00    -0.138 A  
ENDBRANCH  12  15
ENDBRANCH   9  12
ENDBRANCH   5   8
BRANCH   7  26
HETATM   26  C   UNL     1      -8.783  10.454  64.984  1.00  0.00    -0.195 A  
HETATM   27  C   UNL     1      -9.465  10.888  63.825  1.00  0.00    -0.308 A  
HETATM   28  C   UNL     1      -9.923  12.271  66.186  1.00  0.00    -0.260 A  
HETATM   29  O   UNL     1     -11.311  13.531  67.655  1.00  0.00    -0.271 OA 
HETATM   30  C   UNL     1      -9.061  11.160  66.166  1.00  0.00    -0.214 A  
HETATM   31  C   UNL     1     -10.552  12.693  65.013  1.00  0.00    -0.329 A  
HETATM   32  C   UNL     1     -10.088  12.989  67.475  1.00  0.00    -0.218 C  
HETATM   33  O   UNL     1      -9.202  13.054  68.309  1.00  0.00    -0.207 OA 
HETATM   34  C   UNL     1     -10.336  11.987  63.835  1.00  0.00    -0.433 A  
ENDBRANCH   7  26
TORSDOF 4
ENDMDL
MODEL      209
REMARK 921   NORMALIZED FREE ENERGY PREDICTED BY IDOCK:   -3.32 KCAL/MOL
REMARK 922        TOTAL FREE ENERGY PREDICTED BY IDOCK:   -5.24 KCAL/MOL
REMARK 923 INTER-LIGAND FREE ENERGY PREDICTED BY IDOCK:   -4.78 KCAL/MOL
REMARK 924 INTRA-LIGAND FREE ENERGY PREDICTED BY IDOCK:   -0.46 KCAL/MOL
REMARK 927      BINDING AFFINITY PREDICTED BY RF-SCORE:    0.00 PKD
ROOT
HETATM    1  C   UNL     1      -8.277   3.627  64.406  1.00  0.00    -0.090 C  
HETATM    2  C   UNL     1      -8.161   4.965  65.075  1.00  0.00    -0.107 A  
HETATM    3  C   UNL     1      -8.198   6.102  64.251  1.00  0.00    -0.044 A  
HETATM    4  C   UNL     1      -8.015   7.369  64.789  1.00  0.00    -0.127 A  
HETATM    5  C   UNL     1      -7.783   7.478  66.147  1.00  0.00    -0.090 A  
HETATM    6  N   UNL     1      -7.794   6.409  66.958  1.00  0.00    -0.103 NA 
HETATM    7  C   UNL     1      -8.001   5.160  66.454  1.00  0.00    -0.104 A  
ENDROOT
BRANCH   5   8
HETATM    8  N   UNL     1      -7.523   8.755  66.650  1.00  0.00    -0.085 N  
HETATM    9  C   UNL     1      -8.105   9.296  67.771  1.00  0.00    -0.104 C  
HETATM   10  H   UNL     1      -6.848   9.331  66.146  1.00  0.00     0.000 HD 
HETATM   11  O   UNL     1      -8.912   8.790  68.537  1.00  0.00    -0.137 OA 
BRANCH   9  12
HETATM   12  C   UNL     1      -7.654  10.724  68.023  1.00  0.00    -0.092 C  
HETATM   13  C   UNL     1      -6.229  11.115  67.644  1.00  0.00    -0.053 C  
HETATM   14  C   UNL     1      -6.576  10.912  69.083  1.00  0.00    -0.069 C  
BRANCH  12  15
HETATM   15  C   UNL     1      -8.777  11.757  67.919  1.00  0.00    -0.164 A  
HETATM   16  C   UNL     1     -11.037  12.311  67.091  1.00  0.00    -0.330 A  
HETATM   17  C   UNL     1     -10.038  11.377  67.387  1.00  0.00    -0.208 A  
HETATM   18  C   UNL     1     -10.763  13.634  67.345  1.00  0.00    -0.267 A  
HETATM   19  O   UNL     1     -11.581  14.683  67.068  1.00  0.00    -0.362 OA 
HETATM   20  C   UNL     1     -10.736  15.766  67.472  1.00  0.00    -0.317 C  
HETATM   21  F   UNL     1     -10.476  16.542  66.388  1.00  0.00    -0.290 F  
HETATM   22  F   UNL     1     -11.410  16.528  68.367  1.00  0.00    -0.353 F  
HETATM   23  O   UNL     1      -9.486  15.374  68.055  1.00  0.00    -0.199 OA 
HETATM   24  C   UNL     1      -9.569  14.025  67.900  1.00  0.00    -0.221 A  
HETATM   25  C   UNL     1      -8.571  13.121  68.205  1.00  0.00    -0.166 A  
ENDBRANCH  12  15
ENDBRANCH   9  12
ENDBRANCH   5   8
BRANCH   7  26
HETATM   26  C   UNL     1      -8.012   4.107  67.510  1.00  0.00    -0.091 A  
HETATM   27  C   UNL     1      -9.037   3.136  67.540  1.00  0.00    -0.210 A  
HETATM   28  C   UNL     1      -7.044   2.969  69.462  1.00  0.00    -0.041 A  
HETATM   29  O   UNL     1      -5.630   1.738  70.930  1.00  0.00    -0.011 OA 
HETATM   30  C   UNL     1      -7.005   3.975  68.481  1.00  0.00    -0.048 A  
HETATM   31  C   UNL     1      -8.092   2.047  69.482  1.00  0.00    -0.061 A  
HETATM   32  C   UNL     1      -5.968   2.966  70.486  1.00  0.00    -0.018 C  
HETATM   33  O   UNL     1      -5.419   3.985  70.865  1.00  0.00    -0.007 OA 
HETATM   34  C   UNL     1      -9.079   2.120  68.506  1.00  0.00    -0.207 A  
ENDBRANCH   7  26
TORSDOF 4
ENDMDL
MODEL      210
REMARK 921   NORMALIZED FREE ENERGY PREDICTED BY IDOCK:   -3.19 KCAL/MOL
REMARK 922        TOTAL FREE ENERGY PREDICTED BY IDOCK:   -5.07 KCAL/MOL
REMARK 923 INTER-LIGAND FREE ENERGY PREDICTED BY IDOCK:   -5.06 KCAL/MOL
REMARK 924 INTRA-LIGAND FREE ENERGY PREDICTED BY IDOCK:   -0.02 KCAL/MOL
REMARK 927      BINDING AFFINITY PREDICTED BY RF-SCORE:    0.00 PKD
ROOT
HETATM    1  C   UNL     1      -7.606  16.724  65.972  1.00  0.00     0.018 C  
HETATM    2  C   UNL     1      -8.484  15.936  66.900  1.00  0.00    -0.275 A  
HETATM    3  C   UNL     1      -8.734  14.595  66.567  1.00  0.00    -0.115 A  
HETATM    4  C   UNL     1      -9.601  13.828  67.333  1.00  0.00    -0.229 A  
HETATM    5  C   UNL     1     -10.217  14.421  68.419  1.00  0.00    -0.243 A  
HETATM    6  N   UNL     1      -9.953  15.685  68.784  1.00  0.00    -0.206 NA 
HETATM    7  C   UNL     1      -9.083  16.446  68.061  1.00  0.00    -0.200 A  
ENDROOT
BRANCH   5   8
HETATM    8  N   UNL     1     -11.145  13.652  69.126  1.00  0.00    -0.322 N  
HETATM    9  C   UNL     1     -11.547  13.890  70.418  1.00  0.00    -0.108 C  
HETATM   10  H   UNL     1     -11.556  12.851  68.646  1.00  0.00     0.000 HD 
HETATM   11  O   UNL     1     -11.213  14.793  71.172  1.00  0.00    -0.208 OA 
BRANCH   9  12
HETATM   12  C   UNL     1     -12.524  12.842  70.920  1.00  0.00    -0.383 C  
HETATM   13  C   UNL     1     -13.973  13.253  71.162  1.00  0.00     0.849 C  
HETATM   14  C   UNL     1     -13.065  13.047  72.330  1.00  0.00    -0.445 C  
BRANCH  12  15
HETATM   15  C   UNL     1     -12.206  11.422  70.449  1.00  0.00    -0.450 A  
HETATM   16  C   UNL     1     -11.529   9.124  71.049  1.00  0.00    -0.372 A  
HETATM   17  C   UNL     1     -12.006  10.390  71.405  1.00  0.00    -0.379 A  
HETATM   18  C   UNL     1     -11.265   8.897  69.719  1.00  0.00    -0.006 A  
HETATM   19  O   UNL     1     -10.743   7.757  69.195  1.00  0.00    -0.208 OA 
HETATM   20  C   UNL     1     -10.631   8.148  67.822  1.00  0.00    -0.165 C  
HETATM   21  F   UNL     1      -9.319   8.120  67.468  1.00  0.00    -0.139 F  
HETATM   22  F   UNL     1     -11.278   7.234  67.059  1.00  0.00    -0.422 F  
HETATM   23  O   UNL     1     -11.151   9.448  67.517  1.00  0.00    -0.137 OA 
HETATM   24  C   UNL     1     -11.492   9.862  68.767  1.00  0.00     0.100 A  
HETATM   25  C   UNL     1     -11.967  11.117  69.095  1.00  0.00    -0.413 A  
ENDBRANCH  12  15
ENDBRANCH   9  12
ENDBRANCH   5   8
BRANCH   7  26
HETATM   26  C   UNL     1      -8.893  17.808  68.637  1.00  0.00    -0.263 A  
HETATM   27  C   UNL     1      -9.984  18.698  68.745  1.00  0.00    -0.427 A  
HETATM   28  C   UNL     1      -7.522  19.556  69.691  1.00  0.00    -0.000 A  
HETATM   29  O   UNL     1      -6.161  20.811  71.189  1.00  0.00    -0.498 OA 
HETATM   30  C   UNL     1      -7.668  18.266  69.152  1.00  0.00    -0.046 A  
HETATM   31  C   UNL     1      -8.616  20.422  69.748  1.00  0.00     1.313 A  
HETATM   32  C   UNL     1      -6.166  19.964  70.138  1.00  0.00    -0.341 C  
HETATM   33  O   UNL     1      -5.148  19.544  69.618  1.00  0.00    -0.180 OA 
HETATM   34  C   UNL     1      -9.854  19.983  69.291  1.00  0.00    -0.157 A  
ENDBRANCH   7  26
TORSDOF 4
ENDMDL
MODEL      211
REMARK 921   NORMALIZED FREE ENERGY PREDICTED BY IDOCK:   -2.99 KCAL/MOL
REMARK 922        TOTAL FREE ENERGY PREDICTED BY IDOCK:   -4.83 KCAL/MOL
REMARK 923 INTER-LIGAND FREE ENERGY PREDICTED BY IDOCK:   -4.42 KCAL/MOL
REMARK 924 INTRA-LIGAND FREE ENERGY PREDICTED BY IDOCK:   -0.41 KCAL/MOL
REMARK 927      BINDING AFFINITY PREDICTED BY RF-SCORE:    0.00 PKD
ROOT
HETATM    1  C   UNL     1      -9.221  10.690  69.929  1.00  0.00     0.409 C  
HETATM    2  C   UNL     1      -9.097   9.227  69.621  1.00  0.00    -0.173 A  
HETATM    3  C   UNL     1      -8.802   8.366  70.690  1.00  0.00    -0.161 A  
HETATM    4  C   UNL     1      -8.592   7.012  70.469  1.00  0.00    -0.141 A  
HETATM    5  C   UNL     1      -8.670   6.539  69.172  1.00  0.00    -0.129 A  
HETATM    6  N   UNL     1      -9.001   7.335  68.144  1.00  0.00    -0.132 NA 
HETATM    7  C   UNL     1      -9.238   8.662  68.346  1.00  0.00    -0.138 A  
ENDROOT
BRANCH   5   8
HETATM    8  N   UNL     1      -8.377   5.189  68.966  1.00  0.00    -0.087 N  
HETATM    9  C   UNL     1      -9.068   4.137  69.517  1.00  0.00    -0.121 C  
HETATM   10  H   UNL     1      -7.588   4.966  68.358  1.00  0.00     0.000 HD 
HETATM   11  O   UNL     1     -10.049   4.162  70.246  1.00  0.00    -0.160 OA 
BRANCH   9  12
HETATM   12  C   UNL     1      -8.467   2.794  69.144  1.00  0.00    -0.098 C  
HETATM   13  C   UNL     1      -9.016   1.539  69.816  1.00  0.00    -0.128 C  
HETATM   14  C   UNL     1      -7.689   2.078  70.241  1.00  0.00    -0.044 C  
BRANCH  12  15
HETATM   15  C   UNL     1      -7.955   2.721  67.705  1.00  0.00    -0.068 A  
HETATM   16  C   UNL     1      -6.210   3.348  66.074  1.00  0.00    -0.031 A  
HETATM   17  C   UNL     1      -6.659   3.212  67.392  1.00  0.00    -0.037 A  
HETATM   18  C   UNL     1      -7.070   2.975  65.069  1.00  0.00    -0.058 A  
HETATM   19  O   UNL     1      -6.834   3.091  63.735  1.00  0.00    -0.034 OA 
HETATM   20  C   UNL     1      -8.089   2.628  63.224  1.00  0.00    -0.073 C  
HETATM   21  F   UNL     1      -8.675   3.640  62.531  1.00  0.00    -0.079 F  
HETATM   22  F   UNL     1      -7.854   1.620  62.350  1.00  0.00    -0.041 F  
HETATM   23  O   UNL     1      -9.016   2.167  64.215  1.00  0.00    -0.098 OA 
HETATM   24  C   UNL     1      -8.313   2.456  65.344  1.00  0.00    -0.090 A  
HETATM   25  C   UNL     1      -8.775   2.308  66.636  1.00  0.00    -0.128 A  
ENDBRANCH  12  15
ENDBRANCH   9  12
ENDBRANCH   5   8
BRANCH   7  26
HETATM   26  C   UNL     1      -9.624   9.375  67.094  1.00  0.00    -0.202 A  
HETATM   27  C   UNL     1      -9.249   8.859  65.833  1.00  0.00    -0.290 A  
HETATM   28  C   UNL     1     -10.759  11.186  65.878  1.00  0.00    -0.261 A  
HETATM   29  O   UNL     1     -12.386  12.660  64.957  1.00  0.00    -0.467 OA 
HETATM   30  C   UNL     1     -10.410  10.538  67.077  1.00  0.00    -0.289 A  
HETATM   31  C   UNL     1     -10.340  10.666  64.652  1.00  0.00    -0.353 A  
HETATM   32  C   UNL     1     -11.531  12.450  65.979  1.00  0.00    -0.382 C  
HETATM   33  O   UNL     1     -11.421  13.213  66.922  1.00  0.00    -0.309 OA 
HETATM   34  C   UNL     1      -9.601   9.489  64.630  1.00  0.00    -0.026 A  
ENDBRANCH   7  26
TORSDOF 4
ENDMDL
MODEL      212
REMARK 921   NORMALIZED FREE ENERGY PREDICTED BY IDOCK:   -2.87 KCAL/MOL
REMARK 922        TOTAL FREE ENERGY PREDICTED BY IDOCK:   -4.68 KCAL/MOL
REMARK 923 INTER-LIGAND FREE ENERGY PREDICTED BY IDOCK:   -5.22 KCAL/MOL
REMARK 924 INTRA-LIGAND FREE ENERGY PREDICTED BY IDOCK:    0.54 KCAL/MOL
REMARK 927      BINDING AFFINITY PREDICTED BY RF-SCORE:    0.00 PKD
ROOT
HETATM    1  C   UNL     1      -7.442  15.245  66.162  1.00  0.00     2.107 C  
HETATM    2  C   UNL     1      -8.450  14.842  67.199  1.00  0.00    -0.244 A  
HETATM    3  C   UNL     1      -8.674  13.468  67.380  1.00  0.00    -0.220 A  
HETATM    4  C   UNL     1      -9.648  13.022  68.263  1.00  0.00    -0.213 A  
HETATM    5  C   UNL     1     -10.397  13.964  68.944  1.00  0.00    -0.155 A  
HETATM    6  N   UNL     1     -10.164  15.280  68.823  1.00  0.00    -0.220 NA 
HETATM    7  C   UNL     1      -9.193  15.736  67.984  1.00  0.00    -0.188 A  
ENDROOT
BRANCH   5   8
HETATM    8  N   UNL     1     -11.424  13.491  69.765  1.00  0.00    -0.455 N  
HETATM    9  C   UNL     1     -11.866  14.108  70.911  1.00  0.00    -0.223 C  
HETATM   10  H   UNL     1     -11.881  12.621  69.493  1.00  0.00     0.000 HD 
HETATM   11  O   UNL     1     -11.489  15.157  71.412  1.00  0.00    -0.339 OA 
BRANCH   9  12
HETATM   12  C   UNL     1     -12.957  13.315  71.608  1.00  0.00    -0.441 C  
HETATM   13  C   UNL     1     -14.388  13.839  71.550  1.00  0.00     0.157 C  
HETATM   14  C   UNL     1     -13.606  13.981  72.815  1.00  0.00    -0.515 C  
BRANCH  12  15
HETATM   15  C   UNL     1     -12.702  11.807  71.643  1.00  0.00    -0.357 A  
HETATM   16  C   UNL     1     -11.229   9.921  71.030  1.00  0.00    -0.435 A  
HETATM   17  C   UNL     1     -11.454  11.292  71.200  1.00  0.00     0.877 A  
HETATM   18  C   UNL     1     -12.267   9.068  71.319  1.00  0.00    -0.312 A  
HETATM   19  O   UNL     1     -12.256   7.718  71.158  1.00  0.00    -0.308 OA 
HETATM   20  C   UNL     1     -13.603   7.416  71.539  1.00  0.00    -0.370 C  
HETATM   21  F   UNL     1     -14.243   6.869  70.473  1.00  0.00     0.053 F  
HETATM   22  F   UNL     1     -13.574   6.480  72.519  1.00  0.00    -0.010 F  
HETATM   23  O   UNL     1     -14.370   8.536  71.999  1.00  0.00    -0.430 OA 
HETATM   24  C   UNL     1     -13.470   9.535  71.791  1.00  0.00    -0.402 A  
HETATM   25  C   UNL     1     -13.713  10.882  71.972  1.00  0.00     0.021 A  
ENDBRANCH  12  15
ENDBRANCH   9  12
ENDBRANCH   5   8
BRANCH   7  26
HETATM   26  C   UNL     1      -9.061  17.221  68.009  1.00  0.00    -0.249 A  
HETATM   27  C   UNL     1      -9.740  17.983  68.985  1.00  0.00    -0.208 A  
HETATM   28  C   UNL     1      -8.129  19.341  67.181  1.00  0.00    -0.290 A  
HETATM   29  O   UNL     1      -6.671  21.128  66.587  1.00  0.00    -0.284 OA 
HETATM   30  C   UNL     1      -8.233  17.940  67.130  1.00  0.00    -0.228 A  
HETATM   31  C   UNL     1      -8.844  20.064  68.138  1.00  0.00    -0.243 A  
HETATM   32  C   UNL     1      -7.283  20.005  66.157  1.00  0.00    -0.289 C  
HETATM   33  O   UNL     1      -7.133  19.554  65.035  1.00  0.00    -0.378 OA 
HETATM   34  C   UNL     1      -9.635  19.380  69.054  1.00  0.00    -0.432 A  
ENDBRANCH   7  26
TORSDOF 4
ENDMDL
MODEL      213
REMARK 921   NORMALIZED FREE ENERGY PREDICTED BY IDOCK:   -2.75 KCAL/MOL
REMARK 922        TOTAL FREE ENERGY PREDICTED BY IDOCK:   -4.54 KCAL/MOL
REMARK 923 INTER-LIGAND FREE ENERGY PREDICTED BY IDOCK:   -4.25 KCAL/MOL
REMARK 924 INTRA-LIGAND FREE ENERGY PREDICTED BY IDOCK:   -0.29 KCAL/MOL
REMARK 927      BINDING AFFINITY PREDICTED BY RF-SCORE:    0.00 PKD
ROOT
HETATM    1  C   UNL     1     -10.880   8.886  66.011  1.00  0.00     1.473 C  
HETATM    2  C   UNL     1     -10.007   9.848  66.762  1.00  0.00    -0.272 A  
HETATM    3  C   UNL     1     -10.108  11.207  66.425  1.00  0.00    -0.269 A  
HETATM    4  C   UNL     1      -9.275  12.146  67.018  1.00  0.00    -0.202 A  
HETATM    5  C   UNL     1      -8.341  11.705  67.937  1.00  0.00    -0.143 A  
HETATM    6  N   UNL     1      -8.263  10.419  68.311  1.00  0.00    -0.111 NA 
HETATM    7  C   UNL     1      -9.091   9.488  67.760  1.00  0.00    -0.125 A  
ENDROOT
BRANCH   5   8
HETATM    8  N   UNL     1      -7.462  12.657  68.461  1.00  0.00    -0.121 N  
HETATM    9  C   UNL     1      -7.686  14.013  68.481  1.00  0.00    -0.139 C  
HETATM   10  H   UNL     1      -6.586  12.319  68.860  1.00  0.00     0.000 HD 
HETATM   11  O   UNL     1      -8.661  14.635  68.086  1.00  0.00    -0.156 OA 
BRANCH   9  12
HETATM   12  C   UNL     1      -6.516  14.782  69.067  1.00  0.00    -0.096 C  
HETATM   13  C   UNL     1      -5.213  14.033  69.335  1.00  0.00    -0.082 C  
HETATM   14  C   UNL     1      -6.099  14.397  70.481  1.00  0.00    -0.185 C  
BRANCH  12  15
HETATM   15  C   UNL     1      -6.474  16.255  68.658  1.00  0.00    -0.126 A  
HETATM   16  C   UNL     1      -6.661  18.620  69.344  1.00  0.00    -0.248 A  
HETATM   17  C   UNL     1      -6.505  17.265  69.656  1.00  0.00    -0.165 A  
HETATM   18  C   UNL     1      -6.774  18.956  68.016  1.00  0.00    -0.228 A  
HETATM   19  O   UNL     1      -6.990  20.205  67.527  1.00  0.00    -0.243 OA 
HETATM   20  C   UNL     1      -7.091  19.906  66.130  1.00  0.00    -0.269 C  
HETATM   21  F   UNL     1      -8.335  20.246  65.701  1.00  0.00    -0.287 F  
HETATM   22  F   UNL     1      -6.205  20.681  65.458  1.00  0.00    -0.227 F  
HETATM   23  O   UNL     1      -6.854  18.535  65.784  1.00  0.00    -0.263 OA 
HETATM   24  C   UNL     1      -6.703  18.004  67.027  1.00  0.00    -0.180 A  
HETATM   25  C   UNL     1      -6.545  16.662  67.311  1.00  0.00    -0.213 A  
ENDBRANCH  12  15
ENDBRANCH   9  12
ENDBRANCH   5   8
BRANCH   7  26
HETATM   26  C   UNL     1      -8.878   8.123  68.323  1.00  0.00    -0.133 A  
HETATM   27  C   UNL     1      -7.957   7.237  67.722  1.00  0.00    -0.115 A  
HETATM   28  C   UNL     1      -9.290   6.367  69.994  1.00  0.00    -0.162 A  
HETATM   29  O   UNL     1      -9.417   5.103  72.008  1.00  0.00    -0.145 OA 
HETATM   30  C   UNL     1      -9.513   7.659  69.487  1.00  0.00    -0.152 A  
HETATM   31  C   UNL     1      -8.398   5.505  69.351  1.00  0.00    -0.101 A  
HETATM   32  C   UNL     1     -10.069   5.952  71.187  1.00  0.00    -0.198 C  
HETATM   33  O   UNL     1     -11.190   6.370  71.417  1.00  0.00    -0.264 OA 
HETATM   34  C   UNL     1      -7.716   5.950  68.225  1.00  0.00    -0.101 A  
ENDBRANCH   7  26
TORSDOF 4
ENDMDL
MODEL      214
REMARK 921   NORMALIZED FREE ENERGY PREDICTED BY IDOCK:   -1.97 KCAL/MOL
REMARK 922        TOTAL FREE ENERGY PREDICTED BY IDOCK:   -3.58 KCAL/MOL
REMARK 923 INTER-LIGAND FREE ENERGY PREDICTED BY IDOCK:   -2.84 KCAL/MOL
REMARK 924 INTRA-LIGAND FREE ENERGY PREDICTED BY IDOCK:   -0.74 KCAL/MOL
REMARK 927      BINDING AFFINITY PREDICTED BY RF-SCORE:    0.00 PKD
ROOT
HETATM    1  C   UNL     1      -8.865  10.848  70.169  1.00  0.00     1.412 C  
HETATM    2  C   UNL     1      -8.778   9.396  69.797  1.00  0.00    -0.189 A  
HETATM    3  C   UNL     1      -8.425   8.491  70.810  1.00  0.00    -0.166 A  
HETATM    4  C   UNL     1      -8.246   7.145  70.523  1.00  0.00    -0.125 A  
HETATM    5  C   UNL     1      -8.412   6.726  69.216  1.00  0.00    -0.129 A  
HETATM    6  N   UNL     1      -8.798   7.565  68.244  1.00  0.00    -0.126 NA 
HETATM    7  C   UNL     1      -9.006   8.885  68.512  1.00  0.00    -0.134 A  
ENDROOT
BRANCH   5   8
HETATM    8  N   UNL     1      -8.148   5.381  68.939  1.00  0.00    -0.093 N  
HETATM    9  C   UNL     1      -8.997   4.337  69.214  1.00  0.00    -0.102 C  
HETATM   10  H   UNL     1      -7.256   5.158  68.496  1.00  0.00     0.000 HD 
HETATM   11  O   UNL     1     -10.113   4.367  69.712  1.00  0.00    -0.214 OA 
BRANCH   9  12
HETATM   12  C   UNL     1      -8.397   2.993  68.842  1.00  0.00    -0.083 C  
HETATM   13  C   UNL     1      -9.185   1.728  69.170  1.00  0.00    -0.188 C  
HETATM   14  C   UNL     1      -7.999   2.090  70.003  1.00  0.00    -0.053 C  
BRANCH  12  15
HETATM   15  C   UNL     1      -7.509   3.033  67.597  1.00  0.00    -0.057 A  
HETATM   16  C   UNL     1      -5.331   3.636  66.603  1.00  0.00    -0.013 A  
HETATM   17  C   UNL     1      -6.142   3.398  67.718  1.00  0.00    -0.028 A  
HETATM   18  C   UNL     1      -5.902   3.494  65.361  1.00  0.00    -0.019 A  
HETATM   19  O   UNL     1      -5.293   3.740  64.171  1.00  0.00    -0.008 OA 
HETATM   20  C   UNL     1      -6.388   3.497  63.281  1.00  0.00    -0.022 C  
HETATM   21  F   UNL     1      -6.670   4.648  62.616  1.00  0.00    -0.027 F  
HETATM   22  F   UNL     1      -6.001   2.580  62.361  1.00  0.00    -0.007 F  
HETATM   23  O   UNL     1      -7.590   3.034  63.910  1.00  0.00    -0.065 OA 
HETATM   24  C   UNL     1      -7.211   3.099  65.214  1.00  0.00    -0.067 A  
HETATM   25  C   UNL     1      -8.028   2.853  66.300  1.00  0.00    -0.082 A  
ENDBRANCH  12  15
ENDBRANCH   9  12
ENDBRANCH   5   8
BRANCH   7  26
HETATM   26  C   UNL     1      -9.462   9.650  67.316  1.00  0.00    -0.175 A  
HETATM   27  C   UNL     1     -10.396  10.701  67.453  1.00  0.00    -0.262 A  
HETATM   28  C   UNL     1      -9.417  10.169  64.913  1.00  0.00    -0.349 A  
HETATM   29  O   UNL     1      -8.761  10.840  62.724  1.00  0.00    -0.208 OA 
HETATM   30  C   UNL     1      -8.967   9.428  66.020  1.00  0.00    -0.205 A  
HETATM   31  C   UNL     1     -10.368  11.177  65.082  1.00  0.00    -0.354 A  
HETATM   32  C   UNL     1      -8.882   9.801  63.577  1.00  0.00    -0.241 C  
HETATM   33  O   UNL     1      -8.554   8.664  63.291  1.00  0.00    -0.136 OA 
HETATM   34  C   UNL     1     -10.843  11.455  66.358  1.00  0.00    -0.323 A  
ENDBRANCH   7  26
TORSDOF 4
ENDMDL
MODEL      215
REMARK 921   NORMALIZED FREE ENERGY PREDICTED BY IDOCK:   -1.37 KCAL/MOL
REMARK 922        TOTAL FREE ENERGY PREDICTED BY IDOCK:   -2.83 KCAL/MOL
REMARK 923 INTER-LIGAND FREE ENERGY PREDICTED BY IDOCK:   -1.86 KCAL/MOL
REMARK 924 INTRA-LIGAND FREE ENERGY PREDICTED BY IDOCK:   -0.97 KCAL/MOL
REMARK 927      BINDING AFFINITY PREDICTED BY RF-SCORE:    0.00 PKD
ROOT
HETATM    1  C   UNL     1     -10.724   5.622  72.577  1.00  0.00    -0.285 C  
HETATM    2  C   UNL     1     -10.172   6.708  71.701  1.00  0.00    -0.212 A  
HETATM    3  C   UNL     1     -10.424   8.035  72.083  1.00  0.00    -0.329 A  
HETATM    4  C   UNL     1     -10.015   9.090  71.279  1.00  0.00    -0.381 A  
HETATM    5  C   UNL     1      -9.367   8.799  70.093  1.00  0.00    -0.169 A  
HETATM    6  N   UNL     1      -9.071   7.540  69.735  1.00  0.00    -0.141 NA 
HETATM    7  C   UNL     1      -9.439   6.492  70.525  1.00  0.00    -0.166 A  
ENDROOT
BRANCH   5   8
HETATM    8  N   UNL     1      -9.036   9.875  69.265  1.00  0.00    -0.166 N  
HETATM    9  C   UNL     1      -9.464  10.035  67.970  1.00  0.00    -0.137 C  
HETATM   10  H   UNL     1      -8.429  10.598  69.653  1.00  0.00     0.000 HD 
HETATM   11  O   UNL     1     -10.206   9.319  67.313  1.00  0.00    -0.216 OA 
BRANCH   9  12
HETATM   12  C   UNL     1      -8.885  11.279  67.321  1.00  0.00    -0.150 C  
HETATM   13  C   UNL     1      -9.233  11.570  65.864  1.00  0.00    -0.223 C  
HETATM   14  C   UNL     1      -7.876  11.046  66.203  1.00  0.00    -0.117 C  
BRANCH  12  15
HETATM   15  C   UNL     1      -8.658  12.438  68.293  1.00  0.00    -0.172 A  
HETATM   16  C   UNL     1      -9.585  14.427  69.426  1.00  0.00     0.210 A  
HETATM   17  C   UNL     1      -9.755  13.246  68.695  1.00  0.00    -0.074 A  
HETATM   18  C   UNL     1      -8.301  14.787  69.759  1.00  0.00     0.268 A  
HETATM   19  O   UNL     1      -7.937  15.924  70.409  1.00  0.00     0.936 OA 
HETATM   20  C   UNL     1      -6.513  15.770  70.390  1.00  0.00     0.219 C  
HETATM   21  F   UNL     1      -5.975  16.797  69.681  1.00  0.00    -0.167 F  
HETATM   22  F   UNL     1      -6.052  15.868  71.660  1.00  0.00     0.572 F  
HETATM   23  O   UNL     1      -6.043  14.539  69.826  1.00  0.00    -0.111 OA 
HETATM   24  C   UNL     1      -7.225  14.002  69.421  1.00  0.00     0.030 A  
HETATM   25  C   UNL     1      -7.369  12.830  68.706  1.00  0.00    -0.067 A  
ENDBRANCH  12  15
ENDBRANCH   9  12
ENDBRANCH   5   8
BRANCH   7  26
HETATM   26  C   UNL     1      -8.995   5.177  69.980  1.00  0.00    -0.153 A  
HETATM   27  C   UNL     1      -8.140   4.343  70.734  1.00  0.00    -0.071 A  
HETATM   28  C   UNL     1      -8.992   3.419  68.261  1.00  0.00    -0.184 A  
HETATM   29  O   UNL     1      -9.615   1.676  66.763  1.00  0.00     0.143 OA 
HETATM   30  C   UNL     1      -9.428   4.665  68.745  1.00  0.00    -0.214 A  
HETATM   31  C   UNL     1      -8.118   2.638  69.019  1.00  0.00    -0.066 A  
HETATM   32  C   UNL     1      -9.453   3.008  66.911  1.00  0.00    -0.045 C  
HETATM   33  O   UNL     1      -9.692   3.809  66.025  1.00  0.00    -0.183 OA 
HETATM   34  C   UNL     1      -7.708   3.093  70.266  1.00  0.00    -0.043 A  
ENDBRANCH   7  26
TORSDOF 4
ENDMDL
MODEL      216
REMARK 921   NORMALIZED FREE ENERGY PREDICTED BY IDOCK:   -0.74 KCAL/MOL
REMARK 922        TOTAL FREE ENERGY PREDICTED BY IDOCK:   -2.06 KCAL/MOL
REMARK 923 INTER-LIGAND FREE ENERGY PREDICTED BY IDOCK:   -1.56 KCAL/MOL
REMARK 924 INTRA-LIGAND FREE ENERGY PREDICTED BY IDOCK:   -0.50 KCAL/MOL
REMARK 927      BINDING AFFINITY PREDICTED BY RF-SCORE:    0.00 PKD
ROOT
HETATM    1  C   UNL     1      -5.603  12.543  66.180  1.00  0.00     2.223 C  
HETATM    2  C   UNL     1      -6.163  11.414  66.995  1.00  0.00    -0.123 A  
HETATM    3  C   UNL     1      -5.516  10.172  66.905  1.00  0.00    -0.045 A  
HETATM    4  C   UNL     1      -6.024   9.062  67.566  1.00  0.00    -0.050 A  
HETATM    5  C   UNL     1      -7.185   9.211  68.301  1.00  0.00    -0.078 A  
HETATM    6  N   UNL     1      -7.790  10.400  68.442  1.00  0.00    -0.100 NA 
HETATM    7  C   UNL     1      -7.291  11.507  67.824  1.00  0.00    -0.096 A  
ENDROOT
BRANCH   5   8
HETATM    8  N   UNL     1      -7.720   8.062  68.891  1.00  0.00    -0.103 N  
HETATM    9  C   UNL     1      -7.458   7.637  70.171  1.00  0.00    -0.084 C  
HETATM   10  H   UNL     1      -8.354   7.495  68.328  1.00  0.00     0.000 HD 
HETATM   11  O   UNL     1      -6.758   8.161  71.025  1.00  0.00    -0.040 OA 
BRANCH   9  12
HETATM   12  C   UNL     1      -8.148   6.324  70.494  1.00  0.00    -0.113 C  
HETATM   13  C   UNL     1      -9.107   6.278  71.680  1.00  0.00    -0.145 C  
HETATM   14  C   UNL     1      -7.752   5.662  71.809  1.00  0.00    -0.101 C  
BRANCH  12  15
HETATM   15  C   UNL     1      -8.409   5.442  69.272  1.00  0.00    -0.096 A  
HETATM   16  C   UNL     1      -9.690   3.582  68.272  1.00  0.00    -0.061 A  
HETATM   17  C   UNL     1      -9.509   4.543  69.273  1.00  0.00    -0.242 A  
HETATM   18  C   UNL     1      -8.760   3.538  67.261  1.00  0.00    -0.118 A  
HETATM   19  O   UNL     1      -8.736   2.639  66.241  1.00  0.00    -0.114 OA 
HETATM   20  C   UNL     1      -7.527   3.044  65.587  1.00  0.00    -0.073 C  
HETATM   21  F   UNL     1      -6.643   2.013  65.632  1.00  0.00    -0.022 F  
HETATM   22  F   UNL     1      -7.803   3.287  64.283  1.00  0.00    -0.076 F  
HETATM   23  O   UNL     1      -6.895   4.203  66.145  1.00  0.00    -0.052 OA 
HETATM   24  C   UNL     1      -7.710   4.424  67.211  1.00  0.00    -0.089 A  
HETATM   25  C   UNL     1      -7.516   5.384  68.184  1.00  0.00    -0.076 A  
ENDBRANCH  12  15
ENDBRANCH   9  12
ENDBRANCH   5   8
BRANCH   7  26
HETATM   26  C   UNL     1      -8.077  12.738  68.124  1.00  0.00    -0.158 A  
HETATM   27  C   UNL     1      -7.435  13.892  68.627  1.00  0.00    -0.122 A  
HETATM   28  C   UNL     1     -10.168  14.031  68.172  1.00  0.00    -0.243 A  
HETATM   29  O   UNL     1     -12.146  15.213  67.574  1.00  0.00    -0.113 OA 
HETATM   30  C   UNL     1      -9.455  12.855  67.879  1.00  0.00    -0.208 A  
HETATM   31  C   UNL     1      -9.505  15.140  68.702  1.00  0.00    -0.206 A  
HETATM   32  C   UNL     1     -11.635  14.021  67.944  1.00  0.00    -0.343 C  
HETATM   33  O   UNL     1     -12.309  13.012  68.053  1.00  0.00    -0.116 OA 
HETATM   34  C   UNL     1      -8.133  15.075  68.911  1.00  0.00    -0.176 A  
ENDBRANCH   7  26
TORSDOF 4
ENDMDL
MODEL      217
REMARK 921   NORMALIZED FREE ENERGY PREDICTED BY IDOCK:   -0.36 KCAL/MOL
REMARK 922        TOTAL FREE ENERGY PREDICTED BY IDOCK:   -1.59 KCAL/MOL
REMARK 923 INTER-LIGAND FREE ENERGY PREDICTED BY IDOCK:   -1.05 KCAL/MOL
REMARK 924 INTRA-LIGAND FREE ENERGY PREDICTED BY IDOCK:   -0.54 KCAL/MOL
REMARK 927      BINDING AFFINITY PREDICTED BY RF-SCORE:    0.00 PKD
ROOT
HETATM    1  C   UNL     1      -7.946   8.380  65.088  1.00  0.00    -0.136 C  
HETATM    2  C   UNL     1      -7.620   9.700  65.724  1.00  0.00    -0.103 A  
HETATM    3  C   UNL     1      -6.492   9.752  66.558  1.00  0.00    -0.071 A  
HETATM    4  C   UNL     1      -6.175  10.916  67.245  1.00  0.00    -0.064 A  
HETATM    5  C   UNL     1      -7.004  12.012  67.095  1.00  0.00    -0.134 A  
HETATM    6  N   UNL     1      -8.057  11.999  66.264  1.00  0.00     0.154 NA 
HETATM    7  C   UNL     1      -8.368  10.874  65.560  1.00  0.00    -0.079 A  
ENDROOT
BRANCH   5   8
HETATM    8  N   UNL     1      -6.709  13.145  67.858  1.00  0.00    -0.120 N  
HETATM    9  C   UNL     1      -6.698  13.192  69.230  1.00  0.00    -0.061 C  
HETATM   10  H   UNL     1      -6.483  14.004  67.356  1.00  0.00     0.000 HD 
HETATM   11  O   UNL     1      -6.910  12.293  70.031  1.00  0.00     0.169 OA 
BRANCH   9  12
HETATM   12  C   UNL     1      -6.394  14.583  69.757  1.00  0.00    -0.148 C  
HETATM   13  C   UNL     1      -5.222  14.758  70.718  1.00  0.00    -0.129 C  
HETATM   14  C   UNL     1      -6.618  14.802  71.248  1.00  0.00     0.671 C  
BRANCH  12  15
HETATM   15  C   UNL     1      -6.751  15.708  68.783  1.00  0.00    -0.116 A  
HETATM   16  C   UNL     1      -8.483  16.819  67.417  1.00  0.00    -0.203 A  
HETATM   17  C   UNL     1      -8.109  15.939  68.439  1.00  0.00    -0.149 A  
HETATM   18  C   UNL     1      -7.478  17.476  66.748  1.00  0.00    -0.219 A  
HETATM   19  O   UNL     1      -7.642  18.317  65.693  1.00  0.00    -0.532 OA 
HETATM   20  C   UNL     1      -6.271  18.606  65.395  1.00  0.00    -0.279 C  
HETATM   21  F   UNL     1      -5.996  18.161  64.141  1.00  0.00     0.101 F  
HETATM   22  F   UNL     1      -6.104  19.951  65.395  1.00  0.00    -0.180 F  
HETATM   23  O   UNL     1      -5.319  18.027  66.297  1.00  0.00    -0.140 OA 
HETATM   24  C   UNL     1      -6.157  17.304  67.088  1.00  0.00    -0.152 A  
HETATM   25  C   UNL     1      -5.766  16.446  68.097  1.00  0.00    -0.113 A  
ENDBRANCH  12  15
ENDBRANCH   9  12
ENDBRANCH   5   8
BRANCH   7  26
HETATM   26  C   UNL     1      -9.548  11.061  64.667  1.00  0.00    -0.297 A  
HETATM   27  C   UNL     1      -9.615  10.397  63.422  1.00  0.00    -0.361 A  
HETATM   28  C   UNL     1     -11.764  11.993  64.150  1.00  0.00    -0.457 A  
HETATM   29  O   UNL     1     -14.084  12.529  64.157  1.00  0.00     1.332 OA 
HETATM   30  C   UNL     1     -10.665  11.838  65.014  1.00  0.00    -0.344 A  
HETATM   31  C   UNL     1     -11.779  11.349  62.912  1.00  0.00     0.551 A  
HETATM   32  C   UNL     1     -12.858  12.897  64.586  1.00  0.00    -0.246 C  
HETATM   33  O   UNL     1     -12.666  13.868  65.295  1.00  0.00    -0.597 OA 
HETATM   34  C   UNL     1     -10.710  10.534  62.557  1.00  0.00     1.401 A  
ENDBRANCH   7  26
TORSDOF 4
ENDMDL
MODEL      218
REMARK 921   NORMALIZED FREE ENERGY PREDICTED BY IDOCK:    0.02 KCAL/MOL
REMARK 922        TOTAL FREE ENERGY PREDICTED BY IDOCK:   -1.11 KCAL/MOL
REMARK 923 INTER-LIGAND FREE ENERGY PREDICTED BY IDOCK:   -0.19 KCAL/MOL
REMARK 924 INTRA-LIGAND FREE ENERGY PREDICTED BY IDOCK:   -0.93 KCAL/MOL
REMARK 927      BINDING AFFINITY PREDICTED BY RF-SCORE:    0.00 PKD
ROOT
HETATM    1  C   UNL     1      -6.249  18.014  69.910  1.00  0.00    -0.105 C  
HETATM    2  C   UNL     1      -7.114  16.907  69.380  1.00  0.00    -0.126 A  
HETATM    3  C   UNL     1      -7.749  16.080  70.320  1.00  0.00     1.253 A  
HETATM    4  C   UNL     1      -8.498  14.987  69.906  1.00  0.00     0.256 A  
HETATM    5  C   UNL     1      -8.590  14.730  68.550  1.00  0.00    -0.168 A  
HETATM    6  N   UNL     1      -8.033  15.537  67.635  1.00  0.00    -0.140 NA 
HETATM    7  C   UNL     1      -7.317  16.631  68.021  1.00  0.00    -0.156 A  
ENDROOT
BRANCH   5   8
HETATM    8  N   UNL     1      -9.283  13.580  68.163  1.00  0.00    -0.204 N  
HETATM    9  C   UNL     1     -10.563  13.263  68.546  1.00  0.00    -0.256 C  
HETATM   10  H   UNL     1      -8.800  12.924  67.548  1.00  0.00     0.000 HD 
HETATM   11  O   UNL     1     -11.334  13.900  69.249  1.00  0.00    -0.253 OA 
BRANCH   9  12
HETATM   12  C   UNL     1     -11.011  11.919  68.002  1.00  0.00    -0.271 C  
HETATM   13  C   UNL     1     -11.063  11.725  66.489  1.00  0.00    -0.364 C  
HETATM   14  C   UNL     1     -12.337  11.905  67.250  1.00  0.00     0.910 C  
BRANCH  12  15
HETATM   15  C   UNL     1     -10.662  10.735  68.907  1.00  0.00    -0.259 A  
HETATM   16  C   UNL     1      -9.618   8.508  69.124  1.00  0.00    -0.167 A  
HETATM   17  C   UNL     1      -9.820   9.700  68.420  1.00  0.00    -0.170 A  
HETATM   18  C   UNL     1     -10.263   8.367  70.330  1.00  0.00    -0.196 A  
HETATM   19  O   UNL     1     -10.237   7.263  71.122  1.00  0.00    -0.192 OA 
HETATM   20  C   UNL     1     -11.132   7.683  72.157  1.00  0.00    -0.267 C  
HETATM   21  F   UNL     1     -12.205   6.849  72.170  1.00  0.00    -0.318 F  
HETATM   22  F   UNL     1     -10.503   7.554  73.351  1.00  0.00    -0.322 F  
HETATM   23  O   UNL     1     -11.610   9.029  72.037  1.00  0.00    -0.361 OA 
HETATM   24  C   UNL     1     -11.049   9.370  70.845  1.00  0.00    -0.319 A  
HETATM   25  C   UNL     1     -11.257  10.557  70.171  1.00  0.00    -0.389 A  
ENDBRANCH  12  15
ENDBRANCH   9  12
ENDBRANCH   5   8
BRANCH   7  26
HETATM   26  C   UNL     1      -6.805  17.422  66.865  1.00  0.00    -0.228 A  
HETATM   27  C   UNL     1      -5.644  17.009  66.175  1.00  0.00     0.228 A  
HETATM   28  C   UNL     1      -6.944  19.285  65.266  1.00  0.00    -0.106 A  
HETATM   29  O   UNL     1      -7.620  20.777  63.538  1.00  0.00     0.766 OA 
HETATM   30  C   UNL     1      -7.452  18.562  66.360  1.00  0.00    -0.279 A  
HETATM   31  C   UNL     1      -5.773  18.867  64.631  1.00  0.00    -0.300 A  
HETATM   32  C   UNL     1      -7.667  20.517  64.861  1.00  0.00     0.771 C  
HETATM   33  O   UNL     1      -8.275  21.213  65.655  1.00  0.00     1.163 OA 
HETATM   34  C   UNL     1      -5.134  17.715  65.075  1.00  0.00     0.382 A  
ENDBRANCH   7  26
TORSDOF 4
ENDMDL
MODEL      219
REMARK 921   NORMALIZED FREE ENERGY PREDICTED BY IDOCK:    0.95 KCAL/MOL
REMARK 922        TOTAL FREE ENERGY PREDICTED BY IDOCK:    0.03 KCAL/MOL
REMARK 923 INTER-LIGAND FREE ENERGY PREDICTED BY IDOCK:    0.29 KCAL/MOL
REMARK 924 INTRA-LIGAND FREE ENERGY PREDICTED BY IDOCK:   -0.26 KCAL/MOL
REMARK 927      BINDING AFFINITY PREDICTED BY RF-SCORE:    0.00 PKD
ROOT
HETATM    1  C   UNL     1      -6.247  18.012  69.908  1.00  0.00    -0.105 C  
HETATM    2  C   UNL     1      -7.085  16.906  69.337  1.00  0.00    -0.126 A  
HETATM    3  C   UNL     1      -7.699  16.028  70.244  1.00  0.00     1.253 A  
HETATM    4  C   UNL     1      -8.422  14.934  69.788  1.00  0.00     0.184 A  
HETATM    5  C   UNL     1      -8.510  14.728  68.424  1.00  0.00    -0.157 A  
HETATM    6  N   UNL     1      -7.974  15.583  67.540  1.00  0.00    -0.153 NA 
HETATM    7  C   UNL     1      -7.285  16.678  67.968  1.00  0.00    -0.155 A  
ENDROOT
BRANCH   5   8
HETATM    8  N   UNL     1      -9.176  13.577  67.993  1.00  0.00    -0.202 N  
HETATM    9  C   UNL     1     -10.275  13.025  68.605  1.00  0.00    -0.164 C  
HETATM   10  H   UNL     1      -8.817  13.111  67.159  1.00  0.00     0.000 HD 
HETATM   11  O   UNL     1     -10.884  13.419  69.589  1.00  0.00     0.030 OA 
BRANCH   9  12
HETATM   12  C   UNL     1     -10.730  11.746  67.926  1.00  0.00    -0.241 C  
HETATM   13  C   UNL     1     -12.177  11.298  68.111  1.00  0.00     0.256 C  
HETATM   14  C   UNL     1     -11.089  10.587  68.848  1.00  0.00    -0.312 C  
BRANCH  12  15
HETATM   15  C   UNL     1     -10.006  11.449  66.612  1.00  0.00    -0.239 A  
HETATM   16  C   UNL     1     -10.171  10.791  64.238  1.00  0.00    -0.422 A  
HETATM   17  C   UNL     1     -10.756  11.249  65.423  1.00  0.00    -0.291 A  
HETATM   18  C   UNL     1      -8.819  10.542  64.253  1.00  0.00    -0.197 A  
HETATM   19  O   UNL     1      -8.090  10.038  63.222  1.00  0.00    -0.145 OA 
HETATM   20  C   UNL     1      -6.810   9.936  63.855  1.00  0.00    -0.125 C  
HETATM   21  F   UNL     1      -6.441   8.628  63.879  1.00  0.00    -0.074 F  
HETATM   22  F   UNL     1      -5.901  10.600  63.100  1.00  0.00    -0.138 F  
HETATM   23  O   UNL     1      -6.752  10.445  65.193  1.00  0.00    -0.126 OA 
HETATM   24  C   UNL     1      -8.060  10.768  65.377  1.00  0.00    -0.050 A  
HETATM   25  C   UNL     1      -8.616  11.226  66.555  1.00  0.00    -0.170 A  
ENDBRANCH  12  15
ENDBRANCH   9  12
ENDBRANCH   5   8
BRANCH   7  26
HETATM   26  C   UNL     1      -6.794  17.525  66.843  1.00  0.00    -0.220 A  
HETATM   27  C   UNL     1      -5.624  17.167  66.136  1.00  0.00     0.054 A  
HETATM   28  C   UNL     1      -6.981  19.445  65.318  1.00  0.00    -0.134 A  
HETATM   29  O   UNL     1      -7.695  20.987  63.650  1.00  0.00     0.805 OA 
HETATM   30  C   UNL     1      -7.469  18.668  66.383  1.00  0.00    -0.275 A  
HETATM   31  C   UNL     1      -5.801  19.080  64.666  1.00  0.00    -0.319 A  
HETATM   32  C   UNL     1      -7.734  20.674  64.962  1.00  0.00     0.706 C  
HETATM   33  O   UNL     1      -8.356  21.324  65.782  1.00  0.00     1.510 OA 
HETATM   34  C   UNL     1      -5.134  17.928  65.064  1.00  0.00     0.030 A  
ENDBRANCH   7  26
TORSDOF 4
ENDMDL
MODEL      220
REMARK 921   NORMALIZED FREE ENERGY PREDICTED BY IDOCK:    1.12 KCAL/MOL
REMARK 922        TOTAL FREE ENERGY PREDICTED BY IDOCK:    0.24 KCAL/MOL
REMARK 923 INTER-LIGAND FREE ENERGY PREDICTED BY IDOCK:    0.72 KCAL/MOL
REMARK 924 INTRA-LIGAND FREE ENERGY PREDICTED BY IDOCK:   -0.47 KCAL/MOL
REMARK 927      BINDING AFFINITY PREDICTED BY RF-SCORE:    0.00 PKD
ROOT
HETATM    1  C   UNL     1      -6.537  17.359  69.977  1.00  0.00     0.331 C  
HETATM    2  C   UNL     1      -7.347  16.311  69.272  1.00  0.00    -0.221 A  
HETATM    3  C   UNL     1      -8.014  15.367  70.069  1.00  0.00     0.288 A  
HETATM    4  C   UNL     1      -8.715  14.320  69.486  1.00  0.00     0.537 A  
HETATM    5  C   UNL     1      -8.727  14.226  68.107  1.00  0.00    -0.174 A  
HETATM    6  N   UNL     1      -8.139  15.146  67.327  1.00  0.00    -0.186 NA 
HETATM    7  C   UNL     1      -7.470  16.196  67.880  1.00  0.00    -0.128 A  
ENDROOT
BRANCH   5   8
HETATM    8  N   UNL     1      -9.372  13.120  67.548  1.00  0.00    -0.199 N  
HETATM    9  C   UNL     1     -10.291  13.174  66.529  1.00  0.00    -0.283 C  
HETATM   10  H   UNL     1      -9.141  12.200  67.925  1.00  0.00     0.000 HD 
HETATM   11  O   UNL     1     -10.699  14.149  65.914  1.00  0.00    -0.287 OA 
BRANCH   9  12
HETATM   12  C   UNL     1     -10.851  11.805  66.184  1.00  0.00    -0.336 C  
HETATM   13  C   UNL     1     -12.063  11.725  65.261  1.00  0.00     0.196 C  
HETATM   14  C   UNL     1     -12.240  11.490  66.726  1.00  0.00     1.199 C  
BRANCH  12  15
HETATM   15  C   UNL     1      -9.799  10.695  66.154  1.00  0.00    -0.268 A  
HETATM   16  C   UNL     1      -8.840   8.757  64.961  1.00  0.00    -0.151 A  
HETATM   17  C   UNL     1      -9.645   9.901  64.986  1.00  0.00    -0.364 A  
HETATM   18  C   UNL     1      -8.181   8.420  66.119  1.00  0.00    -0.113 A  
HETATM   19  O   UNL     1      -7.408   7.317  66.302  1.00  0.00    -0.076 OA 
HETATM   20  C   UNL     1      -7.079   7.476  67.687  1.00  0.00    -0.085 C  
HETATM   21  F   UNL     1      -7.583   6.420  68.377  1.00  0.00    -0.090 F  
HETATM   22  F   UNL     1      -5.731   7.442  67.817  1.00  0.00    -0.025 F  
HETATM   23  O   UNL     1      -7.566   8.682  68.291  1.00  0.00    -0.094 OA 
HETATM   24  C   UNL     1      -8.277   9.193  67.251  1.00  0.00    -0.114 A  
HETATM   25  C   UNL     1      -9.061  10.330  67.297  1.00  0.00    -0.150 A  
ENDBRANCH  12  15
ENDBRANCH   9  12
ENDBRANCH   5   8
BRANCH   7  26
HETATM   26  C   UNL     1      -6.913  17.127  66.856  1.00  0.00    -0.247 A  
HETATM   27  C   UNL     1      -5.712  16.814  66.183  1.00  0.00     0.657 A  
HETATM   28  C   UNL     1      -7.003  19.170  65.490  1.00  0.00    -0.247 A  
HETATM   29  O   UNL     1      -7.616  20.855  63.923  1.00  0.00     0.613 OA 
HETATM   30  C   UNL     1      -7.553  18.314  66.460  1.00  0.00    -0.271 A  
HETATM   31  C   UNL     1      -5.795  18.845  64.871  1.00  0.00    -0.316 A  
HETATM   32  C   UNL     1      -7.726  20.434  65.201  1.00  0.00     0.459 C  
HETATM   33  O   UNL     1      -8.384  21.022  66.040  1.00  0.00     0.704 OA 
HETATM   34  C   UNL     1      -5.159  17.655  65.205  1.00  0.00     0.158 A  
ENDBRANCH   7  26
TORSDOF 4
ENDMDL
MODEL      221
REMARK 921   NORMALIZED FREE ENERGY PREDICTED BY IDOCK:    1.63 KCAL/MOL
REMARK 922        TOTAL FREE ENERGY PREDICTED BY IDOCK:    0.87 KCAL/MOL
REMARK 923 INTER-LIGAND FREE ENERGY PREDICTED BY IDOCK:    1.29 KCAL/MOL
REMARK 924 INTRA-LIGAND FREE ENERGY PREDICTED BY IDOCK:   -0.42 KCAL/MOL
REMARK 927      BINDING AFFINITY PREDICTED BY RF-SCORE:    0.00 PKD
ROOT
HETATM    1  C   UNL     1     -11.011   8.870  64.782  1.00  0.00     6.706 C  
HETATM    2  C   UNL     1     -10.099   9.790  65.542  1.00  0.00    -0.242 A  
HETATM    3  C   UNL     1     -10.294  11.171  65.375  1.00  0.00    -0.331 A  
HETATM    4  C   UNL     1      -9.438  12.081  65.980  1.00  0.00    -0.229 A  
HETATM    5  C   UNL     1      -8.389  11.594  66.737  1.00  0.00    -0.171 A  
HETATM    6  N   UNL     1      -8.217  10.280  66.950  1.00  0.00    -0.122 NA 
HETATM    7  C   UNL     1      -9.062   9.372  66.388  1.00  0.00    -0.161 A  
ENDROOT
BRANCH   5   8
HETATM    8  N   UNL     1      -7.497  12.528  67.270  1.00  0.00    -0.252 N  
HETATM    9  C   UNL     1      -7.779  13.855  67.487  1.00  0.00    -0.179 C  
HETATM   10  H   UNL     1      -6.563  12.199  67.517  1.00  0.00     0.000 HD 
HETATM   11  O   UNL     1      -8.824  14.459  67.293  1.00  0.00    -0.191 OA 
BRANCH   9  12
HETATM   12  C   UNL     1      -6.582  14.618  68.024  1.00  0.00    -0.155 C  
HETATM   13  C   UNL     1      -5.209  13.957  67.962  1.00  0.00    -0.101 C  
HETATM   14  C   UNL     1      -5.923  14.044  69.272  1.00  0.00    -0.095 C  
BRANCH  12  15
HETATM   15  C   UNL     1      -6.700  16.137  67.882  1.00  0.00    -0.153 A  
HETATM   16  C   UNL     1      -7.596  18.256  68.778  1.00  0.00    -0.294 A  
HETATM   17  C   UNL     1      -7.289  16.899  68.926  1.00  0.00    -0.236 A  
HETATM   18  C   UNL     1      -7.297  18.847  67.574  1.00  0.00    -0.226 A  
HETATM   19  O   UNL     1      -7.576  20.131  67.226  1.00  0.00    -0.270 OA 
HETATM   20  C   UNL     1      -7.112  20.123  65.871  1.00  0.00    -0.289 C  
HETATM   21  F   UNL     1      -8.164  20.375  65.050  1.00  0.00     0.052 F  
HETATM   22  F   UNL     1      -6.223  21.134  65.714  1.00  0.00    -0.277 F  
HETATM   23  O   UNL     1      -6.493  18.901  65.448  1.00  0.00    -0.256 OA 
HETATM   24  C   UNL     1      -6.688  18.144  66.562  1.00  0.00    -0.212 A  
HETATM   25  C   UNL     1      -6.370  16.806  66.687  1.00  0.00    -0.153 A  
ENDBRANCH  12  15
ENDBRANCH   9  12
ENDBRANCH   5   8
BRANCH   7  26
HETATM   26  C   UNL     1      -8.732   7.967  66.764  1.00  0.00    -0.142 A  
HETATM   27  C   UNL     1      -9.093   7.464  68.034  1.00  0.00    -0.130 A  
HETATM   28  C   UNL     1      -7.817   5.738  66.277  1.00  0.00    -0.101 A  
HETATM   29  O   UNL     1      -7.412   3.574  65.370  1.00  0.00    -0.074 OA 
HETATM   30  C   UNL     1      -8.113   7.057  65.892  1.00  0.00    -0.119 A  
HETATM   31  C   UNL     1      -8.156   5.286  67.554  1.00  0.00    -0.100 A  
HETATM   32  C   UNL     1      -7.094   4.883  65.302  1.00  0.00    -0.063 C  
HETATM   33  O   UNL     1      -6.304   5.334  64.491  1.00  0.00    -0.031 OA 
HETATM   34  C   UNL     1      -8.813   6.146  68.426  1.00  0.00    -0.113 A  
ENDBRANCH   7  26
TORSDOF 4
ENDMDL
MODEL      222
REMARK 921   NORMALIZED FREE ENERGY PREDICTED BY IDOCK:    2.33 KCAL/MOL
REMARK 922        TOTAL FREE ENERGY PREDICTED BY IDOCK:    1.73 KCAL/MOL
REMARK 923 INTER-LIGAND FREE ENERGY PREDICTED BY IDOCK:    2.09 KCAL/MOL
REMARK 924 INTRA-LIGAND FREE ENERGY PREDICTED BY IDOCK:   -0.36 KCAL/MOL
REMARK 927      BINDING AFFINITY PREDICTED BY RF-SCORE:    0.00 PKD
ROOT
HETATM    1  C   UNL     1      -8.309   8.904  62.739  1.00  0.00    -0.201 C  
HETATM    2  C   UNL     1      -9.118   9.742  63.686  1.00  0.00    -0.269 A  
HETATM    3  C   UNL     1     -10.341  10.246  63.216  1.00  0.00     0.629 A  
HETATM    4  C   UNL     1     -11.105  11.095  64.006  1.00  0.00    -0.173 A  
HETATM    5  C   UNL     1     -10.624  11.438  65.256  1.00  0.00    -0.277 A  
HETATM    6  N   UNL     1      -9.484  10.926  65.744  1.00  0.00    -0.201 NA 
HETATM    7  C   UNL     1      -8.734  10.069  64.995  1.00  0.00    -0.173 A  
ENDROOT
BRANCH   5   8
HETATM    8  N   UNL     1     -11.371  12.355  65.999  1.00  0.00    -0.335 N  
HETATM    9  C   UNL     1     -10.892  13.540  66.504  1.00  0.00    -0.282 C  
HETATM   10  H   UNL     1     -12.350  12.128  66.180  1.00  0.00     0.000 HD 
HETATM   11  O   UNL     1      -9.775  14.025  66.394  1.00  0.00    -0.279 OA 
BRANCH   9  12
HETATM   12  C   UNL     1     -11.937  14.286  67.313  1.00  0.00    -0.439 C  
HETATM   13  C   UNL     1     -13.076  13.490  67.943  1.00  0.00     2.801 C  
HETATM   14  C   UNL     1     -13.344  14.318  66.728  1.00  0.00     2.705 C  
BRANCH  12  15
HETATM   15  C   UNL     1     -11.401  15.533  68.019  1.00  0.00    -0.332 A  
HETATM   16  C   UNL     1     -11.507  17.032  69.978  1.00  0.00     0.919 A  
HETATM   17  C   UNL     1     -11.808  15.820  69.350  1.00  0.00    -0.361 A  
HETATM   18  C   UNL     1     -10.782  17.955  69.262  1.00  0.00     0.452 A  
HETATM   19  O   UNL     1     -10.449  19.204  69.681  1.00  0.00     0.275 OA 
HETATM   20  C   UNL     1      -9.791  19.689  68.505  1.00  0.00    -0.424 C  
HETATM   21  F   UNL     1     -10.484  20.757  68.029  1.00  0.00    -0.344 F  
HETATM   22  F   UNL     1      -8.556  20.128  68.851  1.00  0.00    -0.157 F  
HETATM   23  O   UNL     1      -9.656  18.732  67.447  1.00  0.00    -0.299 OA 
HETATM   24  C   UNL     1     -10.338  17.687  67.989  1.00  0.00    -0.375 A  
HETATM   25  C   UNL     1     -10.619  16.495  67.351  1.00  0.00    -0.300 A  
ENDBRANCH  12  15
ENDBRANCH   9  12
ENDBRANCH   5   8
BRANCH   7  26
HETATM   26  C   UNL     1      -7.523   9.581  65.716  1.00  0.00    -0.100 A  
HETATM   27  C   UNL     1      -6.616  10.499  66.291  1.00  0.00    -0.118 A  
HETATM   28  C   UNL     1      -6.089   7.793  66.605  1.00  0.00    -0.048 A  
HETATM   29  O   UNL     1      -5.225   5.943  67.830  1.00  0.00    -0.004 OA 
HETATM   30  C   UNL     1      -7.239   8.221  65.918  1.00  0.00    -0.072 A  
HETATM   31  C   UNL     1      -5.196   8.730  67.130  1.00  0.00    -0.033 A  
HETATM   32  C   UNL     1      -5.847   6.331  66.697  1.00  0.00    -0.020 C  
HETATM   33  O   UNL     1      -6.209   5.550  65.836  1.00  0.00    -0.032 OA 
HETATM   34  C   UNL     1      -5.472  10.085  66.989  1.00  0.00    -0.042 A  
ENDBRANCH   7  26
TORSDOF 4
ENDMDL
MODEL      223
REMARK 921   NORMALIZED FREE ENERGY PREDICTED BY IDOCK:    3.98 KCAL/MOL
REMARK 922        TOTAL FREE ENERGY PREDICTED BY IDOCK:    3.76 KCAL/MOL
REMARK 923 INTER-LIGAND FREE ENERGY PREDICTED BY IDOCK:    3.00 KCAL/MOL
REMARK 924 INTRA-LIGAND FREE ENERGY PREDICTED BY IDOCK:    0.76 KCAL/MOL
REMARK 927      BINDING AFFINITY PREDICTED BY RF-SCORE:    0.00 PKD
ROOT
HETATM    1  C   UNL     1     -12.537  17.263  68.309  1.00  0.00     3.899 C  
HETATM    2  C   UNL     1     -11.742  16.092  67.809  1.00  0.00     0.144 A  
HETATM    3  C   UNL     1     -11.144  16.212  66.545  1.00  0.00     0.068 A  
HETATM    4  C   UNL     1     -10.462  15.142  65.982  1.00  0.00    -0.330 A  
HETATM    5  C   UNL     1     -10.398  13.958  66.693  1.00  0.00    -0.278 A  
HETATM    6  N   UNL     1     -10.918  13.839  67.924  1.00  0.00    -0.248 NA 
HETATM    7  C   UNL     1     -11.568  14.887  68.504  1.00  0.00    -0.323 A  
ENDROOT
BRANCH   5   8
HETATM    8  N   UNL     1      -9.775  12.872  66.072  1.00  0.00    -0.363 N  
HETATM    9  C   UNL     1     -10.156  11.559  66.207  1.00  0.00    -0.226 C  
HETATM   10  H   UNL     1      -8.974  13.070  65.471  1.00  0.00     0.000 HD 
HETATM   11  O   UNL     1     -11.088  11.093  66.846  1.00  0.00    -0.289 OA 
BRANCH   9  12
HETATM   12  C   UNL     1      -9.243  10.613  65.449  1.00  0.00    -0.226 C  
HETATM   13  C   UNL     1      -7.810  11.055  65.164  1.00  0.00     0.294 C  
HETATM   14  C   UNL     1      -8.814  11.062  64.058  1.00  0.00     0.023 C  
BRANCH  12  15
HETATM   15  C   UNL     1      -9.547   9.133  65.688  1.00  0.00    -0.287 A  
HETATM   16  C   UNL     1     -10.469   7.405  67.192  1.00  0.00    -0.403 A  
HETATM   17  C   UNL     1     -10.318   8.744  66.816  1.00  0.00    -0.328 A  
HETATM   18  C   UNL     1      -9.847   6.455  66.417  1.00  0.00    -0.063 A  
HETATM   19  O   UNL     1      -9.831   5.117  66.660  1.00  0.00    -0.152 OA 
HETATM   20  C   UNL     1      -8.985   4.685  65.587  1.00  0.00    -0.138 C  
HETATM   21  F   UNL     1      -7.868   4.120  66.115  1.00  0.00    -0.090 F  
HETATM   22  F   UNL     1      -9.635   3.725  64.886  1.00  0.00    -0.140 F  
HETATM   23  O   UNL     1      -8.581   5.718  64.679  1.00  0.00    -0.106 OA 
HETATM   24  C   UNL     1      -9.132   6.799  65.296  1.00  0.00     0.402 A  
HETATM   25  C   UNL     1      -8.974   8.113  64.902  1.00  0.00     0.268 A  
ENDBRANCH  12  15
ENDBRANCH   9  12
ENDBRANCH   5   8
BRANCH   7  26
HETATM   26  C   UNL     1     -12.046  14.576  69.882  1.00  0.00    -0.389 A  
HETATM   27  C   UNL     1     -11.881  13.281  70.422  1.00  0.00    -0.270 A  
HETATM   28  C   UNL     1     -13.062  15.208  72.031  1.00  0.00    -0.453 A  
HETATM   29  O   UNL     1     -13.516  16.193  74.150  1.00  0.00    -0.302 OA 
HETATM   30  C   UNL     1     -12.623  15.532  70.735  1.00  0.00    -0.505 A  
HETATM   31  C   UNL     1     -12.914  13.907  72.517  1.00  0.00    -0.452 A  
HETATM   32  C   UNL     1     -13.725  16.277  72.820  1.00  0.00     0.106 C  
HETATM   33  O   UNL     1     -14.374  17.169  72.303  1.00  0.00     3.920 OA 
HETATM   34  C   UNL     1     -12.304  12.948  71.717  1.00  0.00     0.239 A  
ENDBRANCH   7  26
TORSDOF 4
ENDMDL
MODEL      224
REMARK 921   NORMALIZED FREE ENERGY PREDICTED BY IDOCK:    4.28 KCAL/MOL
REMARK 922        TOTAL FREE ENERGY PREDICTED BY IDOCK:    4.14 KCAL/MOL
REMARK 923 INTER-LIGAND FREE ENERGY PREDICTED BY IDOCK:    5.02 KCAL/MOL
REMARK 924 INTRA-LIGAND FREE ENERGY PREDICTED BY IDOCK:   -0.88 KCAL/MOL
REMARK 927      BINDING AFFINITY PREDICTED BY RF-SCORE:    0.00 PKD
ROOT
HETATM    1  C   UNL     1      -9.217   3.451  69.613  1.00  0.00    -0.225 C  
HETATM    2  C   UNL     1      -8.973   4.675  68.779  1.00  0.00    -0.143 A  
HETATM    3  C   UNL     1      -8.056   4.562  67.723  1.00  0.00    -0.099 A  
HETATM    4  C   UNL     1      -7.719   5.671  66.959  1.00  0.00    -0.101 A  
HETATM    5  C   UNL     1      -8.299   6.886  67.274  1.00  0.00    -0.121 A  
HETATM    6  N   UNL     1      -9.217   7.004  68.246  1.00  0.00    -0.129 NA 
HETATM    7  C   UNL     1      -9.581   5.921  68.988  1.00  0.00    -0.129 A  
ENDROOT
BRANCH   5   8
HETATM    8  N   UNL     1      -7.884   8.002  66.543  1.00  0.00    -0.096 N  
HETATM    9  C   UNL     1      -7.255   9.103  67.071  1.00  0.00    -0.090 C  
HETATM   10  H   UNL     1      -8.062   7.998  65.538  1.00  0.00     0.000 HD 
HETATM   11  O   UNL     1      -6.922   9.315  68.228  1.00  0.00    -0.070 OA 
BRANCH   9  12
HETATM   12  C   UNL     1      -6.984  10.169  66.024  1.00  0.00    -0.117 C  
HETATM   13  C   UNL     1      -7.182   9.813  64.554  1.00  0.00    -0.128 C  
HETATM   14  C   UNL     1      -5.796   9.919  65.102  1.00  0.00    -0.088 C  
BRANCH  12  15
HETATM   15  C   UNL     1      -7.261  11.594  66.504  1.00  0.00     0.048 A  
HETATM   16  C   UNL     1      -6.354  13.816  67.089  1.00  0.00     0.627 A  
HETATM   17  C   UNL     1      -6.218  12.559  66.491  1.00  0.00     1.167 A  
HETATM   18  C   UNL     1      -7.555  14.103  67.694  1.00  0.00    -0.180 A  
HETATM   19  O   UNL     1      -7.850  15.241  68.375  1.00  0.00    -0.116 OA 
HETATM   20  C   UNL     1      -9.173  14.922  68.822  1.00  0.00    -0.193 C  
HETATM   21  F   UNL     1      -9.179  14.901  70.181  1.00  0.00     0.026 F  
HETATM   22  F   UNL     1     -10.012  15.911  68.428  1.00  0.00    -0.212 F  
HETATM   23  O   UNL     1      -9.688  13.671  68.350  1.00  0.00    -0.224 OA 
HETATM   24  C   UNL     1      -8.596  13.206  67.685  1.00  0.00    -0.193 A  
HETATM   25  C   UNL     1      -8.486  11.962  67.095  1.00  0.00    -0.173 A  
ENDBRANCH  12  15
ENDBRANCH   9  12
ENDBRANCH   5   8
BRANCH   7  26
HETATM   26  C   UNL     1     -10.634   6.241  69.995  1.00  0.00    -0.307 A  
HETATM   27  C   UNL     1     -11.676   5.324  70.256  1.00  0.00     2.325 A  
HETATM   28  C   UNL     1     -11.638   7.682  71.716  1.00  0.00    -0.307 A  
HETATM   29  O   UNL     1     -12.054   8.943  73.692  1.00  0.00     1.660 OA 
HETATM   30  C   UNL     1     -10.631   7.411  70.773  1.00  0.00    -0.234 A  
HETATM   31  C   UNL     1     -12.672   6.767  71.921  1.00  0.00    -0.298 A  
HETATM   32  C   UNL     1     -11.578   8.982  72.430  1.00  0.00    -0.054 C  
HETATM   33  O   UNL     1     -11.110   9.988  71.927  1.00  0.00     0.280 OA 
HETATM   34  C   UNL     1     -12.679   5.577  71.202  1.00  0.00     2.912 A  
ENDBRANCH   7  26
TORSDOF 4
ENDMDL
MODEL      225
REMARK 921   NORMALIZED FREE ENERGY PREDICTED BY IDOCK:    4.99 KCAL/MOL
REMARK 922        TOTAL FREE ENERGY PREDICTED BY IDOCK:    5.01 KCAL/MOL
REMARK 923 INTER-LIGAND FREE ENERGY PREDICTED BY IDOCK:    5.44 KCAL/MOL
REMARK 924 INTRA-LIGAND FREE ENERGY PREDICTED BY IDOCK:   -0.43 KCAL/MOL
REMARK 927      BINDING AFFINITY PREDICTED BY RF-SCORE:    0.00 PKD
ROOT
HETATM    1  C   UNL     1     -11.190   8.738  64.664  1.00  0.00     9.546 C  
HETATM    2  C   UNL     1     -10.262   9.656  65.404  1.00  0.00     0.076 A  
HETATM    3  C   UNL     1     -10.469  11.037  65.258  1.00  0.00    -0.316 A  
HETATM    4  C   UNL     1      -9.602  11.947  65.846  1.00  0.00    -0.248 A  
HETATM    5  C   UNL     1      -8.527  11.459  66.565  1.00  0.00    -0.170 A  
HETATM    6  N   UNL     1      -8.340  10.145  66.760  1.00  0.00    -0.122 NA 
HETATM    7  C   UNL     1      -9.197   9.236  66.214  1.00  0.00    -0.186 A  
ENDROOT
BRANCH   5   8
HETATM    8  N   UNL     1      -7.625  12.394  67.080  1.00  0.00    -0.290 N  
HETATM    9  C   UNL     1      -7.915  13.711  67.339  1.00  0.00    -0.166 C  
HETATM   10  H   UNL     1      -6.677  12.073  67.279  1.00  0.00     0.000 HD 
HETATM   11  O   UNL     1      -8.975  14.305  67.203  1.00  0.00    -0.204 OA 
BRANCH   9  12
HETATM   12  C   UNL     1      -6.705  14.480  67.841  1.00  0.00    -0.176 C  
HETATM   13  C   UNL     1      -5.331  13.825  67.735  1.00  0.00    -0.033 C  
HETATM   14  C   UNL     1      -6.005  13.905  69.066  1.00  0.00    -0.086 C  
BRANCH  12  15
HETATM   15  C   UNL     1      -6.835  15.998  67.707  1.00  0.00    -0.168 A  
HETATM   16  C   UNL     1      -6.714  17.985  66.245  1.00  0.00    -0.282 A  
HETATM   17  C   UNL     1      -6.791  16.599  66.420  1.00  0.00    -0.004 A  
HETATM   18  C   UNL     1      -6.691  18.766  67.375  1.00  0.00    -0.202 A  
HETATM   19  O   UNL     1      -6.558  20.119  67.405  1.00  0.00    -0.202 OA 
HETATM   20  C   UNL     1      -6.525  20.330  68.821  1.00  0.00    -0.299 C  
HETATM   21  F   UNL     1      -5.323  20.872  69.150  1.00  0.00    -0.294 F  
HETATM   22  F   UNL     1      -7.481  21.234  69.145  1.00  0.00     1.092 F  
HETATM   23  O   UNL     1      -6.720  19.153  69.615  1.00  0.00    -0.269 OA 
HETATM   24  C   UNL     1      -6.777  18.215  68.631  1.00  0.00    -0.238 A  
HETATM   25  C   UNL     1      -6.860  16.851  68.828  1.00  0.00    -0.195 A  
ENDBRANCH  12  15
ENDBRANCH   9  12
ENDBRANCH   5   8
BRANCH   7  26
HETATM   26  C   UNL     1      -8.847   7.830  66.567  1.00  0.00    -0.175 A  
HETATM   27  C   UNL     1      -8.128   7.023  65.657  1.00  0.00    -0.129 A  
HETATM   28  C   UNL     1      -8.799   5.918  68.112  1.00  0.00    -0.110 A  
HETATM   29  O   UNL     1      -8.382   4.471  69.956  1.00  0.00    -0.066 OA 
HETATM   30  C   UNL     1      -9.145   7.247  67.809  1.00  0.00    -0.124 A  
HETATM   31  C   UNL     1      -8.120   5.139  67.174  1.00  0.00    -0.104 A  
HETATM   32  C   UNL     1      -9.228   5.379  69.427  1.00  0.00    -0.117 C  
HETATM   33  O   UNL     1     -10.242   5.750  69.990  1.00  0.00    -0.199 OA 
HETATM   34  C   UNL     1      -7.767   5.700  65.952  1.00  0.00    -0.095 A  
ENDBRANCH   7  26
TORSDOF 4
ENDMDL
MODEL      226
REMARK 921   NORMALIZED FREE ENERGY PREDICTED BY IDOCK:   10.84 KCAL/MOL
REMARK 922        TOTAL FREE ENERGY PREDICTED BY IDOCK:   12.24 KCAL/MOL
REMARK 923 INTER-LIGAND FREE ENERGY PREDICTED BY IDOCK:   12.29 KCAL/MOL
REMARK 924 INTRA-LIGAND FREE ENERGY PREDICTED BY IDOCK:   -0.06 KCAL/MOL
REMARK 927      BINDING AFFINITY PREDICTED BY RF-SCORE:    0.00 PKD
ROOT
HETATM    1  C   UNL     1     -13.950  11.727  71.808  1.00  0.00     0.799 C  
HETATM    2  C   UNL     1     -12.918  10.863  71.143  1.00  0.00    -0.449 A  
HETATM    3  C   UNL     1     -13.100   9.473  71.213  1.00  0.00    -0.402 A  
HETATM    4  C   UNL     1     -12.145   8.609  70.692  1.00  0.00     0.014 A  
HETATM    5  C   UNL     1     -11.012   9.153  70.117  1.00  0.00    -0.239 A  
HETATM    6  N   UNL     1     -10.844  10.479  69.995  1.00  0.00    -0.279 NA 
HETATM    7  C   UNL     1     -11.782  11.342  70.475  1.00  0.00    -0.198 A  
ENDROOT
BRANCH   5   8
HETATM    8  N   UNL     1     -10.031   8.264  69.672  1.00  0.00    -0.189 N  
HETATM    9  C   UNL     1      -8.851   8.626  69.069  1.00  0.00    -0.138 C  
HETATM   10  H   UNL     1     -10.204   7.267  69.806  1.00  0.00     0.000 HD 
HETATM   11  O   UNL     1      -8.424   9.746  68.830  1.00  0.00    -0.118 OA 
BRANCH   9  12
HETATM   12  C   UNL     1      -8.024   7.424  68.652  1.00  0.00    -0.123 C  
HETATM   13  C   UNL     1      -6.664   7.210  69.311  1.00  0.00    -0.049 C  
HETATM   14  C   UNL     1      -6.728   7.724  67.909  1.00  0.00    -0.067 C  
BRANCH  12  15
HETATM   15  C   UNL     1      -8.858   6.214  68.225  1.00  0.00    -0.112 A  
HETATM   16  C   UNL     1     -10.014   4.135  68.886  1.00  0.00     0.029 A  
HETATM   17  C   UNL     1      -9.408   5.353  69.211  1.00  0.00    -0.159 A  
HETATM   18  C   UNL     1     -10.074   3.792  67.556  1.00  0.00     0.424 A  
HETATM   19  O   UNL     1     -10.568   2.628  67.056  1.00  0.00     2.627 OA 
HETATM   20  C   UNL     1     -10.289   2.823  65.665  1.00  0.00     1.379 C  
HETATM   21  F   UNL     1      -9.426   1.856  65.255  1.00  0.00    -0.127 F  
HETATM   22  F   UNL     1     -11.440   2.662  64.968  1.00  0.00     1.748 F  
HETATM   23  O   UNL     1      -9.728   4.099  65.331  1.00  0.00    -0.174 OA 
HETATM   24  C   UNL     1      -9.590   4.626  66.577  1.00  0.00    -0.182 A  
HETATM   25  C   UNL     1      -8.993   5.835  66.875  1.00  0.00    -0.114 A  
ENDBRANCH  12  15
ENDBRANCH   9  12
ENDBRANCH   5   8
BRANCH   7  26
HETATM   26  C   UNL     1     -11.437  12.770  70.217  1.00  0.00     0.129 A  
HETATM   27  C   UNL     1     -10.088  13.190  70.217  1.00  0.00     3.040 A  
HETATM   28  C   UNL     1     -12.033  15.092  69.668  1.00  0.00    -0.356 A  
HETATM   29  O   UNL     1     -12.802  17.065  68.581  1.00  0.00     2.260 OA 
HETATM   30  C   UNL     1     -12.391  13.754  69.908  1.00  0.00    -0.334 A  
HETATM   31  C   UNL     1     -10.692  15.478  69.712  1.00  0.00    -0.301 A  
HETATM   32  C   UNL     1     -13.128  16.064  69.425  1.00  0.00     1.724 C  
HETATM   33  O   UNL     1     -14.234  15.946  69.921  1.00  0.00     1.528 OA 
HETATM   34  C   UNL     1      -9.717  14.520  69.968  1.00  0.00     0.704 A  
ENDBRANCH   7  26
TORSDOF 4
ENDMDL
MODEL      227
REMARK 921   NORMALIZED FREE ENERGY PREDICTED BY IDOCK:   10.92 KCAL/MOL
REMARK 922        TOTAL FREE ENERGY PREDICTED BY IDOCK:   12.33 KCAL/MOL
REMARK 923 INTER-LIGAND FREE ENERGY PREDICTED BY IDOCK:   12.49 KCAL/MOL
REMARK 924 INTRA-LIGAND FREE ENERGY PREDICTED BY IDOCK:   -0.16 KCAL/MOL
REMARK 927      BINDING AFFINITY PREDICTED BY RF-SCORE:    0.00 PKD
ROOT
HETATM    1  C   UNL     1      -8.663   7.824  64.027  1.00  0.00     0.532 C  
HETATM    2  C   UNL     1      -8.764   9.027  64.919  1.00  0.00    -0.200 A  
HETATM    3  C   UNL     1      -9.421  10.156  64.405  1.00  0.00    -0.368 A  
HETATM    4  C   UNL     1      -9.483  11.332  65.140  1.00  0.00    -0.242 A  
HETATM    5  C   UNL     1      -8.871  11.364  66.379  1.00  0.00    -0.192 A  
HETATM    6  N   UNL     1      -8.282  10.281  66.910  1.00  0.00    -0.122 NA 
HETATM    7  C   UNL     1      -8.237   9.109  66.216  1.00  0.00    -0.111 A  
ENDROOT
BRANCH   5   8
HETATM    8  N   UNL     1      -8.878  12.582  67.065  1.00  0.00    -0.207 N  
HETATM    9  C   UNL     1      -8.330  12.792  68.307  1.00  0.00    -0.161 C  
HETATM   10  H   UNL     1      -9.325  13.377  66.607  1.00  0.00     0.000 HD 
HETATM   11  O   UNL     1      -7.731  12.005  69.024  1.00  0.00    -0.039 OA 
BRANCH   9  12
HETATM   12  C   UNL     1      -8.552  14.210  68.801  1.00  0.00    -0.067 C  
HETATM   13  C   UNL     1      -7.333  15.057  69.155  1.00  0.00    -0.164 C  
HETATM   14  C   UNL     1      -8.171  14.484  70.251  1.00  0.00     1.256 C  
BRANCH  12  15
HETATM   15  C   UNL     1      -9.801  14.881  68.225  1.00  0.00    -0.218 A  
HETATM   16  C   UNL     1     -12.192  15.430  68.499  1.00  0.00     0.068 A  
HETATM   17  C   UNL     1     -10.968  15.003  69.024  1.00  0.00    -0.253 A  
HETATM   18  C   UNL     1     -12.233  15.746  67.162  1.00  0.00     1.197 A  
HETATM   19  O   UNL     1     -13.339  16.119  66.465  1.00  0.00     4.564 OA 
HETATM   20  C   UNL     1     -12.776  16.228  65.153  1.00  0.00     2.803 C  
HETATM   21  F   UNL     1     -13.386  15.324  64.342  1.00  0.00     0.333 F  
HETATM   22  F   UNL     1     -13.052  17.462  64.666  1.00  0.00     5.303 F  
HETATM   23  O   UNL     1     -11.360  16.014  65.080  1.00  0.00    -0.201 OA 
HETATM   24  C   UNL     1     -11.108  15.679  66.374  1.00  0.00    -0.123 A  
HETATM   25  C   UNL     1      -9.889  15.266  66.873  1.00  0.00    -0.242 A  
ENDBRANCH  12  15
ENDBRANCH   9  12
ENDBRANCH   5   8
BRANCH   7  26
HETATM   26  C   UNL     1      -7.573   8.013  66.979  1.00  0.00    -0.096 A  
HETATM   27  C   UNL     1      -6.318   8.227  67.592  1.00  0.00    -0.053 A  
HETATM   28  C   UNL     1      -7.505   5.739  67.913  1.00  0.00    -0.078 A  
HETATM   29  O   UNL     1      -7.944   3.760  69.161  1.00  0.00    -0.055 OA 
HETATM   30  C   UNL     1      -8.156   6.752  67.186  1.00  0.00    -0.117 A  
HETATM   31  C   UNL     1      -6.249   5.976  68.474  1.00  0.00    -0.032 A  
HETATM   32  C   UNL     1      -8.179   4.420  68.007  1.00  0.00    -0.094 C  
HETATM   33  O   UNL     1      -8.905   3.988  67.130  1.00  0.00    -0.109 OA 
HETATM   34  C   UNL     1      -5.665   7.229  68.329  1.00  0.00    -0.023 A  
ENDBRANCH   7  26
TORSDOF 4
ENDMDL
MODEL      228
REMARK 921   NORMALIZED FREE ENERGY PREDICTED BY IDOCK:   14.38 KCAL/MOL
REMARK 922        TOTAL FREE ENERGY PREDICTED BY IDOCK:   16.60 KCAL/MOL
REMARK 923 INTER-LIGAND FREE ENERGY PREDICTED BY IDOCK:   16.87 KCAL/MOL
REMARK 924 INTRA-LIGAND FREE ENERGY PREDICTED BY IDOCK:   -0.27 KCAL/MOL
REMARK 927      BINDING AFFINITY PREDICTED BY RF-SCORE:    0.00 PKD
ROOT
HETATM    1  C   UNL     1     -10.417  12.767  70.464  1.00  0.00     3.339 C  
HETATM    2  C   UNL     1      -9.898  11.918  69.340  1.00  0.00     0.612 A  
HETATM    3  C   UNL     1     -10.794  11.599  68.307  1.00  0.00    -0.260 A  
HETATM    4  C   UNL     1     -10.409  10.752  67.277  1.00  0.00    -0.262 A  
HETATM    5  C   UNL     1      -9.132  10.224  67.303  1.00  0.00    -0.138 A  
HETATM    6  N   UNL     1      -8.244  10.557  68.253  1.00  0.00    -0.113 NA 
HETATM    7  C   UNL     1      -8.594  11.409  69.257  1.00  0.00     0.320 A  
ENDROOT
BRANCH   5   8
HETATM    8  N   UNL     1      -8.796   9.313  66.298  1.00  0.00    -0.140 N  
HETATM    9  C   UNL     1      -9.081   9.468  64.963  1.00  0.00    -0.228 C  
HETATM   10  H   UNL     1      -8.300   8.466  66.578  1.00  0.00     0.000 HD 
HETATM   11  O   UNL     1      -9.637  10.400  64.401  1.00  0.00    -0.265 OA 
BRANCH   9  12
HETATM   12  C   UNL     1      -8.633   8.277  64.136  1.00  0.00     0.120 C  
HETATM   13  C   UNL     1      -7.834   8.534  62.862  1.00  0.00    -0.146 C  
HETATM   14  C   UNL     1      -9.271   8.137  62.759  1.00  0.00     1.317 C  
BRANCH  12  15
HETATM   15  C   UNL     1      -8.365   7.015  64.959  1.00  0.00    -0.051 A  
HETATM   16  C   UNL     1      -6.715   5.387  65.810  1.00  0.00    -0.053 A  
HETATM   17  C   UNL     1      -7.028   6.622  65.231  1.00  0.00    -0.052 A  
HETATM   18  C   UNL     1      -7.761   4.551  66.124  1.00  0.00    -0.094 A  
HETATM   19  O   UNL     1      -7.650   3.296  66.633  1.00  0.00    -0.075 OA 
HETATM   20  C   UNL     1      -9.033   2.923  66.665  1.00  0.00    -0.155 C  
HETATM   21  F   UNL     1      -9.213   1.855  65.844  1.00  0.00    -0.127 F  
HETATM   22  F   UNL     1      -9.343   2.526  67.923  1.00  0.00    -0.189 F  
HETATM   23  O   UNL     1      -9.948   3.953  66.272  1.00  0.00    -0.165 OA 
HETATM   24  C   UNL     1      -9.066   4.924  65.912  1.00  0.00    -0.147 A  
HETATM   25  C   UNL     1      -9.399   6.140  65.347  1.00  0.00     0.307 A  
ENDBRANCH  12  15
ENDBRANCH   9  12
ENDBRANCH   5   8
BRANCH   7  26
HETATM   26  C   UNL     1      -7.469  11.684  70.197  1.00  0.00     1.488 A  
HETATM   27  C   UNL     1      -6.369  10.802  70.273  1.00  0.00    -0.142 A  
HETATM   28  C   UNL     1      -6.321  13.064  71.877  1.00  0.00     2.432 A  
HETATM   29  O   UNL     1      -5.180  14.821  73.009  1.00  0.00    -0.213 OA 
HETATM   30  C   UNL     1      -7.397  12.833  71.003  1.00  0.00     4.969 A  
HETATM   31  C   UNL     1      -5.268  12.151  71.951  1.00  0.00     0.167 A  
HETATM   32  C   UNL     1      -6.382  14.273  72.737  1.00  0.00     1.227 C  
HETATM   33  O   UNL     1      -7.433  14.744  73.135  1.00  0.00     3.679 OA 
HETATM   34  C   UNL     1      -5.284  11.028  71.132  1.00  0.00    -0.094 A  
ENDBRANCH   7  26
TORSDOF 4
ENDMDL
MODEL      229
REMARK 921   NORMALIZED FREE ENERGY PREDICTED BY IDOCK:   15.45 KCAL/MOL
REMARK 922        TOTAL FREE ENERGY PREDICTED BY IDOCK:   17.92 KCAL/MOL
REMARK 923 INTER-LIGAND FREE ENERGY PREDICTED BY IDOCK:   18.31 KCAL/MOL
REMARK 924 INTRA-LIGAND FREE ENERGY PREDICTED BY IDOCK:   -0.40 KCAL/MOL
REMARK 927      BINDING AFFINITY PREDICTED BY RF-SCORE:    0.00 PKD
ROOT
HETATM    1  C   UNL     1      -8.729  10.347  63.279  1.00  0.00    -0.201 C  
HETATM    2  C   UNL     1      -9.117  11.554  64.082  1.00  0.00     0.179 A  
HETATM    3  C   UNL     1      -9.851  12.555  63.427  1.00  0.00     0.332 A  
HETATM    4  C   UNL     1     -10.175  13.735  64.082  1.00  0.00     0.504 A  
HETATM    5  C   UNL     1      -9.746  13.902  65.385  1.00  0.00    -0.062 A  
HETATM    6  N   UNL     1      -9.088  12.937  66.046  1.00  0.00     0.062 NA 
HETATM    7  C   UNL     1      -8.785  11.760  65.429  1.00  0.00     0.359 A  
ENDROOT
BRANCH   5   8
HETATM    8  N   UNL     1     -10.017  15.130  65.995  1.00  0.00    -0.289 N  
HETATM    9  C   UNL     1      -9.239  15.719  66.962  1.00  0.00    -0.216 C  
HETATM   10  H   UNL     1     -10.857  15.627  65.700  1.00  0.00     0.000 HD 
HETATM   11  O   UNL     1      -8.189  15.325  67.448  1.00  0.00    -0.156 OA 
BRANCH   9  12
HETATM   12  C   UNL     1      -9.832  17.024  67.463  1.00  0.00    -0.258 C  
HETATM   13  C   UNL     1      -9.827  18.232  66.531  1.00  0.00    -0.363 C  
HETATM   14  C   UNL     1      -8.854  18.175  67.663  1.00  0.00    -0.253 C  
BRANCH  12  15
HETATM   15  C   UNL     1     -10.975  16.842  68.463  1.00  0.00    -0.312 A  
HETATM   16  C   UNL     1     -13.125  17.669  69.353  1.00  0.00    10.829 A  
HETATM   17  C   UNL     1     -12.136  17.655  68.364  1.00  0.00     2.915 A  
HETATM   18  C   UNL     1     -12.945  16.850  70.442  1.00  0.00     5.546 A  
HETATM   19  O   UNL     1     -13.763  16.774  71.524  1.00  0.00     2.828 OA 
HETATM   20  C   UNL     1     -13.027  15.840  72.322  1.00  0.00    -0.447 C  
HETATM   21  F   UNL     1     -12.658  16.452  73.478  1.00  0.00    -0.507 F  
HETATM   22  F   UNL     1     -13.847  14.813  72.650  1.00  0.00    -0.471 F  
HETATM   23  O   UNL     1     -11.851  15.306  71.701  1.00  0.00    -0.322 OA 
HETATM   24  C   UNL     1     -11.854  16.021  70.543  1.00  0.00    -0.292 A  
HETATM   25  C   UNL     1     -10.868  15.986  69.577  1.00  0.00    -0.317 A  
ENDBRANCH  12  15
ENDBRANCH   9  12
ENDBRANCH   5   8
BRANCH   7  26
HETATM   26  C   UNL     1      -8.083  10.802  66.330  1.00  0.00    -0.153 A  
HETATM   27  C   UNL     1      -7.571  11.234  67.574  1.00  0.00    -0.110 A  
HETATM   28  C   UNL     1      -7.271   8.556  66.916  1.00  0.00    -0.075 A  
HETATM   29  O   UNL     1      -7.122   6.249  67.488  1.00  0.00    -0.069 OA 
HETATM   30  C   UNL     1      -7.938   9.434  66.043  1.00  0.00    -0.110 A  
HETATM   31  C   UNL     1      -6.746   9.027  68.120  1.00  0.00    -0.065 A  
HETATM   32  C   UNL     1      -7.110   7.146  66.479  1.00  0.00    -0.078 C  
HETATM   33  O   UNL     1      -7.007   6.828  65.308  1.00  0.00    -0.053 OA 
HETATM   34  C   UNL     1      -6.914  10.365  68.458  1.00  0.00    -0.062 A  
ENDBRANCH   7  26
TORSDOF 4
ENDMDL
MODEL      230
REMARK 921   NORMALIZED FREE ENERGY PREDICTED BY IDOCK:   18.28 KCAL/MOL
REMARK 922        TOTAL FREE ENERGY PREDICTED BY IDOCK:   21.41 KCAL/MOL
REMARK 923 INTER-LIGAND FREE ENERGY PREDICTED BY IDOCK:   21.32 KCAL/MOL
REMARK 924 INTRA-LIGAND FREE ENERGY PREDICTED BY IDOCK:    0.09 KCAL/MOL
REMARK 927      BINDING AFFINITY PREDICTED BY RF-SCORE:    0.00 PKD
ROOT
HETATM    1  C   UNL     1     -10.604  12.670  70.709  1.00  0.00     3.994 C  
HETATM    2  C   UNL     1     -10.100  11.894  69.527  1.00  0.00     0.651 A  
HETATM    3  C   UNL     1     -10.929  11.831  68.396  1.00  0.00    -0.274 A  
HETATM    4  C   UNL     1     -10.566  11.065  67.297  1.00  0.00    -0.287 A  
HETATM    5  C   UNL     1      -9.379  10.359  67.352  1.00  0.00    -0.145 A  
HETATM    6  N   UNL     1      -8.548  10.446  68.402  1.00  0.00    -0.123 NA 
HETATM    7  C   UNL     1      -8.873  11.216  69.479  1.00  0.00     0.510 A  
ENDROOT
BRANCH   5   8
HETATM    8  N   UNL     1      -9.075   9.533  66.266  1.00  0.00    -0.155 N  
HETATM    9  C   UNL     1      -9.277   9.858  64.947  1.00  0.00    -0.246 C  
HETATM   10  H   UNL     1      -8.672   8.618  66.469  1.00  0.00     0.000 HD 
HETATM   11  O   UNL     1      -9.719  10.893  64.470  1.00  0.00    -0.235 OA 
BRANCH   9  12
HETATM   12  C   UNL     1      -8.896   8.725  64.010  1.00  0.00     0.110 C  
HETATM   13  C   UNL     1      -8.042   9.047  62.788  1.00  0.00    -0.164 C  
HETATM   14  C   UNL     1      -9.501   8.777  62.612  1.00  0.00     1.325 C  
BRANCH  12  15
HETATM   15  C   UNL     1      -8.749   7.370  64.703  1.00  0.00     0.371 A  
HETATM   16  C   UNL     1      -9.504   5.845  66.493  1.00  0.00    -0.171 A  
HETATM   17  C   UNL     1      -9.689   6.978  65.694  1.00  0.00     0.693 A  
HETATM   18  C   UNL     1      -8.369   5.098  66.282  1.00  0.00    -0.113 A  
HETATM   19  O   UNL     1      -7.991   4.006  66.996  1.00  0.00    -0.095 OA 
HETATM   20  C   UNL     1      -6.731   3.731  66.374  1.00  0.00    -0.049 C  
HETATM   21  F   UNL     1      -5.750   3.854  67.306  1.00  0.00    -0.019 F  
HETATM   22  F   UNL     1      -6.730   2.444  65.951  1.00  0.00    -0.035 F  
HETATM   23  O   UNL     1      -6.405   4.577  65.263  1.00  0.00    -0.033 OA 
HETATM   24  C   UNL     1      -7.465   5.429  65.300  1.00  0.00    -0.077 A  
HETATM   25  C   UNL     1      -7.630   6.539  64.496  1.00  0.00    -0.101 A  
ENDBRANCH  12  15
ENDBRANCH   9  12
ENDBRANCH   5   8
BRANCH   7  26
HETATM   26  C   UNL     1      -7.814  11.213  70.529  1.00  0.00     2.537 A  
HETATM   27  C   UNL     1      -7.420  12.420  71.149  1.00  0.00     6.415 A  
HETATM   28  C   UNL     1      -6.202  10.075  71.996  1.00  0.00     0.654 A  
HETATM   29  O   UNL     1      -5.184   8.713  73.662  1.00  0.00    -0.064 OA 
HETATM   30  C   UNL     1      -7.197  10.044  71.002  1.00  0.00     0.493 A  
HETATM   31  C   UNL     1      -5.813  11.291  72.561  1.00  0.00     1.751 A  
HETATM   32  C   UNL     1      -5.563   8.788  72.370  1.00  0.00    -0.062 C  
HETATM   33  O   UNL     1      -5.424   7.871  71.581  1.00  0.00    -0.034 OA 
HETATM   34  C   UNL     1      -6.438  12.462  72.150  1.00  0.00     4.299 A  
ENDBRANCH   7  26
TORSDOF 4
ENDMDL
MODEL      231
REMARK 921   NORMALIZED FREE ENERGY PREDICTED BY IDOCK:   18.63 KCAL/MOL
REMARK 922        TOTAL FREE ENERGY PREDICTED BY IDOCK:   21.84 KCAL/MOL
REMARK 923 INTER-LIGAND FREE ENERGY PREDICTED BY IDOCK:   23.09 KCAL/MOL
REMARK 924 INTRA-LIGAND FREE ENERGY PREDICTED BY IDOCK:   -1.25 KCAL/MOL
REMARK 927      BINDING AFFINITY PREDICTED BY RF-SCORE:    0.00 PKD
ROOT
HETATM    1  C   UNL     1     -12.204   5.947  64.540  1.00  0.00     7.406 C  
HETATM    2  C   UNL     1     -11.341   6.878  65.341  1.00  0.00     6.027 A  
HETATM    3  C   UNL     1     -11.973   7.968  65.961  1.00  0.00     8.213 A  
HETATM    4  C   UNL     1     -11.229   8.916  66.650  1.00  0.00     1.301 A  
HETATM    5  C   UNL     1      -9.855   8.764  66.697  1.00  0.00    -0.265 A  
HETATM    6  N   UNL     1      -9.238   7.704  66.155  1.00  0.00    -0.152 NA 
HETATM    7  C   UNL     1      -9.954   6.748  65.499  1.00  0.00     1.310 A  
ENDROOT
BRANCH   5   8
HETATM    8  N   UNL     1      -9.122   9.773  67.328  1.00  0.00    -0.134 N  
HETATM    9  C   UNL     1      -8.973   9.909  68.687  1.00  0.00    -0.128 C  
HETATM   10  H   UNL     1      -8.663  10.463  66.733  1.00  0.00     0.000 HD 
HETATM   11  O   UNL     1      -9.407   9.197  69.581  1.00  0.00    -0.159 OA 
BRANCH   9  12
HETATM   12  C   UNL     1      -8.164  11.139  69.058  1.00  0.00    -0.066 C  
HETATM   13  C   UNL     1      -6.642  11.043  69.041  1.00  0.00    -0.065 C  
HETATM   14  C   UNL     1      -7.362  11.052  70.350  1.00  0.00     1.099 C  
BRANCH  12  15
HETATM   15  C   UNL     1      -8.845  12.461  68.697  1.00  0.00     0.035 A  
HETATM   16  C   UNL     1      -8.620  14.750  67.800  1.00  0.00    -0.169 A  
HETATM   17  C   UNL     1      -8.120  13.458  67.991  1.00  0.00    -0.160 A  
HETATM   18  C   UNL     1      -9.862  15.032  68.315  1.00  0.00    -0.219 A  
HETATM   19  O   UNL     1     -10.482  16.242  68.281  1.00  0.00    -0.260 OA 
HETATM   20  C   UNL     1     -11.667  15.930  69.023  1.00  0.00    -0.370 C  
HETATM   21  F   UNL     1     -11.691  16.695  70.145  1.00  0.00    -0.135 F  
HETATM   22  F   UNL     1     -12.745  16.270  68.276  1.00  0.00     0.620 F  
HETATM   23  O   UNL     1     -11.795  14.556  69.412  1.00  0.00    -0.290 OA 
HETATM   24  C   UNL     1     -10.605  14.075  68.963  1.00  0.00    -0.187 A  
HETATM   25  C   UNL     1     -10.134  12.791  69.159  1.00  0.00     0.309 A  
ENDBRANCH  12  15
ENDBRANCH   9  12
ENDBRANCH   5   8
BRANCH   7  26
HETATM   26  C   UNL     1      -9.101   5.633  64.995  1.00  0.00     0.130 A  
HETATM   27  C   UNL     1      -8.379   5.774  63.789  1.00  0.00    -0.019 A  
HETATM   28  C   UNL     1      -8.101   3.395  65.189  1.00  0.00    -0.093 A  
HETATM   29  O   UNL     1      -6.844   1.499  65.892  1.00  0.00    -0.032 OA 
HETATM   30  C   UNL     1      -8.914   4.427  65.690  1.00  0.00    -0.132 A  
HETATM   31  C   UNL     1      -7.430   3.557  63.975  1.00  0.00    -0.067 A  
HETATM   32  C   UNL     1      -8.033   2.134  65.968  1.00  0.00    -0.078 C  
HETATM   33  O   UNL     1      -8.962   1.726  66.642  1.00  0.00    -0.123 OA 
HETATM   34  C   UNL     1      -7.555   4.757  63.285  1.00  0.00    -0.060 A  
ENDBRANCH   7  26
TORSDOF 4
ENDMDL
MODEL      232
REMARK 921   NORMALIZED FREE ENERGY PREDICTED BY IDOCK:   25.49 KCAL/MOL
REMARK 922        TOTAL FREE ENERGY PREDICTED BY IDOCK:   30.30 KCAL/MOL
REMARK 923 INTER-LIGAND FREE ENERGY PREDICTED BY IDOCK:   29.61 KCAL/MOL
REMARK 924 INTRA-LIGAND FREE ENERGY PREDICTED BY IDOCK:    0.70 KCAL/MOL
REMARK 927      BINDING AFFINITY PREDICTED BY RF-SCORE:    0.00 PKD
ROOT
HETATM    1  C   UNL     1     -13.614  17.280  68.489  1.00  0.00     8.144 C  
HETATM    2  C   UNL     1     -12.648  16.227  68.029  1.00  0.00     2.047 A  
HETATM    3  C   UNL     1     -12.475  16.072  66.645  1.00  0.00     2.399 A  
HETATM    4  C   UNL     1     -11.661  15.065  66.144  1.00  0.00    -0.159 A  
HETATM    5  C   UNL     1     -11.039  14.217  67.041  1.00  0.00    -0.312 A  
HETATM    6  N   UNL     1     -11.150  14.380  68.368  1.00  0.00    -0.246 NA 
HETATM    7  C   UNL     1     -11.922  15.380  68.879  1.00  0.00    -0.273 A  
ENDROOT
BRANCH   5   8
HETATM    8  N   UNL     1     -10.288  13.164  66.511  1.00  0.00    -0.278 N  
HETATM    9  C   UNL     1     -10.402  11.847  66.884  1.00  0.00    -0.210 C  
HETATM   10  H   UNL     1      -9.603  13.391  65.790  1.00  0.00     0.000 HD 
HETATM   11  O   UNL     1     -11.162  11.343  67.699  1.00  0.00    -0.246 OA 
BRANCH   9  12
HETATM   12  C   UNL     1      -9.409  10.955  66.162  1.00  0.00    -0.211 C  
HETATM   13  C   UNL     1      -7.986  11.467  65.956  1.00  0.00     0.179 C  
HETATM   14  C   UNL     1      -8.932  11.444  64.800  1.00  0.00     0.125 C  
BRANCH  12  15
HETATM   15  C   UNL     1      -9.654   9.459  66.366  1.00  0.00    -0.285 A  
HETATM   16  C   UNL     1     -10.942   7.690  67.510  1.00  0.00    -0.086 A  
HETATM   17  C   UNL     1     -10.770   9.025  67.130  1.00  0.00    -0.206 A  
HETATM   18  C   UNL     1      -9.987   6.788  67.106  1.00  0.00    -0.167 A  
HETATM   19  O   UNL     1      -9.953   5.468  67.428  1.00  0.00    -0.138 OA 
HETATM   20  C   UNL     1      -8.720   5.095  66.801  1.00  0.00    -0.108 C  
HETATM   21  F   UNL     1      -7.857   4.667  67.759  1.00  0.00    -0.083 F  
HETATM   22  F   UNL     1      -8.957   4.050  65.971  1.00  0.00    -0.115 F  
HETATM   23  O   UNL     1      -8.081   6.137  66.052  1.00  0.00    -0.108 OA 
HETATM   24  C   UNL     1      -8.920   7.172  66.329  1.00  0.00    -0.155 A  
HETATM   25  C   UNL     1      -8.733   8.483  65.938  1.00  0.00    -0.203 A  
ENDBRANCH  12  15
ENDBRANCH   9  12
ENDBRANCH   5   8
BRANCH   7  26
HETATM   26  C   UNL     1     -11.896  15.423  70.370  1.00  0.00    -0.366 A  
HETATM   27  C   UNL     1     -12.990  15.955  71.089  1.00  0.00    -0.190 A  
HETATM   28  C   UNL     1     -10.851  14.956  72.546  1.00  0.00     1.281 A  
HETATM   29  O   UNL     1      -9.920  13.889  74.460  1.00  0.00     6.436 OA 
HETATM   30  C   UNL     1     -10.844  14.902  71.141  1.00  0.00     0.135 A  
HETATM   31  C   UNL     1     -11.934  15.522  73.221  1.00  0.00    -0.571 A  
HETATM   32  C   UNL     1      -9.654  14.443  73.259  1.00  0.00     8.543 C  
HETATM   33  O   UNL     1      -8.534  14.492  72.783  1.00  0.00     5.499 OA 
HETATM   34  C   UNL     1     -13.014  16.004  72.490  1.00  0.00    -0.466 A  
ENDBRANCH   7  26
TORSDOF 4
ENDMDL
MODEL      233
REMARK 921   NORMALIZED FREE ENERGY PREDICTED BY IDOCK:   37.08 KCAL/MOL
REMARK 922        TOTAL FREE ENERGY PREDICTED BY IDOCK:   44.61 KCAL/MOL
REMARK 923 INTER-LIGAND FREE ENERGY PREDICTED BY IDOCK:   44.94 KCAL/MOL
REMARK 924 INTRA-LIGAND FREE ENERGY PREDICTED BY IDOCK:   -0.32 KCAL/MOL
REMARK 927      BINDING AFFINITY PREDICTED BY RF-SCORE:    0.00 PKD
ROOT
HETATM    1  C   UNL     1      -8.673  10.382  63.261  1.00  0.00    -0.201 C  
HETATM    2  C   UNL     1      -8.564  11.718  63.938  1.00  0.00     0.998 A  
HETATM    3  C   UNL     1      -9.209  12.804  63.327  1.00  0.00     2.632 A  
HETATM    4  C   UNL     1      -9.085  14.084  63.850  1.00  0.00     6.225 A  
HETATM    5  C   UNL     1      -8.303  14.259  64.977  1.00  0.00     5.637 A  
HETATM    6  N   UNL     1      -7.720  13.227  65.605  1.00  0.00     3.313 NA 
HETATM    7  C   UNL     1      -7.853  11.959  65.122  1.00  0.00     1.886 A  
ENDROOT
BRANCH   5   8
HETATM    8  N   UNL     1      -8.129  15.567  65.437  1.00  0.00     2.230 N  
HETATM    9  C   UNL     1      -6.963  16.072  65.959  1.00  0.00     1.989 C  
HETATM   10  H   UNL     1      -8.931  16.196  65.382  1.00  0.00     0.000 HD 
HETATM   11  O   UNL     1      -5.882  15.519  66.099  1.00  0.00     2.045 OA 
BRANCH   9  12
HETATM   12  C   UNL     1      -7.114  17.510  66.421  1.00  0.00    -0.321 C  
HETATM   13  C   UNL     1      -7.471  18.574  65.387  1.00  0.00     0.376 C  
HETATM   14  C   UNL     1      -6.072  18.495  65.905  1.00  0.00    -0.239 C  
BRANCH  12  15
HETATM   15  C   UNL     1      -7.617  17.651  67.859  1.00  0.00    -0.210 A  
HETATM   16  C   UNL     1      -7.838  16.645  70.103  1.00  0.00     1.724 A  
HETATM   17  C   UNL     1      -7.261  16.677  68.829  1.00  0.00    -0.206 A  
HETATM   18  C   UNL     1      -8.772  17.609  70.400  1.00  0.00     3.698 A  
HETATM   19  O   UNL     1      -9.480  17.701  71.557  1.00  0.00     6.582 OA 
HETATM   20  C   UNL     1     -10.317  18.820  71.242  1.00  0.00     3.023 C  
HETATM   21  F   UNL     1     -11.613  18.412  71.262  1.00  0.00     2.598 F  
HETATM   22  F   UNL     1     -10.170  19.754  72.213  1.00  0.00     1.440 F  
HETATM   23  O   UNL     1     -10.058  19.434  69.973  1.00  0.00     0.172 OA 
HETATM   24  C   UNL     1      -9.104  18.589  69.496  1.00  0.00     0.552 A  
HETATM   25  C   UNL     1      -8.543  18.644  68.235  1.00  0.00    -0.347 A  
ENDBRANCH  12  15
ENDBRANCH   9  12
ENDBRANCH   5   8
BRANCH   7  26
HETATM   26  C   UNL     1      -7.165  10.944  65.971  1.00  0.00    -0.071 A  
HETATM   27  C   UNL     1      -6.264  11.349  66.981  1.00  0.00    -0.123 A  
HETATM   28  C   UNL     1      -6.735   8.631  66.686  1.00  0.00    -0.068 A  
HETATM   29  O   UNL     1      -6.944   6.423  67.552  1.00  0.00    -0.073 OA 
HETATM   30  C   UNL     1      -7.399   9.563  65.869  1.00  0.00    -0.097 A  
HETATM   31  C   UNL     1      -5.824   9.067  67.650  1.00  0.00    -0.043 A  
HETATM   32  C   UNL     1      -7.002   7.191  66.444  1.00  0.00    -0.069 C  
HETATM   33  O   UNL     1      -7.280   6.751  65.343  1.00  0.00    -0.071 OA 
HETATM   34  C   UNL     1      -5.604  10.430  67.810  1.00  0.00    -0.044 A  
ENDBRANCH   7  26
TORSDOF 4
ENDMDL
MODEL      234
REMARK 921   NORMALIZED FREE ENERGY PREDICTED BY IDOCK:   38.32 KCAL/MOL
REMARK 922        TOTAL FREE ENERGY PREDICTED BY IDOCK:   46.14 KCAL/MOL
REMARK 923 INTER-LIGAND FREE ENERGY PREDICTED BY IDOCK:   46.99 KCAL/MOL
REMARK 924 INTRA-LIGAND FREE ENERGY PREDICTED BY IDOCK:   -0.85 KCAL/MOL
REMARK 927      BINDING AFFINITY PREDICTED BY RF-SCORE:    0.00 PKD
ROOT
HETATM    1  C   UNL     1     -11.304   5.584  71.074  1.00  0.00     0.128 C  
HETATM    2  C   UNL     1     -10.510   6.857  71.115  1.00  0.00    -0.234 A  
HETATM    3  C   UNL     1     -10.391   7.502  72.356  1.00  0.00    -0.277 A  
HETATM    4  C   UNL     1      -9.741   8.725  72.456  1.00  0.00    -0.126 A  
HETATM    5  C   UNL     1      -9.229   9.292  71.304  1.00  0.00    -0.091 A  
HETATM    6  N   UNL     1      -9.287   8.668  70.118  1.00  0.00    -0.160 NA 
HETATM    7  C   UNL     1      -9.896   7.454  70.004  1.00  0.00    -0.179 A  
ENDROOT
BRANCH   5   8
HETATM    8  N   UNL     1      -8.650  10.559  71.418  1.00  0.00     3.399 N  
HETATM    9  C   UNL     1      -7.329  10.800  71.708  1.00  0.00     4.804 C  
HETATM   10  H   UNL     1      -9.255  11.368  71.275  1.00  0.00     0.000 HD 
HETATM   11  O   UNL     1      -6.425   9.998  71.893  1.00  0.00    -0.097 OA 
BRANCH   9  12
HETATM   12  C   UNL     1      -7.024  12.283  71.817  1.00  0.00     6.311 C  
HETATM   13  C   UNL     1      -6.370  12.800  73.095  1.00  0.00     3.758 C  
HETATM   14  C   UNL     1      -7.822  13.059  72.858  1.00  0.00    13.599 C  
BRANCH  12  15
HETATM   15  C   UNL     1      -6.708  12.952  70.478  1.00  0.00     1.099 A  
HETATM   16  C   UNL     1      -6.400  15.049  69.211  1.00  0.00    -0.116 A  
HETATM   17  C   UNL     1      -6.504  14.357  70.422  1.00  0.00    -0.100 A  
HETATM   18  C   UNL     1      -6.494  14.317  68.052  1.00  0.00    -0.152 A  
HETATM   19  O   UNL     1      -6.478  14.820  66.789  1.00  0.00     0.339 OA 
HETATM   20  C   UNL     1      -6.686  13.615  66.044  1.00  0.00     5.463 C  
HETATM   21  F   UNL     1      -7.854  13.726  65.358  1.00  0.00     3.102 F  
HETATM   22  F   UNL     1      -5.690  13.494  65.133  1.00  0.00     8.015 F  
HETATM   23  O   UNL     1      -6.737  12.417  66.829  1.00  0.00     0.007 OA 
HETATM   24  C   UNL     1      -6.648  12.952  68.076  1.00  0.00    -0.107 A  
HETATM   25  C   UNL     1      -6.746  12.246  69.260  1.00  0.00    -0.075 A  
ENDBRANCH  12  15
ENDBRANCH   9  12
ENDBRANCH   5   8
BRANCH   7  26
HETATM   26  C   UNL     1      -9.833   6.905  68.619  1.00  0.00    -0.145 A  
HETATM   27  C   UNL     1     -10.883   6.104  68.119  1.00  0.00    -0.389 A  
HETATM   28  C   UNL     1      -8.759   6.653  66.422  1.00  0.00    -0.144 A  
HETATM   29  O   UNL     1      -7.833   7.048  64.264  1.00  0.00    -0.112 OA 
HETATM   30  C   UNL     1      -8.788   7.185  67.723  1.00  0.00    -0.124 A  
HETATM   31  C   UNL     1      -9.797   5.835  65.974  1.00  0.00    -0.019 A  
HETATM   32  C   UNL     1      -7.570   6.953  65.584  1.00  0.00    -0.089 C  
HETATM   33  O   UNL     1      -6.461   7.128  66.055  1.00  0.00    -0.048 OA 
HETATM   34  C   UNL     1     -10.871   5.577  66.819  1.00  0.00    -0.252 A  
ENDBRANCH   7  26
TORSDOF 4
ENDMDL
MODEL      235
REMARK 921   NORMALIZED FREE ENERGY PREDICTED BY IDOCK:   53.22 KCAL/MOL
REMARK 922        TOTAL FREE ENERGY PREDICTED BY IDOCK:   64.52 KCAL/MOL
REMARK 923 INTER-LIGAND FREE ENERGY PREDICTED BY IDOCK:   64.19 KCAL/MOL
REMARK 924 INTRA-LIGAND FREE ENERGY PREDICTED BY IDOCK:    0.33 KCAL/MOL
REMARK 927      BINDING AFFINITY PREDICTED BY RF-SCORE:    0.00 PKD
ROOT
HETATM    1  C   UNL     1     -11.912  12.024  66.826  1.00  0.00    -0.087 C  
HETATM    2  C   UNL     1     -12.136  13.430  67.302  1.00  0.00    -0.352 A  
HETATM    3  C   UNL     1     -12.111  14.449  66.337  1.00  0.00    -0.390 A  
HETATM    4  C   UNL     1     -12.229  15.780  66.712  1.00  0.00     1.317 A  
HETATM    5  C   UNL     1     -12.358  16.073  68.057  1.00  0.00     1.106 A  
HETATM    6  N   UNL     1     -12.435  15.112  68.990  1.00  0.00     0.013 NA 
HETATM    7  C   UNL     1     -12.350  13.799  68.638  1.00  0.00     0.021 A  
ENDROOT
BRANCH   5   8
HETATM    8  N   UNL     1     -12.395  17.423  68.416  1.00  0.00     1.759 N  
HETATM    9  C   UNL     1     -12.108  18.472  67.576  1.00  0.00     3.184 C  
HETATM   10  H   UNL     1     -12.655  17.648  69.377  1.00  0.00     0.000 HD 
HETATM   11  O   UNL     1     -11.800  18.445  66.393  1.00  0.00     2.065 OA 
BRANCH   9  12
HETATM   12  C   UNL     1     -12.184  19.813  68.282  1.00  0.00     4.192 C  
HETATM   13  C   UNL     1     -13.544  20.493  68.411  1.00  0.00     6.908 C  
HETATM   14  C   UNL     1     -12.556  21.010  67.415  1.00  0.00     7.268 C  
BRANCH  12  15
HETATM   15  C   UNL     1     -11.138  19.995  69.384  1.00  0.00     1.721 A  
HETATM   16  C   UNL     1      -8.963  20.947  70.064  1.00  0.00     2.641 A  
HETATM   17  C   UNL     1     -10.046  20.881  69.181  1.00  0.00     0.770 A  
HETATM   18  C   UNL     1      -8.990  20.122  71.163  1.00  0.00     2.154 A  
HETATM   19  O   UNL     1      -8.006  20.004  72.093  1.00  0.00     1.653 OA 
HETATM   20  C   UNL     1      -8.566  18.969  72.910  1.00  0.00     7.808 C  
HETATM   21  F   UNL     1      -7.740  17.890  72.870  1.00  0.00     8.393 F  
HETATM   22  F   UNL     1      -8.603  19.404  74.193  1.00  0.00     2.134 F  
HETATM   23  O   UNL     1      -9.881  18.543  72.533  1.00  0.00     5.483 OA 
HETATM   24  C   UNL     1     -10.054  19.287  71.408  1.00  0.00     2.970 A  
HETATM   25  C   UNL     1     -11.136  19.209  70.553  1.00  0.00     3.805 A  
ENDBRANCH  12  15
ENDBRANCH   9  12
ENDBRANCH   5   8
BRANCH   7  26
HETATM   26  C   UNL     1     -12.489  12.880  69.804  1.00  0.00     0.027 A  
HETATM   27  C   UNL     1     -12.931  13.371  71.053  1.00  0.00    -0.260 A  
HETATM   28  C   UNL     1     -12.399  10.656  70.850  1.00  0.00    -0.502 A  
HETATM   29  O   UNL     1     -12.790   8.382  71.439  1.00  0.00    -0.303 OA 
HETATM   30  C   UNL     1     -12.256  11.496  69.731  1.00  0.00    -0.310 A  
HETATM   31  C   UNL     1     -12.803  11.184  72.077  1.00  0.00    -0.285 A  
HETATM   32  C   UNL     1     -12.055   9.221  70.679  1.00  0.00    -0.100 C  
HETATM   33  O   UNL     1     -11.204   8.838  69.897  1.00  0.00    -0.182 OA 
HETATM   34  C   UNL     1     -13.088  12.541  72.172  1.00  0.00    -0.428 A  
ENDBRANCH   7  26
TORSDOF 4
ENDMDL
