MODEL        1
REMARK 921   NORMALIZED FREE ENERGY PREDICTED BY IDOCK:   -7.97 KCAL/MOL
REMARK 922        TOTAL FREE ENERGY PREDICTED BY IDOCK:  -11.06 KCAL/MOL
REMARK 923 INTER-LIGAND FREE ENERGY PREDICTED BY IDOCK:  -10.30 KCAL/MOL
REMARK 924 INTRA-LIGAND FREE ENERGY PREDICTED BY IDOCK:   -0.76 KCAL/MOL
REMARK 927      BINDING AFFINITY PREDICTED BY RF-SCORE:    0.00 PKD
ROOT
HETATM    1  C   UNL     1      -9.934  11.075  68.745  1.00  0.00    -0.207 C  
HETATM    2  C   UNL     1      -9.115  11.171  67.482  1.00  0.00    -0.146 C  
HETATM    3  C   UNL     1     -10.017  11.365  66.285  1.00  0.00    -0.224 C  
HETATM    4  N   UNL     1     -10.839  12.578  66.412  1.00  0.00    -0.255 NA 
HETATM    5  C   UNL     1     -12.010   6.913  71.386  1.00  0.00    -0.349 C  
HETATM    6  C   UNL     1     -11.671  12.564  67.647  1.00  0.00    -0.361 C  
HETATM    7  C   UNL     1     -10.911  12.275  68.955  1.00  0.00    -0.265 C  
HETATM    8  N   UNL     1     -11.309   8.086  70.930  1.00  0.00    -0.275 NA 
HETATM    9  C   UNL     1     -10.193   7.928  69.963  1.00  0.00    -0.208 C  
HETATM   10  C   UNL     1     -11.791  11.635  70.019  1.00  0.00    -0.435 A  
HETATM   11  C   UNL     1     -12.598  12.134  71.010  1.00  0.00    -0.359 A  
HETATM   12  C   UNL     1     -10.553   8.530  68.609  1.00  0.00    -0.118 C  
HETATM   13  N   UNL     1     -10.852   9.939  68.740  1.00  0.00    -0.221 NA 
HETATM   14  C   UNL     1     -11.580  10.255  69.922  1.00  0.00    -0.256 A  
HETATM   15  C   UNL     1     -13.115  11.217  71.942  1.00  0.00    -0.513 A  
HETATM   16  C   UNL     1     -12.752   9.840  71.923  1.00  0.00    -0.501 A  
HETATM   17  C   UNL     1     -11.923   9.345  70.922  1.00  0.00    -0.280 A  
ENDROOT
BRANCH   4  18
HETATM   18  C   UNL     1     -11.701  12.633  65.211  1.00  0.00    -0.378 C  
BRANCH  18  19
HETATM   19  C   UNL     1     -11.695  13.987  64.514  1.00  0.00    -0.428 C  
BRANCH  19  20
HETATM   20  C   UNL     1     -10.607  14.892  65.072  1.00  0.00    -0.446 C  
BRANCH  20  21
HETATM   21  C   UNL     1     -11.009  16.347  65.006  1.00  0.00    -0.252 C  
HETATM   22  O   UNL     1     -11.612  16.822  64.046  1.00  0.00    -1.195 OA 
BRANCH  21  23
HETATM   23  C   UNL     1     -10.656  17.226  66.156  1.00  0.00    -0.204 A  
HETATM   24  C   UNL     1     -10.115  17.398  68.512  1.00  0.00    -0.352 A  
HETATM   25  C   UNL     1     -10.438  16.621  67.402  1.00  0.00    -0.314 A  
HETATM   26  C   UNL     1     -10.013  18.778  68.375  1.00  0.00    -0.392 A  
HETATM   27  F   UNL     1      -9.712  19.525  69.441  1.00  0.00    -0.434 F  
HETATM   28  C   UNL     1     -10.543  18.619  66.030  1.00  0.00    -0.410 A  
HETATM   29  C   UNL     1     -10.221  19.394  67.146  1.00  0.00    -0.521 A  
ENDBRANCH  21  23
ENDBRANCH  20  21
ENDBRANCH  19  20
ENDBRANCH  18  19
ENDBRANCH   4  18
TORSDOF 5
ENDMDL
MODEL        2
REMARK 921   NORMALIZED FREE ENERGY PREDICTED BY IDOCK:   -7.75 KCAL/MOL
REMARK 922        TOTAL FREE ENERGY PREDICTED BY IDOCK:  -10.77 KCAL/MOL
REMARK 923 INTER-LIGAND FREE ENERGY PREDICTED BY IDOCK:   -9.41 KCAL/MOL
REMARK 924 INTRA-LIGAND FREE ENERGY PREDICTED BY IDOCK:   -1.37 KCAL/MOL
REMARK 927      BINDING AFFINITY PREDICTED BY RF-SCORE:    0.00 PKD
ROOT
HETATM    1  C   UNL     1      -9.881  10.930  68.776  1.00  0.00    -0.196 C  
HETATM    2  C   UNL     1      -9.039  10.919  67.524  1.00  0.00    -0.142 C  
HETATM    3  C   UNL     1      -9.919  11.027  66.300  1.00  0.00    -0.224 C  
HETATM    4  N   UNL     1     -10.732  12.254  66.316  1.00  0.00    -0.252 NA 
HETATM    5  C   UNL     1     -12.044   7.009  71.700  1.00  0.00    -0.347 C  
HETATM    6  C   UNL     1     -11.583  12.344  67.534  1.00  0.00    -0.365 C  
HETATM    7  C   UNL     1     -10.849  12.152  68.874  1.00  0.00    -0.241 C  
HETATM    8  N   UNL     1     -11.323   8.136  71.165  1.00  0.00    -0.264 NA 
HETATM    9  C   UNL     1     -10.193   7.892  70.233  1.00  0.00    -0.200 C  
HETATM   10  C   UNL     1     -11.753  11.606  69.969  1.00  0.00    -0.402 A  
HETATM   11  C   UNL     1     -12.571  12.189  70.904  1.00  0.00    -0.340 A  
HETATM   12  C   UNL     1     -10.524   8.388  68.830  1.00  0.00    -0.178 C  
HETATM   13  N   UNL     1     -10.810   9.806  68.844  1.00  0.00    -0.214 NA 
HETATM   14  C   UNL     1     -11.555  10.221  69.985  1.00  0.00    -0.276 A  
HETATM   15  C   UNL     1     -13.113  11.353  71.896  1.00  0.00    -0.505 A  
HETATM   16  C   UNL     1     -12.764   9.976  71.991  1.00  0.00    -0.439 A  
HETATM   17  C   UNL     1     -11.923   9.396  71.047  1.00  0.00    -0.315 A  
ENDROOT
BRANCH   4  18
HETATM   18  C   UNL     1     -11.573  12.222  65.101  1.00  0.00    -0.351 C  
BRANCH  18  19
HETATM   19  C   UNL     1     -11.318  13.383  64.148  1.00  0.00    -0.398 C  
BRANCH  19  20
HETATM   20  C   UNL     1     -12.140  14.604  64.534  1.00  0.00    -0.490 C  
BRANCH  20  21
HETATM   21  C   UNL     1     -11.255  15.766  64.921  1.00  0.00    -0.350 C  
HETATM   22  O   UNL     1     -11.167  16.785  64.239  1.00  0.00    -1.163 OA 
BRANCH  21  23
HETATM   23  C   UNL     1     -10.469  15.660  66.182  1.00  0.00    -0.327 A  
HETATM   24  C   UNL     1     -10.474  15.661  68.605  1.00  0.00    -0.231 A  
HETATM   25  C   UNL     1     -11.163  15.745  67.398  1.00  0.00    -0.179 A  
HETATM   26  C   UNL     1      -9.094  15.494  68.596  1.00  0.00    -0.202 A  
HETATM   27  F   UNL     1      -8.432  15.422  69.755  1.00  0.00    -0.249 F  
HETATM   28  C   UNL     1      -9.077  15.485  66.187  1.00  0.00    -0.359 A  
HETATM   29  C   UNL     1      -8.390  15.403  67.400  1.00  0.00    -0.204 A  
ENDBRANCH  21  23
ENDBRANCH  20  21
ENDBRANCH  19  20
ENDBRANCH  18  19
ENDBRANCH   4  18
TORSDOF 5
ENDMDL
MODEL        3
REMARK 921   NORMALIZED FREE ENERGY PREDICTED BY IDOCK:   -7.65 KCAL/MOL
REMARK 922        TOTAL FREE ENERGY PREDICTED BY IDOCK:  -10.65 KCAL/MOL
REMARK 923 INTER-LIGAND FREE ENERGY PREDICTED BY IDOCK:   -8.92 KCAL/MOL
REMARK 924 INTRA-LIGAND FREE ENERGY PREDICTED BY IDOCK:   -1.73 KCAL/MOL
REMARK 927      BINDING AFFINITY PREDICTED BY RF-SCORE:    0.00 PKD
ROOT
HETATM    1  C   UNL     1      -9.291   9.918  68.800  1.00  0.00    -0.157 C  
HETATM    2  C   UNL     1      -8.298   9.676  67.690  1.00  0.00    -0.121 C  
HETATM    3  C   UNL     1      -9.003   9.643  66.354  1.00  0.00    -0.152 C  
HETATM    4  N   UNL     1      -9.722  10.898  66.084  1.00  0.00    -0.202 NA 
HETATM    5  C   UNL     1     -12.083   6.597  71.926  1.00  0.00    -0.340 C  
HETATM    6  C   UNL     1     -10.715  11.214  67.147  1.00  0.00    -0.259 C  
HETATM    7  C   UNL     1     -10.174  11.189  68.589  1.00  0.00    -0.216 C  
HETATM    8  N   UNL     1     -11.222   7.592  71.340  1.00  0.00    -0.243 NA 
HETATM    9  C   UNL     1     -10.001   7.153  70.618  1.00  0.00    -0.190 C  
HETATM   10  C   UNL     1     -11.248  10.860  69.616  1.00  0.00    -0.348 A  
HETATM   11  C   UNL     1     -12.136  11.618  70.337  1.00  0.00    -0.462 A  
HETATM   12  C   UNL     1     -10.113   7.449  69.126  1.00  0.00    -0.189 C  
HETATM   13  N   UNL     1     -10.298   8.866  68.899  1.00  0.00    -0.210 NA 
HETATM   14  C   UNL     1     -11.152   9.485  69.856  1.00  0.00    -0.216 A  
HETATM   15  C   UNL     1     -12.859  10.969  71.354  1.00  0.00    -0.548 A  
HETATM   16  C   UNL     1     -12.624   9.606  71.691  1.00  0.00    -0.493 A  
HETATM   17  C   UNL     1     -11.711   8.849  70.963  1.00  0.00    -0.289 A  
ENDROOT
BRANCH   4  18
HETATM   18  C   UNL     1     -10.400  10.726  64.781  1.00  0.00    -0.310 C  
BRANCH  18  19
HETATM   19  C   UNL     1     -11.622  11.618  64.603  1.00  0.00    -0.199 C  
BRANCH  19  20
HETATM   20  C   UNL     1     -11.276  12.881  63.828  1.00  0.00    -0.452 C  
BRANCH  20  21
HETATM   21  C   UNL     1     -11.788  14.118  64.528  1.00  0.00    -0.436 C  
HETATM   22  O   UNL     1     -12.589  14.889  64.004  1.00  0.00    -0.832 OA 
BRANCH  21  23
HETATM   23  C   UNL     1     -11.298  14.398  65.906  1.00  0.00    -0.332 A  
HETATM   24  C   UNL     1      -9.416  14.901  67.349  1.00  0.00    -0.206 A  
HETATM   25  C   UNL     1      -9.928  14.643  66.079  1.00  0.00    -0.337 A  
HETATM   26  C   UNL     1     -10.274  14.911  68.443  1.00  0.00    -0.231 A  
HETATM   27  F   UNL     1      -9.782  15.150  69.662  1.00  0.00    -0.221 F  
HETATM   28  C   UNL     1     -12.153  14.418  67.018  1.00  0.00    -0.374 A  
HETATM   29  C   UNL     1     -11.635  14.675  68.290  1.00  0.00    -0.353 A  
ENDBRANCH  21  23
ENDBRANCH  20  21
ENDBRANCH  19  20
ENDBRANCH  18  19
ENDBRANCH   4  18
TORSDOF 5
ENDMDL
MODEL        4
REMARK 921   NORMALIZED FREE ENERGY PREDICTED BY IDOCK:   -7.58 KCAL/MOL
REMARK 922        TOTAL FREE ENERGY PREDICTED BY IDOCK:  -10.55 KCAL/MOL
REMARK 923 INTER-LIGAND FREE ENERGY PREDICTED BY IDOCK:   -9.51 KCAL/MOL
REMARK 924 INTRA-LIGAND FREE ENERGY PREDICTED BY IDOCK:   -1.04 KCAL/MOL
REMARK 927      BINDING AFFINITY PREDICTED BY RF-SCORE:    0.00 PKD
ROOT
HETATM    1  C   UNL     1     -11.900  14.540  65.906  1.00  0.00    -0.331 C  
HETATM    2  C   UNL     1     -11.830  14.035  64.486  1.00  0.00    -0.452 C  
HETATM    3  C   UNL     1     -10.856  12.884  64.387  1.00  0.00    -0.380 C  
HETATM    4  N   UNL     1     -11.235  11.769  65.269  1.00  0.00    -0.288 NA 
HETATM    5  C   UNL     1      -9.239  18.387  68.499  1.00  0.00    -0.328 C  
HETATM    6  C   UNL     1     -11.339  12.194  66.693  1.00  0.00    -0.350 C  
HETATM    7  C   UNL     1     -12.221  13.428  66.955  1.00  0.00    -0.343 C  
HETATM    8  N   UNL     1     -10.195  17.509  67.873  1.00  0.00    -0.332 NA 
HETATM    9  C   UNL     1     -10.273  17.468  66.391  1.00  0.00    -0.354 C  
HETATM   10  C   UNL     1     -11.803  14.199  68.199  1.00  0.00    -0.387 A  
HETATM   11  C   UNL     1     -12.140  14.113  69.526  1.00  0.00    -0.388 A  
HETATM   12  C   UNL     1      -9.805  16.118  65.857  1.00  0.00    -0.353 C  
HETATM   13  N   UNL     1     -10.619  15.048  66.390  1.00  0.00    -0.302 NA 
HETATM   14  C   UNL     1     -10.974  15.235  67.757  1.00  0.00    -0.312 A  
HETATM   15  C   UNL     1     -11.688  15.141  70.373  1.00  0.00    -0.333 A  
HETATM   16  C   UNL     1     -10.986  16.274  69.871  1.00  0.00    -0.365 A  
HETATM   17  C   UNL     1     -10.660  16.358  68.521  1.00  0.00    -0.304 A  
ENDROOT
BRANCH   4  18
HETATM   18  C   UNL     1     -10.191  10.733  65.116  1.00  0.00    -0.298 C  
BRANCH  18  19
HETATM   19  C   UNL     1      -9.455  10.407  66.409  1.00  0.00    -0.209 C  
BRANCH  19  20
HETATM   20  C   UNL     1     -10.050   9.183  67.090  1.00  0.00    -0.301 C  
BRANCH  20  21
HETATM   21  C   UNL     1      -9.566   9.054  68.516  1.00  0.00    -0.153 C  
HETATM   22  O   UNL     1      -8.382   8.878  68.798  1.00  0.00    -0.120 OA 
BRANCH  21  23
HETATM   23  C   UNL     1     -10.572   9.149  69.610  1.00  0.00    -0.237 A  
HETATM   24  C   UNL     1     -12.121  10.538  70.853  1.00  0.00    -0.487 A  
HETATM   25  C   UNL     1     -11.180  10.393  69.837  1.00  0.00    -0.371 A  
HETATM   26  C   UNL     1     -12.450   9.442  71.643  1.00  0.00    -0.378 A  
HETATM   27  F   UNL     1     -13.346   9.584  72.624  1.00  0.00    -0.476 F  
HETATM   28  C   UNL     1     -10.919   8.050  70.410  1.00  0.00    -0.248 A  
HETATM   29  C   UNL     1     -11.861   8.201  71.430  1.00  0.00    -0.329 A  
ENDBRANCH  21  23
ENDBRANCH  20  21
ENDBRANCH  19  20
ENDBRANCH  18  19
ENDBRANCH   4  18
TORSDOF 5
ENDMDL
MODEL        5
REMARK 921   NORMALIZED FREE ENERGY PREDICTED BY IDOCK:   -7.58 KCAL/MOL
REMARK 922        TOTAL FREE ENERGY PREDICTED BY IDOCK:  -10.55 KCAL/MOL
REMARK 923 INTER-LIGAND FREE ENERGY PREDICTED BY IDOCK:   -9.34 KCAL/MOL
REMARK 924 INTRA-LIGAND FREE ENERGY PREDICTED BY IDOCK:   -1.21 KCAL/MOL
REMARK 927      BINDING AFFINITY PREDICTED BY RF-SCORE:    0.00 PKD
ROOT
HETATM    1  C   UNL     1     -10.018  15.205  66.528  1.00  0.00    -0.266 C  
HETATM    2  C   UNL     1     -10.270  16.645  66.899  1.00  0.00    -0.291 C  
HETATM    3  C   UNL     1     -11.035  16.725  68.200  1.00  0.00    -0.309 C  
HETATM    4  N   UNL     1     -10.311  16.071  69.301  1.00  0.00    -0.232 NA 
HETATM    5  C   UNL     1     -12.750  11.723  63.526  1.00  0.00    -0.306 C  
HETATM    6  C   UNL     1     -10.011  14.644  69.003  1.00  0.00    -0.193 C  
HETATM    7  C   UNL     1      -9.318  14.378  67.654  1.00  0.00    -0.200 C  
HETATM    8  N   UNL     1     -11.796  12.610  64.141  1.00  0.00    -0.377 NA 
HETATM    9  C   UNL     1     -11.996  14.077  64.025  1.00  0.00    -0.354 C  
HETATM   10  C   UNL     1      -9.616  12.993  67.100  1.00  0.00    -0.230 A  
HETATM   11  C   UNL     1      -9.022  11.764  67.247  1.00  0.00    -0.172 A  
HETATM   12  C   UNL     1     -12.320  14.693  65.381  1.00  0.00    -0.195 C  
HETATM   13  N   UNL     1     -11.250  14.448  66.323  1.00  0.00    -0.332 NA 
HETATM   14  C   UNL     1     -10.678  13.149  66.203  1.00  0.00    -0.278 A  
HETATM   15  C   UNL     1      -9.473  10.727  66.410  1.00  0.00    -0.200 A  
HETATM   16  C   UNL     1     -10.440  10.952  65.389  1.00  0.00    -0.291 A  
HETATM   17  C   UNL     1     -11.026  12.205  65.239  1.00  0.00    -0.304 A  
ENDROOT
BRANCH   4  18
HETATM   18  C   UNL     1     -11.173  16.178  70.498  1.00  0.00    -0.363 C  
BRANCH  18  19
HETATM   19  C   UNL     1     -11.433  14.844  71.187  1.00  0.00    -0.312 C  
BRANCH  19  20
HETATM   20  C   UNL     1     -12.819  14.311  70.854  1.00  0.00    -0.416 C  
BRANCH  20  21
HETATM   21  C   UNL     1     -13.176  13.122  71.716  1.00  0.00    -0.403 C  
HETATM   22  O   UNL     1     -13.853  13.226  72.737  1.00  0.00    -0.690 OA 
BRANCH  21  23
HETATM   23  C   UNL     1     -12.685  11.780  71.297  1.00  0.00    -0.420 A  
HETATM   24  C   UNL     1     -12.656   9.391  71.704  1.00  0.00    -0.460 A  
HETATM   25  C   UNL     1     -13.094  10.667  72.048  1.00  0.00    -0.501 A  
HETATM   26  C   UNL     1     -11.809   9.228  70.613  1.00  0.00    -0.192 A  
HETATM   27  F   UNL     1     -11.382   8.004  70.289  1.00  0.00    -0.271 F  
HETATM   28  C   UNL     1     -11.836  11.600  70.195  1.00  0.00    -0.428 A  
HETATM   29  C   UNL     1     -11.398  10.318  69.855  1.00  0.00    -0.354 A  
ENDBRANCH  21  23
ENDBRANCH  20  21
ENDBRANCH  19  20
ENDBRANCH  18  19
ENDBRANCH   4  18
TORSDOF 5
ENDMDL
MODEL        6
REMARK 921   NORMALIZED FREE ENERGY PREDICTED BY IDOCK:   -7.57 KCAL/MOL
REMARK 922        TOTAL FREE ENERGY PREDICTED BY IDOCK:  -10.54 KCAL/MOL
REMARK 923 INTER-LIGAND FREE ENERGY PREDICTED BY IDOCK:   -9.54 KCAL/MOL
REMARK 924 INTRA-LIGAND FREE ENERGY PREDICTED BY IDOCK:   -1.00 KCAL/MOL
REMARK 927      BINDING AFFINITY PREDICTED BY RF-SCORE:    0.00 PKD
ROOT
HETATM    1  C   UNL     1      -8.595  11.545  66.537  1.00  0.00    -0.172 C  
HETATM    2  C   UNL     1      -7.746  10.914  67.612  1.00  0.00    -0.108 C  
HETATM    3  C   UNL     1      -8.623  10.305  68.683  1.00  0.00    -0.128 C  
HETATM    4  N   UNL     1      -9.529   9.285  68.132  1.00  0.00    -0.137 NA 
HETATM    5  C   UNL     1     -10.465  16.512  65.872  1.00  0.00    -0.323 C  
HETATM    6  C   UNL     1     -10.394   9.831  67.051  1.00  0.00    -0.239 C  
HETATM    7  C   UNL     1      -9.657  10.578  65.924  1.00  0.00    -0.254 C  
HETATM    8  N   UNL     1      -9.831  15.221  65.789  1.00  0.00    -0.345 NA 
HETATM    9  C   UNL     1      -8.678  14.925  66.678  1.00  0.00    -0.227 C  
HETATM   10  C   UNL     1     -10.523  11.631  65.249  1.00  0.00    -0.323 A  
HETATM   11  C   UNL     1     -11.392  11.608  64.187  1.00  0.00    -0.397 A  
HETATM   12  C   UNL     1      -9.036  13.854  67.701  1.00  0.00    -0.197 C  
HETATM   13  N   UNL     1      -9.434  12.630  67.041  1.00  0.00    -0.213 NA 
HETATM   14  C   UNL     1     -10.217  12.846  65.871  1.00  0.00    -0.290 A  
HETATM   15  C   UNL     1     -11.874  12.845  63.723  1.00  0.00    -0.571 A  
HETATM   16  C   UNL     1     -11.418  14.081  64.265  1.00  0.00    -0.314 A  
HETATM   17  C   UNL     1     -10.527  14.095  65.333  1.00  0.00    -0.357 A  
ENDROOT
BRANCH   4  18
HETATM   18  C   UNL     1     -10.356   8.800  69.258  1.00  0.00    -0.214 C  
BRANCH  18  19
HETATM   19  C   UNL     1     -10.467   9.792  70.409  1.00  0.00    -0.358 C  
BRANCH  19  20
HETATM   20  C   UNL     1     -11.910  10.218  70.635  1.00  0.00    -0.439 C  
BRANCH  20  21
HETATM   21  C   UNL     1     -12.237  11.487  69.882  1.00  0.00    -0.258 C  
HETATM   22  O   UNL     1     -12.268  11.536  68.654  1.00  0.00    -0.492 OA 
BRANCH  21  23
HETATM   23  C   UNL     1     -12.534  12.714  70.671  1.00  0.00    -0.323 A  
HETATM   24  C   UNL     1     -12.306  15.118  70.885  1.00  0.00    -0.412 A  
HETATM   25  C   UNL     1     -12.063  13.941  70.181  1.00  0.00    -0.418 A  
HETATM   26  C   UNL     1     -13.017  15.067  72.079  1.00  0.00    -0.343 A  
HETATM   27  F   UNL     1     -13.243  16.194  72.759  1.00  0.00    -0.510 F  
HETATM   28  C   UNL     1     -13.257  12.678  71.873  1.00  0.00    -0.504 A  
HETATM   29  C   UNL     1     -13.496  13.860  72.577  1.00  0.00    -0.676 A  
ENDBRANCH  21  23
ENDBRANCH  20  21
ENDBRANCH  19  20
ENDBRANCH  18  19
ENDBRANCH   4  18
TORSDOF 5
ENDMDL
MODEL        7
REMARK 921   NORMALIZED FREE ENERGY PREDICTED BY IDOCK:   -7.49 KCAL/MOL
REMARK 922        TOTAL FREE ENERGY PREDICTED BY IDOCK:  -10.44 KCAL/MOL
REMARK 923 INTER-LIGAND FREE ENERGY PREDICTED BY IDOCK:   -9.34 KCAL/MOL
REMARK 924 INTRA-LIGAND FREE ENERGY PREDICTED BY IDOCK:   -1.10 KCAL/MOL
REMARK 927      BINDING AFFINITY PREDICTED BY RF-SCORE:    0.00 PKD
ROOT
HETATM    1  C   UNL     1     -11.964  14.395  65.940  1.00  0.00    -0.359 C  
HETATM    2  C   UNL     1     -11.888  13.840  64.539  1.00  0.00    -0.445 C  
HETATM    3  C   UNL     1     -10.851  12.743  64.466  1.00  0.00    -0.347 C  
HETATM    4  N   UNL     1     -11.152  11.643  65.397  1.00  0.00    -0.274 NA 
HETATM    5  C   UNL     1      -9.486  18.483  68.338  1.00  0.00    -0.341 C  
HETATM    6  C   UNL     1     -11.257  12.116  66.804  1.00  0.00    -0.322 C  
HETATM    7  C   UNL     1     -12.204  13.308  67.036  1.00  0.00    -0.310 C  
HETATM    8  N   UNL     1     -10.401  17.529  67.763  1.00  0.00    -0.352 NA 
HETATM    9  C   UNL     1     -10.500  17.426  66.285  1.00  0.00    -0.276 C  
HETATM   10  C   UNL     1     -11.812  14.148  68.242  1.00  0.00    -0.391 A  
HETATM   11  C   UNL     1     -12.123  14.095  69.578  1.00  0.00    -0.388 A  
HETATM   12  C   UNL     1      -9.964  16.085  65.794  1.00  0.00    -0.351 C  
HETATM   13  N   UNL     1     -10.707  14.993  66.382  1.00  0.00    -0.315 NA 
HETATM   14  C   UNL     1     -11.050  15.212  67.747  1.00  0.00    -0.313 A  
HETATM   15  C   UNL     1     -11.716  15.178  70.377  1.00  0.00    -0.333 A  
HETATM   16  C   UNL     1     -11.089  16.329  69.820  1.00  0.00    -0.337 A  
HETATM   17  C   UNL     1     -10.789  16.380  68.463  1.00  0.00    -0.339 A  
ENDROOT
BRANCH   4  18
HETATM   18  C   UNL     1     -10.053  10.662  65.263  1.00  0.00    -0.297 C  
BRANCH  18  19
HETATM   19  C   UNL     1      -9.332  10.369  66.572  1.00  0.00    -0.193 C  
BRANCH  19  20
HETATM   20  C   UNL     1      -9.859   9.097  67.221  1.00  0.00    -0.244 C  
BRANCH  20  21
HETATM   21  C   UNL     1      -9.473   9.020  68.680  1.00  0.00    -0.147 C  
HETATM   22  O   UNL     1      -8.322   8.794  69.047  1.00  0.00    -0.125 OA 
BRANCH  21  23
HETATM   23  C   UNL     1     -10.538   9.231  69.700  1.00  0.00    -0.241 A  
HETATM   24  C   UNL     1     -12.027   8.248  71.340  1.00  0.00    -0.333 A  
HETATM   25  C   UNL     1     -11.025   8.107  70.384  1.00  0.00    -0.248 A  
HETATM   26  C   UNL     1     -12.543   9.511  71.610  1.00  0.00    -0.388 A  
HETATM   27  F   UNL     1     -13.511   9.645  72.521  1.00  0.00    -0.469 F  
HETATM   28  C   UNL     1     -11.063  10.500  69.987  1.00  0.00    -0.376 A  
HETATM   29  C   UNL     1     -12.069  10.636  70.945  1.00  0.00    -0.489 A  
ENDBRANCH  21  23
ENDBRANCH  20  21
ENDBRANCH  19  20
ENDBRANCH  18  19
ENDBRANCH   4  18
TORSDOF 5
ENDMDL
MODEL        8
REMARK 921   NORMALIZED FREE ENERGY PREDICTED BY IDOCK:   -7.33 KCAL/MOL
REMARK 922        TOTAL FREE ENERGY PREDICTED BY IDOCK:  -10.23 KCAL/MOL
REMARK 923 INTER-LIGAND FREE ENERGY PREDICTED BY IDOCK:   -9.11 KCAL/MOL
REMARK 924 INTRA-LIGAND FREE ENERGY PREDICTED BY IDOCK:   -1.12 KCAL/MOL
REMARK 927      BINDING AFFINITY PREDICTED BY RF-SCORE:    0.00 PKD
ROOT
HETATM    1  C   UNL     1      -9.305  11.667  67.107  1.00  0.00    -0.174 C  
HETATM    2  C   UNL     1      -8.640  10.708  68.064  1.00  0.00    -0.122 C  
HETATM    3  C   UNL     1      -9.505  10.501  69.285  1.00  0.00    -0.173 C  
HETATM    4  N   UNL     1     -10.833   9.976  68.932  1.00  0.00    -0.219 NA 
HETATM    5  C   UNL     1      -8.983  16.972  66.517  1.00  0.00    -0.269 C  
HETATM    6  C   UNL     1     -11.550  10.864  67.976  1.00  0.00    -0.215 C  
HETATM    7  C   UNL     1     -10.759  11.256  66.714  1.00  0.00    -0.323 C  
HETATM    8  N   UNL     1      -8.976  15.537  66.395  1.00  0.00    -0.303 NA 
HETATM    9  C   UNL     1      -7.928  14.758  67.103  1.00  0.00    -0.174 C  
HETATM   10  C   UNL     1     -11.196  12.594  66.136  1.00  0.00    -0.350 A  
HETATM   11  C   UNL     1     -12.153  12.969  65.226  1.00  0.00    -0.484 A  
HETATM   12  C   UNL     1      -8.535  13.914  68.219  1.00  0.00    -0.169 C  
HETATM   13  N   UNL     1      -9.513  12.991  67.686  1.00  0.00    -0.194 NA 
HETATM   14  C   UNL     1     -10.310  13.549  66.646  1.00  0.00    -0.271 A  
HETATM   15  C   UNL     1     -12.136  14.305  64.787  1.00  0.00    -0.457 A  
HETATM   16  C   UNL     1     -11.120  15.216  65.193  1.00  0.00    -0.410 A  
HETATM   17  C   UNL     1     -10.147  14.824  66.106  1.00  0.00    -0.296 A  
ENDROOT
BRANCH   4  18
HETATM   18  C   UNL     1     -11.593   9.859  70.195  1.00  0.00    -0.218 C  
BRANCH  18  19
HETATM   19  C   UNL     1     -12.657  10.934  70.372  1.00  0.00    -0.376 C  
BRANCH  19  20
HETATM   20  C   UNL     1     -12.667  11.474  71.795  1.00  0.00    -0.340 C  
BRANCH  20  21
HETATM   21  C   UNL     1     -13.292  12.848  71.861  1.00  0.00    -0.435 C  
HETATM   22  O   UNL     1     -14.322  13.075  72.492  1.00  0.00    -0.548 OA 
BRANCH  21  23
HETATM   23  C   UNL     1     -12.620  13.960  71.131  1.00  0.00    -0.446 A  
HETATM   24  C   UNL     1     -11.433  16.069  71.255  1.00  0.00    -0.475 A  
HETATM   25  C   UNL     1     -12.064  15.001  71.889  1.00  0.00    -0.443 A  
HETATM   26  C   UNL     1     -11.360  16.096  69.867  1.00  0.00    -0.317 A  
HETATM   27  F   UNL     1     -10.763  17.124  69.259  1.00  0.00    -0.316 F  
HETATM   28  C   UNL     1     -12.534  13.996  69.732  1.00  0.00    -0.255 A  
HETATM   29  C   UNL     1     -11.902  15.070  69.101  1.00  0.00    -0.338 A  
ENDBRANCH  21  23
ENDBRANCH  20  21
ENDBRANCH  19  20
ENDBRANCH  18  19
ENDBRANCH   4  18
TORSDOF 5
ENDMDL
MODEL        9
REMARK 921   NORMALIZED FREE ENERGY PREDICTED BY IDOCK:   -7.26 KCAL/MOL
REMARK 922        TOTAL FREE ENERGY PREDICTED BY IDOCK:  -10.14 KCAL/MOL
REMARK 923 INTER-LIGAND FREE ENERGY PREDICTED BY IDOCK:   -9.18 KCAL/MOL
REMARK 924 INTRA-LIGAND FREE ENERGY PREDICTED BY IDOCK:   -0.96 KCAL/MOL
REMARK 927      BINDING AFFINITY PREDICTED BY RF-SCORE:    0.00 PKD
ROOT
HETATM    1  C   UNL     1     -11.663  12.831  66.073  1.00  0.00    -0.418 C  
HETATM    2  C   UNL     1     -11.383  11.908  64.913  1.00  0.00    -0.337 C  
HETATM    3  C   UNL     1     -10.185  11.038  65.212  1.00  0.00    -0.284 C  
HETATM    4  N   UNL     1     -10.386  10.229  66.425  1.00  0.00    -0.218 NA 
HETATM    5  C   UNL     1     -10.068  17.814  67.181  1.00  0.00    -0.338 C  
HETATM    6  C   UNL     1     -10.682  11.072  67.616  1.00  0.00    -0.238 C  
HETATM    7  C   UNL     1     -11.821  12.093  67.441  1.00  0.00    -0.297 C  
HETATM    8  N   UNL     1     -10.770  16.588  66.897  1.00  0.00    -0.235 NA 
HETATM    9  C   UNL     1     -10.727  16.036  65.519  1.00  0.00    -0.361 C  
HETATM   10  C   UNL     1     -11.668  13.309  68.343  1.00  0.00    -0.389 A  
HETATM   11  C   UNL     1     -12.077  13.601  69.620  1.00  0.00    -0.378 A  
HETATM   12  C   UNL     1      -9.948  14.725  65.480  1.00  0.00    -0.356 C  
HETATM   13  N   UNL     1     -10.557  13.744  66.350  1.00  0.00    -0.281 NA 
HETATM   14  C   UNL     1     -11.044  14.294  67.571  1.00  0.00    -0.298 A  
HETATM   15  C   UNL     1     -11.915  14.926  70.061  1.00  0.00    -0.377 A  
HETATM   16  C   UNL     1     -11.431  15.951  69.199  1.00  0.00    -0.377 A  
HETATM   17  C   UNL     1     -11.030  15.648  67.902  1.00  0.00    -0.319 A  
ENDROOT
BRANCH   4  18
HETATM   18  C   UNL     1      -9.140   9.461  66.635  1.00  0.00    -0.149 C  
BRANCH  18  19
HETATM   19  C   UNL     1      -9.344   7.951  66.638  1.00  0.00    -0.244 C  
BRANCH  19  20
HETATM   20  C   UNL     1     -10.489   7.550  67.556  1.00  0.00    -0.341 C  
BRANCH  20  21
HETATM   21  C   UNL     1     -10.037   7.455  68.995  1.00  0.00    -0.193 C  
HETATM   22  O   UNL     1      -8.923   7.044  69.311  1.00  0.00    -0.138 OA 
BRANCH  21  23
HETATM   23  C   UNL     1     -10.988   7.883  70.059  1.00  0.00    -0.208 A  
HETATM   24  C   UNL     1     -12.824   7.290  71.525  1.00  0.00    -0.430 A  
HETATM   25  C   UNL     1     -11.907   6.938  70.537  1.00  0.00    -0.385 A  
HETATM   26  C   UNL     1     -12.822   8.584  72.032  1.00  0.00    -0.374 A  
HETATM   27  F   UNL     1     -13.707   8.924  72.973  1.00  0.00    -0.428 F  
HETATM   28  C   UNL     1     -10.992   9.184  70.584  1.00  0.00    -0.319 A  
HETATM   29  C   UNL     1     -11.914   9.532  71.572  1.00  0.00    -0.475 A  
ENDBRANCH  21  23
ENDBRANCH  20  21
ENDBRANCH  19  20
ENDBRANCH  18  19
ENDBRANCH   4  18
TORSDOF 5
ENDMDL
MODEL       10
REMARK 921   NORMALIZED FREE ENERGY PREDICTED BY IDOCK:   -7.25 KCAL/MOL
REMARK 922        TOTAL FREE ENERGY PREDICTED BY IDOCK:  -10.13 KCAL/MOL
REMARK 923 INTER-LIGAND FREE ENERGY PREDICTED BY IDOCK:   -8.75 KCAL/MOL
REMARK 924 INTRA-LIGAND FREE ENERGY PREDICTED BY IDOCK:   -1.38 KCAL/MOL
REMARK 927      BINDING AFFINITY PREDICTED BY RF-SCORE:    0.00 PKD
ROOT
HETATM    1  C   UNL     1     -11.686  12.557  67.892  1.00  0.00    -0.359 C  
HETATM    2  C   UNL     1     -10.887  12.640  66.615  1.00  0.00    -0.286 C  
HETATM    3  C   UNL     1      -9.530  12.002  66.804  1.00  0.00    -0.208 C  
HETATM    4  N   UNL     1      -9.640  10.591  67.206  1.00  0.00    -0.161 NA 
HETATM    5  C   UNL     1     -12.232  15.906  72.026  1.00  0.00    -0.490 C  
HETATM    6  C   UNL     1     -10.431  10.425  68.456  1.00  0.00    -0.186 C  
HETATM    7  C   UNL     1     -11.810  11.109  68.465  1.00  0.00    -0.330 C  
HETATM    8  N   UNL     1     -12.379  15.035  70.888  1.00  0.00    -0.306 NA 
HETATM    9  C   UNL     1     -11.891  15.493  69.562  1.00  0.00    -0.372 C  
HETATM   10  C   UNL     1     -12.273  11.486  69.864  1.00  0.00    -0.328 A  
HETATM   11  C   UNL     1     -12.984  10.830  70.838  1.00  0.00    -0.385 A  
HETATM   12  C   UNL     1     -10.697  14.663  69.102  1.00  0.00    -0.255 C  
HETATM   13  N   UNL     1     -11.055  13.266  69.002  1.00  0.00    -0.258 NA 
HETATM   14  C   UNL     1     -11.920  12.827  70.046  1.00  0.00    -0.301 A  
HETATM   15  C   UNL     1     -13.395  11.582  71.953  1.00  0.00    -0.408 A  
HETATM   16  C   UNL     1     -13.168  12.986  72.037  1.00  0.00    -0.543 A  
HETATM   17  C   UNL     1     -12.458  13.645  71.039  1.00  0.00    -0.377 A  
ENDROOT
BRANCH   4  18
HETATM   18  C   UNL     1      -8.260  10.096  67.400  1.00  0.00    -0.114 C  
BRANCH  18  19
HETATM   19  C   UNL     1      -7.815  10.075  68.856  1.00  0.00    -0.095 C  
BRANCH  19  20
HETATM   20  C   UNL     1      -7.854   8.664  69.426  1.00  0.00    -0.096 C  
BRANCH  20  21
HETATM   21  C   UNL     1      -8.353   8.656  70.852  1.00  0.00    -0.157 C  
HETATM   22  O   UNL     1      -7.676   9.072  71.790  1.00  0.00    -0.327 OA 
BRANCH  21  23
HETATM   23  C   UNL     1      -9.719   8.126  71.115  1.00  0.00    -0.200 A  
HETATM   24  C   UNL     1     -11.523   6.670  70.407  1.00  0.00    -0.444 A  
HETATM   25  C   UNL     1     -10.246   7.190  70.212  1.00  0.00    -0.207 A  
HETATM   26  C   UNL     1     -12.272   7.086  71.501  1.00  0.00    -0.368 A  
HETATM   27  F   UNL     1     -13.501   6.593  71.683  1.00  0.00    -0.343 F  
HETATM   28  C   UNL     1     -10.484   8.532  72.219  1.00  0.00    -0.402 A  
HETATM   29  C   UNL     1     -11.765   8.009  72.409  1.00  0.00    -0.444 A  
ENDBRANCH  21  23
ENDBRANCH  20  21
ENDBRANCH  19  20
ENDBRANCH  18  19
ENDBRANCH   4  18
TORSDOF 5
ENDMDL
MODEL       11
REMARK 921   NORMALIZED FREE ENERGY PREDICTED BY IDOCK:   -7.16 KCAL/MOL
REMARK 922        TOTAL FREE ENERGY PREDICTED BY IDOCK:  -10.01 KCAL/MOL
REMARK 923 INTER-LIGAND FREE ENERGY PREDICTED BY IDOCK:   -8.82 KCAL/MOL
REMARK 924 INTRA-LIGAND FREE ENERGY PREDICTED BY IDOCK:   -1.19 KCAL/MOL
REMARK 927      BINDING AFFINITY PREDICTED BY RF-SCORE:    0.00 PKD
ROOT
HETATM    1  C   UNL     1     -11.567  12.364  67.472  1.00  0.00    -0.365 C  
HETATM    2  C   UNL     1     -11.105  11.394  66.412  1.00  0.00    -0.301 C  
HETATM    3  C   UNL     1      -9.947  10.570  66.925  1.00  0.00    -0.200 C  
HETATM    4  N   UNL     1     -10.306   9.816  68.136  1.00  0.00    -0.191 NA 
HETATM    5  C   UNL     1     -10.242  17.435  68.539  1.00  0.00    -0.369 C  
HETATM    6  C   UNL     1     -10.786  10.707  69.228  1.00  0.00    -0.239 C  
HETATM    7  C   UNL     1     -11.906  11.689  68.839  1.00  0.00    -0.392 C  
HETATM    8  N   UNL     1     -10.872  16.179  68.221  1.00  0.00    -0.312 NA 
HETATM    9  C   UNL     1     -10.621  15.562  66.894  1.00  0.00    -0.307 C  
HETATM   10  C   UNL     1     -11.908  12.950  69.691  1.00  0.00    -0.387 A  
HETATM   11  C   UNL     1     -12.502  13.293  70.879  1.00  0.00    -0.424 A  
HETATM   12  C   UNL     1      -9.820  14.271  67.033  1.00  0.00    -0.254 C  
HETATM   13  N   UNL     1     -10.530  13.317  67.857  1.00  0.00    -0.235 NA 
HETATM   14  C   UNL     1     -11.198  13.913  68.965  1.00  0.00    -0.274 A  
HETATM   15  C   UNL     1     -12.430  14.642  71.270  1.00  0.00    -0.408 A  
HETATM   16  C   UNL     1     -11.846  15.636  70.434  1.00  0.00    -0.395 A  
HETATM   17  C   UNL     1     -11.257  15.282  69.225  1.00  0.00    -0.284 A  
ENDROOT
BRANCH   4  18
HETATM   18  C   UNL     1      -9.089   9.091  68.561  1.00  0.00    -0.133 C  
BRANCH  18  19
HETATM   19  C   UNL     1      -8.490   9.609  69.862  1.00  0.00    -0.211 C  
BRANCH  19  20
HETATM   20  C   UNL     1      -8.049   8.463  70.762  1.00  0.00    -0.114 C  
BRANCH  20  21
HETATM   21  C   UNL     1      -8.920   8.360  71.993  1.00  0.00    -0.223 C  
HETATM   22  O   UNL     1      -8.480   8.528  73.128  1.00  0.00    -0.365 OA 
BRANCH  21  23
HETATM   23  C   UNL     1     -10.363   8.044  71.806  1.00  0.00    -0.275 A  
HETATM   24  C   UNL     1     -12.035   6.654  70.735  1.00  0.00    -0.412 A  
HETATM   25  C   UNL     1     -10.699   6.984  70.951  1.00  0.00    -0.259 A  
HETATM   26  C   UNL     1     -13.032   7.384  71.371  1.00  0.00    -0.356 A  
HETATM   27  F   UNL     1     -14.314   7.073  71.157  1.00  0.00    -0.486 F  
HETATM   28  C   UNL     1     -11.380   8.768  72.448  1.00  0.00    -0.272 A  
HETATM   29  C   UNL     1     -12.718   8.435  72.226  1.00  0.00    -0.376 A  
ENDBRANCH  21  23
ENDBRANCH  20  21
ENDBRANCH  19  20
ENDBRANCH  18  19
ENDBRANCH   4  18
TORSDOF 5
ENDMDL
MODEL       12
REMARK 921   NORMALIZED FREE ENERGY PREDICTED BY IDOCK:   -7.16 KCAL/MOL
REMARK 922        TOTAL FREE ENERGY PREDICTED BY IDOCK:  -10.01 KCAL/MOL
REMARK 923 INTER-LIGAND FREE ENERGY PREDICTED BY IDOCK:   -8.40 KCAL/MOL
REMARK 924 INTRA-LIGAND FREE ENERGY PREDICTED BY IDOCK:   -1.61 KCAL/MOL
REMARK 927      BINDING AFFINITY PREDICTED BY RF-SCORE:    0.00 PKD
ROOT
HETATM    1  C   UNL     1     -11.707  12.364  67.882  1.00  0.00    -0.360 C  
HETATM    2  C   UNL     1     -10.953  12.330  66.576  1.00  0.00    -0.320 C  
HETATM    3  C   UNL     1      -9.588  11.715  66.774  1.00  0.00    -0.192 C  
HETATM    4  N   UNL     1      -9.677  10.346  67.308  1.00  0.00    -0.162 NA 
HETATM    5  C   UNL     1     -12.124  16.079  71.707  1.00  0.00    -0.499 C  
HETATM    6  C   UNL     1     -10.423  10.295  68.595  1.00  0.00    -0.193 C  
HETATM    7  C   UNL     1     -11.804  10.975  68.590  1.00  0.00    -0.318 C  
HETATM    8  N   UNL     1     -12.306  15.107  70.659  1.00  0.00    -0.340 NA 
HETATM    9  C   UNL     1     -11.867  15.442  69.281  1.00  0.00    -0.343 C  
HETATM   10  C   UNL     1     -12.220  11.479  69.964  1.00  0.00    -0.354 A  
HETATM   11  C   UNL     1     -12.892  10.914  71.019  1.00  0.00    -0.472 A  
HETATM   12  C   UNL     1     -10.687  14.575  68.857  1.00  0.00    -0.254 C  
HETATM   13  N   UNL     1     -11.041  13.173  68.899  1.00  0.00    -0.264 NA 
HETATM   14  C   UNL     1     -11.867  12.832  70.009  1.00  0.00    -0.281 A  
HETATM   15  C   UNL     1     -13.268  11.766  72.073  1.00  0.00    -0.460 A  
HETATM   16  C   UNL     1     -13.045  13.171  72.020  1.00  0.00    -0.476 A  
HETATM   17  C   UNL     1     -12.374  13.737  70.941  1.00  0.00    -0.380 A  
ENDROOT
BRANCH   4  18
HETATM   18  C   UNL     1      -8.289   9.874  67.497  1.00  0.00    -0.114 C  
BRANCH  18  19
HETATM   19  C   UNL     1      -8.112   8.379  67.262  1.00  0.00    -0.105 C  
BRANCH  19  20
HETATM   20  C   UNL     1      -7.606   7.678  68.514  1.00  0.00    -0.110 C  
BRANCH  20  21
HETATM   21  C   UNL     1      -8.602   6.659  69.018  1.00  0.00    -0.130 C  
HETATM   22  O   UNL     1      -8.615   5.496  68.620  1.00  0.00    -0.103 OA 
BRANCH  21  23
HETATM   23  C   UNL     1      -9.597   7.095  70.038  1.00  0.00    -0.164 A  
HETATM   24  C   UNL     1     -10.051   8.394  72.033  1.00  0.00    -0.364 A  
HETATM   25  C   UNL     1      -9.163   7.964  71.050  1.00  0.00    -0.164 A  
HETATM   26  C   UNL     1     -11.369   7.953  72.005  1.00  0.00    -0.292 A  
HETATM   27  F   UNL     1     -12.219   8.359  72.953  1.00  0.00    -0.446 F  
HETATM   28  C   UNL     1     -10.932   6.664  70.017  1.00  0.00    -0.363 A  
HETATM   29  C   UNL     1     -11.818   7.096  71.006  1.00  0.00    -0.373 A  
ENDBRANCH  21  23
ENDBRANCH  20  21
ENDBRANCH  19  20
ENDBRANCH  18  19
ENDBRANCH   4  18
TORSDOF 5
ENDMDL
MODEL       13
REMARK 921   NORMALIZED FREE ENERGY PREDICTED BY IDOCK:   -7.11 KCAL/MOL
REMARK 922        TOTAL FREE ENERGY PREDICTED BY IDOCK:   -9.94 KCAL/MOL
REMARK 923 INTER-LIGAND FREE ENERGY PREDICTED BY IDOCK:   -9.29 KCAL/MOL
REMARK 924 INTRA-LIGAND FREE ENERGY PREDICTED BY IDOCK:   -0.66 KCAL/MOL
REMARK 927      BINDING AFFINITY PREDICTED BY RF-SCORE:    0.00 PKD
ROOT
HETATM    1  C   UNL     1      -8.495  15.917  66.734  1.00  0.00    -0.262 C  
HETATM    2  C   UNL     1      -8.366  14.418  66.850  1.00  0.00    -0.109 C  
HETATM    3  C   UNL     1      -9.516  13.853  67.651  1.00  0.00    -0.212 C  
HETATM    4  N   UNL     1     -10.816  14.172  67.041  1.00  0.00    -0.292 NA 
HETATM    5  C   UNL     1      -6.585  19.939  69.696  1.00  0.00    -0.338 C  
HETATM    6  C   UNL     1     -11.013  15.639  66.880  1.00  0.00    -0.243 C  
HETATM    7  C   UNL     1      -9.872  16.388  66.168  1.00  0.00    -0.362 C  
HETATM    8  N   UNL     1      -6.948  18.985  68.679  1.00  0.00    -0.275 NA 
HETATM    9  C   UNL     1      -6.354  17.625  68.722  1.00  0.00    -0.200 C  
HETATM   10  C   UNL     1      -9.772  17.848  66.586  1.00  0.00    -0.319 A  
HETATM   11  C   UNL     1     -10.346  19.008  66.128  1.00  0.00    -0.537 A  
HETATM   12  C   UNL     1      -7.415  16.575  69.032  1.00  0.00    -0.229 C  
HETATM   13  N   UNL     1      -8.457  16.590  68.029  1.00  0.00    -0.182 NA 
HETATM   14  C   UNL     1      -8.801  17.901  67.591  1.00  0.00    -0.250 A  
HETATM   15  C   UNL     1      -9.856  20.218  66.652  1.00  0.00    -0.562 A  
HETATM   16  C   UNL     1      -8.752  20.256  67.551  1.00  0.00    -0.401 A  
HETATM   17  C   UNL     1      -8.168  19.075  67.999  1.00  0.00    -0.300 A  
ENDROOT
BRANCH   4  18
HETATM   18  C   UNL     1     -11.853  13.608  67.932  1.00  0.00    -0.366 C  
BRANCH  18  19
HETATM   19  C   UNL     1     -11.293  12.968  69.196  1.00  0.00    -0.328 C  
BRANCH  19  20
HETATM   20  C   UNL     1     -11.948  11.623  69.471  1.00  0.00    -0.383 C  
BRANCH  20  21
HETATM   21  C   UNL     1     -10.931  10.505  69.491  1.00  0.00    -0.264 C  
HETATM   22  O   UNL     1     -10.154  10.304  68.560  1.00  0.00    -0.155 OA 
BRANCH  21  23
HETATM   23  C   UNL     1     -10.878   9.626  70.691  1.00  0.00    -0.386 A  
HETATM   24  C   UNL     1      -9.515   8.361  72.246  1.00  0.00    -0.367 A  
HETATM   25  C   UNL     1      -9.619   9.192  71.133  1.00  0.00    -0.347 A  
HETATM   26  C   UNL     1     -10.668   7.963  72.914  1.00  0.00    -0.375 A  
HETATM   27  F   UNL     1     -10.568   7.158  73.976  1.00  0.00    -0.399 F  
HETATM   28  C   UNL     1     -12.032   9.222  71.379  1.00  0.00    -0.424 A  
HETATM   29  C   UNL     1     -11.923   8.387  72.493  1.00  0.00    -0.418 A  
ENDBRANCH  21  23
ENDBRANCH  20  21
ENDBRANCH  19  20
ENDBRANCH  18  19
ENDBRANCH   4  18
TORSDOF 5
ENDMDL
MODEL       14
REMARK 921   NORMALIZED FREE ENERGY PREDICTED BY IDOCK:   -7.02 KCAL/MOL
REMARK 922        TOTAL FREE ENERGY PREDICTED BY IDOCK:   -9.84 KCAL/MOL
REMARK 923 INTER-LIGAND FREE ENERGY PREDICTED BY IDOCK:   -8.15 KCAL/MOL
REMARK 924 INTRA-LIGAND FREE ENERGY PREDICTED BY IDOCK:   -1.69 KCAL/MOL
REMARK 927      BINDING AFFINITY PREDICTED BY RF-SCORE:    0.00 PKD
ROOT
HETATM    1  C   UNL     1     -12.097  11.068  69.208  1.00  0.00    -0.292 C  
HETATM    2  C   UNL     1     -12.638  12.202  70.043  1.00  0.00     0.087 C  
HETATM    3  C   UNL     1     -11.558  13.227  70.298  1.00  0.00    -0.021 C  
HETATM    4  N   UNL     1     -11.019  13.776  69.043  1.00  0.00    -0.254 NA 
HETATM    5  C   UNL     1      -9.884   6.374  70.501  1.00  0.00    -0.183 C  
HETATM    6  C   UNL     1     -10.476  12.712  68.155  1.00  0.00    -0.231 C  
HETATM    7  C   UNL     1     -11.425  11.532  67.876  1.00  0.00    -0.372 C  
HETATM    8  N   UNL     1     -10.679   7.471  70.011  1.00  0.00    -0.238 NA 
HETATM    9  C   UNL     1     -11.520   8.236  70.968  1.00  0.00    -0.275 C  
HETATM   10  C   UNL     1     -10.684  10.240  67.564  1.00  0.00    -0.348 A  
HETATM   11  C   UNL     1     -10.209   9.673  66.408  1.00  0.00    -0.288 A  
HETATM   12  C   UNL     1     -11.003   9.661  71.132  1.00  0.00    -0.360 C  
HETATM   13  N   UNL     1     -11.004  10.353  69.862  1.00  0.00    -0.286 NA 
HETATM   14  C   UNL     1     -10.610   9.531  68.768  1.00  0.00    -0.214 A  
HETATM   15  C   UNL     1      -9.736   8.351  66.487  1.00  0.00    -0.330 A  
HETATM   16  C   UNL     1      -9.826   7.591  67.687  1.00  0.00    -0.203 A  
HETATM   17  C   UNL     1     -10.322   8.169  68.851  1.00  0.00    -0.211 A  
ENDROOT
BRANCH   4  18
HETATM   18  C   UNL     1      -9.951  14.727  69.421  1.00  0.00    -0.085 C  
BRANCH  18  19
HETATM   19  C   UNL     1      -9.557  15.682  68.302  1.00  0.00    -0.200 C  
BRANCH  19  20
HETATM   20  C   UNL     1     -10.775  16.147  67.517  1.00  0.00    -0.304 C  
BRANCH  20  21
HETATM   21  C   UNL     1     -10.576  15.969  66.030  1.00  0.00    -0.316 C  
HETATM   22  O   UNL     1      -9.993  16.801  65.338  1.00  0.00    -0.572 OA 
BRANCH  21  23
HETATM   23  C   UNL     1     -11.108  14.732  65.393  1.00  0.00    -0.359 A  
HETATM   24  C   UNL     1     -10.676  12.793  64.005  1.00  0.00    -0.457 A  
HETATM   25  C   UNL     1     -10.227  13.954  64.628  1.00  0.00    -0.278 A  
HETATM   26  C   UNL     1     -12.006  12.411  64.145  1.00  0.00    -0.435 A  
HETATM   27  F   UNL     1     -12.439  11.302  63.539  1.00  0.00    -0.343 F  
HETATM   28  C   UNL     1     -12.446  14.331  65.532  1.00  0.00    -0.434 A  
HETATM   29  C   UNL     1     -12.893  13.167  64.903  1.00  0.00    -0.349 A  
ENDBRANCH  21  23
ENDBRANCH  20  21
ENDBRANCH  19  20
ENDBRANCH  18  19
ENDBRANCH   4  18
TORSDOF 5
ENDMDL
MODEL       15
REMARK 921   NORMALIZED FREE ENERGY PREDICTED BY IDOCK:   -6.94 KCAL/MOL
REMARK 922        TOTAL FREE ENERGY PREDICTED BY IDOCK:   -9.72 KCAL/MOL
REMARK 923 INTER-LIGAND FREE ENERGY PREDICTED BY IDOCK:   -8.84 KCAL/MOL
REMARK 924 INTRA-LIGAND FREE ENERGY PREDICTED BY IDOCK:   -0.88 KCAL/MOL
REMARK 927      BINDING AFFINITY PREDICTED BY RF-SCORE:    0.00 PKD
ROOT
HETATM    1  C   UNL     1     -10.462  16.279  69.260  1.00  0.00    -0.285 C  
HETATM    2  C   UNL     1     -11.859  15.754  69.041  1.00  0.00    -0.367 C  
HETATM    3  C   UNL     1     -11.883  14.798  67.871  1.00  0.00    -0.297 C  
HETATM    4  N   UNL     1     -10.973  13.659  68.077  1.00  0.00    -0.244 NA 
HETATM    5  C   UNL     1      -7.920  20.622  67.449  1.00  0.00    -0.264 C  
HETATM    6  C   UNL     1      -9.571  14.099  68.314  1.00  0.00    -0.226 C  
HETATM    7  C   UNL     1      -9.385  15.159  69.416  1.00  0.00    -0.176 C  
HETATM    8  N   UNL     1      -8.546  19.567  68.204  1.00  0.00    -0.321 NA 
HETATM    9  C   UNL     1     -10.028  19.468  68.212  1.00  0.00    -0.433 C  
HETATM   10  C   UNL     1      -8.156  16.029  69.196  1.00  0.00    -0.238 A  
HETATM   11  C   UNL     1      -6.839  15.922  69.566  1.00  0.00    -0.192 A  
HETATM   12  C   UNL     1     -10.496  18.211  67.486  1.00  0.00    -0.410 C  
HETATM   13  N   UNL     1      -9.952  17.027  68.113  1.00  0.00    -0.274 NA 
HETATM   14  C   UNL     1      -8.606  17.186  68.552  1.00  0.00    -0.258 A  
HETATM   15  C   UNL     1      -6.015  17.040  69.342  1.00  0.00    -0.216 A  
HETATM   16  C   UNL     1      -6.533  18.267  68.838  1.00  0.00    -0.233 A  
HETATM   17  C   UNL     1      -7.873  18.370  68.479  1.00  0.00    -0.306 A  
ENDROOT
BRANCH   4  18
HETATM   18  C   UNL     1     -11.053  12.827  66.857  1.00  0.00    -0.270 C  
BRANCH  18  19
HETATM   19  C   UNL     1     -10.072  11.661  66.846  1.00  0.00    -0.238 C  
BRANCH  19  20
HETATM   20  C   UNL     1     -10.651  10.445  67.553  1.00  0.00    -0.312 C  
BRANCH  20  21
HETATM   21  C   UNL     1     -10.132  10.328  68.968  1.00  0.00    -0.213 C  
HETATM   22  O   UNL     1      -8.948  10.496  69.252  1.00  0.00    -0.179 OA 
BRANCH  21  23
HETATM   23  C   UNL     1     -11.104  10.001  70.048  1.00  0.00    -0.350 A  
HETATM   24  C   UNL     1     -12.974  10.724  71.409  1.00  0.00    -0.535 A  
HETATM   25  C   UNL     1     -12.048  10.977  70.400  1.00  0.00    -0.463 A  
HETATM   26  C   UNL     1     -12.953   9.500  72.067  1.00  0.00    -0.426 A  
HETATM   27  F   UNL     1     -13.835   9.261  73.042  1.00  0.00    -0.412 F  
HETATM   28  C   UNL     1     -11.099   8.767  70.715  1.00  0.00    -0.306 A  
HETATM   29  C   UNL     1     -12.027   8.519  71.728  1.00  0.00    -0.393 A  
ENDBRANCH  21  23
ENDBRANCH  20  21
ENDBRANCH  19  20
ENDBRANCH  18  19
ENDBRANCH   4  18
TORSDOF 5
ENDMDL
MODEL       16
REMARK 921   NORMALIZED FREE ENERGY PREDICTED BY IDOCK:   -6.93 KCAL/MOL
REMARK 922        TOTAL FREE ENERGY PREDICTED BY IDOCK:   -9.71 KCAL/MOL
REMARK 923 INTER-LIGAND FREE ENERGY PREDICTED BY IDOCK:   -7.62 KCAL/MOL
REMARK 924 INTRA-LIGAND FREE ENERGY PREDICTED BY IDOCK:   -2.10 KCAL/MOL
REMARK 927      BINDING AFFINITY PREDICTED BY RF-SCORE:    0.00 PKD
ROOT
HETATM    1  C   UNL     1     -10.782  18.353  67.713  1.00  0.00    -0.340 C  
HETATM    2  C   UNL     1     -10.342  19.578  68.477  1.00  0.00    -0.436 C  
HETATM    3  C   UNL     1      -8.837  19.709  68.434  1.00  0.00    -0.312 C  
HETATM    4  N   UNL     1      -8.335  19.802  67.054  1.00  0.00    -0.296 NA 
HETATM    5  C   UNL     1     -11.693  13.303  69.218  1.00  0.00    -0.326 C  
HETATM    6  C   UNL     1      -8.742  18.631  66.230  1.00  0.00    -0.215 C  
HETATM    7  C   UNL     1     -10.245  18.297  66.248  1.00  0.00    -0.414 C  
HETATM    8  N   UNL     1     -11.731  14.656  68.725  1.00  0.00    -0.314 NA 
HETATM    9  C   UNL     1     -11.722  15.778  69.698  1.00  0.00    -0.355 C  
HETATM   10  C   UNL     1     -10.526  16.825  65.987  1.00  0.00    -0.300 A  
HETATM   11  C   UNL     1     -10.734  16.085  64.850  1.00  0.00    -0.339 A  
HETATM   12  C   UNL     1     -10.423  16.572  69.605  1.00  0.00    -0.267 C  
HETATM   13  N   UNL     1     -10.251  17.115  68.275  1.00  0.00    -0.313 NA 
HETATM   14  C   UNL     1     -10.666  16.225  67.243  1.00  0.00    -0.265 A  
HETATM   15  C   UNL     1     -11.164  14.756  65.017  1.00  0.00    -0.399 A  
HETATM   16  C   UNL     1     -11.460  14.217  66.301  1.00  0.00    -0.360 A  
HETATM   17  C   UNL     1     -11.259  14.979  67.447  1.00  0.00    -0.335 A  
ENDROOT
BRANCH   4  18
HETATM   18  C   UNL     1      -6.861  19.882  67.143  1.00  0.00    -0.212 C  
BRANCH  18  19
HETATM   19  C   UNL     1      -6.323  19.716  68.559  1.00  0.00    -0.288 C  
BRANCH  19  20
HETATM   20  C   UNL     1      -5.246  18.642  68.619  1.00  0.00    -0.185 C  
BRANCH  20  21
HETATM   21  C   UNL     1      -5.645  17.511  69.538  1.00  0.00    -0.212 C  
HETATM   22  O   UNL     1      -5.376  17.509  70.738  1.00  0.00    -0.261 OA 
BRANCH  21  23
HETATM   23  C   UNL     1      -6.394  16.363  68.955  1.00  0.00    -0.150 A  
HETATM   24  C   UNL     1      -7.554  14.269  69.332  1.00  0.00     0.077 A  
HETATM   25  C   UNL     1      -6.856  15.368  69.828  1.00  0.00    -0.162 A  
HETATM   26  C   UNL     1      -7.787  14.165  67.966  1.00  0.00    -0.146 A  
HETATM   27  F   UNL     1      -8.448  13.107  67.489  1.00  0.00    -0.153 F  
HETATM   28  C   UNL     1      -6.642  16.250  67.579  1.00  0.00    -0.193 A  
HETATM   29  C   UNL     1      -7.340  15.145  67.086  1.00  0.00    -0.145 A  
ENDBRANCH  21  23
ENDBRANCH  20  21
ENDBRANCH  19  20
ENDBRANCH  18  19
ENDBRANCH   4  18
TORSDOF 5
ENDMDL
MODEL       17
REMARK 921   NORMALIZED FREE ENERGY PREDICTED BY IDOCK:   -6.91 KCAL/MOL
REMARK 922        TOTAL FREE ENERGY PREDICTED BY IDOCK:   -9.69 KCAL/MOL
REMARK 923 INTER-LIGAND FREE ENERGY PREDICTED BY IDOCK:   -9.12 KCAL/MOL
REMARK 924 INTRA-LIGAND FREE ENERGY PREDICTED BY IDOCK:   -0.57 KCAL/MOL
REMARK 927      BINDING AFFINITY PREDICTED BY RF-SCORE:    0.00 PKD
ROOT
HETATM    1  C   UNL     1     -12.013   6.477  71.139  1.00  0.00    -0.306 C  
HETATM    2  C   UNL     1     -12.729   7.731  71.577  1.00  0.00    -0.355 C  
HETATM    3  C   UNL     1     -11.813   8.926  71.460  1.00  0.00    -0.332 C  
HETATM    4  N   UNL     1     -11.330   9.112  70.082  1.00  0.00    -0.195 NA 
HETATM    5  C   UNL     1      -9.182   2.819  73.823  1.00  0.00    -0.081 C  
HETATM    6  C   UNL     1     -10.620   7.906  69.572  1.00  0.00    -0.219 C  
HETATM    7  C   UNL     1     -11.384   6.577  69.713  1.00  0.00    -0.456 C  
HETATM    8  N   UNL     1     -10.114   3.574  73.025  1.00  0.00    -0.142 NA 
HETATM    9  C   UNL     1     -11.077   4.478  73.704  1.00  0.00    -0.288 C  
HETATM   10  C   UNL     1     -10.459   5.373  69.816  1.00  0.00    -0.378 A  
HETATM   11  C   UNL     1      -9.882   4.537  68.894  1.00  0.00    -0.190 A  
HETATM   12  C   UNL     1     -10.773   5.938  73.386  1.00  0.00    -0.267 C  
HETATM   13  N   UNL     1     -10.844   6.176  71.961  1.00  0.00    -0.236 NA 
HETATM   14  C   UNL     1     -10.312   5.109  71.182  1.00  0.00    -0.206 A  
HETATM   15  C   UNL     1      -9.227   3.393  69.383  1.00  0.00    -0.222 A  
HETATM   16  C   UNL     1      -9.234   3.056  70.766  1.00  0.00    -0.206 A  
HETATM   17  C   UNL     1      -9.834   3.903  71.693  1.00  0.00    -0.177 A  
ENDROOT
BRANCH   4  18
HETATM   18  C   UNL     1     -10.417  10.275  70.106  1.00  0.00    -0.203 C  
BRANCH  18  19
HETATM   19  C   UNL     1     -10.682  11.284  68.996  1.00  0.00    -0.257 C  
BRANCH  19  20
HETATM   20  C   UNL     1     -12.027  11.972  69.184  1.00  0.00    -0.326 C  
BRANCH  20  21
HETATM   21  C   UNL     1     -11.873  13.473  69.270  1.00  0.00    -0.341 C  
HETATM   22  O   UNL     1     -11.448  14.147  68.335  1.00  0.00    -0.268 OA 
BRANCH  21  23
HETATM   23  C   UNL     1     -12.261  14.146  70.541  1.00  0.00    -0.431 A  
HETATM   24  C   UNL     1     -12.143  16.130  71.927  1.00  0.00    -0.548 A  
HETATM   25  C   UNL     1     -11.816  15.459  70.751  1.00  0.00    -0.394 A  
HETATM   26  C   UNL     1     -12.911  15.488  72.891  1.00  0.00    -0.477 A  
HETATM   27  F   UNL     1     -13.217  16.128  74.023  1.00  0.00    -0.556 F  
HETATM   28  C   UNL     1     -13.041  13.512  71.519  1.00  0.00    -0.427 A  
HETATM   29  C   UNL     1     -13.365  14.187  72.698  1.00  0.00    -0.638 A  
ENDBRANCH  21  23
ENDBRANCH  20  21
ENDBRANCH  19  20
ENDBRANCH  18  19
ENDBRANCH   4  18
TORSDOF 5
ENDMDL
MODEL       18
REMARK 921   NORMALIZED FREE ENERGY PREDICTED BY IDOCK:   -6.91 KCAL/MOL
REMARK 922        TOTAL FREE ENERGY PREDICTED BY IDOCK:   -9.68 KCAL/MOL
REMARK 923 INTER-LIGAND FREE ENERGY PREDICTED BY IDOCK:   -8.90 KCAL/MOL
REMARK 924 INTRA-LIGAND FREE ENERGY PREDICTED BY IDOCK:   -0.78 KCAL/MOL
REMARK 927      BINDING AFFINITY PREDICTED BY RF-SCORE:    0.00 PKD
ROOT
HETATM    1  C   UNL     1     -11.978  13.730  68.129  1.00  0.00    -0.358 C  
HETATM    2  C   UNL     1     -11.374  14.585  67.042  1.00  0.00    -0.359 C  
HETATM    3  C   UNL     1      -9.867  14.590  67.157  1.00  0.00    -0.245 C  
HETATM    4  N   UNL     1      -9.307  13.233  67.061  1.00  0.00    -0.235 NA 
HETATM    5  C   UNL     1     -13.746  14.870  73.047  1.00  0.00    -0.186 C  
HETATM    6  C   UNL     1      -9.868  12.322  68.097  1.00  0.00    -0.212 C  
HETATM    7  C   UNL     1     -11.405  12.279  68.181  1.00  0.00    -0.349 C  
HETATM    8  N   UNL     1     -13.547  14.468  71.677  1.00  0.00    -0.366 NA 
HETATM    9  C   UNL     1     -13.392  15.513  70.634  1.00  0.00    -0.148 C  
HETATM   10  C   UNL     1     -11.910  11.912  69.569  1.00  0.00    -0.395 A  
HETATM   11  C   UNL     1     -12.193  10.723  70.193  1.00  0.00    -0.425 A  
HETATM   12  C   UNL     1     -11.980  15.506  70.059  1.00  0.00    -0.364 C  
HETATM   13  N   UNL     1     -11.674  14.221  69.470  1.00  0.00    -0.295 NA 
HETATM   14  C   UNL     1     -12.190  13.121  70.215  1.00  0.00    -0.306 A  
HETATM   15  C   UNL     1     -12.837  10.790  71.442  1.00  0.00    -0.557 A  
HETATM   16  C   UNL     1     -13.262  12.027  72.003  1.00  0.00    -0.481 A  
HETATM   17  C   UNL     1     -12.982  13.226  71.357  1.00  0.00    -0.311 A  
ENDROOT
BRANCH   4  18
HETATM   18  C   UNL     1      -7.844  13.365  67.229  1.00  0.00    -0.095 C  
BRANCH  18  19
HETATM   19  C   UNL     1      -7.380  14.797  67.458  1.00  0.00    -0.225 C  
BRANCH  19  20
HETATM   20  C   UNL     1      -7.332  15.132  68.942  1.00  0.00    -0.142 C  
BRANCH  20  21
HETATM   21  C   UNL     1      -6.910  16.565  69.172  1.00  0.00    -0.218 C  
HETATM   22  O   UNL     1      -5.876  16.861  69.766  1.00  0.00    -0.196 OA 
BRANCH  21  23
HETATM   23  C   UNL     1      -7.791  17.647  68.651  1.00  0.00    -0.280 A  
HETATM   24  C   UNL     1      -7.962  19.769  67.492  1.00  0.00    -0.324 A  
HETATM   25  C   UNL     1      -7.185  18.726  67.991  1.00  0.00    -0.262 A  
HETATM   26  C   UNL     1      -9.342  19.734  67.657  1.00  0.00    -0.344 A  
HETATM   27  F   UNL     1     -10.087  20.739  67.187  1.00  0.00    -0.588 F  
HETATM   28  C   UNL     1      -9.185  17.621  68.804  1.00  0.00    -0.215 A  
HETATM   29  C   UNL     1      -9.960  18.670  68.305  1.00  0.00    -0.424 A  
ENDBRANCH  21  23
ENDBRANCH  20  21
ENDBRANCH  19  20
ENDBRANCH  18  19
ENDBRANCH   4  18
TORSDOF 5
ENDMDL
MODEL       19
REMARK 921   NORMALIZED FREE ENERGY PREDICTED BY IDOCK:   -6.90 KCAL/MOL
REMARK 922        TOTAL FREE ENERGY PREDICTED BY IDOCK:   -9.68 KCAL/MOL
REMARK 923 INTER-LIGAND FREE ENERGY PREDICTED BY IDOCK:   -9.06 KCAL/MOL
REMARK 924 INTRA-LIGAND FREE ENERGY PREDICTED BY IDOCK:   -0.61 KCAL/MOL
REMARK 927      BINDING AFFINITY PREDICTED BY RF-SCORE:    0.00 PKD
ROOT
HETATM    1  C   UNL     1      -9.652  10.430  69.249  1.00  0.00    -0.209 C  
HETATM    2  C   UNL     1      -8.842  11.179  68.219  1.00  0.00    -0.155 C  
HETATM    3  C   UNL     1      -9.713  11.564  67.046  1.00  0.00    -0.184 C  
HETATM    4  N   UNL     1     -10.849  12.403  67.460  1.00  0.00    -0.230 NA 
HETATM    5  C   UNL     1     -10.577   5.218  70.011  1.00  0.00    -0.230 C  
HETATM    6  C   UNL     1     -11.692  11.735  68.490  1.00  0.00    -0.330 C  
HETATM    7  C   UNL     1     -10.935  11.189  69.714  1.00  0.00    -0.216 C  
HETATM    8  N   UNL     1     -10.216   6.611  70.080  1.00  0.00    -0.184 NA 
HETATM    9  C   UNL     1      -9.063   7.098  69.282  1.00  0.00    -0.137 C  
HETATM   10  C   UNL     1     -11.641  10.009  70.366  1.00  0.00    -0.379 A  
HETATM   11  C   UNL     1     -12.595   9.896  71.346  1.00  0.00    -0.497 A  
HETATM   12  C   UNL     1      -9.523   8.041  68.175  1.00  0.00    -0.143 C  
HETATM   13  N   UNL     1     -10.211   9.184  68.732  1.00  0.00    -0.204 NA 
HETATM   14  C   UNL     1     -11.046   8.857  69.839  1.00  0.00    -0.136 A  
HETATM   15  C   UNL     1     -12.870   8.605  71.832  1.00  0.00    -0.411 A  
HETATM   16  C   UNL     1     -12.134   7.467  71.398  1.00  0.00    -0.357 A  
HETATM   17  C   UNL     1     -11.159   7.592  70.414  1.00  0.00    -0.258 A  
ENDROOT
BRANCH   4  18
HETATM   18  C   UNL     1     -11.642  12.674  66.242  1.00  0.00    -0.386 C  
BRANCH  18  19
HETATM   19  C   UNL     1     -11.953  14.150  66.029  1.00  0.00    -0.427 C  
BRANCH  19  20
HETATM   20  C   UNL     1     -10.738  15.019  66.322  1.00  0.00    -0.322 C  
BRANCH  20  21
HETATM   21  C   UNL     1     -10.947  15.861  67.559  1.00  0.00    -0.280 C  
HETATM   22  O   UNL     1     -11.410  15.402  68.601  1.00  0.00    -0.292 OA 
BRANCH  21  23
HETATM   23  C   UNL     1     -10.567  17.300  67.500  1.00  0.00    -0.329 A  
HETATM   24  C   UNL     1      -9.894  19.293  68.703  1.00  0.00    -0.500 A  
HETATM   25  C   UNL     1     -10.246  17.946  68.703  1.00  0.00    -0.387 A  
HETATM   26  C   UNL     1      -9.865  19.994  67.503  1.00  0.00    -0.416 A  
HETATM   27  F   UNL     1      -9.536  21.289  67.504  1.00  0.00    -0.557 F  
HETATM   28  C   UNL     1     -10.527  18.018  66.295  1.00  0.00    -0.340 A  
HETATM   29  C   UNL     1     -10.176  19.369  66.300  1.00  0.00    -0.566 A  
ENDBRANCH  21  23
ENDBRANCH  20  21
ENDBRANCH  19  20
ENDBRANCH  18  19
ENDBRANCH   4  18
TORSDOF 5
ENDMDL
MODEL       20
REMARK 921   NORMALIZED FREE ENERGY PREDICTED BY IDOCK:   -6.85 KCAL/MOL
REMARK 922        TOTAL FREE ENERGY PREDICTED BY IDOCK:   -9.61 KCAL/MOL
REMARK 923 INTER-LIGAND FREE ENERGY PREDICTED BY IDOCK:   -8.42 KCAL/MOL
REMARK 924 INTRA-LIGAND FREE ENERGY PREDICTED BY IDOCK:   -1.19 KCAL/MOL
REMARK 927      BINDING AFFINITY PREDICTED BY RF-SCORE:    0.00 PKD
ROOT
HETATM    1  C   UNL     1      -8.457  10.981  66.315  1.00  0.00    -0.165 C  
HETATM    2  C   UNL     1      -7.487  10.210  67.176  1.00  0.00    -0.091 C  
HETATM    3  C   UNL     1      -8.123   8.928  67.663  1.00  0.00    -0.106 C  
HETATM    4  N   UNL     1      -8.553   8.072  66.545  1.00  0.00    -0.134 NA 
HETATM    5  C   UNL     1     -12.016  14.811  67.441  1.00  0.00    -0.209 C  
HETATM    6  C   UNL     1      -9.505   8.772  65.639  1.00  0.00    -0.101 C  
HETATM    7  C   UNL     1      -9.047  10.151  65.132  1.00  0.00    -0.242 C  
HETATM    8  N   UNL     1     -10.941  13.983  66.957  1.00  0.00    -0.294 NA 
HETATM    9  C   UNL     1      -9.806  13.671  67.863  1.00  0.00    -0.237 C  
HETATM   10  C   UNL     1     -10.210  11.074  64.799  1.00  0.00    -0.381 A  
HETATM   11  C   UNL     1     -10.953  11.295  63.667  1.00  0.00    -0.369 A  
HETATM   12  C   UNL     1      -9.787  12.190  68.225  1.00  0.00    -0.212 C  
HETATM   13  N   UNL     1      -9.664  11.376  67.036  1.00  0.00    -0.189 NA 
HETATM   14  C   UNL     1     -10.413  11.871  65.931  1.00  0.00    -0.258 A  
HETATM   15  C   UNL     1     -11.840  12.386  63.682  1.00  0.00    -0.610 A  
HETATM   16  C   UNL     1     -11.908  13.284  64.784  1.00  0.00    -0.411 A  
HETATM   17  C   UNL     1     -11.141  13.060  65.923  1.00  0.00    -0.280 A  
ENDROOT
BRANCH   4  18
HETATM   18  C   UNL     1      -9.192   6.882  67.145  1.00  0.00    -0.139 C  
BRANCH  18  19
HETATM   19  C   UNL     1     -10.661   7.084  67.493  1.00  0.00    -0.352 C  
BRANCH  19  20
HETATM   20  C   UNL     1     -11.042   6.321  68.753  1.00  0.00    -0.424 C  
BRANCH  20  21
HETATM   21  C   UNL     1     -10.522   7.009  69.994  1.00  0.00    -0.215 C  
HETATM   22  O   UNL     1      -9.447   6.712  70.512  1.00  0.00    -0.165 OA 
BRANCH  21  23
HETATM   23  C   UNL     1     -11.352   8.088  70.598  1.00  0.00    -0.256 A  
HETATM   24  C   UNL     1     -11.781  10.464  70.817  1.00  0.00    -0.464 A  
HETATM   25  C   UNL     1     -11.041   9.417  70.272  1.00  0.00    -0.299 A  
HETATM   26  C   UNL     1     -12.827  10.182  71.689  1.00  0.00    -0.454 A  
HETATM   27  F   UNL     1     -13.531  11.187  72.218  1.00  0.00    -0.560 F  
HETATM   28  C   UNL     1     -12.414   7.818  71.474  1.00  0.00    -0.348 A  
HETATM   29  C   UNL     1     -13.152   8.871  72.019  1.00  0.00    -0.454 A  
ENDBRANCH  21  23
ENDBRANCH  20  21
ENDBRANCH  19  20
ENDBRANCH  18  19
ENDBRANCH   4  18
TORSDOF 5
ENDMDL
MODEL       21
REMARK 921   NORMALIZED FREE ENERGY PREDICTED BY IDOCK:   -6.81 KCAL/MOL
REMARK 922        TOTAL FREE ENERGY PREDICTED BY IDOCK:   -9.56 KCAL/MOL
REMARK 923 INTER-LIGAND FREE ENERGY PREDICTED BY IDOCK:   -7.90 KCAL/MOL
REMARK 924 INTRA-LIGAND FREE ENERGY PREDICTED BY IDOCK:   -1.67 KCAL/MOL
REMARK 927      BINDING AFFINITY PREDICTED BY RF-SCORE:    0.00 PKD
ROOT
HETATM    1  C   UNL     1      -9.195  14.111  68.289  1.00  0.00    -0.198 C  
HETATM    2  C   UNL     1      -8.610  15.305  67.575  1.00  0.00    -0.190 C  
HETATM    3  C   UNL     1      -9.174  15.408  66.177  1.00  0.00    -0.327 C  
HETATM    4  N   UNL     1     -10.640  15.532  66.187  1.00  0.00    -0.307 NA 
HETATM    5  C   UNL     1      -7.571   9.038  68.758  1.00  0.00    -0.087 C  
HETATM    6  C   UNL     1     -11.293  14.393  66.889  1.00  0.00    -0.348 C  
HETATM    7  C   UNL     1     -10.757  14.088  68.300  1.00  0.00    -0.262 C  
HETATM    8  N   UNL     1      -7.992  10.405  68.927  1.00  0.00    -0.113 NA 
HETATM    9  C   UNL     1      -7.061  11.498  68.546  1.00  0.00    -0.087 C  
HETATM   10  C   UNL     1     -10.933  12.629  68.696  1.00  0.00    -0.292 A  
HETATM   11  C   UNL     1     -11.940  11.927  69.309  1.00  0.00    -0.342 A  
HETATM   12  C   UNL     1      -7.587  12.269  67.341  1.00  0.00    -0.159 C  
HETATM   13  N   UNL     1      -8.881  12.847  67.630  1.00  0.00    -0.175 NA 
HETATM   14  C   UNL     1      -9.721  11.995  68.404  1.00  0.00    -0.199 A  
HETATM   15  C   UNL     1     -11.661  10.602  69.690  1.00  0.00    -0.368 A  
HETATM   16  C   UNL     1     -10.366  10.032  69.534  1.00  0.00    -0.256 A  
HETATM   17  C   UNL     1      -9.347  10.756  68.923  1.00  0.00    -0.175 A  
ENDROOT
BRANCH   4  18
HETATM   18  C   UNL     1     -11.072  15.580  64.773  1.00  0.00    -0.407 C  
BRANCH  18  19
HETATM   19  C   UNL     1     -12.279  14.703  64.470  1.00  0.00    -0.473 C  
BRANCH  19  20
HETATM   20  C   UNL     1     -11.959  13.672  63.398  1.00  0.00    -0.202 C  
BRANCH  20  21
HETATM   21  C   UNL     1     -12.220  12.266  63.887  1.00  0.00    -0.515 C  
HETATM   22  O   UNL     1     -13.351  11.855  64.141  1.00  0.00    -0.652 OA 
BRANCH  21  23
HETATM   23  C   UNL     1     -11.055  11.355  64.059  1.00  0.00    -0.400 A  
HETATM   24  C   UNL     1      -9.809   9.875  65.520  1.00  0.00    -0.381 A  
HETATM   25  C   UNL     1     -10.888  10.730  65.304  1.00  0.00    -0.064 A  
HETATM   26  C   UNL     1      -8.899   9.649  64.494  1.00  0.00    -0.223 A  
HETATM   27  F   UNL     1      -7.859   8.836  64.704  1.00  0.00    -0.102 F  
HETATM   28  C   UNL     1     -10.133  11.111  63.030  1.00  0.00    -0.311 A  
HETATM   29  C   UNL     1      -9.052  10.256  63.252  1.00  0.00    -0.284 A  
ENDBRANCH  21  23
ENDBRANCH  20  21
ENDBRANCH  19  20
ENDBRANCH  18  19
ENDBRANCH   4  18
TORSDOF 5
ENDMDL
MODEL       22
REMARK 921   NORMALIZED FREE ENERGY PREDICTED BY IDOCK:   -6.80 KCAL/MOL
REMARK 922        TOTAL FREE ENERGY PREDICTED BY IDOCK:   -9.55 KCAL/MOL
REMARK 923 INTER-LIGAND FREE ENERGY PREDICTED BY IDOCK:   -8.73 KCAL/MOL
REMARK 924 INTRA-LIGAND FREE ENERGY PREDICTED BY IDOCK:   -0.82 KCAL/MOL
REMARK 927      BINDING AFFINITY PREDICTED BY RF-SCORE:    0.00 PKD
ROOT
HETATM    1  C   UNL     1     -11.919  12.379  65.448  1.00  0.00    -0.398 C  
HETATM    2  C   UNL     1     -12.735  13.410  66.189  1.00  0.00    -0.143 C  
HETATM    3  C   UNL     1     -11.893  14.630  66.485  1.00  0.00    -0.304 C  
HETATM    4  N   UNL     1     -11.362  15.238  65.255  1.00  0.00    -0.317 NA 
HETATM    5  C   UNL     1      -8.980   8.232  67.112  1.00  0.00    -0.138 C  
HETATM    6  C   UNL     1     -10.553  14.275  64.459  1.00  0.00    -0.207 C  
HETATM    7  C   UNL     1     -11.234  12.928  64.156  1.00  0.00    -0.432 C  
HETATM    8  N   UNL     1      -9.923   9.143  66.514  1.00  0.00    -0.271 NA 
HETATM    9  C   UNL     1     -10.971   9.757  67.368  1.00  0.00    -0.106 C  
HETATM   10  C   UNL     1     -10.239  11.794  63.959  1.00  0.00    -0.387 A  
HETATM   11  C   UNL     1      -9.568  11.298  62.870  1.00  0.00    -0.377 A  
HETATM   12  C   UNL     1     -10.749  11.259  67.511  1.00  0.00    -0.232 C  
HETATM   13  N   UNL     1     -10.772  11.905  66.217  1.00  0.00    -0.260 NA 
HETATM   14  C   UNL     1     -10.137  11.144  65.194  1.00  0.00    -0.281 A  
HETATM   15  C   UNL     1      -8.863  10.093  63.042  1.00  0.00    -0.231 A  
HETATM   16  C   UNL     1      -8.910   9.362  64.263  1.00  0.00    -0.220 A  
HETATM   17  C   UNL     1      -9.604   9.866  65.358  1.00  0.00    -0.285 A  
ENDROOT
BRANCH   4  18
HETATM   18  C   UNL     1     -10.529  16.386  65.676  1.00  0.00    -0.347 C  
BRANCH  18  19
HETATM   19  C   UNL     1      -9.571  16.063  66.816  1.00  0.00    -0.248 C  
BRANCH  19  20
HETATM   20  C   UNL     1     -10.013  16.725  68.113  1.00  0.00    -0.270 C  
BRANCH  20  21
HETATM   21  C   UNL     1      -9.742  15.839  69.306  1.00  0.00    -0.263 C  
HETATM   22  O   UNL     1      -8.608  15.483  69.619  1.00  0.00    -0.246 OA 
BRANCH  21  23
HETATM   23  C   UNL     1     -10.902  15.393  70.127  1.00  0.00    -0.328 A  
HETATM   24  C   UNL     1     -12.497  13.641  70.638  1.00  0.00    -0.417 A  
HETATM   25  C   UNL     1     -11.408  14.104  69.904  1.00  0.00    -0.232 A  
HETATM   26  C   UNL     1     -13.081  14.468  71.591  1.00  0.00    -0.343 A  
HETATM   27  F   UNL     1     -14.132  14.028  72.289  1.00  0.00    -0.493 F  
HETATM   28  C   UNL     1     -11.496  16.214  71.097  1.00  0.00    -0.433 A  
HETATM   29  C   UNL     1     -12.590  15.747  71.829  1.00  0.00    -0.524 A  
ENDBRANCH  21  23
ENDBRANCH  20  21
ENDBRANCH  19  20
ENDBRANCH  18  19
ENDBRANCH   4  18
TORSDOF 5
ENDMDL
MODEL       23
REMARK 921   NORMALIZED FREE ENERGY PREDICTED BY IDOCK:   -6.78 KCAL/MOL
REMARK 922        TOTAL FREE ENERGY PREDICTED BY IDOCK:   -9.52 KCAL/MOL
REMARK 923 INTER-LIGAND FREE ENERGY PREDICTED BY IDOCK:   -8.68 KCAL/MOL
REMARK 924 INTRA-LIGAND FREE ENERGY PREDICTED BY IDOCK:   -0.84 KCAL/MOL
REMARK 927      BINDING AFFINITY PREDICTED BY RF-SCORE:    0.00 PKD
ROOT
HETATM    1  C   UNL     1     -10.663  12.621  69.096  1.00  0.00    -0.016 C  
HETATM    2  C   UNL     1      -9.860  12.465  67.829  1.00  0.00    -0.203 C  
HETATM    3  C   UNL     1     -10.753  12.619  66.620  1.00  0.00    -0.253 C  
HETATM    4  N   UNL     1     -11.425  13.929  66.600  1.00  0.00    -0.340 NA 
HETATM    5  C   UNL     1     -13.170   9.086  72.231  1.00  0.00    -0.460 C  
HETATM    6  C   UNL     1     -12.230  14.163  67.830  1.00  0.00    -0.173 C  
HETATM    7  C   UNL     1     -11.488  13.945  69.161  1.00  0.00    -0.345 C  
HETATM    8  N   UNL     1     -12.343  10.103  71.633  1.00  0.00    -0.397 NA 
HETATM    9  C   UNL     1     -11.270   9.697  70.690  1.00  0.00    -0.320 C  
HETATM   10  C   UNL     1     -12.418  13.548  70.297  1.00  0.00    -0.309 A  
HETATM   11  C   UNL     1     -13.143  14.256  71.223  1.00  0.00    -0.425 A  
HETATM   12  C   UNL     1     -11.580  10.170  69.273  1.00  0.00    -0.055 C  
HETATM   13  N   UNL     1     -11.708  11.610  69.232  1.00  0.00    -0.303 NA 
HETATM   14  C   UNL     1     -12.374  12.151  70.369  1.00  0.00    -0.233 A  
HETATM   15  C   UNL     1     -13.749  13.526  72.261  1.00  0.00    -0.700 A  
HETATM   16  C   UNL     1     -13.551  12.124  72.409  1.00  0.00    -0.087 A  
HETATM   17  C   UNL     1     -12.804  11.416  71.473  1.00  0.00    -0.403 A  
ENDROOT
BRANCH   4  18
HETATM   18  C   UNL     1     -12.295  13.941  65.404  1.00  0.00    -0.470 C  
BRANCH  18  19
HETATM   19  C   UNL     1     -11.812  14.878  64.304  1.00  0.00    -0.312 C  
BRANCH  19  20
HETATM   20  C   UNL     1     -10.455  15.476  64.644  1.00  0.00     0.036 C  
BRANCH  20  21
HETATM   21  C   UNL     1     -10.585  16.894  65.150  1.00  0.00    -0.069 C  
HETATM   22  O   UNL     1     -11.379  17.697  64.664  1.00  0.00    -0.733 OA 
BRANCH  21  23
HETATM   23  C   UNL     1      -9.716  17.317  66.282  1.00  0.00    -0.282 A  
HETATM   24  C   UNL     1      -9.381  18.811  68.161  1.00  0.00    -0.352 A  
HETATM   25  C   UNL     1     -10.161  18.371  67.094  1.00  0.00    -0.396 A  
HETATM   26  C   UNL     1      -8.158  18.201  68.413  1.00  0.00    -0.303 A  
HETATM   27  F   UNL     1      -7.406  18.629  69.431  1.00  0.00    -0.266 F  
HETATM   28  C   UNL     1      -8.482  16.705  66.552  1.00  0.00    -0.327 A  
HETATM   29  C   UNL     1      -7.703  17.152  67.621  1.00  0.00    -0.184 A  
ENDBRANCH  21  23
ENDBRANCH  20  21
ENDBRANCH  19  20
ENDBRANCH  18  19
ENDBRANCH   4  18
TORSDOF 5
ENDMDL
MODEL       24
REMARK 921   NORMALIZED FREE ENERGY PREDICTED BY IDOCK:   -6.76 KCAL/MOL
REMARK 922        TOTAL FREE ENERGY PREDICTED BY IDOCK:   -9.50 KCAL/MOL
REMARK 923 INTER-LIGAND FREE ENERGY PREDICTED BY IDOCK:   -8.86 KCAL/MOL
REMARK 924 INTRA-LIGAND FREE ENERGY PREDICTED BY IDOCK:   -0.64 KCAL/MOL
REMARK 927      BINDING AFFINITY PREDICTED BY RF-SCORE:    0.00 PKD
ROOT
HETATM    1  C   UNL     1     -11.699  12.415  67.924  1.00  0.00    -0.360 C  
HETATM    2  C   UNL     1     -11.674  12.922  69.345  1.00  0.00    -0.382 C  
HETATM    3  C   UNL     1     -11.025  14.285  69.404  1.00  0.00    -0.209 C  
HETATM    4  N   UNL     1     -11.731  15.264  68.562  1.00  0.00    -0.346 NA 
HETATM    5  C   UNL     1      -8.302   9.382  65.119  1.00  0.00    -0.145 C  
HETATM    6  C   UNL     1     -11.809  14.827  67.141  1.00  0.00    -0.286 C  
HETATM    7  C   UNL     1     -12.359  13.406  66.913  1.00  0.00    -0.262 C  
HETATM    8  N   UNL     1      -9.412   9.984  65.814  1.00  0.00    -0.196 NA 
HETATM    9  C   UNL     1      -9.407  10.005  67.299  1.00  0.00    -0.148 C  
HETATM   10  C   UNL     1     -11.834  12.769  65.635  1.00  0.00    -0.472 A  
HETATM   11  C   UNL     1     -12.263  12.764  64.331  1.00  0.00    -0.499 A  
HETATM   12  C   UNL     1      -9.270  11.430  67.825  1.00  0.00    -0.159 C  
HETATM   13  N   UNL     1     -10.363  12.254  67.357  1.00  0.00    -0.206 NA 
HETATM   14  C   UNL     1     -10.741  11.981  66.011  1.00  0.00    -0.279 A  
HETATM   15  C   UNL     1     -11.614  11.887  63.443  1.00  0.00    -0.477 A  
HETATM   16  C   UNL     1     -10.615  10.973  63.886  1.00  0.00    -0.382 A  
HETATM   17  C   UNL     1     -10.196  10.976  65.212  1.00  0.00    -0.284 A  
ENDROOT
BRANCH   4  18
HETATM   18  C   UNL     1     -10.982  16.534  68.669  1.00  0.00    -0.344 C  
BRANCH  18  19
HETATM   19  C   UNL     1     -10.714  17.204  67.327  1.00  0.00    -0.208 C  
BRANCH  19  20
HETATM   20  C   UNL     1     -10.731  18.720  67.453  1.00  0.00    -0.487 C  
BRANCH  20  21
HETATM   21  C   UNL     1      -9.595  19.352  66.682  1.00  0.00    -0.355 C  
HETATM   22  O   UNL     1      -9.632  19.511  65.464  1.00  0.00    -0.241 OA 
BRANCH  21  23
HETATM   23  C   UNL     1      -8.393  19.796  67.441  1.00  0.00    -0.348 A  
HETATM   24  C   UNL     1      -7.231  19.890  69.566  1.00  0.00    -0.151 A  
HETATM   25  C   UNL     1      -8.329  19.489  68.808  1.00  0.00    -0.346 A  
HETATM   26  C   UNL     1      -6.202  20.599  68.958  1.00  0.00    -0.252 A  
HETATM   27  F   UNL     1      -5.153  20.991  69.687  1.00  0.00    -0.314 F  
HETATM   28  C   UNL     1      -7.344  20.506  66.839  1.00  0.00    -0.349 A  
HETATM   29  C   UNL     1      -6.246  20.908  67.603  1.00  0.00    -0.379 A  
ENDBRANCH  21  23
ENDBRANCH  20  21
ENDBRANCH  19  20
ENDBRANCH  18  19
ENDBRANCH   4  18
TORSDOF 5
ENDMDL
MODEL       25
REMARK 921   NORMALIZED FREE ENERGY PREDICTED BY IDOCK:   -6.76 KCAL/MOL
REMARK 922        TOTAL FREE ENERGY PREDICTED BY IDOCK:   -9.49 KCAL/MOL
REMARK 923 INTER-LIGAND FREE ENERGY PREDICTED BY IDOCK:   -8.35 KCAL/MOL
REMARK 924 INTRA-LIGAND FREE ENERGY PREDICTED BY IDOCK:   -1.15 KCAL/MOL
REMARK 927      BINDING AFFINITY PREDICTED BY RF-SCORE:    0.00 PKD
ROOT
HETATM    1  C   UNL     1      -8.806   9.927  67.804  1.00  0.00    -0.129 C  
HETATM    2  C   UNL     1      -8.037  10.106  66.518  1.00  0.00    -0.121 C  
HETATM    3  C   UNL     1      -8.989  10.231  65.351  1.00  0.00    -0.178 C  
HETATM    4  N   UNL     1      -9.910  11.367  65.516  1.00  0.00    -0.222 NA 
HETATM    5  C   UNL     1     -10.429   5.576  70.457  1.00  0.00    -0.277 C  
HETATM    6  C   UNL     1     -10.699  11.269  66.775  1.00  0.00    -0.275 C  
HETATM    7  C   UNL     1      -9.877  11.035  68.056  1.00  0.00    -0.183 C  
HETATM    8  N   UNL     1      -9.847   6.810  69.993  1.00  0.00    -0.169 NA 
HETATM    9  C   UNL     1      -8.752   6.759  68.992  1.00  0.00    -0.130 C  
HETATM   10  C   UNL     1     -10.664  10.311  69.139  1.00  0.00    -0.259 A  
HETATM   11  C   UNL     1     -11.481  10.729  70.160  1.00  0.00    -0.415 A  
HETATM   12  C   UNL     1      -9.204   7.339  67.656  1.00  0.00    -0.126 C  
HETATM   13  N   UNL     1      -9.621   8.715  67.812  1.00  0.00    -0.145 NA 
HETATM   14  C   UNL     1     -10.337   8.956  69.020  1.00  0.00    -0.212 A  
HETATM   15  C   UNL     1     -11.887   9.761  71.096  1.00  0.00    -0.466 A  
HETATM   16  C   UNL     1     -11.406   8.422  71.049  1.00  0.00    -0.303 A  
HETATM   17  C   UNL     1     -10.568   8.010  70.018  1.00  0.00    -0.242 A  
ENDROOT
BRANCH   4  18
HETATM   18  C   UNL     1     -10.811  11.357  64.343  1.00  0.00    -0.330 C  
BRANCH  18  19
HETATM   19  C   UNL     1     -10.935  12.710  63.654  1.00  0.00    -0.464 C  
BRANCH  19  20
HETATM   20  C   UNL     1     -12.250  13.390  64.004  1.00  0.00    -0.466 C  
BRANCH  20  21
HETATM   21  C   UNL     1     -12.032  14.812  64.465  1.00  0.00    -0.440 C  
HETATM   22  O   UNL     1     -12.255  15.781  63.743  1.00  0.00    -0.699 OA 
BRANCH  21  23
HETATM   23  C   UNL     1     -11.531  15.032  65.850  1.00  0.00    -0.224 A  
HETATM   24  C   UNL     1     -11.729  14.507  68.208  1.00  0.00    -0.368 A  
HETATM   25  C   UNL     1     -12.154  14.331  66.894  1.00  0.00    -0.440 A  
HETATM   26  C   UNL     1     -10.685  15.385  68.479  1.00  0.00    -0.256 A  
HETATM   27  F   UNL     1     -10.284  15.561  69.741  1.00  0.00    -0.229 F  
HETATM   28  C   UNL     1     -10.474  15.909  66.137  1.00  0.00    -0.336 A  
HETATM   29  C   UNL     1     -10.053  16.084  67.457  1.00  0.00    -0.247 A  
ENDBRANCH  21  23
ENDBRANCH  20  21
ENDBRANCH  19  20
ENDBRANCH  18  19
ENDBRANCH   4  18
TORSDOF 5
ENDMDL
MODEL       26
REMARK 921   NORMALIZED FREE ENERGY PREDICTED BY IDOCK:   -6.75 KCAL/MOL
REMARK 922        TOTAL FREE ENERGY PREDICTED BY IDOCK:   -9.48 KCAL/MOL
REMARK 923 INTER-LIGAND FREE ENERGY PREDICTED BY IDOCK:   -8.64 KCAL/MOL
REMARK 924 INTRA-LIGAND FREE ENERGY PREDICTED BY IDOCK:   -0.84 KCAL/MOL
REMARK 927      BINDING AFFINITY PREDICTED BY RF-SCORE:    0.00 PKD
ROOT
HETATM    1  C   UNL     1     -10.690  13.182  68.360  1.00  0.00    -0.253 C  
HETATM    2  C   UNL     1     -11.127  14.095  69.479  1.00  0.00    -0.222 C  
HETATM    3  C   UNL     1     -12.284  13.482  70.234  1.00  0.00    -0.347 C  
HETATM    4  N   UNL     1     -11.933  12.170  70.801  1.00  0.00    -0.176 NA 
HETATM    5  C   UNL     1     -12.083  12.874  63.206  1.00  0.00    -0.440 C  
HETATM    6  C   UNL     1     -11.476  11.214  69.756  1.00  0.00    -0.312 C  
HETATM    7  C   UNL     1     -10.362  11.728  68.826  1.00  0.00    -0.198 C  
HETATM    8  N   UNL     1     -11.435  13.000  64.486  1.00  0.00    -0.331 NA 
HETATM    9  C   UNL     1     -11.662  14.227  65.292  1.00  0.00    -0.357 C  
HETATM   10  C   UNL     1     -10.385  11.067  67.456  1.00  0.00    -0.233 A  
HETATM   11  C   UNL     1      -9.809   9.934  66.938  1.00  0.00    -0.252 A  
HETATM   12  C   UNL     1     -12.451  13.911  66.558  1.00  0.00    -0.321 C  
HETATM   13  N   UNL     1     -11.742  12.950  67.374  1.00  0.00    -0.362 NA 
HETATM   14  C   UNL     1     -11.095  11.932  66.616  1.00  0.00    -0.310 A  
HETATM   15  C   UNL     1      -9.901   9.743  65.548  1.00  0.00    -0.378 A  
HETATM   16  C   UNL     1     -10.485  10.720  64.692  1.00  0.00    -0.346 A  
HETATM   17  C   UNL     1     -11.054  11.872  65.224  1.00  0.00    -0.299 A  
ENDROOT
BRANCH   4  18
HETATM   18  C   UNL     1     -13.147  11.660  71.472  1.00  0.00    -0.302 C  
BRANCH  18  19
HETATM   19  C   UNL     1     -13.535  10.249  71.047  1.00  0.00    -0.172 C  
BRANCH  19  20
HETATM   20  C   UNL     1     -13.602   9.310  72.242  1.00  0.00    -0.544 C  
BRANCH  20  21
HETATM   21  C   UNL     1     -13.250   7.893  71.852  1.00  0.00    -0.285 C  
HETATM   22  O   UNL     1     -14.045   7.149  71.281  1.00  0.00    -0.351 OA 
BRANCH  21  23
HETATM   23  C   UNL     1     -11.884   7.395  72.175  1.00  0.00    -0.323 A  
HETATM   24  C   UNL     1     -10.376   5.504  72.328  1.00  0.00    -0.257 A  
HETATM   25  C   UNL     1     -11.634   6.022  72.031  1.00  0.00    -0.333 A  
HETATM   26  C   UNL     1      -9.371   6.357  72.772  1.00  0.00    -0.140 A  
HETATM   27  F   UNL     1      -8.167   5.858  73.066  1.00  0.00    -0.114 F  
HETATM   28  C   UNL     1     -10.859   8.245  72.617  1.00  0.00    -0.381 A  
HETATM   29  C   UNL     1      -9.600   7.720  72.916  1.00  0.00    -0.302 A  
ENDBRANCH  21  23
ENDBRANCH  20  21
ENDBRANCH  19  20
ENDBRANCH  18  19
ENDBRANCH   4  18
TORSDOF 5
ENDMDL
MODEL       27
REMARK 921   NORMALIZED FREE ENERGY PREDICTED BY IDOCK:   -6.75 KCAL/MOL
REMARK 922        TOTAL FREE ENERGY PREDICTED BY IDOCK:   -9.48 KCAL/MOL
REMARK 923 INTER-LIGAND FREE ENERGY PREDICTED BY IDOCK:   -8.56 KCAL/MOL
REMARK 924 INTRA-LIGAND FREE ENERGY PREDICTED BY IDOCK:   -0.92 KCAL/MOL
REMARK 927      BINDING AFFINITY PREDICTED BY RF-SCORE:    0.00 PKD
ROOT
HETATM    1  C   UNL     1     -12.079  11.324  69.189  1.00  0.00    -0.279 C  
HETATM    2  C   UNL     1     -11.403  10.148  68.528  1.00  0.00    -0.172 C  
HETATM    3  C   UNL     1     -10.320   9.594  69.425  1.00  0.00    -0.213 C  
HETATM    4  N   UNL     1     -10.856   9.165  70.727  1.00  0.00    -0.246 NA 
HETATM    5  C   UNL     1     -11.156  16.589  68.993  1.00  0.00    -0.284 C  
HETATM    6  C   UNL     1     -11.552  10.272  71.437  1.00  0.00    -0.145 C  
HETATM    7  C   UNL     1     -12.625  11.015  70.619  1.00  0.00    -0.427 C  
HETATM    8  N   UNL     1     -11.672  15.245  68.943  1.00  0.00    -0.339 NA 
HETATM    9  C   UNL     1     -11.170  14.318  67.897  1.00  0.00    -0.285 C  
HETATM   10  C   UNL     1     -12.823  12.453  71.074  1.00  0.00    -0.245 A  
HETATM   11  C   UNL     1     -13.628  13.050  72.011  1.00  0.00    -0.530 A  
HETATM   12  C   UNL     1     -10.357  13.185  68.515  1.00  0.00    -0.238 C  
HETATM   13  N   UNL     1     -11.162  12.430  69.451  1.00  0.00    -0.201 NA 
HETATM   14  C   UNL     1     -12.035  13.243  70.230  1.00  0.00    -0.300 A  
HETATM   15  C   UNL     1     -13.676  14.456  72.017  1.00  0.00    -0.533 A  
HETATM   16  C   UNL     1     -12.995  15.235  71.039  1.00  0.00    -0.526 A  
HETATM   17  C   UNL     1     -12.191  14.621  70.085  1.00  0.00    -0.335 A  
ENDROOT
BRANCH   4  18
HETATM   18  C   UNL     1      -9.704   8.687  71.522  1.00  0.00    -0.263 C  
BRANCH  18  19
HETATM   19  C   UNL     1     -10.061   7.597  72.524  1.00  0.00    -0.284 C  
BRANCH  19  20
HETATM   20  C   UNL     1     -11.103   6.644  71.957  1.00  0.00    -0.289 C  
BRANCH  20  21
HETATM   21  C   UNL     1     -10.463   5.398  71.390  1.00  0.00    -0.226 C  
HETATM   22  O   UNL     1     -10.044   4.489  72.103  1.00  0.00    -0.183 OA 
BRANCH  21  23
HETATM   23  C   UNL     1     -10.347   5.281  69.910  1.00  0.00    -0.374 A  
HETATM   24  C   UNL     1      -9.375   4.120  68.017  1.00  0.00    -0.213 A  
HETATM   25  C   UNL     1      -9.525   4.267  69.394  1.00  0.00    -0.256 A  
HETATM   26  C   UNL     1     -10.043   4.986  67.159  1.00  0.00    -0.199 A  
HETATM   27  F   UNL     1      -9.891   4.851  65.838  1.00  0.00    -0.156 F  
HETATM   28  C   UNL     1     -11.020   6.143  69.032  1.00  0.00    -0.436 A  
HETATM   29  C   UNL     1     -10.864   5.993  67.653  1.00  0.00    -0.386 A  
ENDBRANCH  21  23
ENDBRANCH  20  21
ENDBRANCH  19  20
ENDBRANCH  18  19
ENDBRANCH   4  18
TORSDOF 5
ENDMDL
MODEL       28
REMARK 921   NORMALIZED FREE ENERGY PREDICTED BY IDOCK:   -6.73 KCAL/MOL
REMARK 922        TOTAL FREE ENERGY PREDICTED BY IDOCK:   -9.46 KCAL/MOL
REMARK 923 INTER-LIGAND FREE ENERGY PREDICTED BY IDOCK:   -8.38 KCAL/MOL
REMARK 924 INTRA-LIGAND FREE ENERGY PREDICTED BY IDOCK:   -1.07 KCAL/MOL
REMARK 927      BINDING AFFINITY PREDICTED BY RF-SCORE:    0.00 PKD
ROOT
HETATM    1  C   UNL     1      -9.620   8.387  70.219  1.00  0.00    -0.165 C  
HETATM    2  C   UNL     1      -8.532   7.586  69.548  1.00  0.00    -0.132 C  
HETATM    3  C   UNL     1      -8.720   7.598  68.049  1.00  0.00    -0.125 C  
HETATM    4  N   UNL     1      -8.705   8.967  67.508  1.00  0.00    -0.123 NA 
HETATM    5  C   UNL     1     -14.397   7.028  72.203  1.00  0.00    -0.109 C  
HETATM    6  C   UNL     1      -9.746   9.827  68.133  1.00  0.00    -0.145 C  
HETATM    7  C   UNL     1      -9.757   9.844  69.673  1.00  0.00    -0.252 C  
HETATM    8  N   UNL     1     -13.056   7.487  71.944  1.00  0.00    -0.289 NA 
HETATM    9  C   UNL     1     -11.982   6.486  71.722  1.00  0.00    -0.344 C  
HETATM   10  C   UNL     1     -11.131  10.148  70.250  1.00  0.00    -0.384 A  
HETATM   11  C   UNL     1     -11.786  11.307  70.584  1.00  0.00    -0.368 A  
HETATM   12  C   UNL     1     -11.477   6.537  70.284  1.00  0.00    -0.411 C  
HETATM   13  N   UNL     1     -10.955   7.849  69.972  1.00  0.00    -0.238 NA 
HETATM   14  C   UNL     1     -11.715   8.910  70.541  1.00  0.00    -0.111 A  
HETATM   15  C   UNL     1     -12.999  11.182  71.286  1.00  0.00    -0.457 A  
HETATM   16  C   UNL     1     -13.490   9.917  71.717  1.00  0.00    -0.444 A  
HETATM   17  C   UNL     1     -12.812   8.748  71.386  1.00  0.00    -0.280 A  
ENDROOT
BRANCH   4  18
HETATM   18  C   UNL     1      -8.939   8.850  66.052  1.00  0.00    -0.193 C  
BRANCH  18  19
HETATM   19  C   UNL     1      -8.857  10.177  65.310  1.00  0.00    -0.201 C  
BRANCH  19  20
HETATM   20  C   UNL     1     -10.140  10.461  64.543  1.00  0.00    -0.365 C  
BRANCH  20  21
HETATM   21  C   UNL     1     -10.269  11.929  64.204  1.00  0.00    -0.330 C  
HETATM   22  O   UNL     1      -9.998  12.376  63.092  1.00  0.00    -0.350 OA 
BRANCH  21  23
HETATM   23  C   UNL     1     -10.748  12.854  65.268  1.00  0.00    -0.318 A  
HETATM   24  C   UNL     1     -11.926  13.128  67.369  1.00  0.00    -0.379 A  
HETATM   25  C   UNL     1     -11.448  12.304  66.352  1.00  0.00    -0.434 A  
HETATM   26  C   UNL     1     -11.705  14.499  67.300  1.00  0.00    -0.406 A  
HETATM   27  F   UNL     1     -12.171  15.289  68.271  1.00  0.00    -0.285 F  
HETATM   28  C   UNL     1     -10.527  14.239  65.215  1.00  0.00    -0.408 A  
HETATM   29  C   UNL     1     -11.009  15.061  66.236  1.00  0.00    -0.338 A  
ENDBRANCH  21  23
ENDBRANCH  20  21
ENDBRANCH  19  20
ENDBRANCH  18  19
ENDBRANCH   4  18
TORSDOF 5
ENDMDL
MODEL       29
REMARK 921   NORMALIZED FREE ENERGY PREDICTED BY IDOCK:   -6.70 KCAL/MOL
REMARK 922        TOTAL FREE ENERGY PREDICTED BY IDOCK:   -9.42 KCAL/MOL
REMARK 923 INTER-LIGAND FREE ENERGY PREDICTED BY IDOCK:   -7.83 KCAL/MOL
REMARK 924 INTRA-LIGAND FREE ENERGY PREDICTED BY IDOCK:   -1.59 KCAL/MOL
REMARK 927      BINDING AFFINITY PREDICTED BY RF-SCORE:    0.00 PKD
ROOT
HETATM    1  C   UNL     1     -12.077  14.442  65.793  1.00  0.00    -0.355 C  
HETATM    2  C   UNL     1     -12.051  14.043  64.339  1.00  0.00    -0.486 C  
HETATM    3  C   UNL     1     -11.009  12.973  64.108  1.00  0.00    -0.408 C  
HETATM    4  N   UNL     1     -11.264  11.776  64.925  1.00  0.00    -0.294 NA 
HETATM    5  C   UNL     1      -9.544  18.280  68.524  1.00  0.00    -0.342 C  
HETATM    6  C   UNL     1     -11.318  12.093  66.379  1.00  0.00    -0.356 C  
HETATM    7  C   UNL     1     -12.266  13.241  66.773  1.00  0.00    -0.340 C  
HETATM    8  N   UNL     1     -10.471  17.382  67.884  1.00  0.00    -0.370 NA 
HETATM    9  C   UNL     1     -10.627  17.437  66.408  1.00  0.00    -0.192 C  
HETATM   10  C   UNL     1     -11.834  13.951  68.048  1.00  0.00    -0.411 A  
HETATM   11  C   UNL     1     -12.092  13.751  69.380  1.00  0.00    -0.377 A  
HETATM   12  C   UNL     1     -10.099  16.164  65.755  1.00  0.00    -0.363 C  
HETATM   13  N   UNL     1     -10.810  15.005  66.249  1.00  0.00    -0.328 NA 
HETATM   14  C   UNL     1     -11.101  15.072  67.642  1.00  0.00    -0.316 A  
HETATM   15  C   UNL     1     -11.664  14.747  70.276  1.00  0.00    -0.351 A  
HETATM   16  C   UNL     1     -11.068  15.959  69.823  1.00  0.00    -0.324 A  
HETATM   17  C   UNL     1     -10.823  16.159  68.469  1.00  0.00    -0.313 A  
ENDROOT
BRANCH   4  18
HETATM   18  C   UNL     1     -10.163  10.829  64.646  1.00  0.00    -0.350 C  
BRANCH  18  19
HETATM   19  C   UNL     1      -9.776   9.968  65.841  1.00  0.00    -0.309 C  
BRANCH  19  20
HETATM   20  C   UNL     1      -8.307  10.144  66.197  1.00  0.00    -0.131 C  
BRANCH  20  21
HETATM   21  C   UNL     1      -8.123  10.398  67.675  1.00  0.00    -0.107 C  
HETATM   22  O   UNL     1      -8.341   9.538  68.525  1.00  0.00    -0.115 OA 
BRANCH  21  23
HETATM   23  C   UNL     1      -7.655  11.746  68.102  1.00  0.00    -0.117 A  
HETATM   24  C   UNL     1      -6.279  13.056  69.607  1.00  0.00    -0.113 A  
HETATM   25  C   UNL     1      -6.741  11.819  69.163  1.00  0.00    -0.110 A  
HETATM   26  C   UNL     1      -6.733  14.217  68.992  1.00  0.00    -0.106 A  
HETATM   27  F   UNL     1      -6.297  15.404  69.423  1.00  0.00    -0.108 F  
HETATM   28  C   UNL     1      -8.100  12.926  67.486  1.00  0.00    -0.181 A  
HETATM   29  C   UNL     1      -7.636  14.164  67.936  1.00  0.00    -0.162 A  
ENDBRANCH  21  23
ENDBRANCH  20  21
ENDBRANCH  19  20
ENDBRANCH  18  19
ENDBRANCH   4  18
TORSDOF 5
ENDMDL
MODEL       30
REMARK 921   NORMALIZED FREE ENERGY PREDICTED BY IDOCK:   -6.67 KCAL/MOL
REMARK 922        TOTAL FREE ENERGY PREDICTED BY IDOCK:   -9.38 KCAL/MOL
REMARK 923 INTER-LIGAND FREE ENERGY PREDICTED BY IDOCK:   -8.32 KCAL/MOL
REMARK 924 INTRA-LIGAND FREE ENERGY PREDICTED BY IDOCK:   -1.06 KCAL/MOL
REMARK 927      BINDING AFFINITY PREDICTED BY RF-SCORE:    0.00 PKD
ROOT
HETATM    1  C   UNL     1      -9.206  10.474  66.289  1.00  0.00    -0.168 C  
HETATM    2  C   UNL     1     -10.138  10.663  65.117  1.00  0.00    -0.374 C  
HETATM    3  C   UNL     1     -10.981  11.902  65.313  1.00  0.00    -0.302 C  
HETATM    4  N   UNL     1     -10.152  13.109  65.462  1.00  0.00    -0.284 NA 
HETATM    5  C   UNL     1      -9.676   7.740  70.862  1.00  0.00    -0.168 C  
HETATM    6  C   UNL     1      -9.193  12.993  66.595  1.00  0.00    -0.219 C  
HETATM    7  C   UNL     1      -8.322  11.723  66.599  1.00  0.00    -0.136 C  
HETATM    8  N   UNL     1      -9.314   8.302  69.586  1.00  0.00    -0.158 NA 
HETATM    9  C   UNL     1     -10.162   8.009  68.402  1.00  0.00    -0.207 C  
HETATM   10  C   UNL     1      -7.880  11.315  67.997  1.00  0.00    -0.115 A  
HETATM   11  C   UNL     1      -6.801  11.633  68.782  1.00  0.00    -0.090 A  
HETATM   12  C   UNL     1     -10.873   9.266  67.915  1.00  0.00    -0.118 C  
HETATM   13  N   UNL     1      -9.915  10.287  67.552  1.00  0.00    -0.182 NA 
HETATM   14  C   UNL     1      -8.794  10.348  68.429  1.00  0.00    -0.136 A  
HETATM   15  C   UNL     1      -6.628  10.896  69.967  1.00  0.00    -0.151 A  
HETATM   16  C   UNL     1      -7.477   9.804  70.304  1.00  0.00    -0.173 A  
HETATM   17  C   UNL     1      -8.561   9.480  69.495  1.00  0.00    -0.169 A  
ENDROOT
BRANCH   4  18
HETATM   18  C   UNL     1     -11.082  14.237  65.689  1.00  0.00    -0.316 C  
BRANCH  18  19
HETATM   19  C   UNL     1     -12.176  13.934  66.705  1.00  0.00    -0.465 C  
BRANCH  19  20
HETATM   20  C   UNL     1     -11.973  14.728  67.988  1.00  0.00    -0.261 C  
BRANCH  20  21
HETATM   21  C   UNL     1     -11.899  13.820  69.194  1.00  0.00    -0.354 C  
HETATM   22  O   UNL     1     -11.619  12.626  69.105  1.00  0.00    -0.282 OA 
BRANCH  21  23
HETATM   23  C   UNL     1     -12.172  14.410  70.534  1.00  0.00    -0.411 A  
HETATM   24  C   UNL     1     -13.349  14.240  72.646  1.00  0.00    -0.619 A  
HETATM   25  C   UNL     1     -13.052  13.726  71.385  1.00  0.00    -0.413 A  
HETATM   26  C   UNL     1     -12.768  15.436  73.052  1.00  0.00    -0.451 A  
HETATM   27  F   UNL     1     -13.059  15.933  74.257  1.00  0.00    -0.536 F  
HETATM   28  C   UNL     1     -11.587  15.612  70.959  1.00  0.00    -0.434 A  
HETATM   29  C   UNL     1     -11.889  16.124  72.223  1.00  0.00    -0.631 A  
ENDBRANCH  21  23
ENDBRANCH  20  21
ENDBRANCH  19  20
ENDBRANCH  18  19
ENDBRANCH   4  18
TORSDOF 5
ENDMDL
MODEL       31
REMARK 921   NORMALIZED FREE ENERGY PREDICTED BY IDOCK:   -6.66 KCAL/MOL
REMARK 922        TOTAL FREE ENERGY PREDICTED BY IDOCK:   -9.36 KCAL/MOL
REMARK 923 INTER-LIGAND FREE ENERGY PREDICTED BY IDOCK:   -8.30 KCAL/MOL
REMARK 924 INTRA-LIGAND FREE ENERGY PREDICTED BY IDOCK:   -1.06 KCAL/MOL
REMARK 927      BINDING AFFINITY PREDICTED BY RF-SCORE:    0.00 PKD
ROOT
HETATM    1  C   UNL     1     -11.710  10.383  68.766  1.00  0.00    -0.037 C  
HETATM    2  C   UNL     1     -11.867  11.871  68.961  1.00  0.00    -0.368 C  
HETATM    3  C   UNL     1     -10.512  12.537  69.024  1.00  0.00     0.010 C  
HETATM    4  N   UNL     1      -9.728  12.298  67.802  1.00  0.00    -0.194 NA 
HETATM    5  C   UNL     1     -11.413   6.307  72.215  1.00  0.00    -0.306 C  
HETATM    6  C   UNL     1      -9.541  10.845  67.533  1.00  0.00    -0.155 C  
HETATM    7  C   UNL     1     -10.827   9.999  67.536  1.00  0.00    -0.326 C  
HETATM    8  N   UNL     1     -11.729   7.259  71.181  1.00  0.00    -0.290 NA 
HETATM    9  C   UNL     1     -12.304   8.574  71.563  1.00  0.00    -0.314 C  
HETATM   10  C   UNL     1     -10.577   8.546  67.915  1.00  0.00    -0.219 A  
HETATM   11  C   UNL     1     -10.257   7.420  67.198  1.00  0.00    -0.347 A  
HETATM   12  C   UNL     1     -11.325   9.705  71.270  1.00  0.00    -0.388 C  
HETATM   13  N   UNL     1     -10.992   9.740  69.863  1.00  0.00    -0.251 NA 
HETATM   14  C   UNL     1     -10.844   8.447  69.284  1.00  0.00    -0.054 A  
HETATM   15  C   UNL     1     -10.295   6.191  67.881  1.00  0.00    -0.250 A  
HETATM   16  C   UNL     1     -10.732   6.095  69.233  1.00  0.00    -0.383 A  
HETATM   17  C   UNL     1     -11.067   7.241  69.947  1.00  0.00    -0.212 A  
ENDROOT
BRANCH   4  18
HETATM   18  C   UNL     1      -8.419  12.957  68.001  1.00  0.00    -0.178 C  
BRANCH  18  19
HETATM   19  C   UNL     1      -8.493  14.478  68.000  1.00  0.00    -0.161 C  
BRANCH  19  20
HETATM   20  C   UNL     1      -8.780  15.017  66.606  1.00  0.00    -0.289 C  
BRANCH  20  21
HETATM   21  C   UNL     1     -10.263  15.197  66.378  1.00  0.00    -0.281 C  
HETATM   22  O   UNL     1     -10.902  16.115  66.887  1.00  0.00    -0.282 OA 
BRANCH  21  23
HETATM   23  C   UNL     1     -10.961  14.219  65.498  1.00  0.00    -0.319 A  
HETATM   24  C   UNL     1     -13.023  13.076  64.936  1.00  0.00    -0.218 A  
HETATM   25  C   UNL     1     -12.326  13.987  65.726  1.00  0.00    -0.506 A  
HETATM   26  C   UNL     1     -12.357  12.397  63.923  1.00  0.00    -0.508 A  
HETATM   27  F   UNL     1     -13.024  11.516  63.172  1.00  0.00    -0.632 F  
HETATM   28  C   UNL     1     -10.303  13.532  64.467  1.00  0.00    -0.381 A  
HETATM   29  C   UNL     1     -11.006  12.618  63.680  1.00  0.00    -0.464 A  
ENDBRANCH  21  23
ENDBRANCH  20  21
ENDBRANCH  19  20
ENDBRANCH  18  19
ENDBRANCH   4  18
TORSDOF 5
ENDMDL
MODEL       32
REMARK 921   NORMALIZED FREE ENERGY PREDICTED BY IDOCK:   -6.64 KCAL/MOL
REMARK 922        TOTAL FREE ENERGY PREDICTED BY IDOCK:   -9.33 KCAL/MOL
REMARK 923 INTER-LIGAND FREE ENERGY PREDICTED BY IDOCK:   -9.07 KCAL/MOL
REMARK 924 INTRA-LIGAND FREE ENERGY PREDICTED BY IDOCK:   -0.26 KCAL/MOL
REMARK 927      BINDING AFFINITY PREDICTED BY RF-SCORE:    0.00 PKD
ROOT
HETATM    1  C   UNL     1      -9.511  16.294  66.020  1.00  0.00    -0.334 C  
HETATM    2  C   UNL     1      -9.529  14.795  65.853  1.00  0.00    -0.266 C  
HETATM    3  C   UNL     1      -9.702  14.120  67.194  1.00  0.00    -0.248 C  
HETATM    4  N   UNL     1     -10.945  14.538  67.860  1.00  0.00    -0.262 NA 
HETATM    5  C   UNL     1      -5.533  19.796  66.733  1.00  0.00    -0.166 C  
HETATM    6  C   UNL     1     -11.009  16.014  68.049  1.00  0.00    -0.341 C  
HETATM    7  C   UNL     1     -10.750  16.857  66.787  1.00  0.00    -0.111 C  
HETATM    8  N   UNL     1      -6.662  19.014  66.299  1.00  0.00    -0.203 NA 
HETATM    9  C   UNL     1      -6.428  17.660  65.737  1.00  0.00    -0.121 C  
HETATM   10  C   UNL     1     -10.184  18.233  67.102  1.00  0.00    -0.387 A  
HETATM   11  C   UNL     1     -10.750  19.454  67.373  1.00  0.00    -0.594 A  
HETATM   12  C   UNL     1      -6.984  16.581  66.660  1.00  0.00    -0.161 C  
HETATM   13  N   UNL     1      -8.406  16.759  66.854  1.00  0.00    -0.191 NA 
HETATM   14  C   UNL     1      -8.795  18.124  66.971  1.00  0.00    -0.262 A  
HETATM   15  C   UNL     1      -9.889  20.565  67.427  1.00  0.00    -0.574 A  
HETATM   16  C   UNL     1      -8.501  20.456  67.125  1.00  0.00    -0.393 A  
HETATM   17  C   UNL     1      -7.939  19.216  66.838  1.00  0.00    -0.259 A  
ENDROOT
BRANCH   4  18
HETATM   18  C   UNL     1     -10.978  13.850  69.169  1.00  0.00    -0.218 C  
BRANCH  18  19
HETATM   19  C   UNL     1     -12.360  13.815  69.809  1.00  0.00    -0.311 C  
BRANCH  19  20
HETATM   20  C   UNL     1     -12.481  12.667  70.801  1.00  0.00    -0.357 C  
BRANCH  20  21
HETATM   21  C   UNL     1     -12.277  11.330  70.127  1.00  0.00    -0.330 C  
HETATM   22  O   UNL     1     -12.454  11.164  68.922  1.00  0.00    -0.460 OA 
BRANCH  21  23
HETATM   23  C   UNL     1     -11.842  10.180  70.967  1.00  0.00    -0.475 A  
HETATM   24  C   UNL     1     -10.058   8.668  71.605  1.00  0.00    -0.365 A  
HETATM   25  C   UNL     1     -10.513   9.745  70.848  1.00  0.00    -0.298 A  
HETATM   26  C   UNL     1     -10.931   8.026  72.477  1.00  0.00    -0.364 A  
HETATM   27  F   UNL     1     -10.496   6.987  73.196  1.00  0.00    -0.220 F  
HETATM   28  C   UNL     1     -12.709   9.528  71.856  1.00  0.00    -0.496 A  
HETATM   29  C   UNL     1     -12.249   8.447  72.611  1.00  0.00    -0.302 A  
ENDBRANCH  21  23
ENDBRANCH  20  21
ENDBRANCH  19  20
ENDBRANCH  18  19
ENDBRANCH   4  18
TORSDOF 5
ENDMDL
MODEL       33
REMARK 921   NORMALIZED FREE ENERGY PREDICTED BY IDOCK:   -6.63 KCAL/MOL
REMARK 922        TOTAL FREE ENERGY PREDICTED BY IDOCK:   -9.33 KCAL/MOL
REMARK 923 INTER-LIGAND FREE ENERGY PREDICTED BY IDOCK:   -8.47 KCAL/MOL
REMARK 924 INTRA-LIGAND FREE ENERGY PREDICTED BY IDOCK:   -0.87 KCAL/MOL
REMARK 927      BINDING AFFINITY PREDICTED BY RF-SCORE:    0.00 PKD
ROOT
HETATM    1  C   UNL     1      -8.908  16.068  67.355  1.00  0.00    -0.184 C  
HETATM    2  C   UNL     1      -8.853  14.586  67.632  1.00  0.00    -0.189 C  
HETATM    3  C   UNL     1      -9.846  14.217  68.710  1.00  0.00    -0.189 C  
HETATM    4  N   UNL     1     -11.221  14.581  68.335  1.00  0.00    -0.259 NA 
HETATM    5  C   UNL     1      -6.172  20.210  69.347  1.00  0.00    -0.334 C  
HETATM    6  C   UNL     1     -11.353  16.032  68.031  1.00  0.00    -0.266 C  
HETATM    7  C   UNL     1     -10.340  16.594  67.018  1.00  0.00    -0.301 C  
HETATM    8  N   UNL     1      -6.798  19.185  68.551  1.00  0.00    -0.266 NA 
HETATM    9  C   UNL     1      -6.297  17.790  68.647  1.00  0.00    -0.197 C  
HETATM   10  C   UNL     1     -10.062  18.076  67.220  1.00  0.00    -0.346 A  
HETATM   11  C   UNL     1     -10.643  19.224  66.742  1.00  0.00    -0.543 A  
HETATM   12  C   UNL     1      -7.335  16.879  69.291  1.00  0.00    -0.150 C  
HETATM   13  N   UNL     1      -8.559  16.875  68.521  1.00  0.00    -0.242 NA 
HETATM   14  C   UNL     1      -8.902  18.155  67.997  1.00  0.00    -0.279 A  
HETATM   15  C   UNL     1      -9.979  20.437  67.001  1.00  0.00    -0.568 A  
HETATM   16  C   UNL     1      -8.713  20.477  67.651  1.00  0.00    -0.267 A  
HETATM   17  C   UNL     1      -8.125  19.306  68.120  1.00  0.00    -0.314 A  
ENDROOT
BRANCH   4  18
HETATM   18  C   UNL     1     -12.085  14.213  69.478  1.00  0.00    -0.340 C  
BRANCH  18  19
HETATM   19  C   UNL     1     -11.723  12.877  70.114  1.00  0.00    -0.234 C  
BRANCH  19  20
HETATM   20  C   UNL     1     -12.127  11.712  69.221  1.00  0.00    -0.323 C  
BRANCH  20  21
HETATM   21  C   UNL     1     -10.965  10.778  68.971  1.00  0.00    -0.240 C  
HETATM   22  O   UNL     1     -10.356  10.223  69.884  1.00  0.00    -0.255 OA 
BRANCH  21  23
HETATM   23  C   UNL     1     -10.557  10.528  67.561  1.00  0.00    -0.306 A  
HETATM   24  C   UNL     1      -9.539   9.021  65.959  1.00  0.00    -0.342 A  
HETATM   25  C   UNL     1      -9.947   9.301  67.261  1.00  0.00    -0.264 A  
HETATM   26  C   UNL     1      -9.738   9.967  64.960  1.00  0.00    -0.317 A  
HETATM   27  F   UNL     1      -9.338   9.702  63.714  1.00  0.00    -0.294 F  
HETATM   28  C   UNL     1     -10.758  11.471  66.542  1.00  0.00    -0.318 A  
HETATM   29  C   UNL     1     -10.345  11.187  65.239  1.00  0.00    -0.336 A  
ENDBRANCH  21  23
ENDBRANCH  20  21
ENDBRANCH  19  20
ENDBRANCH  18  19
ENDBRANCH   4  18
TORSDOF 5
ENDMDL
MODEL       34
REMARK 921   NORMALIZED FREE ENERGY PREDICTED BY IDOCK:   -6.63 KCAL/MOL
REMARK 922        TOTAL FREE ENERGY PREDICTED BY IDOCK:   -9.33 KCAL/MOL
REMARK 923 INTER-LIGAND FREE ENERGY PREDICTED BY IDOCK:   -7.90 KCAL/MOL
REMARK 924 INTRA-LIGAND FREE ENERGY PREDICTED BY IDOCK:   -1.43 KCAL/MOL
REMARK 927      BINDING AFFINITY PREDICTED BY RF-SCORE:    0.00 PKD
ROOT
HETATM    1  C   UNL     1      -9.199  13.987  66.118  1.00  0.00    -0.031 C  
HETATM    2  C   UNL     1      -9.992  15.139  65.551  1.00  0.00    -0.384 C  
HETATM    3  C   UNL     1     -10.685  15.895  66.661  1.00  0.00    -0.270 C  
HETATM    4  N   UNL     1      -9.726  16.417  67.648  1.00  0.00    -0.236 NA 
HETATM    5  C   UNL     1     -10.415   8.849  66.972  1.00  0.00    -0.256 C  
HETATM    6  C   UNL     1      -8.893  15.337  68.244  1.00  0.00    -0.171 C  
HETATM    7  C   UNL     1      -8.194  14.405  67.238  1.00  0.00    -0.223 C  
HETATM    8  N   UNL     1      -9.873  10.122  66.570  1.00  0.00    -0.202 NA 
HETATM    9  C   UNL     1     -10.644  10.967  65.622  1.00  0.00    -0.164 C  
HETATM   10  C   UNL     1      -7.933  13.016  67.802  1.00  0.00    -0.164 A  
HETATM   11  C   UNL     1      -6.896  12.456  68.505  1.00  0.00    -0.082 A  
HETATM   12  C   UNL     1     -11.144  12.236  66.303  1.00  0.00    -0.302 C  
HETATM   13  N   UNL     1     -10.035  13.012  66.814  1.00  0.00    -0.239 NA 
HETATM   14  C   UNL     1      -8.998  12.214  67.377  1.00  0.00    -0.180 A  
HETATM   15  C   UNL     1      -6.924  11.062  68.693  1.00  0.00    -0.075 A  
HETATM   16  C   UNL     1      -7.932  10.245  68.106  1.00  0.00    -0.109 A  
HETATM   17  C   UNL     1      -8.972  10.820  67.384  1.00  0.00    -0.139 A  
ENDROOT
BRANCH   4  18
HETATM   18  C   UNL     1     -10.521  17.093  68.696  1.00  0.00    -0.366 C  
BRANCH  18  19
HETATM   19  C   UNL     1     -11.782  16.336  69.092  1.00  0.00    -0.151 C  
BRANCH  19  20
HETATM   20  C   UNL     1     -11.699  15.838  70.527  1.00  0.00    -0.400 C  
BRANCH  20  21
HETATM   21  C   UNL     1     -12.887  14.973  70.882  1.00  0.00    -0.391 C  
HETATM   22  O   UNL     1     -13.981  15.446  71.183  1.00  0.00    -0.480 OA 
BRANCH  21  23
HETATM   23  C   UNL     1     -12.710  13.495  70.858  1.00  0.00    -0.366 A  
HETATM   24  C   UNL     1     -13.226  11.353  71.867  1.00  0.00    -0.485 A  
HETATM   25  C   UNL     1     -13.366  12.738  71.840  1.00  0.00    -0.510 A  
HETATM   26  C   UNL     1     -12.431  10.726  70.915  1.00  0.00    -0.402 A  
HETATM   27  F   UNL     1     -12.290   9.397  70.946  1.00  0.00    -0.317 F  
HETATM   28  C   UNL     1     -11.916  12.848  69.898  1.00  0.00    -0.377 A  
HETATM   29  C   UNL     1     -11.778  11.459  69.931  1.00  0.00    -0.424 A  
ENDBRANCH  21  23
ENDBRANCH  20  21
ENDBRANCH  19  20
ENDBRANCH  18  19
ENDBRANCH   4  18
TORSDOF 5
ENDMDL
MODEL       35
REMARK 921   NORMALIZED FREE ENERGY PREDICTED BY IDOCK:   -6.60 KCAL/MOL
REMARK 922        TOTAL FREE ENERGY PREDICTED BY IDOCK:   -9.29 KCAL/MOL
REMARK 923 INTER-LIGAND FREE ENERGY PREDICTED BY IDOCK:   -7.71 KCAL/MOL
REMARK 924 INTRA-LIGAND FREE ENERGY PREDICTED BY IDOCK:   -1.58 KCAL/MOL
REMARK 927      BINDING AFFINITY PREDICTED BY RF-SCORE:    0.00 PKD
ROOT
HETATM    1  C   UNL     1      -8.726   9.073  66.532  1.00  0.00    -0.129 C  
HETATM    2  C   UNL     1      -9.043   9.358  65.085  1.00  0.00    -0.280 C  
HETATM    3  C   UNL     1     -10.011  10.514  64.979  1.00  0.00    -0.322 C  
HETATM    4  N   UNL     1      -9.474  11.736  65.597  1.00  0.00    -0.221 NA 
HETATM    5  C   UNL     1     -10.912   5.760  70.116  1.00  0.00    -0.298 C  
HETATM    6  C   UNL     1      -9.122  11.530  67.029  1.00  0.00    -0.175 C  
HETATM    7  C   UNL     1      -8.216  10.320  67.323  1.00  0.00    -0.121 C  
HETATM    8  N   UNL     1     -10.076   6.498  69.205  1.00  0.00    -0.161 NA 
HETATM    9  C   UNL     1     -10.262   6.311  67.743  1.00  0.00    -0.170 C  
HETATM   10  C   UNL     1      -8.412   9.763  68.725  1.00  0.00    -0.122 A  
HETATM   11  C   UNL     1      -7.844  10.037  69.944  1.00  0.00    -0.185 A  
HETATM   12  C   UNL     1     -10.807   7.579  67.095  1.00  0.00    -0.228 C  
HETATM   13  N   UNL     1      -9.904   8.689  67.305  1.00  0.00    -0.180 NA 
HETATM   14  C   UNL     1      -9.313   8.700  68.602  1.00  0.00    -0.142 A  
HETATM   15  C   UNL     1      -8.146   9.167  71.006  1.00  0.00    -0.179 A  
HETATM   16  C   UNL     1      -8.934   7.995  70.816  1.00  0.00    -0.148 A  
HETATM   17  C   UNL     1      -9.495   7.718  69.574  1.00  0.00    -0.160 A  
ENDROOT
BRANCH   4  18
HETATM   18  C   UNL     1     -10.521  12.773  65.468  1.00  0.00    -0.287 C  
BRANCH  18  19
HETATM   19  C   UNL     1     -10.511  13.797  66.595  1.00  0.00    -0.272 C  
BRANCH  19  20
HETATM   20  C   UNL     1     -11.788  13.723  67.420  1.00  0.00    -0.431 C  
BRANCH  20  21
HETATM   21  C   UNL     1     -11.504  13.894  68.895  1.00  0.00    -0.301 C  
HETATM   22  O   UNL     1     -10.901  14.867  69.342  1.00  0.00    -0.249 OA 
BRANCH  21  23
HETATM   23  C   UNL     1     -11.985  12.838  69.829  1.00  0.00    -0.362 A  
HETATM   24  C   UNL     1     -12.152  10.474  70.337  1.00  0.00    -0.418 A  
HETATM   25  C   UNL     1     -11.717  11.501  69.502  1.00  0.00    -0.413 A  
HETATM   26  C   UNL     1     -12.856  10.785  71.495  1.00  0.00    -0.462 A  
HETATM   27  F   UNL     1     -13.281   9.800  72.291  1.00  0.00    -0.459 F  
HETATM   28  C   UNL     1     -12.690  13.138  71.004  1.00  0.00    -0.361 A  
HETATM   29  C   UNL     1     -13.126  12.106  71.837  1.00  0.00    -0.475 A  
ENDBRANCH  21  23
ENDBRANCH  20  21
ENDBRANCH  19  20
ENDBRANCH  18  19
ENDBRANCH   4  18
TORSDOF 5
ENDMDL
MODEL       36
REMARK 921   NORMALIZED FREE ENERGY PREDICTED BY IDOCK:   -6.56 KCAL/MOL
REMARK 922        TOTAL FREE ENERGY PREDICTED BY IDOCK:   -9.24 KCAL/MOL
REMARK 923 INTER-LIGAND FREE ENERGY PREDICTED BY IDOCK:   -8.06 KCAL/MOL
REMARK 924 INTRA-LIGAND FREE ENERGY PREDICTED BY IDOCK:   -1.18 KCAL/MOL
REMARK 927      BINDING AFFINITY PREDICTED BY RF-SCORE:    0.00 PKD
ROOT
HETATM    1  C   UNL     1     -10.851  10.081  67.210  1.00  0.00    -0.217 C  
HETATM    2  C   UNL     1     -10.196   8.774  66.835  1.00  0.00    -0.357 C  
HETATM    3  C   UNL     1      -8.837   8.663  67.486  1.00  0.00    -0.135 C  
HETATM    4  N   UNL     1      -8.925   8.747  68.953  1.00  0.00    -0.134 NA 
HETATM    5  C   UNL     1     -10.883  14.895  64.880  1.00  0.00    -0.413 C  
HETATM    6  C   UNL     1      -9.575  10.009  69.402  1.00  0.00    -0.222 C  
HETATM    7  C   UNL     1     -10.934  10.325  68.750  1.00  0.00    -0.285 C  
HETATM    8  N   UNL     1     -11.168  13.613  65.474  1.00  0.00    -0.292 NA 
HETATM    9  C   UNL     1     -10.823  12.378  64.725  1.00  0.00    -0.304 C  
HETATM   10  C   UNL     1     -11.233  11.816  68.702  1.00  0.00    -0.312 A  
HETATM   11  C   UNL     1     -11.842  12.690  69.567  1.00  0.00    -0.376 A  
HETATM   12  C   UNL     1      -9.701  11.614  65.420  1.00  0.00    -0.229 C  
HETATM   13  N   UNL     1     -10.090  11.244  66.763  1.00  0.00    -0.213 NA 
HETATM   14  C   UNL     1     -10.841  12.253  67.432  1.00  0.00    -0.239 A  
HETATM   15  C   UNL     1     -12.115  13.984  69.087  1.00  0.00    -0.375 A  
HETATM   16  C   UNL     1     -11.858  14.355  67.737  1.00  0.00    -0.402 A  
HETATM   17  C   UNL     1     -11.253  13.457  66.863  1.00  0.00    -0.308 A  
ENDROOT
BRANCH   4  18
HETATM   18  C   UNL     1      -7.540   8.671  69.466  1.00  0.00    -0.088 C  
BRANCH  18  19
HETATM   19  C   UNL     1      -7.418   8.981  70.952  1.00  0.00    -0.128 C  
BRANCH  19  20
HETATM   20  C   UNL     1      -7.791   7.775  71.801  1.00  0.00    -0.098 C  
BRANCH  20  21
HETATM   21  C   UNL     1      -8.865   8.118  72.808  1.00  0.00    -0.231 C  
HETATM   22  O   UNL     1      -8.607   8.601  73.908  1.00  0.00    -0.261 OA 
BRANCH  21  23
HETATM   23  C   UNL     1     -10.283   7.857  72.437  1.00  0.00    -0.327 A  
HETATM   24  C   UNL     1     -12.456   8.773  71.876  1.00  0.00    -0.434 A  
HETATM   25  C   UNL     1     -11.119   8.962  72.216  1.00  0.00    -0.256 A  
HETATM   26  C   UNL     1     -12.957   7.482  71.760  1.00  0.00    -0.328 A  
HETATM   27  F   UNL     1     -14.242   7.301  71.442  1.00  0.00    -0.482 F  
HETATM   28  C   UNL     1     -10.800   6.559  72.309  1.00  0.00    -0.262 A  
HETATM   29  C   UNL     1     -12.143   6.375  71.970  1.00  0.00    -0.353 A  
ENDBRANCH  21  23
ENDBRANCH  20  21
ENDBRANCH  19  20
ENDBRANCH  18  19
ENDBRANCH   4  18
TORSDOF 5
ENDMDL
MODEL       37
REMARK 921   NORMALIZED FREE ENERGY PREDICTED BY IDOCK:   -6.54 KCAL/MOL
REMARK 922        TOTAL FREE ENERGY PREDICTED BY IDOCK:   -9.22 KCAL/MOL
REMARK 923 INTER-LIGAND FREE ENERGY PREDICTED BY IDOCK:   -8.17 KCAL/MOL
REMARK 924 INTRA-LIGAND FREE ENERGY PREDICTED BY IDOCK:   -1.05 KCAL/MOL
REMARK 927      BINDING AFFINITY PREDICTED BY RF-SCORE:    0.00 PKD
ROOT
HETATM    1  C   UNL     1     -12.021  13.265  68.029  1.00  0.00    -0.313 C  
HETATM    2  C   UNL     1     -11.364  13.890  66.823  1.00  0.00    -0.347 C  
HETATM    3  C   UNL     1      -9.883  13.591  66.819  1.00  0.00    -0.267 C  
HETATM    4  N   UNL     1      -9.618  12.143  66.808  1.00  0.00    -0.206 NA 
HETATM    5  C   UNL     1     -13.048  15.116  72.941  1.00  0.00    -0.479 C  
HETATM    6  C   UNL     1     -10.248  11.450  67.965  1.00  0.00    -0.185 C  
HETATM    7  C   UNL     1     -11.747  11.734  68.172  1.00  0.00    -0.377 C  
HETATM    8  N   UNL     1     -13.065  14.578  71.604  1.00  0.00    -0.324 NA 
HETATM    9  C   UNL     1     -12.803  15.487  70.459  1.00  0.00    -0.353 C  
HETATM   10  C   UNL     1     -12.181  11.587  69.623  1.00  0.00    -0.296 A  
HETATM   11  C   UNL     1     -12.637  10.533  70.376  1.00  0.00    -0.364 A  
HETATM   12  C   UNL     1     -11.483  15.143  69.778  1.00  0.00    -0.297 C  
HETATM   13  N   UNL     1     -11.499  13.782  69.291  1.00  0.00    -0.277 NA 
HETATM   14  C   UNL     1     -12.151  12.873  70.173  1.00  0.00    -0.302 A  
HETATM   15  C   UNL     1     -13.132  10.826  71.659  1.00  0.00    -0.551 A  
HETATM   16  C   UNL     1     -13.246  12.164  72.134  1.00  0.00    -0.438 A  
HETATM   17  C   UNL     1     -12.794  13.226  71.358  1.00  0.00    -0.322 A  
ENDROOT
BRANCH   4  18
HETATM   18  C   UNL     1      -8.148  11.981  66.849  1.00  0.00    -0.127 C  
BRANCH  18  19
HETATM   19  C   UNL     1      -7.673  10.956  67.871  1.00  0.00    -0.104 C  
BRANCH  19  20
HETATM   20  C   UNL     1      -7.105   9.719  67.191  1.00  0.00    -0.086 C  
BRANCH  20  21
HETATM   21  C   UNL     1      -8.194   8.890  66.552  1.00  0.00    -0.114 C  
HETATM   22  O   UNL     1      -8.369   8.855  65.336  1.00  0.00    -0.130 OA 
BRANCH  21  23
HETATM   23  C   UNL     1      -9.078   8.087  67.441  1.00  0.00    -0.147 A  
HETATM   24  C   UNL     1     -11.045   6.687  67.653  1.00  0.00    -0.357 A  
HETATM   25  C   UNL     1     -10.182   7.443  66.863  1.00  0.00    -0.346 A  
HETATM   26  C   UNL     1     -10.806   6.578  69.018  1.00  0.00    -0.306 A  
HETATM   27  F   UNL     1     -11.640   5.861  69.777  1.00  0.00    -0.459 F  
HETATM   28  C   UNL     1      -8.845   7.963  68.819  1.00  0.00    -0.138 A  
HETATM   29  C   UNL     1      -9.715   7.206  69.607  1.00  0.00    -0.158 A  
ENDBRANCH  21  23
ENDBRANCH  20  21
ENDBRANCH  19  20
ENDBRANCH  18  19
ENDBRANCH   4  18
TORSDOF 5
ENDMDL
MODEL       38
REMARK 921   NORMALIZED FREE ENERGY PREDICTED BY IDOCK:   -6.51 KCAL/MOL
REMARK 922        TOTAL FREE ENERGY PREDICTED BY IDOCK:   -9.18 KCAL/MOL
REMARK 923 INTER-LIGAND FREE ENERGY PREDICTED BY IDOCK:   -8.68 KCAL/MOL
REMARK 924 INTRA-LIGAND FREE ENERGY PREDICTED BY IDOCK:   -0.50 KCAL/MOL
REMARK 927      BINDING AFFINITY PREDICTED BY RF-SCORE:    0.00 PKD
ROOT
HETATM    1  C   UNL     1     -11.772  14.522  65.820  1.00  0.00    -0.344 C  
HETATM    2  C   UNL     1     -11.686  13.935  64.433  1.00  0.00    -0.427 C  
HETATM    3  C   UNL     1     -10.771  12.732  64.429  1.00  0.00    -0.376 C  
HETATM    4  N   UNL     1     -11.234  11.690  65.359  1.00  0.00    -0.246 NA 
HETATM    5  C   UNL     1      -8.992  18.370  68.284  1.00  0.00    -0.312 C  
HETATM    6  C   UNL     1     -11.358  12.199  66.753  1.00  0.00    -0.342 C  
HETATM    7  C   UNL     1     -12.182  13.489  66.918  1.00  0.00    -0.377 C  
HETATM    8  N   UNL     1      -9.974  17.508  67.676  1.00  0.00    -0.297 NA 
HETATM    9  C   UNL     1     -10.009  17.387  66.197  1.00  0.00    -0.270 C  
HETATM   10  C   UNL     1     -11.762  14.307  68.130  1.00  0.00    -0.385 A  
HETATM   11  C   UNL     1     -12.143  14.314  69.449  1.00  0.00    -0.361 A  
HETATM   12  C   UNL     1      -9.597  15.987  65.753  1.00  0.00    -0.276 C  
HETATM   13  N   UNL     1     -10.482  14.992  66.318  1.00  0.00    -0.294 NA 
HETATM   14  C   UNL     1     -10.867  15.274  67.660  1.00  0.00    -0.295 A  
HETATM   15  C   UNL     1     -11.663  15.364  70.252  1.00  0.00    -0.355 A  
HETATM   16  C   UNL     1     -10.888  16.429  69.712  1.00  0.00    -0.343 A  
HETATM   17  C   UNL     1     -10.518  16.421  68.371  1.00  0.00    -0.298 A  
ENDROOT
BRANCH   4  18
HETATM   18  C   UNL     1     -10.242  10.595  65.297  1.00  0.00    -0.282 C  
BRANCH  18  19
HETATM   19  C   UNL     1      -9.649  10.228  66.651  1.00  0.00    -0.220 C  
BRANCH  19  20
HETATM   20  C   UNL     1     -10.262   8.945  67.194  1.00  0.00    -0.339 C  
BRANCH  20  21
HETATM   21  C   UNL     1     -10.650   9.089  68.648  1.00  0.00    -0.160 C  
HETATM   22  O   UNL     1     -10.970  10.168  69.141  1.00  0.00    -0.218 OA 
BRANCH  21  23
HETATM   23  C   UNL     1     -10.642   7.868  69.500  1.00  0.00    -0.220 A  
HETATM   24  C   UNL     1     -10.838   6.918  71.721  1.00  0.00    -0.253 A  
HETATM   25  C   UNL     1     -10.845   8.028  70.879  1.00  0.00    -0.248 A  
HETATM   26  C   UNL     1     -10.625   5.653  71.186  1.00  0.00    -0.245 A  
HETATM   27  F   UNL     1     -10.609   4.590  71.996  1.00  0.00    -0.258 F  
HETATM   28  C   UNL     1     -10.435   6.585  68.972  1.00  0.00    -0.252 A  
HETATM   29  C   UNL     1     -10.426   5.476  69.821  1.00  0.00    -0.389 A  
ENDBRANCH  21  23
ENDBRANCH  20  21
ENDBRANCH  19  20
ENDBRANCH  18  19
ENDBRANCH   4  18
TORSDOF 5
ENDMDL
MODEL       39
REMARK 921   NORMALIZED FREE ENERGY PREDICTED BY IDOCK:   -6.50 KCAL/MOL
REMARK 922        TOTAL FREE ENERGY PREDICTED BY IDOCK:   -9.16 KCAL/MOL
REMARK 923 INTER-LIGAND FREE ENERGY PREDICTED BY IDOCK:   -7.25 KCAL/MOL
REMARK 924 INTRA-LIGAND FREE ENERGY PREDICTED BY IDOCK:   -1.91 KCAL/MOL
REMARK 927      BINDING AFFINITY PREDICTED BY RF-SCORE:    0.00 PKD
ROOT
HETATM    1  C   UNL     1     -10.723  17.140  67.379  1.00  0.00    -0.242 C  
HETATM    2  C   UNL     1     -10.051  18.466  67.637  1.00  0.00    -0.378 C  
HETATM    3  C   UNL     1      -8.552  18.328  67.504  1.00  0.00    -0.250 C  
HETATM    4  N   UNL     1      -8.164  17.850  66.168  1.00  0.00    -0.484 NA 
HETATM    5  C   UNL     1     -12.199  13.155  70.626  1.00  0.00    -0.321 C  
HETATM    6  C   UNL     1      -8.801  16.547  65.833  1.00  0.00    -0.113 C  
HETATM    7  C   UNL     1     -10.328  16.489  66.016  1.00  0.00    -0.358 C  
HETATM    8  N   UNL     1     -12.089  14.237  69.681  1.00  0.00    -0.335 NA 
HETATM    9  C   UNL     1     -11.838  15.611  70.185  1.00  0.00    -0.364 C  
HETATM   10  C   UNL     1     -10.835  15.084  66.310  1.00  0.00    -0.333 A  
HETATM   11  C   UNL     1     -11.242  14.037  65.522  1.00  0.00    -0.311 A  
HETATM   12  C   UNL     1     -10.455  16.101  69.772  1.00  0.00    -0.286 C  
HETATM   13  N   UNL     1     -10.324  16.108  68.332  1.00  0.00    -0.248 NA 
HETATM   14  C   UNL     1     -10.948  14.993  67.702  1.00  0.00    -0.305 A  
HETATM   15  C   UNL     1     -11.838  12.939  66.168  1.00  0.00    -0.487 A  
HETATM   16  C   UNL     1     -12.094  12.940  67.569  1.00  0.00    -0.251 A  
HETATM   17  C   UNL     1     -11.689  14.011  68.358  1.00  0.00    -0.354 A  
ENDROOT
BRANCH   4  18
HETATM   18  C   UNL     1      -6.691  17.716  66.177  1.00  0.00    -0.285 C  
BRANCH  18  19
HETATM   19  C   UNL     1      -6.096  17.586  67.573  1.00  0.00    -0.159 C  
BRANCH  19  20
HETATM   20  C   UNL     1      -5.462  16.217  67.778  1.00  0.00    -0.149 C  
BRANCH  20  21
HETATM   21  C   UNL     1      -6.423  15.256  68.438  1.00  0.00    -0.105 C  
HETATM   22  O   UNL     1      -7.098  15.565  69.417  1.00  0.00    -0.166 OA 
BRANCH  21  23
HETATM   23  C   UNL     1      -6.548  13.886  67.866  1.00  0.00    -0.167 A  
HETATM   24  C   UNL     1      -8.009  12.118  67.084  1.00  0.00    -0.170 A  
HETATM   25  C   UNL     1      -7.837  13.396  67.610  1.00  0.00    -0.174 A  
HETATM   26  C   UNL     1      -6.894  11.331  66.817  1.00  0.00    -0.140 A  
HETATM   27  F   UNL     1      -7.060  10.101  66.321  1.00  0.00    -0.091 F  
HETATM   28  C   UNL     1      -5.431  13.084  67.586  1.00  0.00    -0.093 A  
HETATM   29  C   UNL     1      -5.609  11.802  67.061  1.00  0.00    -0.131 A  
ENDBRANCH  21  23
ENDBRANCH  20  21
ENDBRANCH  19  20
ENDBRANCH  18  19
ENDBRANCH   4  18
TORSDOF 5
ENDMDL
MODEL       40
REMARK 921   NORMALIZED FREE ENERGY PREDICTED BY IDOCK:   -6.49 KCAL/MOL
REMARK 922        TOTAL FREE ENERGY PREDICTED BY IDOCK:   -9.14 KCAL/MOL
REMARK 923 INTER-LIGAND FREE ENERGY PREDICTED BY IDOCK:   -8.11 KCAL/MOL
REMARK 924 INTRA-LIGAND FREE ENERGY PREDICTED BY IDOCK:   -1.03 KCAL/MOL
REMARK 927      BINDING AFFINITY PREDICTED BY RF-SCORE:    0.00 PKD
ROOT
HETATM    1  C   UNL     1      -9.620   8.361  68.466  1.00  0.00    -0.149 C  
HETATM    2  C   UNL     1     -10.495   8.584  67.257  1.00  0.00    -0.366 C  
HETATM    3  C   UNL     1     -10.845  10.048  67.125  1.00  0.00    -0.170 C  
HETATM    4  N   UNL     1      -9.643  10.888  67.003  1.00  0.00    -0.172 NA 
HETATM    5  C   UNL     1     -10.741   7.120  73.546  1.00  0.00    -0.333 C  
HETATM    6  C   UNL     1      -8.719  10.713  68.158  1.00  0.00    -0.130 C  
HETATM    7  C   UNL     1      -8.342   9.258  68.492  1.00  0.00    -0.119 C  
HETATM    8  N   UNL     1     -10.282   7.203  72.183  1.00  0.00    -0.185 NA 
HETATM    9  C   UNL     1     -11.246   6.956  71.080  1.00  0.00    -0.274 C  
HETATM   10  C   UNL     1      -7.989   9.062  69.959  1.00  0.00    -0.113 A  
HETATM   11  C   UNL     1      -6.823   9.158  70.676  1.00  0.00    -0.084 A  
HETATM   12  C   UNL     1     -11.505   8.230  70.285  1.00  0.00    -0.065 C  
HETATM   13  N   UNL     1     -10.276   8.736  69.716  1.00  0.00    -0.196 NA 
HETATM   14  C   UNL     1      -9.155   8.606  70.585  1.00  0.00    -0.171 A  
HETATM   15  C   UNL     1      -6.847   8.707  72.008  1.00  0.00    -0.082 A  
HETATM   16  C   UNL     1      -8.001   8.092  72.572  1.00  0.00    -0.195 A  
HETATM   17  C   UNL     1      -9.175   7.987  71.834  1.00  0.00    -0.167 A  
ENDROOT
BRANCH   4  18
HETATM   18  C   UNL     1     -10.110  12.289  66.926  1.00  0.00    -0.211 C  
BRANCH  18  19
HETATM   19  C   UNL     1     -11.569  12.471  67.323  1.00  0.00    -0.434 C  
BRANCH  19  20
HETATM   20  C   UNL     1     -11.725  13.565  68.369  1.00  0.00    -0.393 C  
BRANCH  20  21
HETATM   21  C   UNL     1     -11.907  12.986  69.753  1.00  0.00    -0.311 C  
HETATM   22  O   UNL     1     -11.746  11.791  69.995  1.00  0.00    -0.320 OA 
BRANCH  21  23
HETATM   23  C   UNL     1     -12.292  13.910  70.856  1.00  0.00    -0.451 A  
HETATM   24  C   UNL     1     -11.879  15.996  72.019  1.00  0.00    -0.623 A  
HETATM   25  C   UNL     1     -11.565  15.101  70.998  1.00  0.00    -0.390 A  
HETATM   26  C   UNL     1     -12.915  15.698  72.896  1.00  0.00    -0.497 A  
HETATM   27  F   UNL     1     -13.210  16.552  73.881  1.00  0.00    -0.507 F  
HETATM   28  C   UNL     1     -13.340  13.625  71.744  1.00  0.00    -0.469 A  
HETATM   29  C   UNL     1     -13.649  14.524  72.767  1.00  0.00    -0.533 A  
ENDBRANCH  21  23
ENDBRANCH  20  21
ENDBRANCH  19  20
ENDBRANCH  18  19
ENDBRANCH   4  18
TORSDOF 5
ENDMDL
MODEL       41
REMARK 921   NORMALIZED FREE ENERGY PREDICTED BY IDOCK:   -6.46 KCAL/MOL
REMARK 922        TOTAL FREE ENERGY PREDICTED BY IDOCK:   -9.10 KCAL/MOL
REMARK 923 INTER-LIGAND FREE ENERGY PREDICTED BY IDOCK:   -8.66 KCAL/MOL
REMARK 924 INTRA-LIGAND FREE ENERGY PREDICTED BY IDOCK:   -0.44 KCAL/MOL
REMARK 927      BINDING AFFINITY PREDICTED BY RF-SCORE:    0.00 PKD
ROOT
HETATM    1  C   UNL     1     -11.714  12.474  67.814  1.00  0.00    -0.359 C  
HETATM    2  C   UNL     1     -11.868  13.104  69.176  1.00  0.00    -0.364 C  
HETATM    3  C   UNL     1     -11.140  14.427  69.227  1.00  0.00    -0.271 C  
HETATM    4  N   UNL     1     -11.641  15.366  68.211  1.00  0.00    -0.361 NA 
HETATM    5  C   UNL     1      -8.157   9.013  65.822  1.00  0.00    -0.109 C  
HETATM    6  C   UNL     1     -11.535  14.809  66.834  1.00  0.00    -0.347 C  
HETATM    7  C   UNL     1     -12.143  13.408  66.637  1.00  0.00    -0.429 C  
HETATM    8  N   UNL     1      -9.313   9.737  66.285  1.00  0.00    -0.169 NA 
HETATM    9  C   UNL     1      -9.530   9.890  67.746  1.00  0.00    -0.140 C  
HETATM   10  C   UNL     1     -11.479  12.630  65.511  1.00  0.00    -0.375 A  
HETATM   11  C   UNL     1     -11.706  12.533  64.161  1.00  0.00    -0.471 A  
HETATM   12  C   UNL     1      -9.374  11.346  68.172  1.00  0.00    -0.181 C  
HETATM   13  N   UNL     1     -10.323  12.187  67.476  1.00  0.00    -0.204 NA 
HETATM   14  C   UNL     1     -10.513  11.817  66.113  1.00  0.00    -0.245 A  
HETATM   15  C   UNL     1     -10.994  11.544  63.457  1.00  0.00    -0.453 A  
HETATM   16  C   UNL     1     -10.140  10.618  64.121  1.00  0.00    -0.402 A  
HETATM   17  C   UNL     1      -9.927  10.715  65.492  1.00  0.00    -0.272 A  
ENDROOT
BRANCH   4  18
HETATM   18  C   UNL     1     -10.829  16.596  68.332  1.00  0.00    -0.361 C  
BRANCH  18  19
HETATM   19  C   UNL     1      -9.591  16.429  69.204  1.00  0.00    -0.249 C  
BRANCH  19  20
HETATM   20  C   UNL     1      -8.353  16.993  68.521  1.00  0.00    -0.260 C  
BRANCH  20  21
HETATM   21  C   UNL     1      -8.482  18.480  68.283  1.00  0.00    -0.318 C  
HETATM   22  O   UNL     1      -9.261  19.185  68.921  1.00  0.00    -0.361 OA 
BRANCH  21  23
HETATM   23  C   UNL     1      -7.624  19.099  67.235  1.00  0.00    -0.252 A  
HETATM   24  C   UNL     1      -6.505  21.086  66.414  1.00  0.00    -0.303 A  
HETATM   25  C   UNL     1      -7.297  20.457  67.371  1.00  0.00    -0.359 A  
HETATM   26  C   UNL     1      -6.043  20.360  65.322  1.00  0.00    -0.230 A  
HETATM   27  F   UNL     1      -5.290  20.967  64.400  1.00  0.00    -0.210 F  
HETATM   28  C   UNL     1      -7.145  18.377  66.132  1.00  0.00    -0.300 A  
HETATM   29  C   UNL     1      -6.353  19.013  65.174  1.00  0.00    -0.309 A  
ENDBRANCH  21  23
ENDBRANCH  20  21
ENDBRANCH  19  20
ENDBRANCH  18  19
ENDBRANCH   4  18
TORSDOF 5
ENDMDL
MODEL       42
REMARK 921   NORMALIZED FREE ENERGY PREDICTED BY IDOCK:   -6.42 KCAL/MOL
REMARK 922        TOTAL FREE ENERGY PREDICTED BY IDOCK:   -9.06 KCAL/MOL
REMARK 923 INTER-LIGAND FREE ENERGY PREDICTED BY IDOCK:   -8.40 KCAL/MOL
REMARK 924 INTRA-LIGAND FREE ENERGY PREDICTED BY IDOCK:   -0.65 KCAL/MOL
REMARK 927      BINDING AFFINITY PREDICTED BY RF-SCORE:    0.00 PKD
ROOT
HETATM    1  C   UNL     1     -11.928   6.511  71.262  1.00  0.00    -0.306 C  
HETATM    2  C   UNL     1     -12.625   7.782  71.678  1.00  0.00    -0.357 C  
HETATM    3  C   UNL     1     -11.712   8.970  71.480  1.00  0.00    -0.345 C  
HETATM    4  N   UNL     1     -11.282   9.100  70.079  1.00  0.00    -0.199 NA 
HETATM    5  C   UNL     1      -9.002   2.950  73.975  1.00  0.00    -0.075 C  
HETATM    6  C   UNL     1     -10.594   7.874  69.588  1.00  0.00    -0.234 C  
HETATM    7  C   UNL     1     -11.354   6.554  69.810  1.00  0.00    -0.456 C  
HETATM    8  N   UNL     1      -9.963   3.676  73.184  1.00  0.00    -0.127 NA 
HETATM    9  C   UNL     1     -10.898   4.609  73.864  1.00  0.00    -0.291 C  
HETATM   10  C   UNL     1     -10.428   5.352  69.924  1.00  0.00    -0.378 A  
HETATM   11  C   UNL     1      -9.888   4.479  69.013  1.00  0.00    -0.202 A  
HETATM   12  C   UNL     1     -10.604   6.054  73.479  1.00  0.00    -0.268 C  
HETATM   13  N   UNL     1     -10.730   6.238  72.050  1.00  0.00    -0.220 NA 
HETATM   14  C   UNL     1     -10.229   5.140  71.293  1.00  0.00    -0.222 A  
HETATM   15  C   UNL     1      -9.217   3.352  69.520  1.00  0.00    -0.225 A  
HETATM   16  C   UNL     1      -9.172   3.070  70.915  1.00  0.00    -0.203 A  
HETATM   17  C   UNL     1      -9.734   3.953  71.831  1.00  0.00    -0.169 A  
ENDROOT
BRANCH   4  18
HETATM   18  C   UNL     1     -10.367  10.261  70.023  1.00  0.00    -0.202 C  
BRANCH  18  19
HETATM   19  C   UNL     1     -10.975  11.489  69.357  1.00  0.00    -0.233 C  
BRANCH  19  20
HETATM   20  C   UNL     1     -11.703  11.119  68.073  1.00  0.00    -0.288 C  
BRANCH  20  21
HETATM   21  C   UNL     1     -10.849  11.390  66.856  1.00  0.00    -0.285 C  
HETATM   22  O   UNL     1     -10.033  10.577  66.428  1.00  0.00    -0.202 OA 
BRANCH  21  23
HETATM   23  C   UNL     1     -11.018  12.694  66.157  1.00  0.00    -0.313 A  
HETATM   24  C   UNL     1     -12.391  14.092  64.730  1.00  0.00    -0.437 A  
HETATM   25  C   UNL     1     -12.188  12.893  65.410  1.00  0.00    -0.528 A  
HETATM   26  C   UNL     1     -11.423  15.088  64.796  1.00  0.00    -0.403 A  
HETATM   27  F   UNL     1     -11.614  16.234  64.136  1.00  0.00    -0.534 F  
HETATM   28  C   UNL     1     -10.053  13.711  66.220  1.00  0.00    -0.301 A  
HETATM   29  C   UNL     1     -10.259  14.910  65.535  1.00  0.00    -0.401 A  
ENDBRANCH  21  23
ENDBRANCH  20  21
ENDBRANCH  19  20
ENDBRANCH  18  19
ENDBRANCH   4  18
TORSDOF 5
ENDMDL
MODEL       43
REMARK 921   NORMALIZED FREE ENERGY PREDICTED BY IDOCK:   -6.39 KCAL/MOL
REMARK 922        TOTAL FREE ENERGY PREDICTED BY IDOCK:   -9.01 KCAL/MOL
REMARK 923 INTER-LIGAND FREE ENERGY PREDICTED BY IDOCK:   -8.30 KCAL/MOL
REMARK 924 INTRA-LIGAND FREE ENERGY PREDICTED BY IDOCK:   -0.72 KCAL/MOL
REMARK 927      BINDING AFFINITY PREDICTED BY RF-SCORE:    0.00 PKD
ROOT
HETATM    1  C   UNL     1     -12.059  10.002  70.051  1.00  0.00    -0.021 C  
HETATM    2  C   UNL     1     -13.050  10.460  71.091  1.00  0.00    -0.474 C  
HETATM    3  C   UNL     1     -12.682  11.835  71.598  1.00  0.00    -0.251 C  
HETATM    4  N   UNL     1     -12.643  12.826  70.510  1.00  0.00    -0.177 NA 
HETATM    5  C   UNL     1      -7.547   7.149  70.380  1.00  0.00    -0.089 C  
HETATM    6  C   UNL     1     -11.692  12.436  69.433  1.00  0.00    -0.322 C  
HETATM    7  C   UNL     1     -11.869  11.012  68.874  1.00  0.00    -0.378 C  
HETATM    8  N   UNL     1      -8.851   7.700  70.111  1.00  0.00    -0.145 NA 
HETATM    9  C   UNL     1      -9.881   7.670  71.179  1.00  0.00    -0.173 C  
HETATM   10  C   UNL     1     -10.577  10.431  68.318  1.00  0.00    -0.245 A  
HETATM   11  C   UNL     1      -9.977  10.461  67.084  1.00  0.00    -0.239 A  
HETATM   12  C   UNL     1     -10.208   9.078  71.664  1.00  0.00    -0.348 C  
HETATM   13  N   UNL     1     -10.699   9.892  70.573  1.00  0.00    -0.306 NA 
HETATM   14  C   UNL     1     -10.022   9.657  69.342  1.00  0.00    -0.197 A  
HETATM   15  C   UNL     1      -8.858   9.631  66.892  1.00  0.00    -0.143 A  
HETATM   16  C   UNL     1      -8.412   8.726  67.897  1.00  0.00    -0.126 A  
HETATM   17  C   UNL     1      -9.035   8.693  69.141  1.00  0.00    -0.142 A  
ENDROOT
BRANCH   4  18
HETATM   18  C   UNL     1     -12.232  14.109  71.119  1.00  0.00    -0.358 C  
BRANCH  18  19
HETATM   19  C   UNL     1     -12.254  15.283  70.149  1.00  0.00    -0.402 C  
BRANCH  19  20
HETATM   20  C   UNL     1     -11.188  16.311  70.501  1.00  0.00    -0.327 C  
BRANCH  20  21
HETATM   21  C   UNL     1     -10.110  16.373  69.444  1.00  0.00    -0.243 C  
HETATM   22  O   UNL     1      -9.153  15.603  69.431  1.00  0.00    -0.260 OA 
BRANCH  21  23
HETATM   23  C   UNL     1     -10.229  17.411  68.381  1.00  0.00    -0.362 A  
HETATM   24  C   UNL     1     -10.536  17.909  66.030  1.00  0.00    -0.293 A  
HETATM   25  C   UNL     1     -10.427  16.980  67.061  1.00  0.00    -0.279 A  
HETATM   26  C   UNL     1     -10.443  19.266  66.317  1.00  0.00    -0.478 A  
HETATM   27  F   UNL     1     -10.538  20.157  65.326  1.00  0.00    -0.520 F  
HETATM   28  C   UNL     1     -10.145  18.783  68.659  1.00  0.00    -0.432 A  
HETATM   29  C   UNL     1     -10.251  19.711  67.621  1.00  0.00    -0.567 A  
ENDBRANCH  21  23
ENDBRANCH  20  21
ENDBRANCH  19  20
ENDBRANCH  18  19
ENDBRANCH   4  18
TORSDOF 5
ENDMDL
MODEL       44
REMARK 921   NORMALIZED FREE ENERGY PREDICTED BY IDOCK:   -6.34 KCAL/MOL
REMARK 922        TOTAL FREE ENERGY PREDICTED BY IDOCK:   -8.95 KCAL/MOL
REMARK 923 INTER-LIGAND FREE ENERGY PREDICTED BY IDOCK:   -8.61 KCAL/MOL
REMARK 924 INTRA-LIGAND FREE ENERGY PREDICTED BY IDOCK:   -0.34 KCAL/MOL
REMARK 927      BINDING AFFINITY PREDICTED BY RF-SCORE:    0.00 PKD
ROOT
HETATM    1  C   UNL     1     -11.164  11.722  66.062  1.00  0.00    -0.296 C  
HETATM    2  C   UNL     1     -11.936  12.756  66.844  1.00  0.00    -0.380 C  
HETATM    3  C   UNL     1     -11.452  14.145  66.496  1.00  0.00    -0.358 C  
HETATM    4  N   UNL     1     -11.595  14.430  65.060  1.00  0.00    -0.357 NA 
HETATM    5  C   UNL     1      -6.728   8.943  67.161  1.00  0.00    -0.066 C  
HETATM    6  C   UNL     1     -10.869  13.440  64.218  1.00  0.00    -0.363 C  
HETATM    7  C   UNL     1     -11.175  11.961  64.519  1.00  0.00    -0.380 C  
HETATM    8  N   UNL     1      -8.048   9.424  66.840  1.00  0.00    -0.108 NA 
HETATM    9  C   UNL     1      -8.863  10.061  67.906  1.00  0.00    -0.125 C  
HETATM   10  C   UNL     1     -10.022  11.035  64.163  1.00  0.00    -0.385 A  
HETATM   11  C   UNL     1      -9.661  10.363  63.023  1.00  0.00    -0.341 A  
HETATM   12  C   UNL     1      -9.065  11.546  67.625  1.00  0.00    -0.168 C  
HETATM   13  N   UNL     1      -9.734  11.740  66.358  1.00  0.00    -0.209 NA 
HETATM   14  C   UNL     1      -9.302  10.834  65.346  1.00  0.00    -0.207 A  
HETATM   15  C   UNL     1      -8.614   9.430  63.130  1.00  0.00    -0.222 A  
HETATM   16  C   UNL     1      -8.007   9.120  64.380  1.00  0.00    -0.137 A  
HETATM   17  C   UNL     1      -8.389   9.797  65.534  1.00  0.00    -0.136 A  
ENDROOT
BRANCH   4  18
HETATM   18  C   UNL     1     -11.053  15.788  64.841  1.00  0.00    -0.399 C  
BRANCH  18  19
HETATM   19  C   UNL     1      -9.895  16.142  65.765  1.00  0.00    -0.354 C  
BRANCH  19  20
HETATM   20  C   UNL     1     -10.322  17.144  66.828  1.00  0.00    -0.302 C  
BRANCH  20  21
HETATM   21  C   UNL     1      -9.957  18.557  66.434  1.00  0.00    -0.379 C  
HETATM   22  O   UNL     1     -10.578  19.185  65.579  1.00  0.00    -0.536 OA 
BRANCH  21  23
HETATM   23  C   UNL     1      -8.802  19.200  67.120  1.00  0.00    -0.314 A  
HETATM   24  C   UNL     1      -6.941  20.746  66.985  1.00  0.00    -0.386 A  
HETATM   25  C   UNL     1      -8.037  20.124  66.393  1.00  0.00    -0.298 A  
HETATM   26  C   UNL     1      -6.610  20.444  68.301  1.00  0.00    -0.292 A  
HETATM   27  F   UNL     1      -5.553  21.035  68.866  1.00  0.00    -0.331 F  
HETATM   28  C   UNL     1      -8.461  18.910  68.450  1.00  0.00    -0.385 A  
HETATM   29  C   UNL     1      -7.360  19.535  69.039  1.00  0.00    -0.392 A  
ENDBRANCH  21  23
ENDBRANCH  20  21
ENDBRANCH  19  20
ENDBRANCH  18  19
ENDBRANCH   4  18
TORSDOF 5
ENDMDL
MODEL       45
REMARK 921   NORMALIZED FREE ENERGY PREDICTED BY IDOCK:   -6.34 KCAL/MOL
REMARK 922        TOTAL FREE ENERGY PREDICTED BY IDOCK:   -8.95 KCAL/MOL
REMARK 923 INTER-LIGAND FREE ENERGY PREDICTED BY IDOCK:   -8.45 KCAL/MOL
REMARK 924 INTRA-LIGAND FREE ENERGY PREDICTED BY IDOCK:   -0.50 KCAL/MOL
REMARK 927      BINDING AFFINITY PREDICTED BY RF-SCORE:    0.00 PKD
ROOT
HETATM    1  C   UNL     1     -11.164   6.021  69.536  1.00  0.00    -0.346 C  
HETATM    2  C   UNL     1     -11.525   6.988  70.637  1.00  0.00    -0.367 C  
HETATM    3  C   UNL     1     -10.631   8.205  70.579  1.00  0.00    -0.220 C  
HETATM    4  N   UNL     1     -10.734   8.898  69.285  1.00  0.00    -0.202 NA 
HETATM    5  C   UNL     1      -7.830   1.843  69.356  1.00  0.00    -0.042 C  
HETATM    6  C   UNL     1     -10.405   8.002  68.143  1.00  0.00    -0.200 C  
HETATM    7  C   UNL     1     -11.162   6.662  68.111  1.00  0.00    -0.207 C  
HETATM    8  N   UNL     1      -8.934   2.769  69.330  1.00  0.00    -0.097 NA 
HETATM    9  C   UNL     1      -9.452   3.308  70.613  1.00  0.00    -0.170 C  
HETATM   10  C   UNL     1     -10.388   5.563  67.398  1.00  0.00    -0.279 A  
HETATM   11  C   UNL     1     -10.313   5.149  66.092  1.00  0.00    -0.280 A  
HETATM   12  C   UNL     1      -9.173   4.803  70.731  1.00  0.00    -0.139 C  
HETATM   13  N   UNL     1      -9.795   5.525  69.643  1.00  0.00    -0.176 NA 
HETATM   14  C   UNL     1      -9.724   4.841  68.396  1.00  0.00    -0.146 A  
HETATM   15  C   UNL     1      -9.622   3.951  65.835  1.00  0.00    -0.185 A  
HETATM   16  C   UNL     1      -9.098   3.146  66.886  1.00  0.00    -0.191 A  
HETATM   17  C   UNL     1      -9.190   3.567  68.208  1.00  0.00    -0.170 A  
ENDROOT
BRANCH   4  18
HETATM   18  C   UNL     1      -9.790  10.035  69.337  1.00  0.00    -0.224 C  
BRANCH  18  19
HETATM   19  C   UNL     1     -10.369  11.338  68.803  1.00  0.00    -0.223 C  
BRANCH  19  20
HETATM   20  C   UNL     1     -11.594  11.765  69.598  1.00  0.00    -0.393 C  
BRANCH  20  21
HETATM   21  C   UNL     1     -11.866  13.244  69.444  1.00  0.00    -0.329 C  
HETATM   22  O   UNL     1     -11.801  13.818  68.359  1.00  0.00    -0.341 OA 
BRANCH  21  23
HETATM   23  C   UNL     1     -12.228  14.021  70.662  1.00  0.00    -0.442 A  
HETATM   24  C   UNL     1     -11.970  16.063  71.942  1.00  0.00    -0.606 A  
HETATM   25  C   UNL     1     -11.670  15.299  70.816  1.00  0.00    -0.377 A  
HETATM   26  C   UNL     1     -12.823  15.549  72.912  1.00  0.00    -0.457 A  
HETATM   27  F   UNL     1     -13.103  16.279  73.995  1.00  0.00    -0.557 F  
HETATM   28  C   UNL     1     -13.093  13.517  71.645  1.00  0.00    -0.459 A  
HETATM   29  C   UNL     1     -13.388  14.286  72.773  1.00  0.00    -0.621 A  
ENDBRANCH  21  23
ENDBRANCH  20  21
ENDBRANCH  19  20
ENDBRANCH  18  19
ENDBRANCH   4  18
TORSDOF 5
ENDMDL
MODEL       46
REMARK 921   NORMALIZED FREE ENERGY PREDICTED BY IDOCK:   -6.31 KCAL/MOL
REMARK 922        TOTAL FREE ENERGY PREDICTED BY IDOCK:   -8.92 KCAL/MOL
REMARK 923 INTER-LIGAND FREE ENERGY PREDICTED BY IDOCK:   -8.42 KCAL/MOL
REMARK 924 INTRA-LIGAND FREE ENERGY PREDICTED BY IDOCK:   -0.49 KCAL/MOL
REMARK 927      BINDING AFFINITY PREDICTED BY RF-SCORE:    0.00 PKD
ROOT
HETATM    1  C   UNL     1     -11.568  11.471  67.682  1.00  0.00    -0.247 C  
HETATM    2  C   UNL     1     -12.064  11.800  69.069  1.00  0.00    -0.276 C  
HETATM    3  C   UNL     1     -11.661  13.207  69.449  1.00  0.00    -0.327 C  
HETATM    4  N   UNL     1     -12.194  14.202  68.504  1.00  0.00    -0.262 NA 
HETATM    5  C   UNL     1      -7.074   9.174  65.912  1.00  0.00    -0.089 C  
HETATM    6  C   UNL     1     -11.758  13.935  67.106  1.00  0.00    -0.388 C  
HETATM    7  C   UNL     1     -12.005  12.504  66.595  1.00  0.00    -0.351 C  
HETATM    8  N   UNL     1      -8.418   9.567  66.250  1.00  0.00    -0.115 NA 
HETATM    9  C   UNL     1      -8.886   9.408  67.651  1.00  0.00    -0.115 C  
HETATM   10  C   UNL     1     -11.021  12.085  65.513  1.00  0.00    -0.345 A  
HETATM   11  C   UNL     1     -11.010  12.195  64.145  1.00  0.00    -0.416 A  
HETATM   12  C   UNL     1      -9.121  10.764  68.307  1.00  0.00    -0.157 C  
HETATM   13  N   UNL     1     -10.112  11.520  67.574  1.00  0.00    -0.182 NA 
HETATM   14  C   UNL     1     -10.004  11.376  66.161  1.00  0.00    -0.227 A  
HETATM   15  C   UNL     1      -9.999  11.505  63.451  1.00  0.00    -0.445 A  
HETATM   16  C   UNL     1      -9.075  10.653  64.121  1.00  0.00    -0.245 A  
HETATM   17  C   UNL     1      -9.102  10.538  65.507  1.00  0.00    -0.186 A  
ENDROOT
BRANCH   4  18
HETATM   18  C   UNL     1     -11.700  15.521  68.955  1.00  0.00    -0.377 C  
BRANCH  18  19
HETATM   19  C   UNL     1     -10.515  15.439  69.909  1.00  0.00    -0.310 C  
BRANCH  19  20
HETATM   20  C   UNL     1      -9.212  15.216  69.155  1.00  0.00    -0.215 C  
BRANCH  20  21
HETATM   21  C   UNL     1      -8.544  16.526  68.808  1.00  0.00    -0.262 C  
HETATM   22  O   UNL     1      -7.462  16.862  69.284  1.00  0.00    -0.225 OA 
BRANCH  21  23
HETATM   23  C   UNL     1      -9.232  17.432  67.847  1.00  0.00    -0.256 A  
HETATM   24  C   UNL     1     -10.112  19.643  67.386  1.00  0.00    -0.536 A  
HETATM   25  C   UNL     1      -9.464  18.758  68.244  1.00  0.00    -0.389 A  
HETATM   26  C   UNL     1     -10.530  19.203  66.136  1.00  0.00    -0.477 A  
HETATM   27  F   UNL     1     -11.160  20.050  65.317  1.00  0.00    -0.524 F  
HETATM   28  C   UNL     1      -9.653  17.003  66.579  1.00  0.00    -0.295 A  
HETATM   29  C   UNL     1     -10.305  17.894  65.724  1.00  0.00    -0.182 A  
ENDBRANCH  21  23
ENDBRANCH  20  21
ENDBRANCH  19  20
ENDBRANCH  18  19
ENDBRANCH   4  18
TORSDOF 5
ENDMDL
MODEL       47
REMARK 921   NORMALIZED FREE ENERGY PREDICTED BY IDOCK:   -6.30 KCAL/MOL
REMARK 922        TOTAL FREE ENERGY PREDICTED BY IDOCK:   -8.90 KCAL/MOL
REMARK 923 INTER-LIGAND FREE ENERGY PREDICTED BY IDOCK:   -8.37 KCAL/MOL
REMARK 924 INTRA-LIGAND FREE ENERGY PREDICTED BY IDOCK:   -0.52 KCAL/MOL
REMARK 927      BINDING AFFINITY PREDICTED BY RF-SCORE:    0.00 PKD
ROOT
HETATM    1  C   UNL     1     -11.515  10.691  68.546  1.00  0.00    -0.265 C  
HETATM    2  C   UNL     1     -11.744  12.163  68.787  1.00  0.00    -0.374 C  
HETATM    3  C   UNL     1     -10.425  12.872  68.986  1.00  0.00     0.009 C  
HETATM    4  N   UNL     1      -9.537  12.713  67.823  1.00  0.00    -0.191 NA 
HETATM    5  C   UNL     1     -11.339   6.483  71.842  1.00  0.00    -0.285 C  
HETATM    6  C   UNL     1      -9.274  11.281  67.512  1.00  0.00    -0.158 C  
HETATM    7  C   UNL     1     -10.523  10.391  67.377  1.00  0.00    -0.299 C  
HETATM    8  N   UNL     1     -11.608   7.468  70.825  1.00  0.00    -0.289 NA 
HETATM    9  C   UNL     1     -12.262   8.744  71.211  1.00  0.00    -0.287 C  
HETATM   10  C   UNL     1     -10.248   8.933  67.717  1.00  0.00    -0.283 A  
HETATM   11  C   UNL     1      -9.830   7.851  66.984  1.00  0.00    -0.293 A  
HETATM   12  C   UNL     1     -11.306   9.920  71.044  1.00  0.00    -0.386 C  
HETATM   13  N   UNL     1     -10.863  10.027  69.671  1.00  0.00    -0.244 NA 
HETATM   14  C   UNL     1     -10.620   8.766  69.055  1.00  0.00    -0.171 A  
HETATM   15  C   UNL     1      -9.875   6.593  67.612  1.00  0.00    -0.150 A  
HETATM   16  C   UNL     1     -10.415   6.424  68.919  1.00  0.00    -0.264 A  
HETATM   17  C   UNL     1     -10.849   7.525  69.649  1.00  0.00    -0.202 A  
ENDROOT
BRANCH   4  18
HETATM   18  C   UNL     1      -8.275  13.408  68.155  1.00  0.00    -0.160 C  
BRANCH  18  19
HETATM   19  C   UNL     1      -8.209  14.839  67.637  1.00  0.00    -0.187 C  
BRANCH  19  20
HETATM   20  C   UNL     1      -9.062  15.016  66.390  1.00  0.00    -0.312 C  
BRANCH  20  21
HETATM   21  C   UNL     1     -10.334  15.773  66.693  1.00  0.00    -0.291 C  
HETATM   22  O   UNL     1     -11.435  15.228  66.724  1.00  0.00    -0.259 OA 
BRANCH  21  23
HETATM   23  C   UNL     1     -10.233  17.234  66.965  1.00  0.00    -0.320 A  
HETATM   24  C   UNL     1     -10.395  19.495  66.107  1.00  0.00    -0.614 A  
HETATM   25  C   UNL     1     -10.485  18.119  65.907  1.00  0.00    -0.292 A  
HETATM   26  C   UNL     1     -10.050  19.983  67.362  1.00  0.00    -0.428 A  
HETATM   27  F   UNL     1      -9.954  21.303  67.551  1.00  0.00    -0.568 F  
HETATM   28  C   UNL     1      -9.892  17.741  68.229  1.00  0.00    -0.340 A  
HETATM   29  C   UNL     1      -9.801  19.121  68.423  1.00  0.00    -0.473 A  
ENDBRANCH  21  23
ENDBRANCH  20  21
ENDBRANCH  19  20
ENDBRANCH  18  19
ENDBRANCH   4  18
TORSDOF 5
ENDMDL
MODEL       48
REMARK 921   NORMALIZED FREE ENERGY PREDICTED BY IDOCK:   -6.28 KCAL/MOL
REMARK 922        TOTAL FREE ENERGY PREDICTED BY IDOCK:   -8.87 KCAL/MOL
REMARK 923 INTER-LIGAND FREE ENERGY PREDICTED BY IDOCK:   -7.76 KCAL/MOL
REMARK 924 INTRA-LIGAND FREE ENERGY PREDICTED BY IDOCK:   -1.11 KCAL/MOL
REMARK 927      BINDING AFFINITY PREDICTED BY RF-SCORE:    0.00 PKD
ROOT
HETATM    1  C   UNL     1     -10.673  13.122  68.215  1.00  0.00    -0.245 C  
HETATM    2  C   UNL     1     -11.244  13.834  69.416  1.00  0.00    -0.259 C  
HETATM    3  C   UNL     1     -12.225  12.939  70.138  1.00  0.00    -0.266 C  
HETATM    4  N   UNL     1     -11.596  11.685  70.583  1.00  0.00     0.029 NA 
HETATM    5  C   UNL     1     -12.163  12.951  63.081  1.00  0.00    -0.229 C  
HETATM    6  C   UNL     1     -10.994  10.929  69.451  1.00  0.00    -0.252 C  
HETATM    7  C   UNL     1     -10.041  11.733  68.547  1.00  0.00    -0.212 C  
HETATM    8  N   UNL     1     -11.508  13.103  64.355  1.00  0.00    -0.349 NA 
HETATM    9  C   UNL     1     -11.948  14.189  65.267  1.00  0.00    -0.381 C  
HETATM   10  C   UNL     1      -9.981  11.194  67.125  1.00  0.00    -0.215 A  
HETATM   11  C   UNL     1      -9.208  10.247  66.501  1.00  0.00    -0.179 A  
HETATM   12  C   UNL     1     -12.610  13.618  66.517  1.00  0.00    -0.172 C  
HETATM   13  N   UNL     1     -11.692  12.760  67.233  1.00  0.00    -0.369 NA 
HETATM   14  C   UNL     1     -10.882  11.960  66.378  1.00  0.00    -0.279 A  
HETATM   15  C   UNL     1      -9.310  10.154  65.101  1.00  0.00    -0.290 A  
HETATM   16  C   UNL     1     -10.110  11.057  64.344  1.00  0.00    -0.393 A  
HETATM   17  C   UNL     1     -10.880  12.022  64.985  1.00  0.00    -0.304 A  
ENDROOT
BRANCH   4  18
HETATM   18  C   UNL     1     -12.657  10.885  71.231  1.00  0.00    -0.421 C  
BRANCH  18  19
HETATM   19  C   UNL     1     -12.482   9.381  71.060  1.00  0.00    -0.311 C  
BRANCH  19  20
HETATM   20  C   UNL     1     -12.243   8.697  72.398  1.00  0.00    -0.419 C  
BRANCH  20  21
HETATM   21  C   UNL     1     -11.115   7.695  72.312  1.00  0.00    -0.286 C  
HETATM   22  O   UNL     1     -10.585   7.211  73.310  1.00  0.00    -0.295 OA 
BRANCH  21  23
HETATM   23  C   UNL     1     -10.641   7.285  70.961  1.00  0.00    -0.235 A  
HETATM   24  C   UNL     1      -8.933   7.456  69.250  1.00  0.00    -0.136 A  
HETATM   25  C   UNL     1      -9.417   7.801  70.509  1.00  0.00    -0.163 A  
HETATM   26  C   UNL     1      -9.674   6.600  68.443  1.00  0.00    -0.126 A  
HETATM   27  F   UNL     1      -9.214   6.276  67.230  1.00  0.00    -0.119 F  
HETATM   28  C   UNL     1     -11.374   6.416  70.139  1.00  0.00    -0.485 A  
HETATM   29  C   UNL     1     -10.886   6.075  68.876  1.00  0.00    -0.400 A  
ENDBRANCH  21  23
ENDBRANCH  20  21
ENDBRANCH  19  20
ENDBRANCH  18  19
ENDBRANCH   4  18
TORSDOF 5
ENDMDL
MODEL       49
REMARK 921   NORMALIZED FREE ENERGY PREDICTED BY IDOCK:   -6.27 KCAL/MOL
REMARK 922        TOTAL FREE ENERGY PREDICTED BY IDOCK:   -8.87 KCAL/MOL
REMARK 923 INTER-LIGAND FREE ENERGY PREDICTED BY IDOCK:   -7.29 KCAL/MOL
REMARK 924 INTRA-LIGAND FREE ENERGY PREDICTED BY IDOCK:   -1.58 KCAL/MOL
REMARK 927      BINDING AFFINITY PREDICTED BY RF-SCORE:    0.00 PKD
ROOT
HETATM    1  C   UNL     1      -8.498   9.211  66.076  1.00  0.00    -0.131 C  
HETATM    2  C   UNL     1      -7.951   7.809  65.980  1.00  0.00    -0.108 C  
HETATM    3  C   UNL     1      -8.539   6.941  67.068  1.00  0.00    -0.121 C  
HETATM    4  N   UNL     1     -10.007   6.884  66.989  1.00  0.00    -0.181 NA 
HETATM    5  C   UNL     1      -6.755  13.597  68.591  1.00  0.00    -0.100 C  
HETATM    6  C   UNL     1     -10.623   8.237  67.063  1.00  0.00    -0.258 C  
HETATM    7  C   UNL     1     -10.059   9.279  66.080  1.00  0.00    -0.304 C  
HETATM    8  N   UNL     1      -7.203  12.584  67.670  1.00  0.00    -0.123 NA 
HETATM    9  C   UNL     1      -6.303  11.445  67.358  1.00  0.00    -0.082 C  
HETATM   10  C   UNL     1     -10.197  10.706  66.589  1.00  0.00    -0.284 A  
HETATM   11  C   UNL     1     -11.178  11.660  66.487  1.00  0.00    -0.356 A  
HETATM   12  C   UNL     1      -6.865  10.138  67.906  1.00  0.00    -0.075 C  
HETATM   13  N   UNL     1      -8.167   9.864  67.339  1.00  0.00    -0.117 NA 
HETATM   14  C   UNL     1      -8.975  11.027  67.190  1.00  0.00    -0.143 A  
HETATM   15  C   UNL     1     -10.864  12.957  66.931  1.00  0.00    -0.278 A  
HETATM   16  C   UNL     1      -9.559  13.300  67.385  1.00  0.00    -0.223 A  
HETATM   17  C   UNL     1      -8.566  12.330  67.473  1.00  0.00    -0.174 A  
ENDROOT
BRANCH   4  18
HETATM   18  C   UNL     1     -10.461   6.048  68.121  1.00  0.00    -0.236 C  
BRANCH  18  19
HETATM   19  C   UNL     1     -10.295   6.715  69.481  1.00  0.00    -0.232 C  
BRANCH  19  20
HETATM   20  C   UNL     1     -11.615   6.770  70.235  1.00  0.00    -0.417 C  
BRANCH  20  21
HETATM   21  C   UNL     1     -11.529   7.683  71.436  1.00  0.00    -0.264 C  
HETATM   22  O   UNL     1     -11.225   7.275  72.554  1.00  0.00    -0.269 OA 
BRANCH  21  23
HETATM   23  C   UNL     1     -11.824   9.130  71.240  1.00  0.00    -0.396 A  
HETATM   24  C   UNL     1     -13.198  11.039  71.824  1.00  0.00    -0.505 A  
HETATM   25  C   UNL     1     -12.876   9.692  71.977  1.00  0.00    -0.497 A  
HETATM   26  C   UNL     1     -12.470  11.820  70.933  1.00  0.00    -0.318 A  
HETATM   27  F   UNL     1     -12.785  13.109  70.780  1.00  0.00    -0.380 F  
HETATM   28  C   UNL     1     -11.093   9.932  70.350  1.00  0.00    -0.382 A  
HETATM   29  C   UNL     1     -11.421  11.280  70.198  1.00  0.00    -0.336 A  
ENDBRANCH  21  23
ENDBRANCH  20  21
ENDBRANCH  19  20
ENDBRANCH  18  19
ENDBRANCH   4  18
TORSDOF 5
ENDMDL
MODEL       50
REMARK 921   NORMALIZED FREE ENERGY PREDICTED BY IDOCK:   -6.24 KCAL/MOL
REMARK 922        TOTAL FREE ENERGY PREDICTED BY IDOCK:   -8.83 KCAL/MOL
REMARK 923 INTER-LIGAND FREE ENERGY PREDICTED BY IDOCK:   -7.68 KCAL/MOL
REMARK 924 INTRA-LIGAND FREE ENERGY PREDICTED BY IDOCK:   -1.15 KCAL/MOL
REMARK 927      BINDING AFFINITY PREDICTED BY RF-SCORE:    0.00 PKD
ROOT
HETATM    1  C   UNL     1      -9.212   8.283  70.674  1.00  0.00    -0.152 C  
HETATM    2  C   UNL     1      -8.177   7.201  70.482  1.00  0.00    -0.125 C  
HETATM    3  C   UNL     1      -8.182   6.721  69.049  1.00  0.00    -0.117 C  
HETATM    4  N   UNL     1      -7.906   7.815  68.105  1.00  0.00    -0.119 NA 
HETATM    5  C   UNL     1     -14.336   8.140  72.199  1.00  0.00    -0.372 C  
HETATM    6  C   UNL     1      -8.881   8.932  68.244  1.00  0.00    -0.134 C  
HETATM    7  C   UNL     1      -9.072   9.473  69.672  1.00  0.00    -0.207 C  
HETATM    8  N   UNL     1     -12.922   8.354  72.025  1.00  0.00    -0.350 NA 
HETATM    9  C   UNL     1     -11.983   7.240  72.312  1.00  0.00    -0.221 C  
HETATM   10  C   UNL     1     -10.448  10.084  69.893  1.00  0.00    -0.317 A  
HETATM   11  C   UNL     1     -10.966  11.344  69.725  1.00  0.00    -0.118 A  
HETATM   12  C   UNL     1     -11.309   6.750  71.036  1.00  0.00    -0.309 C  
HETATM   13  N   UNL     1     -10.571   7.822  70.405  1.00  0.00    -0.223 NA 
HETATM   14  C   UNL     1     -11.234   9.081  70.471  1.00  0.00    -0.260 A  
HETATM   15  C   UNL     1     -12.258  11.581  70.226  1.00  0.00    -0.415 A  
HETATM   16  C   UNL     1     -12.973  10.591  70.959  1.00  0.00    -0.475 A  
HETATM   17  C   UNL     1     -12.435   9.321  71.136  1.00  0.00    -0.272 A  
ENDROOT
BRANCH   4  18
HETATM   18  C   UNL     1      -7.980   7.233  66.748  1.00  0.00    -0.118 C  
BRANCH  18  19
HETATM   19  C   UNL     1      -7.511   8.178  65.649  1.00  0.00    -0.081 C  
BRANCH  19  20
HETATM   20  C   UNL     1      -8.656   8.557  64.720  1.00  0.00    -0.106 C  
BRANCH  20  21
HETATM   21  C   UNL     1      -8.628  10.029  64.380  1.00  0.00    -0.190 C  
HETATM   22  O   UNL     1      -7.644  10.573  63.883  1.00  0.00    -0.066 OA 
BRANCH  21  23
HETATM   23  C   UNL     1      -9.848  10.837  64.659  1.00  0.00    -0.366 A  
HETATM   24  C   UNL     1     -11.769  12.019  63.773  1.00  0.00    -0.575 A  
HETATM   25  C   UNL     1     -10.624  11.253  63.567  1.00  0.00    -0.436 A  
HETATM   26  C   UNL     1     -12.136  12.368  65.068  1.00  0.00    -0.407 A  
HETATM   27  F   UNL     1     -13.230  13.110  65.264  1.00  0.00    -0.465 F  
HETATM   28  C   UNL     1     -10.233  11.191  65.961  1.00  0.00    -0.300 A  
HETATM   29  C   UNL     1     -11.381  11.960  66.162  1.00  0.00    -0.383 A  
ENDBRANCH  21  23
ENDBRANCH  20  21
ENDBRANCH  19  20
ENDBRANCH  18  19
ENDBRANCH   4  18
TORSDOF 5
ENDMDL
MODEL       51
REMARK 921   NORMALIZED FREE ENERGY PREDICTED BY IDOCK:   -6.24 KCAL/MOL
REMARK 922        TOTAL FREE ENERGY PREDICTED BY IDOCK:   -8.82 KCAL/MOL
REMARK 923 INTER-LIGAND FREE ENERGY PREDICTED BY IDOCK:   -8.45 KCAL/MOL
REMARK 924 INTRA-LIGAND FREE ENERGY PREDICTED BY IDOCK:   -0.36 KCAL/MOL
REMARK 927      BINDING AFFINITY PREDICTED BY RF-SCORE:    0.00 PKD
ROOT
HETATM    1  C   UNL     1     -12.007   6.798  71.645  1.00  0.00    -0.347 C  
HETATM    2  C   UNL     1     -12.784   8.023  72.058  1.00  0.00    -0.331 C  
HETATM    3  C   UNL     1     -12.024   9.276  71.690  1.00  0.00    -0.378 C  
HETATM    4  N   UNL     1     -11.756   9.348  70.245  1.00  0.00    -0.152 NA 
HETATM    5  C   UNL     1      -8.464   3.736  74.229  1.00  0.00    -0.088 C  
HETATM    6  C   UNL     1     -11.001   8.162  69.756  1.00  0.00    -0.132 C  
HETATM    7  C   UNL     1     -11.593   6.794  70.139  1.00  0.00    -0.397 C  
HETATM    8  N   UNL     1      -9.572   4.309  73.507  1.00  0.00    -0.112 NA 
HETATM    9  C   UNL     1     -10.522   5.193  74.228  1.00  0.00    -0.275 C  
HETATM   10  C   UNL     1     -10.541   5.697  70.223  1.00  0.00    -0.370 A  
HETATM   11  C   UNL     1     -10.011   4.819  69.312  1.00  0.00    -0.254 A  
HETATM   12  C   UNL     1     -10.420   6.630  73.727  1.00  0.00    -0.333 C  
HETATM   13  N   UNL     1     -10.711   6.698  72.312  1.00  0.00    -0.215 NA 
HETATM   14  C   UNL     1     -10.181   5.603  71.571  1.00  0.00    -0.208 A  
HETATM   15  C   UNL     1      -9.178   3.800  69.809  1.00  0.00    -0.213 A  
HETATM   16  C   UNL     1      -8.960   3.622  71.205  1.00  0.00    -0.159 A  
HETATM   17  C   UNL     1      -9.513   4.510  72.122  1.00  0.00    -0.140 A  
ENDROOT
BRANCH   4  18
HETATM   18  C   UNL     1     -10.977  10.585  70.019  1.00  0.00    -0.286 C  
BRANCH  18  19
HETATM   19  C   UNL     1     -11.837  11.806  69.723  1.00  0.00    -0.420 C  
BRANCH  19  20
HETATM   20  C   UNL     1     -11.038  12.886  69.009  1.00  0.00    -0.284 C  
BRANCH  20  21
HETATM   21  C   UNL     1     -10.222  12.311  67.875  1.00  0.00    -0.200 C  
HETATM   22  O   UNL     1      -9.074  11.899  68.030  1.00  0.00    -0.175 OA 
BRANCH  21  23
HETATM   23  C   UNL     1     -10.847  12.243  66.525  1.00  0.00    -0.297 A  
HETATM   24  C   UNL     1     -12.646  12.949  65.062  1.00  0.00    -0.538 A  
HETATM   25  C   UNL     1     -12.017  12.985  66.304  1.00  0.00    -0.477 A  
HETATM   26  C   UNL     1     -12.108  12.170  64.044  1.00  0.00    -0.443 A  
HETATM   27  F   UNL     1     -12.717  12.129  62.855  1.00  0.00    -0.521 F  
HETATM   28  C   UNL     1     -10.311  11.467  65.486  1.00  0.00    -0.317 A  
HETATM   29  C   UNL     1     -10.947  11.432  64.243  1.00  0.00    -0.390 A  
ENDBRANCH  21  23
ENDBRANCH  20  21
ENDBRANCH  19  20
ENDBRANCH  18  19
ENDBRANCH   4  18
TORSDOF 5
ENDMDL
MODEL       52
REMARK 921   NORMALIZED FREE ENERGY PREDICTED BY IDOCK:   -6.22 KCAL/MOL
REMARK 922        TOTAL FREE ENERGY PREDICTED BY IDOCK:   -8.80 KCAL/MOL
REMARK 923 INTER-LIGAND FREE ENERGY PREDICTED BY IDOCK:   -8.00 KCAL/MOL
REMARK 924 INTRA-LIGAND FREE ENERGY PREDICTED BY IDOCK:   -0.80 KCAL/MOL
REMARK 927      BINDING AFFINITY PREDICTED BY RF-SCORE:    0.00 PKD
ROOT
HETATM    1  C   UNL     1     -12.025  12.262  67.231  1.00  0.00    -0.131 C  
HETATM    2  C   UNL     1     -12.435  13.706  67.079  1.00  0.00    -0.131 C  
HETATM    3  C   UNL     1     -11.215  14.598  67.063  1.00  0.00    -0.344 C  
HETATM    4  N   UNL     1     -10.295  14.247  65.969  1.00  0.00    -0.298 NA 
HETATM    5  C   UNL     1     -11.393   9.127  71.518  1.00  0.00    -0.368 C  
HETATM    6  C   UNL     1      -9.854  12.827  66.043  1.00  0.00    -0.255 C  
HETATM    7  C   UNL     1     -10.983  11.787  66.168  1.00  0.00    -0.355 C  
HETATM    8  N   UNL     1     -11.762   9.767  70.281  1.00  0.00    -0.228 NA 
HETATM    9  C   UNL     1     -12.573  11.010  70.327  1.00  0.00    -0.243 C  
HETATM   10  C   UNL     1     -10.539  10.516  66.875  1.00  0.00    -0.303 A  
HETATM   11  C   UNL     1      -9.979   9.338  66.448  1.00  0.00    -0.356 A  
HETATM   12  C   UNL     1     -11.765  12.209  69.840  1.00  0.00    -0.287 C  
HETATM   13  N   UNL     1     -11.316  12.003  68.481  1.00  0.00    -0.247 NA 
HETATM   14  C   UNL     1     -10.910  10.663  68.216  1.00  0.00    -0.241 A  
HETATM   15  C   UNL     1      -9.881   8.294  67.386  1.00  0.00    -0.246 A  
HETATM   16  C   UNL     1     -10.418   8.412  68.700  1.00  0.00    -0.197 A  
HETATM   17  C   UNL     1     -10.996   9.605  69.120  1.00  0.00    -0.151 A  
ENDROOT
BRANCH   4  18
HETATM   18  C   UNL     1      -9.133  15.154  66.086  1.00  0.00    -0.241 C  
BRANCH  18  19
HETATM   19  C   UNL     1      -8.118  14.719  67.135  1.00  0.00    -0.226 C  
BRANCH  19  20
HETATM   20  C   UNL     1      -6.956  15.697  67.220  1.00  0.00    -0.224 C  
BRANCH  20  21
HETATM   21  C   UNL     1      -7.152  16.694  68.339  1.00  0.00    -0.167 C  
HETATM   22  O   UNL     1      -6.672  16.531  69.459  1.00  0.00    -0.220 OA 
BRANCH  21  23
HETATM   23  C   UNL     1      -7.956  17.916  68.057  1.00  0.00    -0.250 A  
HETATM   24  C   UNL     1      -8.052  20.117  67.048  1.00  0.00    -0.368 A  
HETATM   25  C   UNL     1      -7.347  18.950  67.331  1.00  0.00    -0.238 A  
HETATM   26  C   UNL     1      -9.362  20.251  67.494  1.00  0.00    -0.383 A  
HETATM   27  F   UNL     1     -10.035  21.375  67.231  1.00  0.00    -0.509 F  
HETATM   28  C   UNL     1      -9.281  18.061  68.495  1.00  0.00    -0.296 A  
HETATM   29  C   UNL     1      -9.983  19.234  68.211  1.00  0.00    -0.497 A  
ENDBRANCH  21  23
ENDBRANCH  20  21
ENDBRANCH  19  20
ENDBRANCH  18  19
ENDBRANCH   4  18
TORSDOF 5
ENDMDL
MODEL       53
REMARK 921   NORMALIZED FREE ENERGY PREDICTED BY IDOCK:   -6.21 KCAL/MOL
REMARK 922        TOTAL FREE ENERGY PREDICTED BY IDOCK:   -8.79 KCAL/MOL
REMARK 923 INTER-LIGAND FREE ENERGY PREDICTED BY IDOCK:   -7.54 KCAL/MOL
REMARK 924 INTRA-LIGAND FREE ENERGY PREDICTED BY IDOCK:   -1.25 KCAL/MOL
REMARK 927      BINDING AFFINITY PREDICTED BY RF-SCORE:    0.00 PKD
ROOT
HETATM    1  C   UNL     1     -10.503  14.801  67.217  1.00  0.00    -0.264 C  
HETATM    2  C   UNL     1     -11.121  15.978  67.930  1.00  0.00    -0.307 C  
HETATM    3  C   UNL     1     -11.993  15.502  69.069  1.00  0.00    -0.301 C  
HETATM    4  N   UNL     1     -11.231  14.704  70.043  1.00  0.00    -0.238 NA 
HETATM    5  C   UNL     1     -12.060  11.923  62.987  1.00  0.00     0.006 C  
HETATM    6  C   UNL     1     -10.576  13.526  69.410  1.00  0.00     0.177 C  
HETATM    7  C   UNL     1      -9.726  13.830  68.163  1.00  0.00    -0.227 C  
HETATM    8  N   UNL     1     -11.400  12.754  63.962  1.00  0.00    -0.384 NA 
HETATM    9  C   UNL     1     -11.933  14.114  64.228  1.00  0.00    -0.435 C  
HETATM   10  C   UNL     1      -9.637  12.648  67.208  1.00  0.00    -0.203 A  
HETATM   11  C   UNL     1      -8.783  11.580  67.096  1.00  0.00    -0.160 A  
HETATM   12  C   UNL     1     -12.510  14.210  65.636  1.00  0.00    -0.469 C  
HETATM   13  N   UNL     1     -11.497  13.911  66.624  1.00  0.00    -0.340 NA 
HETATM   14  C   UNL     1     -10.624  12.853  66.238  1.00  0.00    -0.266 A  
HETATM   15  C   UNL     1      -8.900  10.779  65.946  1.00  0.00    -0.191 A  
HETATM   16  C   UNL     1      -9.801  11.104  64.893  1.00  0.00    -0.316 A  
HETATM   17  C   UNL     1     -10.654  12.197  65.008  1.00  0.00    -0.291 A  
ENDROOT
BRANCH   4  18
HETATM   18  C   UNL     1     -12.193  14.264  71.077  1.00  0.00    -0.356 C  
BRANCH  18  19
HETATM   19  C   UNL     1     -12.870  12.937  70.759  1.00  0.00    -0.128 C  
BRANCH  19  20
HETATM   20  C   UNL     1     -12.800  11.984  71.944  1.00  0.00    -0.338 C  
BRANCH  20  21
HETATM   21  C   UNL     1     -12.881  10.542  71.499  1.00  0.00    -0.463 C  
HETATM   22  O   UNL     1     -13.952   9.961  71.335  1.00  0.00    -0.106 OA 
BRANCH  21  23
HETATM   23  C   UNL     1     -11.607   9.812  71.251  1.00  0.00    -0.465 A  
HETATM   24  C   UNL     1      -9.711   9.439  69.789  1.00  0.00    -0.215 A  
HETATM   25  C   UNL     1     -10.903  10.101  70.073  1.00  0.00    -0.361 A  
HETATM   26  C   UNL     1      -9.225   8.489  70.680  1.00  0.00    -0.163 A  
HETATM   27  F   UNL     1      -8.086   7.848  70.403  1.00  0.00    -0.103 F  
HETATM   28  C   UNL     1     -11.102   8.856  72.145  1.00  0.00    -0.355 A  
HETATM   29  C   UNL     1      -9.908   8.194  71.855  1.00  0.00    -0.276 A  
ENDBRANCH  21  23
ENDBRANCH  20  21
ENDBRANCH  19  20
ENDBRANCH  18  19
ENDBRANCH   4  18
TORSDOF 5
ENDMDL
MODEL       54
REMARK 921   NORMALIZED FREE ENERGY PREDICTED BY IDOCK:   -6.21 KCAL/MOL
REMARK 922        TOTAL FREE ENERGY PREDICTED BY IDOCK:   -8.78 KCAL/MOL
REMARK 923 INTER-LIGAND FREE ENERGY PREDICTED BY IDOCK:   -7.75 KCAL/MOL
REMARK 924 INTRA-LIGAND FREE ENERGY PREDICTED BY IDOCK:   -1.03 KCAL/MOL
REMARK 927      BINDING AFFINITY PREDICTED BY RF-SCORE:    0.00 PKD
ROOT
HETATM    1  C   UNL     1      -9.710   6.522  66.964  1.00  0.00    -0.151 C  
HETATM    2  C   UNL     1      -9.984   5.177  67.591  1.00  0.00    -0.203 C  
HETATM    3  C   UNL     1     -10.135   5.318  69.088  1.00  0.00    -0.219 C  
HETATM    4  N   UNL     1     -11.227   6.239  69.443  1.00  0.00    -0.415 NA 
HETATM    5  C   UNL     1      -5.169   9.091  65.784  1.00  0.00    -0.040 C  
HETATM    6  C   UNL     1     -11.034   7.590  68.847  1.00  0.00     0.062 C  
HETATM    7  C   UNL     1     -10.764   7.615  67.332  1.00  0.00    -0.318 C  
HETATM    8  N   UNL     1      -6.446   8.423  65.812  1.00  0.00    -0.052 NA 
HETATM    9  C   UNL     1      -6.487   6.954  66.025  1.00  0.00    -0.051 C  
HETATM   10  C   UNL     1      -9.955   8.828  66.896  1.00  0.00    -0.327 A  
HETATM   11  C   UNL     1     -10.289  10.099  66.501  1.00  0.00    -0.270 A  
HETATM   12  C   UNL     1      -7.120   6.615  67.370  1.00  0.00    -0.080 C  
HETATM   13  N   UNL     1      -8.470   7.128  67.443  1.00  0.00    -0.122 NA 
HETATM   14  C   UNL     1      -8.621   8.411  66.842  1.00  0.00    -0.125 A  
HETATM   15  C   UNL     1      -9.259  10.902  65.978  1.00  0.00    -0.210 A  
HETATM   16  C   UNL     1      -7.943  10.399  65.778  1.00  0.00    -0.152 A  
HETATM   17  C   UNL     1      -7.617   9.104  66.168  1.00  0.00    -0.095 A  
ENDROOT
BRANCH   4  18
HETATM   18  C   UNL     1     -11.246   6.325  70.919  1.00  0.00    -0.324 C  
BRANCH  18  19
HETATM   19  C   UNL     1     -12.463   7.052  71.475  1.00  0.00    -0.426 C  
BRANCH  19  20
HETATM   20  C   UNL     1     -12.060   8.316  72.220  1.00  0.00    -0.439 C  
BRANCH  20  21
HETATM   21  C   UNL     1     -13.130   9.379  72.127  1.00  0.00    -0.442 C  
HETATM   22  O   UNL     1     -14.264   9.214  72.573  1.00  0.00    -0.512 OA 
BRANCH  21  23
HETATM   23  C   UNL     1     -12.782  10.670  71.471  1.00  0.00    -0.549 A  
HETATM   24  C   UNL     1     -12.990  13.084  71.461  1.00  0.00    -0.398 A  
HETATM   25  C   UNL     1     -13.278  11.851  72.041  1.00  0.00    -0.461 A  
HETATM   26  C   UNL     1     -12.209  13.135  70.312  1.00  0.00    -0.306 A  
HETATM   27  F   UNL     1     -11.939  14.317  69.751  1.00  0.00    -0.299 F  
HETATM   28  C   UNL     1     -11.990  10.736  70.315  1.00  0.00    -0.438 A  
HETATM   29  C   UNL     1     -11.705  11.974  69.736  1.00  0.00    -0.390 A  
ENDBRANCH  21  23
ENDBRANCH  20  21
ENDBRANCH  19  20
ENDBRANCH  18  19
ENDBRANCH   4  18
TORSDOF 5
ENDMDL
MODEL       55
REMARK 921   NORMALIZED FREE ENERGY PREDICTED BY IDOCK:   -6.21 KCAL/MOL
REMARK 922        TOTAL FREE ENERGY PREDICTED BY IDOCK:   -8.78 KCAL/MOL
REMARK 923 INTER-LIGAND FREE ENERGY PREDICTED BY IDOCK:   -8.11 KCAL/MOL
REMARK 924 INTRA-LIGAND FREE ENERGY PREDICTED BY IDOCK:   -0.67 KCAL/MOL
REMARK 927      BINDING AFFINITY PREDICTED BY RF-SCORE:    0.00 PKD
ROOT
HETATM    1  C   UNL     1     -12.004  14.333  65.676  1.00  0.00    -0.386 C  
HETATM    2  C   UNL     1     -11.956  13.915  64.227  1.00  0.00    -0.477 C  
HETATM    3  C   UNL     1     -10.922  12.831  64.028  1.00  0.00    -0.415 C  
HETATM    4  N   UNL     1     -11.204  11.647  64.855  1.00  0.00    -0.262 NA 
HETATM    5  C   UNL     1      -9.477  18.175  68.405  1.00  0.00    -0.318 C  
HETATM    6  C   UNL     1     -11.281  11.982  66.303  1.00  0.00    -0.342 C  
HETATM    7  C   UNL     1     -12.223  13.145  66.667  1.00  0.00    -0.331 C  
HETATM    8  N   UNL     1     -10.403  17.280  67.760  1.00  0.00    -0.342 NA 
HETATM    9  C   UNL     1     -10.532  17.319  66.281  1.00  0.00    -0.268 C  
HETATM   10  C   UNL     1     -11.806  13.866  67.940  1.00  0.00    -0.413 A  
HETATM   11  C   UNL     1     -12.090  13.685  69.271  1.00  0.00    -0.360 A  
HETATM   12  C   UNL     1     -10.007  16.033  65.653  1.00  0.00    -0.313 C  
HETATM   13  N   UNL     1     -10.738  14.887  66.148  1.00  0.00    -0.308 NA 
HETATM   14  C   UNL     1     -11.054  14.974  67.534  1.00  0.00    -0.317 A  
HETATM   15  C   UNL     1     -11.667  14.687  70.162  1.00  0.00    -0.353 A  
HETATM   16  C   UNL     1     -11.050  15.887  69.705  1.00  0.00    -0.324 A  
HETATM   17  C   UNL     1     -10.778  16.068  68.354  1.00  0.00    -0.289 A  
ENDROOT
BRANCH   4  18
HETATM   18  C   UNL     1     -10.109  10.685  64.606  1.00  0.00    -0.349 C  
BRANCH  18  19
HETATM   19  C   UNL     1      -9.820   9.767  65.786  1.00  0.00    -0.360 C  
BRANCH  19  20
HETATM   20  C   UNL     1      -8.477   9.069  65.628  1.00  0.00    -0.163 C  
BRANCH  20  21
HETATM   21  C   UNL     1      -7.906   8.659  66.965  1.00  0.00    -0.096 C  
HETATM   22  O   UNL     1      -6.824   9.073  67.376  1.00  0.00    -0.075 OA 
BRANCH  21  23
HETATM   23  C   UNL     1      -8.697   7.719  67.807  1.00  0.00    -0.123 A  
HETATM   24  C   UNL     1      -9.348   5.430  68.266  1.00  0.00    -0.135 A  
HETATM   25  C   UNL     1      -8.620   6.350  67.514  1.00  0.00    -0.115 A  
HETATM   26  C   UNL     1     -10.152   5.880  69.307  1.00  0.00    -0.194 A  
HETATM   27  F   UNL     1     -10.857   4.998  70.022  1.00  0.00    -0.318 F  
HETATM   28  C   UNL     1      -9.508   8.159  68.865  1.00  0.00    -0.151 A  
HETATM   29  C   UNL     1     -10.237   7.233  69.614  1.00  0.00    -0.214 A  
ENDBRANCH  21  23
ENDBRANCH  20  21
ENDBRANCH  19  20
ENDBRANCH  18  19
ENDBRANCH   4  18
TORSDOF 5
ENDMDL
MODEL       56
REMARK 921   NORMALIZED FREE ENERGY PREDICTED BY IDOCK:   -6.21 KCAL/MOL
REMARK 922        TOTAL FREE ENERGY PREDICTED BY IDOCK:   -8.78 KCAL/MOL
REMARK 923 INTER-LIGAND FREE ENERGY PREDICTED BY IDOCK:   -7.43 KCAL/MOL
REMARK 924 INTRA-LIGAND FREE ENERGY PREDICTED BY IDOCK:   -1.35 KCAL/MOL
REMARK 927      BINDING AFFINITY PREDICTED BY RF-SCORE:    0.00 PKD
ROOT
HETATM    1  C   UNL     1     -11.028  11.936  66.371  1.00  0.00    -0.292 C  
HETATM    2  C   UNL     1     -12.184  12.719  65.800  1.00  0.00    -0.469 C  
HETATM    3  C   UNL     1     -12.011  14.193  66.085  1.00  0.00    -0.422 C  
HETATM    4  N   UNL     1     -10.757  14.715  65.519  1.00  0.00    -0.327 NA 
HETATM    5  C   UNL     1     -10.289   9.518  71.084  1.00  0.00    -0.260 C  
HETATM    6  C   UNL     1      -9.565  13.981  66.026  1.00  0.00    -0.205 C  
HETATM    7  C   UNL     1      -9.628  12.448  65.903  1.00  0.00    -0.193 C  
HETATM    8  N   UNL     1     -10.443   9.898  69.703  1.00  0.00    -0.231 NA 
HETATM    9  C   UNL     1     -11.797  10.237  69.195  1.00  0.00     0.033 C  
HETATM   10  C   UNL     1      -8.791  11.736  66.955  1.00  0.00    -0.182 A  
HETATM   11  C   UNL     1      -7.483  11.326  67.010  1.00  0.00    -0.139 A  
HETATM   12  C   UNL     1     -11.892  11.716  68.838  1.00  0.00    -0.329 C  
HETATM   13  N   UNL     1     -10.921  12.060  67.823  1.00  0.00    -0.220 NA 
HETATM   14  C   UNL     1      -9.667  11.406  67.995  1.00  0.00    -0.186 A  
HETATM   15  C   UNL     1      -7.108  10.512  68.094  1.00  0.00    -0.082 A  
HETATM   16  C   UNL     1      -8.056  10.051  69.051  1.00  0.00    -0.118 A  
HETATM   17  C   UNL     1      -9.384  10.461  68.980  1.00  0.00    -0.194 A  
ENDROOT
BRANCH   4  18
HETATM   18  C   UNL     1     -10.683  16.143  65.898  1.00  0.00    -0.255 C  
BRANCH  18  19
HETATM   19  C   UNL     1      -9.590  16.451  66.913  1.00  0.00    -0.255 C  
BRANCH  19  20
HETATM   20  C   UNL     1     -10.181  16.844  68.260  1.00  0.00    -0.318 C  
BRANCH  20  21
HETATM   21  C   UNL     1     -10.183  15.680  69.224  1.00  0.00    -0.250 C  
HETATM   22  O   UNL     1      -9.334  14.792  69.188  1.00  0.00    -0.180 OA 
BRANCH  21  23
HETATM   23  C   UNL     1     -11.259  15.623  70.252  1.00  0.00    -0.357 A  
HETATM   24  C   UNL     1     -13.576  15.139  70.769  1.00  0.00    -0.299 A  
HETATM   25  C   UNL     1     -12.534  15.201  69.848  1.00  0.00    -0.269 A  
HETATM   26  C   UNL     1     -13.345  15.500  72.091  1.00  0.00    -0.467 A  
HETATM   27  F   UNL     1     -14.348  15.449  72.972  1.00  0.00    -0.402 F  
HETATM   28  C   UNL     1     -11.037  15.978  71.592  1.00  0.00     0.049 A  
HETATM   29  C   UNL     1     -12.086  15.916  72.511  1.00  0.00    -0.611 A  
ENDBRANCH  21  23
ENDBRANCH  20  21
ENDBRANCH  19  20
ENDBRANCH  18  19
ENDBRANCH   4  18
TORSDOF 5
ENDMDL
MODEL       57
REMARK 921   NORMALIZED FREE ENERGY PREDICTED BY IDOCK:   -6.20 KCAL/MOL
REMARK 922        TOTAL FREE ENERGY PREDICTED BY IDOCK:   -8.77 KCAL/MOL
REMARK 923 INTER-LIGAND FREE ENERGY PREDICTED BY IDOCK:   -8.11 KCAL/MOL
REMARK 924 INTRA-LIGAND FREE ENERGY PREDICTED BY IDOCK:   -0.65 KCAL/MOL
REMARK 927      BINDING AFFINITY PREDICTED BY RF-SCORE:    0.00 PKD
ROOT
HETATM    1  C   UNL     1     -10.333   5.963  71.809  1.00  0.00    -0.216 C  
HETATM    2  C   UNL     1     -10.761   6.532  73.139  1.00  0.00    -0.297 C  
HETATM    3  C   UNL     1     -11.067   8.006  73.004  1.00  0.00    -0.233 C  
HETATM    4  N   UNL     1     -12.129   8.255  72.017  1.00  0.00    -0.326 NA 
HETATM    5  C   UNL     1      -5.534   5.330  69.534  1.00  0.00    -0.007 C  
HETATM    6  C   UNL     1     -11.785   7.708  70.675  1.00  0.00    -0.193 C  
HETATM    7  C   UNL     1     -11.348   6.232  70.653  1.00  0.00    -0.409 C  
HETATM    8  N   UNL     1      -6.847   5.207  70.116  1.00  0.00    -0.047 NA 
HETATM    9  C   UNL     1      -7.006   5.389  71.581  1.00  0.00    -0.067 C  
HETATM   10  C   UNL     1     -10.421   5.908  69.491  1.00  0.00    -0.346 A  
HETATM   11  C   UNL     1     -10.626   5.502  68.197  1.00  0.00    -0.207 A  
HETATM   12  C   UNL     1      -7.804   6.651  71.892  1.00  0.00    -0.098 C  
HETATM   13  N   UNL     1      -9.118   6.584  71.291  1.00  0.00    -0.148 NA 
HETATM   14  C   UNL     1      -9.118   5.993  69.995  1.00  0.00    -0.146 A  
HETATM   15  C   UNL     1      -9.495   5.108  67.458  1.00  0.00    -0.146 A  
HETATM   16  C   UNL     1      -8.200   5.044  68.045  1.00  0.00    -0.097 A  
HETATM   17  C   UNL     1      -8.003   5.445  69.362  1.00  0.00    -0.089 A  
ENDROOT
BRANCH   4  18
HETATM   18  C   UNL     1     -12.305   9.722  71.945  1.00  0.00    -0.335 C  
BRANCH  18  19
HETATM   19  C   UNL     1     -11.424  10.395  70.900  1.00  0.00    -0.385 C  
BRANCH  19  20
HETATM   20  C   UNL     1     -12.258  11.170  69.890  1.00  0.00    -0.385 C  
BRANCH  20  21
HETATM   21  C   UNL     1     -11.765  12.591  69.741  1.00  0.00    -0.285 C  
HETATM   22  O   UNL     1     -10.971  12.925  68.864  1.00  0.00    -0.243 OA 
BRANCH  21  23
HETATM   23  C   UNL     1     -12.274  13.613  70.697  1.00  0.00    -0.434 A  
HETATM   24  C   UNL     1     -13.903  14.204  72.391  1.00  0.00    -0.638 A  
HETATM   25  C   UNL     1     -13.383  13.280  71.487  1.00  0.00    -0.330 A  
HETATM   26  C   UNL     1     -13.316  15.460  72.501  1.00  0.00    -0.471 A  
HETATM   27  F   UNL     1     -13.820  16.349  73.361  1.00  0.00    -0.647 F  
HETATM   28  C   UNL     1     -11.686  14.881  70.823  1.00  0.00    -0.364 A  
HETATM   29  C   UNL     1     -12.213  15.805  71.728  1.00  0.00    -0.525 A  
ENDBRANCH  21  23
ENDBRANCH  20  21
ENDBRANCH  19  20
ENDBRANCH  18  19
ENDBRANCH   4  18
TORSDOF 5
ENDMDL
MODEL       58
REMARK 921   NORMALIZED FREE ENERGY PREDICTED BY IDOCK:   -6.19 KCAL/MOL
REMARK 922        TOTAL FREE ENERGY PREDICTED BY IDOCK:   -8.76 KCAL/MOL
REMARK 923 INTER-LIGAND FREE ENERGY PREDICTED BY IDOCK:   -8.10 KCAL/MOL
REMARK 924 INTRA-LIGAND FREE ENERGY PREDICTED BY IDOCK:   -0.66 KCAL/MOL
REMARK 927      BINDING AFFINITY PREDICTED BY RF-SCORE:    0.00 PKD
ROOT
HETATM    1  C   UNL     1      -9.274  10.087  68.639  1.00  0.00    -0.152 C  
HETATM    2  C   UNL     1      -8.745  11.351  68.008  1.00  0.00    -0.148 C  
HETATM    3  C   UNL     1      -9.889  12.249  67.597  1.00  0.00    -0.196 C  
HETATM    4  N   UNL     1     -10.740  12.609  68.742  1.00  0.00    -0.230 NA 
HETATM    5  C   UNL     1     -10.487   5.285  66.621  1.00  0.00    -0.290 C  
HETATM    6  C   UNL     1     -11.291  11.408  69.429  1.00  0.00    -0.297 C  
HETATM    7  C   UNL     1     -10.257  10.338  69.826  1.00  0.00    -0.262 C  
HETATM    8  N   UNL     1      -9.971   6.426  67.334  1.00  0.00    -0.128 NA 
HETATM    9  C   UNL     1      -9.076   7.375  66.625  1.00  0.00    -0.154 C  
HETATM   10  C   UNL     1     -10.852   8.940  69.895  1.00  0.00    -0.219 A  
HETATM   11  C   UNL     1     -11.461   8.215  70.888  1.00  0.00    -0.288 A  
HETATM   12  C   UNL     1      -9.749   8.731  66.445  1.00  0.00    -0.265 C  
HETATM   13  N   UNL     1     -10.100   9.301  67.727  1.00  0.00    -0.191 NA 
HETATM   14  C   UNL     1     -10.581   8.338  68.661  1.00  0.00    -0.108 A  
HETATM   15  C   UNL     1     -11.713   6.855  70.631  1.00  0.00    -0.417 A  
HETATM   16  C   UNL     1     -11.278   6.224  69.430  1.00  0.00    -0.489 A  
HETATM   17  C   UNL     1     -10.649   6.964  68.435  1.00  0.00    -0.210 A  
ENDROOT
BRANCH   4  18
HETATM   18  C   UNL     1     -11.837  13.445  68.209  1.00  0.00    -0.358 C  
BRANCH  18  19
HETATM   19  C   UNL     1     -11.988  14.784  68.920  1.00  0.00    -0.298 C  
BRANCH  19  20
HETATM   20  C   UNL     1     -10.741  15.128  69.721  1.00  0.00    -0.288 C  
BRANCH  20  21
HETATM   21  C   UNL     1      -9.654  15.695  68.837  1.00  0.00    -0.224 C  
HETATM   22  O   UNL     1      -8.515  15.233  68.813  1.00  0.00    -0.157 OA 
BRANCH  21  23
HETATM   23  C   UNL     1      -9.992  16.854  67.965  1.00  0.00    -0.279 A  
HETATM   24  C   UNL     1     -10.469  17.669  65.733  1.00  0.00    -0.208 A  
HETATM   25  C   UNL     1     -10.161  16.618  66.593  1.00  0.00    -0.305 A  
HETATM   26  C   UNL     1     -10.605  18.955  66.245  1.00  0.00    -0.392 A  
HETATM   27  F   UNL     1     -10.892  19.965  65.418  1.00  0.00    -0.600 F  
HETATM   28  C   UNL     1     -10.140  18.156  68.469  1.00  0.00    -0.413 A  
HETATM   29  C   UNL     1     -10.446  19.207  67.603  1.00  0.00    -0.535 A  
ENDBRANCH  21  23
ENDBRANCH  20  21
ENDBRANCH  19  20
ENDBRANCH  18  19
ENDBRANCH   4  18
TORSDOF 5
ENDMDL
MODEL       59
REMARK 921   NORMALIZED FREE ENERGY PREDICTED BY IDOCK:   -6.15 KCAL/MOL
REMARK 922        TOTAL FREE ENERGY PREDICTED BY IDOCK:   -8.71 KCAL/MOL
REMARK 923 INTER-LIGAND FREE ENERGY PREDICTED BY IDOCK:   -7.30 KCAL/MOL
REMARK 924 INTRA-LIGAND FREE ENERGY PREDICTED BY IDOCK:   -1.41 KCAL/MOL
REMARK 927      BINDING AFFINITY PREDICTED BY RF-SCORE:    0.00 PKD
ROOT
HETATM    1  C   UNL     1     -11.539   8.775  70.819  1.00  0.00    -0.251 C  
HETATM    2  C   UNL     1     -12.940   8.763  71.379  1.00  0.00    -0.306 C  
HETATM    3  C   UNL     1     -13.238  10.071  72.075  1.00  0.00    -0.443 C  
HETATM    4  N   UNL     1     -13.100  11.218  71.163  1.00  0.00    -0.245 NA 
HETATM    5  C   UNL     1      -6.843   7.181  72.822  1.00  0.00    -0.068 C  
HETATM    6  C   UNL     1     -11.743  11.291  70.557  1.00  0.00    -0.247 C  
HETATM    7  C   UNL     1     -11.242   9.996  69.892  1.00  0.00    -0.327 C  
HETATM    8  N   UNL     1      -8.049   7.414  72.068  1.00  0.00    -0.093 NA 
HETATM    9  C   UNL     1      -9.343   6.924  72.608  1.00  0.00    -0.138 C  
HETATM   10  C   UNL     1      -9.725   9.882  69.888  1.00  0.00    -0.274 A  
HETATM   11  C   UNL     1      -8.744  10.291  69.020  1.00  0.00    -0.164 A  
HETATM   12  C   UNL     1     -10.249   8.087  72.997  1.00  0.00    -0.286 C  
HETATM   13  N   UNL     1     -10.518   8.929  71.852  1.00  0.00    -0.347 NA 
HETATM   14  C   UNL     1      -9.389   9.105  71.002  1.00  0.00    -0.263 A  
HETATM   15  C   UNL     1      -7.438   9.828  69.261  1.00  0.00    -0.090 A  
HETATM   16  C   UNL     1      -7.148   8.904  70.304  1.00  0.00    -0.049 A  
HETATM   17  C   UNL     1      -8.152   8.484  71.171  1.00  0.00    -0.133 A  
ENDROOT
BRANCH   4  18
HETATM   18  C   UNL     1     -13.373  12.431  71.964  1.00  0.00    -0.407 C  
BRANCH  18  19
HETATM   19  C   UNL     1     -12.427  13.588  71.667  1.00  0.00    -0.229 C  
BRANCH  19  20
HETATM   20  C   UNL     1     -13.027  14.543  70.645  1.00  0.00    -0.358 C  
BRANCH  20  21
HETATM   21  C   UNL     1     -11.954  15.206  69.812  1.00  0.00    -0.334 C  
HETATM   22  O   UNL     1     -11.526  16.331  70.061  1.00  0.00    -0.318 OA 
BRANCH  21  23
HETATM   23  C   UNL     1     -11.403  14.454  68.650  1.00  0.00    -0.298 A  
HETATM   24  C   UNL     1      -9.460  13.865  67.326  1.00  0.00    -0.239 A  
HETATM   25  C   UNL     1     -10.025  14.542  68.405  1.00  0.00    -0.241 A  
HETATM   26  C   UNL     1     -10.274  13.105  66.493  1.00  0.00    -0.277 A  
HETATM   27  F   UNL     1      -9.734  12.464  65.453  1.00  0.00    -0.251 F  
HETATM   28  C   UNL     1     -12.211  13.678  67.805  1.00  0.00    -0.201 A  
HETATM   29  C   UNL     1     -11.641  13.004  66.724  1.00  0.00    -0.420 A  
ENDBRANCH  21  23
ENDBRANCH  20  21
ENDBRANCH  19  20
ENDBRANCH  18  19
ENDBRANCH   4  18
TORSDOF 5
ENDMDL
MODEL       60
REMARK 921   NORMALIZED FREE ENERGY PREDICTED BY IDOCK:   -6.15 KCAL/MOL
REMARK 922        TOTAL FREE ENERGY PREDICTED BY IDOCK:   -8.70 KCAL/MOL
REMARK 923 INTER-LIGAND FREE ENERGY PREDICTED BY IDOCK:   -7.76 KCAL/MOL
REMARK 924 INTRA-LIGAND FREE ENERGY PREDICTED BY IDOCK:   -0.94 KCAL/MOL
REMARK 927      BINDING AFFINITY PREDICTED BY RF-SCORE:    0.00 PKD
ROOT
HETATM    1  C   UNL     1     -11.772  11.058  68.515  1.00  0.00    -0.278 C  
HETATM    2  C   UNL     1     -11.069  10.177  67.511  1.00  0.00    -0.251 C  
HETATM    3  C   UNL     1      -9.842   9.550  68.132  1.00  0.00    -0.155 C  
HETATM    4  N   UNL     1     -10.180   8.745  69.317  1.00  0.00    -0.206 NA 
HETATM    5  C   UNL     1     -11.378  16.273  69.633  1.00  0.00    -0.266 C  
HETATM    6  C   UNL     1     -10.891   9.545  70.352  1.00  0.00    -0.282 C  
HETATM    7  C   UNL     1     -12.116  10.334  69.856  1.00  0.00    -0.178 C  
HETATM    8  N   UNL     1     -11.768  14.933  69.276  1.00  0.00    -0.299 NA 
HETATM    9  C   UNL     1     -11.306  14.367  67.983  1.00  0.00    -0.294 C  
HETATM   10  C   UNL     1     -12.395  11.576  70.689  1.00  0.00    -0.457 A  
HETATM   11  C   UNL     1     -13.138  11.815  71.818  1.00  0.00    -0.480 A  
HETATM   12  C   UNL     1     -10.323  13.223  68.207  1.00  0.00    -0.249 C  
HETATM   13  N   UNL     1     -10.939  12.165  68.978  1.00  0.00    -0.226 NA 
HETATM   14  C   UNL     1     -11.788  12.643  70.017  1.00  0.00    -0.285 A  
HETATM   15  C   UNL     1     -13.318  13.158  72.197  1.00  0.00    -0.621 A  
HETATM   16  C   UNL     1     -12.831  14.235  71.404  1.00  0.00    -0.415 A  
HETATM   17  C   UNL     1     -12.090  13.983  70.254  1.00  0.00    -0.355 A  
ENDROOT
BRANCH   4  18
HETATM   18  C   UNL     1      -8.904   8.225  69.854  1.00  0.00    -0.138 C  
BRANCH  18  19
HETATM   19  C   UNL     1      -8.354   9.036  71.020  1.00  0.00    -0.237 C  
BRANCH  19  20
HETATM   20  C   UNL     1      -7.549   8.161  71.970  1.00  0.00    -0.129 C  
BRANCH  20  21
HETATM   21  C   UNL     1      -8.293   7.917  73.263  1.00  0.00    -0.193 C  
HETATM   22  O   UNL     1      -8.238   8.695  74.213  1.00  0.00    -0.317 OA 
BRANCH  21  23
HETATM   23  C   UNL     1      -9.124   6.686  73.373  1.00  0.00    -0.142 A  
HETATM   24  C   UNL     1     -11.306   5.658  73.132  1.00  0.00    -0.232 A  
HETATM   25  C   UNL     1     -10.483   6.778  73.038  1.00  0.00    -0.280 A  
HETATM   26  C   UNL     1     -10.771   4.450  73.563  1.00  0.00    -0.251 A  
HETATM   27  F   UNL     1     -11.562   3.378  73.662  1.00  0.00    -0.314 F  
HETATM   28  C   UNL     1      -8.596   5.459  73.800  1.00  0.00    -0.113 A  
HETATM   29  C   UNL     1      -9.425   4.339  73.895  1.00  0.00    -0.119 A  
ENDBRANCH  21  23
ENDBRANCH  20  21
ENDBRANCH  19  20
ENDBRANCH  18  19
ENDBRANCH   4  18
TORSDOF 5
ENDMDL
MODEL       61
REMARK 921   NORMALIZED FREE ENERGY PREDICTED BY IDOCK:   -6.14 KCAL/MOL
REMARK 922        TOTAL FREE ENERGY PREDICTED BY IDOCK:   -8.70 KCAL/MOL
REMARK 923 INTER-LIGAND FREE ENERGY PREDICTED BY IDOCK:   -7.68 KCAL/MOL
REMARK 924 INTRA-LIGAND FREE ENERGY PREDICTED BY IDOCK:   -1.02 KCAL/MOL
REMARK 927      BINDING AFFINITY PREDICTED BY RF-SCORE:    0.00 PKD
ROOT
HETATM    1  C   UNL     1     -11.058  10.835  67.818  1.00  0.00    -0.318 C  
HETATM    2  C   UNL     1     -11.701  12.071  67.240  1.00  0.00    -0.339 C  
HETATM    3  C   UNL     1     -10.835  13.282  67.499  1.00  0.00    -0.263 C  
HETATM    4  N   UNL     1      -9.492  13.129  66.918  1.00  0.00    -0.237 NA 
HETATM    5  C   UNL     1     -11.518   8.418  72.566  1.00  0.00    -0.352 C  
HETATM    6  C   UNL     1      -8.795  11.918  67.432  1.00  0.00    -0.171 C  
HETATM    7  C   UNL     1      -9.591  10.603  67.334  1.00  0.00    -0.180 C  
HETATM    8  N   UNL     1     -11.487   8.808  71.180  1.00  0.00    -0.273 NA 
HETATM    9  C   UNL     1     -12.516   9.751  70.673  1.00  0.00    -0.142 C  
HETATM   10  C   UNL     1      -9.187   9.589  68.395  1.00  0.00    -0.130 A  
HETATM   11  C   UNL     1      -8.238   8.600  68.450  1.00  0.00    -0.122 A  
HETATM   12  C   UNL     1     -11.892  11.089  70.292  1.00  0.00    -0.367 C  
HETATM   13  N   UNL     1     -10.887  10.910  69.266  1.00  0.00    -0.227 NA 
HETATM   14  C   UNL     1     -10.101   9.735  69.444  1.00  0.00    -0.209 A  
HETATM   15  C   UNL     1      -8.289   7.719  69.545  1.00  0.00    -0.129 A  
HETATM   16  C   UNL     1      -9.330   7.784  70.514  1.00  0.00    -0.163 A  
HETATM   17  C   UNL     1     -10.296   8.782  70.443  1.00  0.00    -0.199 A  
ENDROOT
BRANCH   4  18
HETATM   18  C   UNL     1      -8.734  14.348  67.274  1.00  0.00    -0.215 C  
BRANCH  18  19
HETATM   19  C   UNL     1      -8.770  14.681  68.760  1.00  0.00    -0.166 C  
BRANCH  19  20
HETATM   20  C   UNL     1      -9.019  16.165  68.988  1.00  0.00    -0.247 C  
BRANCH  20  21
HETATM   21  C   UNL     1     -10.496  16.483  68.998  1.00  0.00    -0.303 C  
HETATM   22  O   UNL     1     -11.035  17.143  68.112  1.00  0.00    -0.361 OA 
BRANCH  21  23
HETATM   23  C   UNL     1     -11.318  15.967  70.128  1.00  0.00    -0.369 A  
HETATM   24  C   UNL     1     -13.076  14.472  70.868  1.00  0.00    -0.405 A  
HETATM   25  C   UNL     1     -12.276  14.982  69.848  1.00  0.00    -0.351 A  
HETATM   26  C   UNL     1     -12.920  14.950  72.164  1.00  0.00    -0.334 A  
HETATM   27  F   UNL     1     -13.694  14.468  73.141  1.00  0.00    -0.494 F  
HETATM   28  C   UNL     1     -11.166  16.435  71.442  1.00  0.00     0.007 A  
HETATM   29  C   UNL     1     -11.972  15.923  72.461  1.00  0.00    -0.622 A  
ENDBRANCH  21  23
ENDBRANCH  20  21
ENDBRANCH  19  20
ENDBRANCH  18  19
ENDBRANCH   4  18
TORSDOF 5
ENDMDL
MODEL       62
REMARK 921   NORMALIZED FREE ENERGY PREDICTED BY IDOCK:   -6.13 KCAL/MOL
REMARK 922        TOTAL FREE ENERGY PREDICTED BY IDOCK:   -8.69 KCAL/MOL
REMARK 923 INTER-LIGAND FREE ENERGY PREDICTED BY IDOCK:   -8.12 KCAL/MOL
REMARK 924 INTRA-LIGAND FREE ENERGY PREDICTED BY IDOCK:   -0.57 KCAL/MOL
REMARK 927      BINDING AFFINITY PREDICTED BY RF-SCORE:    0.00 PKD
ROOT
HETATM    1  C   UNL     1      -8.332  15.700  66.832  1.00  0.00    -0.252 C  
HETATM    2  C   UNL     1      -8.057  14.242  67.106  1.00  0.00    -0.154 C  
HETATM    3  C   UNL     1      -9.022  13.712  68.141  1.00  0.00    -0.191 C  
HETATM    4  N   UNL     1     -10.421  13.860  67.710  1.00  0.00    -0.240 NA 
HETATM    5  C   UNL     1      -6.360  20.198  68.949  1.00  0.00    -0.323 C  
HETATM    6  C   UNL     1     -10.766  15.276  67.407  1.00  0.00    -0.293 C  
HETATM    7  C   UNL     1      -9.813  15.999  66.438  1.00  0.00    -0.308 C  
HETATM    8  N   UNL     1      -6.786  19.096  68.125  1.00  0.00    -0.234 NA 
HETATM    9  C   UNL     1      -6.076  17.797  68.236  1.00  0.00    -0.171 C  
HETATM   10  C   UNL     1      -9.780  17.504  66.657  1.00  0.00    -0.303 A  
HETATM   11  C   UNL     1     -10.513  18.552  66.160  1.00  0.00    -0.447 A  
HETATM   12  C   UNL     1      -6.984  16.728  68.834  1.00  0.00    -0.207 C  
HETATM   13  N   UNL     1      -8.161  16.540  68.014  1.00  0.00    -0.164 NA 
HETATM   14  C   UNL     1      -8.678  17.756  67.482  1.00  0.00    -0.239 A  
HETATM   15  C   UNL     1     -10.059  19.851  66.450  1.00  0.00    -0.615 A  
HETATM   16  C   UNL     1      -8.841  20.082  67.152  1.00  0.00    -0.429 A  
HETATM   17  C   UNL     1      -8.097  19.013  67.640  1.00  0.00    -0.269 A  
ENDROOT
BRANCH   4  18
HETATM   18  C   UNL     1     -11.261  13.350  68.816  1.00  0.00    -0.275 C  
BRANCH  18  19
HETATM   19  C   UNL     1     -12.114  12.148  68.433  1.00  0.00    -0.096 C  
BRANCH  19  20
HETATM   20  C   UNL     1     -11.360  11.208  67.503  1.00  0.00    -0.351 C  
BRANCH  20  21
HETATM   21  C   UNL     1     -11.506  11.626  66.058  1.00  0.00    -0.125 C  
HETATM   22  O   UNL     1     -12.448  12.309  65.660  1.00  0.00    -0.591 OA 
BRANCH  21  23
HETATM   23  C   UNL     1     -10.460  11.189  65.092  1.00  0.00    -0.341 A  
HETATM   24  C   UNL     1      -8.245  10.268  64.749  1.00  0.00    -0.163 A  
HETATM   25  C   UNL     1      -9.259  10.681  65.609  1.00  0.00    -0.227 A  
HETATM   26  C   UNL     1      -8.430  10.365  63.375  1.00  0.00    -0.174 A  
HETATM   27  F   UNL     1      -7.454   9.976  62.550  1.00  0.00    -0.111 F  
HETATM   28  C   UNL     1     -10.636  11.275  63.703  1.00  0.00    -0.453 A  
HETATM   29  C   UNL     1      -9.616  10.861  62.844  1.00  0.00    -0.371 A  
ENDBRANCH  21  23
ENDBRANCH  20  21
ENDBRANCH  19  20
ENDBRANCH  18  19
ENDBRANCH   4  18
TORSDOF 5
ENDMDL
MODEL       63
REMARK 921   NORMALIZED FREE ENERGY PREDICTED BY IDOCK:   -6.13 KCAL/MOL
REMARK 922        TOTAL FREE ENERGY PREDICTED BY IDOCK:   -8.68 KCAL/MOL
REMARK 923 INTER-LIGAND FREE ENERGY PREDICTED BY IDOCK:   -8.16 KCAL/MOL
REMARK 924 INTRA-LIGAND FREE ENERGY PREDICTED BY IDOCK:   -0.52 KCAL/MOL
REMARK 927      BINDING AFFINITY PREDICTED BY RF-SCORE:    0.00 PKD
ROOT
HETATM    1  C   UNL     1     -10.393  16.472  68.773  1.00  0.00    -0.286 C  
HETATM    2  C   UNL     1     -11.782  15.897  68.640  1.00  0.00    -0.328 C  
HETATM    3  C   UNL     1     -11.741  14.603  67.861  1.00  0.00    -0.351 C  
HETATM    4  N   UNL     1     -10.873  13.604  68.505  1.00  0.00    -0.250 NA 
HETATM    5  C   UNL     1      -7.637  19.964  65.804  1.00  0.00    -0.297 C  
HETATM    6  C   UNL     1      -9.482  14.105  68.685  1.00  0.00    -0.163 C  
HETATM    7  C   UNL     1      -9.354  15.474  69.377  1.00  0.00    -0.279 C  
HETATM    8  N   UNL     1      -8.338  19.221  66.821  1.00  0.00    -0.282 NA 
HETATM    9  C   UNL     1      -9.818  19.124  66.751  1.00  0.00    -0.342 C  
HETATM   10  C   UNL     1      -8.094  16.226  68.971  1.00  0.00    -0.236 A  
HETATM   11  C   UNL     1      -6.810  16.256  69.452  1.00  0.00    -0.213 A  
HETATM   12  C   UNL     1     -10.259  17.694  66.457  1.00  0.00    -0.355 C  
HETATM   13  N   UNL     1      -9.787  16.793  67.484  1.00  0.00    -0.250 NA 
HETATM   14  C   UNL     1      -8.473  17.096  67.943  1.00  0.00    -0.212 A  
HETATM   15  C   UNL     1      -5.949  17.237  68.929  1.00  0.00    -0.176 A  
HETATM   16  C   UNL     1      -6.404  18.220  68.004  1.00  0.00    -0.185 A  
HETATM   17  C   UNL     1      -7.712  18.190  67.531  1.00  0.00    -0.218 A  
ENDROOT
BRANCH   4  18
HETATM   18  C   UNL     1     -10.881  12.410  67.634  1.00  0.00    -0.225 C  
BRANCH  18  19
HETATM   19  C   UNL     1     -11.493  11.178  68.289  1.00  0.00    -0.373 C  
BRANCH  19  20
HETATM   20  C   UNL     1     -10.847  10.890  69.636  1.00  0.00    -0.271 C  
BRANCH  20  21
HETATM   21  C   UNL     1     -11.853  10.357  70.630  1.00  0.00    -0.350 C  
HETATM   22  O   UNL     1     -12.899  10.948  70.892  1.00  0.00    -0.346 OA 
BRANCH  21  23
HETATM   23  C   UNL     1     -11.555   9.063  71.305  1.00  0.00    -0.387 A  
HETATM   24  C   UNL     1     -12.332   6.859  71.944  1.00  0.00    -0.364 A  
HETATM   25  C   UNL     1     -12.557   8.082  71.318  1.00  0.00    -0.254 A  
HETATM   26  C   UNL     1     -11.109   6.618  72.558  1.00  0.00    -0.261 A  
HETATM   27  F   UNL     1     -10.896   5.448  73.167  1.00  0.00    -0.230 F  
HETATM   28  C   UNL     1     -10.322   8.805  71.923  1.00  0.00    -0.414 A  
HETATM   29  C   UNL     1     -10.102   7.578  72.551  1.00  0.00    -0.262 A  
ENDBRANCH  21  23
ENDBRANCH  20  21
ENDBRANCH  19  20
ENDBRANCH  18  19
ENDBRANCH   4  18
TORSDOF 5
ENDMDL
MODEL       64
REMARK 921   NORMALIZED FREE ENERGY PREDICTED BY IDOCK:   -6.10 KCAL/MOL
REMARK 922        TOTAL FREE ENERGY PREDICTED BY IDOCK:   -8.64 KCAL/MOL
REMARK 923 INTER-LIGAND FREE ENERGY PREDICTED BY IDOCK:   -7.48 KCAL/MOL
REMARK 924 INTRA-LIGAND FREE ENERGY PREDICTED BY IDOCK:   -1.17 KCAL/MOL
REMARK 927      BINDING AFFINITY PREDICTED BY RF-SCORE:    0.00 PKD
ROOT
HETATM    1  C   UNL     1      -9.402  11.971  66.979  1.00  0.00    -0.191 C  
HETATM    2  C   UNL     1      -8.629  11.209  68.027  1.00  0.00    -0.140 C  
HETATM    3  C   UNL     1      -9.500  10.950  69.235  1.00  0.00    -0.026 C  
HETATM    4  N   UNL     1     -10.707  10.185  68.884  1.00  0.00    -0.213 NA 
HETATM    5  C   UNL     1      -9.935  17.198  65.982  1.00  0.00    -0.253 C  
HETATM    6  C   UNL     1     -11.519  10.868  67.840  1.00  0.00    -0.266 C  
HETATM    7  C   UNL     1     -10.751  11.295  66.576  1.00  0.00    -0.323 C  
HETATM    8  N   UNL     1      -9.686  15.779  65.974  1.00  0.00    -0.318 NA 
HETATM    9  C   UNL     1      -8.555  15.241  66.773  1.00  0.00    -0.265 C  
HETATM   10  C   UNL     1     -11.377  12.495  65.881  1.00  0.00    -0.380 A  
HETATM   11  C   UNL     1     -12.342  12.637  64.916  1.00  0.00    -0.563 A  
HETATM   12  C   UNL     1      -9.062  14.390  67.932  1.00  0.00    -0.187 C  
HETATM   13  N   UNL     1      -9.850  13.280  67.445  1.00  0.00    -0.223 NA 
HETATM   14  C   UNL     1     -10.683  13.619  66.340  1.00  0.00    -0.281 A  
HETATM   15  C   UNL     1     -12.527  13.921  64.374  1.00  0.00    -0.321 A  
HETATM   16  C   UNL     1     -11.694  15.017  64.737  1.00  0.00    -0.370 A  
HETATM   17  C   UNL     1     -10.709  14.861  65.707  1.00  0.00    -0.331 A  
ENDROOT
BRANCH   4  18
HETATM   18  C   UNL     1     -11.491  10.034  70.129  1.00  0.00    -0.277 C  
BRANCH  18  19
HETATM   19  C   UNL     1     -10.827   9.138  71.167  1.00  0.00    -0.381 C  
BRANCH  19  20
HETATM   20  C   UNL     1     -11.552   7.806  71.291  1.00  0.00    -0.301 C  
BRANCH  20  21
HETATM   21  C   UNL     1     -10.744   6.678  70.693  1.00  0.00    -0.241 C  
HETATM   22  O   UNL     1     -10.512   5.636  71.304  1.00  0.00    -0.219 OA 
BRANCH  21  23
HETATM   23  C   UNL     1     -10.218   6.848  69.310  1.00  0.00    -0.197 A  
HETATM   24  C   UNL     1      -8.332   7.385  67.887  1.00  0.00    -0.119 A  
HETATM   25  C   UNL     1      -8.870   7.205  69.159  1.00  0.00    -0.135 A  
HETATM   26  C   UNL     1      -9.140   7.211  66.769  1.00  0.00    -0.147 A  
HETATM   27  F   UNL     1      -8.626   7.392  65.550  1.00  0.00    -0.138 F  
HETATM   28  C   UNL     1     -11.021   6.668  68.174  1.00  0.00    -0.323 A  
HETATM   29  C   UNL     1     -10.477   6.852  66.901  1.00  0.00    -0.349 A  
ENDBRANCH  21  23
ENDBRANCH  20  21
ENDBRANCH  19  20
ENDBRANCH  18  19
ENDBRANCH   4  18
TORSDOF 5
ENDMDL
MODEL       65
REMARK 921   NORMALIZED FREE ENERGY PREDICTED BY IDOCK:   -6.10 KCAL/MOL
REMARK 922        TOTAL FREE ENERGY PREDICTED BY IDOCK:   -8.64 KCAL/MOL
REMARK 923 INTER-LIGAND FREE ENERGY PREDICTED BY IDOCK:   -7.70 KCAL/MOL
REMARK 924 INTRA-LIGAND FREE ENERGY PREDICTED BY IDOCK:   -0.95 KCAL/MOL
REMARK 927      BINDING AFFINITY PREDICTED BY RF-SCORE:    0.00 PKD
ROOT
HETATM    1  C   UNL     1      -9.869  11.729  65.797  1.00  0.00    -0.240 C  
HETATM    2  C   UNL     1     -11.174  12.205  65.207  1.00  0.00    -0.381 C  
HETATM    3  C   UNL     1     -11.924  13.051  66.209  1.00  0.00    -0.414 C  
HETATM    4  N   UNL     1     -11.139  14.221  66.633  1.00  0.00    -0.314 NA 
HETATM    5  C   UNL     1      -8.526   7.291  68.463  1.00  0.00    -0.125 C  
HETATM    6  C   UNL     1      -9.826  13.832  67.217  1.00  0.00    -0.241 C  
HETATM    7  C   UNL     1      -8.974  12.880  66.358  1.00  0.00    -0.017 C  
HETATM    8  N   UNL     1      -8.680   8.398  67.553  1.00  0.00    -0.135 NA 
HETATM    9  C   UNL     1      -9.895   8.468  66.703  1.00  0.00    -0.272 C  
HETATM   10  C   UNL     1      -8.034  12.018  67.187  1.00  0.00    -0.175 A  
HETATM   11  C   UNL     1      -6.752  12.183  67.648  1.00  0.00    -0.118 A  
HETATM   12  C   UNL     1     -10.777   9.645  67.105  1.00  0.00    -0.188 C  
HETATM   13  N   UNL     1     -10.055  10.891  66.979  1.00  0.00    -0.198 NA 
HETATM   14  C   UNL     1      -8.692  10.798  67.383  1.00  0.00    -0.126 A  
HETATM   15  C   UNL     1      -6.129  11.066  68.233  1.00  0.00    -0.049 A  
HETATM   16  C   UNL     1      -6.758   9.789  68.271  1.00  0.00    -0.060 A  
HETATM   17  C   UNL     1      -8.053   9.628  67.790  1.00  0.00    -0.113 A  
ENDROOT
BRANCH   4  18
HETATM   18  C   UNL     1     -11.956  14.939  67.636  1.00  0.00    -0.145 C  
BRANCH  18  19
HETATM   19  C   UNL     1     -11.158  15.914  68.492  1.00  0.00    -0.340 C  
BRANCH  19  20
HETATM   20  C   UNL     1     -10.986  15.392  69.911  1.00  0.00    -0.305 C  
BRANCH  20  21
HETATM   21  C   UNL     1     -12.308  14.966  70.507  1.00  0.00    -0.342 C  
HETATM   22  O   UNL     1     -13.217  15.762  70.734  1.00  0.00    -0.542 OA 
BRANCH  21  23
HETATM   23  C   UNL     1     -12.503  13.523  70.823  1.00  0.00    -0.428 A  
HETATM   24  C   UNL     1     -11.956  11.220  70.303  1.00  0.00    -0.466 A  
HETATM   25  C   UNL     1     -11.802  12.582  70.055  1.00  0.00    -0.363 A  
HETATM   26  C   UNL     1     -12.811  10.801  71.317  1.00  0.00    -0.438 A  
HETATM   27  F   UNL     1     -12.965   9.495  71.550  1.00  0.00    -0.352 F  
HETATM   28  C   UNL     1     -13.356  13.087  71.848  1.00  0.00    -0.539 A  
HETATM   29  C   UNL     1     -13.509  11.721  72.092  1.00  0.00    -0.273 A  
ENDBRANCH  21  23
ENDBRANCH  20  21
ENDBRANCH  19  20
ENDBRANCH  18  19
ENDBRANCH   4  18
TORSDOF 5
ENDMDL
MODEL       66
REMARK 921   NORMALIZED FREE ENERGY PREDICTED BY IDOCK:   -6.09 KCAL/MOL
REMARK 922        TOTAL FREE ENERGY PREDICTED BY IDOCK:   -8.63 KCAL/MOL
REMARK 923 INTER-LIGAND FREE ENERGY PREDICTED BY IDOCK:   -7.75 KCAL/MOL
REMARK 924 INTRA-LIGAND FREE ENERGY PREDICTED BY IDOCK:   -0.88 KCAL/MOL
REMARK 927      BINDING AFFINITY PREDICTED BY RF-SCORE:    0.00 PKD
ROOT
HETATM    1  C   UNL     1      -7.926  11.588  67.018  1.00  0.00    -0.161 C  
HETATM    2  C   UNL     1      -7.246  11.533  68.364  1.00  0.00    -0.089 C  
HETATM    3  C   UNL     1      -7.590  10.243  69.072  1.00  0.00    -0.102 C  
HETATM    4  N   UNL     1      -7.187   9.065  68.287  1.00  0.00    -0.078 NA 
HETATM    5  C   UNL     1     -12.623  13.592  65.430  1.00  0.00    -0.483 C  
HETATM    6  C   UNL     1      -7.809   9.055  66.935  1.00  0.00    -0.101 C  
HETATM    7  C   UNL     1      -7.637  10.347  66.115  1.00  0.00    -0.130 C  
HETATM    8  N   UNL     1     -11.245  13.241  65.660  1.00  0.00    -0.284 NA 
HETATM    9  C   UNL     1     -10.593  13.669  66.924  1.00  0.00    -0.271 C  
HETATM   10  C   UNL     1      -8.759  10.563  65.111  1.00  0.00    -0.197 A  
HETATM   11  C   UNL     1      -8.954  10.180  63.807  1.00  0.00    -0.270 A  
HETATM   12  C   UNL     1     -10.268  12.467  67.805  1.00  0.00    -0.217 C  
HETATM   13  N   UNL     1      -9.382  11.555  67.116  1.00  0.00    -0.170 NA 
HETATM   14  C   UNL     1      -9.681  11.414  65.731  1.00  0.00    -0.233 A  
HETATM   15  C   UNL     1     -10.051  10.740  63.129  1.00  0.00    -0.268 A  
HETATM   16  C   UNL     1     -10.878  11.732  63.728  1.00  0.00    -0.490 A  
HETATM   17  C   UNL     1     -10.665  12.124  65.045  1.00  0.00    -0.297 A  
ENDROOT
BRANCH   4  18
HETATM   18  C   UNL     1      -7.612   7.877  69.058  1.00  0.00    -0.099 C  
BRANCH  18  19
HETATM   19  C   UNL     1      -8.831   8.121  69.938  1.00  0.00    -0.139 C  
BRANCH  19  20
HETATM   20  C   UNL     1     -10.100   7.591  69.284  1.00  0.00    -0.188 C  
BRANCH  20  21
HETATM   21  C   UNL     1     -11.233   7.489  70.278  1.00  0.00    -0.236 C  
HETATM   22  O   UNL     1     -11.655   6.410  70.688  1.00  0.00    -0.356 OA 
BRANCH  21  23
HETATM   23  C   UNL     1     -11.849   8.751  70.772  1.00  0.00    -0.209 A  
HETATM   24  C   UNL     1     -13.407   9.811  72.297  1.00  0.00    -0.472 A  
HETATM   25  C   UNL     1     -12.795   8.661  71.805  1.00  0.00    -0.397 A  
HETATM   26  C   UNL     1     -13.077  11.048  71.756  1.00  0.00    -0.449 A  
HETATM   27  F   UNL     1     -13.671  12.150  72.222  1.00  0.00    -0.535 F  
HETATM   28  C   UNL     1     -11.520  10.007  70.240  1.00  0.00    -0.372 A  
HETATM   29  C   UNL     1     -12.138  11.157  70.736  1.00  0.00    -0.458 A  
ENDBRANCH  21  23
ENDBRANCH  20  21
ENDBRANCH  19  20
ENDBRANCH  18  19
ENDBRANCH   4  18
TORSDOF 5
ENDMDL
MODEL       67
REMARK 921   NORMALIZED FREE ENERGY PREDICTED BY IDOCK:   -6.09 KCAL/MOL
REMARK 922        TOTAL FREE ENERGY PREDICTED BY IDOCK:   -8.63 KCAL/MOL
REMARK 923 INTER-LIGAND FREE ENERGY PREDICTED BY IDOCK:   -8.03 KCAL/MOL
REMARK 924 INTRA-LIGAND FREE ENERGY PREDICTED BY IDOCK:   -0.60 KCAL/MOL
REMARK 927      BINDING AFFINITY PREDICTED BY RF-SCORE:    0.00 PKD
ROOT
HETATM    1  C   UNL     1     -11.702  12.411  67.576  1.00  0.00    -0.357 C  
HETATM    2  C   UNL     1     -11.242  11.441  66.515  1.00  0.00    -0.276 C  
HETATM    3  C   UNL     1     -10.045  10.659  67.004  1.00  0.00    -0.211 C  
HETATM    4  N   UNL     1     -10.346   9.910  68.234  1.00  0.00    -0.190 NA 
HETATM    5  C   UNL     1     -10.502  17.532  68.544  1.00  0.00    -0.361 C  
HETATM    6  C   UNL     1     -10.822  10.800  69.329  1.00  0.00    -0.242 C  
HETATM    7  C   UNL     1     -11.982  11.743  68.960  1.00  0.00    -0.341 C  
HETATM    8  N   UNL     1     -11.103  16.253  68.259  1.00  0.00    -0.352 NA 
HETATM    9  C   UNL     1     -10.871  15.627  66.933  1.00  0.00    -0.282 C  
HETATM   10  C   UNL     1     -11.998  13.014  69.797  1.00  0.00    -0.377 A  
HETATM   11  C   UNL     1     -12.568  13.354  70.998  1.00  0.00    -0.425 A  
HETATM   12  C   UNL     1     -10.028  14.364  67.065  1.00  0.00    -0.257 C  
HETATM   13  N   UNL     1     -10.684  13.399  67.920  1.00  0.00    -0.242 NA 
HETATM   14  C   UNL     1     -11.338  13.989  69.040  1.00  0.00    -0.281 A  
HETATM   15  C   UNL     1     -12.526  14.709  71.370  1.00  0.00    -0.410 A  
HETATM   16  C   UNL     1     -11.996  15.710  70.506  1.00  0.00    -0.417 A  
HETATM   17  C   UNL     1     -11.432  15.358  69.285  1.00  0.00    -0.333 A  
ENDROOT
BRANCH   4  18
HETATM   18  C   UNL     1      -9.096   9.228  68.632  1.00  0.00    -0.132 C  
BRANCH  18  19
HETATM   19  C   UNL     1      -9.251   7.724  68.818  1.00  0.00    -0.139 C  
BRANCH  19  20
HETATM   20  C   UNL     1     -10.553   7.386  69.529  1.00  0.00    -0.244 C  
BRANCH  20  21
HETATM   21  C   UNL     1     -10.352   7.257  71.021  1.00  0.00    -0.199 C  
HETATM   22  O   UNL     1     -10.137   8.228  71.744  1.00  0.00    -0.188 OA 
BRANCH  21  23
HETATM   23  C   UNL     1     -10.423   5.897  71.624  1.00  0.00    -0.285 A  
HETATM   24  C   UNL     1     -11.342   4.467  73.352  1.00  0.00    -0.376 A  
HETATM   25  C   UNL     1     -11.247   5.718  72.745  1.00  0.00    -0.336 A  
HETATM   26  C   UNL     1     -10.613   3.400  72.839  1.00  0.00    -0.123 A  
HETATM   27  F   UNL     1     -10.697   2.203  73.427  1.00  0.00    -0.178 F  
HETATM   28  C   UNL     1      -9.699   4.810  71.113  1.00  0.00    -0.249 A  
HETATM   29  C   UNL     1      -9.795   3.559  71.726  1.00  0.00    -0.230 A  
ENDBRANCH  21  23
ENDBRANCH  20  21
ENDBRANCH  19  20
ENDBRANCH  18  19
ENDBRANCH   4  18
TORSDOF 5
ENDMDL
MODEL       68
REMARK 921   NORMALIZED FREE ENERGY PREDICTED BY IDOCK:   -6.07 KCAL/MOL
REMARK 922        TOTAL FREE ENERGY PREDICTED BY IDOCK:   -8.61 KCAL/MOL
REMARK 923 INTER-LIGAND FREE ENERGY PREDICTED BY IDOCK:   -6.65 KCAL/MOL
REMARK 924 INTRA-LIGAND FREE ENERGY PREDICTED BY IDOCK:   -1.96 KCAL/MOL
REMARK 927      BINDING AFFINITY PREDICTED BY RF-SCORE:    0.00 PKD
ROOT
HETATM    1  C   UNL     1     -10.800  10.239  67.106  1.00  0.00    -0.212 C  
HETATM    2  C   UNL     1     -10.072   8.974  66.725  1.00  0.00    -0.344 C  
HETATM    3  C   UNL     1      -8.593   9.117  67.002  1.00  0.00    -0.123 C  
HETATM    4  N   UNL     1      -8.328   9.409  68.419  1.00  0.00    -0.118 NA 
HETATM    5  C   UNL     1     -12.120  14.615  64.330  1.00  0.00    -0.462 C  
HETATM    6  C   UNL     1      -9.027  10.641  68.877  1.00  0.00    -0.168 C  
HETATM    7  C   UNL     1     -10.536  10.699  68.575  1.00  0.00    -0.212 C  
HETATM    8  N   UNL     1     -12.057  13.413  65.122  1.00  0.00    -0.384 NA 
HETATM    9  C   UNL     1     -11.727  12.128  64.456  1.00  0.00    -0.338 C  
HETATM   10  C   UNL     1     -11.056  12.122  68.437  1.00  0.00    -0.289 A  
HETATM   11  C   UNL     1     -11.556  13.041  69.325  1.00  0.00    -0.367 A  
HETATM   12  C   UNL     1     -10.368  11.608  64.912  1.00  0.00    -0.283 C  
HETATM   13  N   UNL     1     -10.355  11.401  66.343  1.00  0.00    -0.234 NA 
HETATM   14  C   UNL     1     -11.058  12.406  67.067  1.00  0.00    -0.278 A  
HETATM   15  C   UNL     1     -12.128  14.209  68.789  1.00  0.00    -0.326 A  
HETATM   16  C   UNL     1     -12.269  14.401  67.385  1.00  0.00    -0.230 A  
HETATM   17  C   UNL     1     -11.772  13.458  66.492  1.00  0.00    -0.373 A  
ENDROOT
BRANCH   4  18
HETATM   18  C   UNL     1      -6.864   9.568  68.553  1.00  0.00    -0.061 C  
BRANCH  18  19
HETATM   19  C   UNL     1      -6.452  10.746  69.426  1.00  0.00    -0.076 C  
BRANCH  19  20
HETATM   20  C   UNL     1      -6.148  11.977  68.586  1.00  0.00    -0.053 C  
BRANCH  20  21
HETATM   21  C   UNL     1      -6.503  13.250  69.320  1.00  0.00    -0.107 C  
HETATM   22  O   UNL     1      -6.050  13.520  70.430  1.00  0.00    -0.151 OA 
BRANCH  21  23
HETATM   23  C   UNL     1      -7.436  14.204  68.658  1.00  0.00    -0.125 A  
HETATM   24  C   UNL     1      -8.917  16.110  68.881  1.00  0.00    -0.247 A  
HETATM   25  C   UNL     1      -8.030  15.198  69.449  1.00  0.00    -0.205 A  
HETATM   26  C   UNL     1      -9.210  16.025  67.525  1.00  0.00    -0.211 A  
HETATM   27  F   UNL     1     -10.067  16.894  66.982  1.00  0.00    -0.259 F  
HETATM   28  C   UNL     1      -7.735  14.135  67.289  1.00  0.00    -0.132 A  
HETATM   29  C   UNL     1      -8.627  15.050  66.724  1.00  0.00    -0.279 A  
ENDBRANCH  21  23
ENDBRANCH  20  21
ENDBRANCH  19  20
ENDBRANCH  18  19
ENDBRANCH   4  18
TORSDOF 5
ENDMDL
MODEL       69
REMARK 921   NORMALIZED FREE ENERGY PREDICTED BY IDOCK:   -6.06 KCAL/MOL
REMARK 922        TOTAL FREE ENERGY PREDICTED BY IDOCK:   -8.59 KCAL/MOL
REMARK 923 INTER-LIGAND FREE ENERGY PREDICTED BY IDOCK:   -7.44 KCAL/MOL
REMARK 924 INTRA-LIGAND FREE ENERGY PREDICTED BY IDOCK:   -1.15 KCAL/MOL
REMARK 927      BINDING AFFINITY PREDICTED BY RF-SCORE:    0.00 PKD
ROOT
HETATM    1  C   UNL     1     -11.459  12.056  66.557  1.00  0.00    -0.349 C  
HETATM    2  C   UNL     1     -10.983  11.375  65.298  1.00  0.00    -0.251 C  
HETATM    3  C   UNL     1      -9.709  10.607  65.567  1.00  0.00    -0.237 C  
HETATM    4  N   UNL     1      -9.894   9.592  66.616  1.00  0.00    -0.213 NA 
HETATM    5  C   UNL     1     -10.588  16.934  68.569  1.00  0.00    -0.367 C  
HETATM    6  C   UNL     1     -10.379  10.187  67.891  1.00  0.00    -0.194 C  
HETATM    7  C   UNL     1     -11.621  11.089  67.773  1.00  0.00    -0.277 C  
HETATM    8  N   UNL     1     -11.108  15.701  68.034  1.00  0.00    -0.325 NA 
HETATM    9  C   UNL     1     -10.896  15.393  66.597  1.00  0.00    -0.302 C  
HETATM   10  C   UNL     1     -11.688  12.147  68.864  1.00  0.00    -0.381 A  
HETATM   11  C   UNL     1     -12.222  12.176  70.128  1.00  0.00    -0.308 A  
HETATM   12  C   UNL     1      -9.958  14.203  66.426  1.00  0.00    -0.293 C  
HETATM   13  N   UNL     1     -10.500  13.028  67.073  1.00  0.00    -0.246 NA 
HETATM   14  C   UNL     1     -11.139  13.311  68.315  1.00  0.00    -0.266 A  
HETATM   15  C   UNL     1     -12.259  13.420  70.783  1.00  0.00    -0.409 A  
HETATM   16  C   UNL     1     -11.848  14.621  70.139  1.00  0.00    -0.365 A  
HETATM   17  C   UNL     1     -11.320  14.585  68.853  1.00  0.00    -0.274 A  
ENDROOT
BRANCH   4  18
HETATM   18  C   UNL     1      -8.580   8.944  66.816  1.00  0.00    -0.115 C  
BRANCH  18  19
HETATM   19  C   UNL     1      -8.458   7.583  66.144  1.00  0.00    -0.147 C  
BRANCH  19  20
HETATM   20  C   UNL     1      -9.480   6.600  66.696  1.00  0.00    -0.201 C  
BRANCH  20  21
HETATM   21  C   UNL     1      -9.081   6.099  68.065  1.00  0.00    -0.114 C  
HETATM   22  O   UNL     1      -8.325   5.144  68.223  1.00  0.00    -0.096 OA 
BRANCH  21  23
HETATM   23  C   UNL     1      -9.632   6.802  69.257  1.00  0.00    -0.144 A  
HETATM   24  C   UNL     1      -9.191   8.109  71.250  1.00  0.00    -0.193 A  
HETATM   25  C   UNL     1      -8.728   7.445  70.116  1.00  0.00    -0.143 A  
HETATM   26  C   UNL     1     -10.553   8.127  71.525  1.00  0.00    -0.228 A  
HETATM   27  F   UNL     1     -10.996   8.756  72.617  1.00  0.00    -0.384 F  
HETATM   28  C   UNL     1     -11.005   6.834  69.543  1.00  0.00    -0.325 A  
HETATM   29  C   UNL     1     -11.463   7.499  70.682  1.00  0.00    -0.291 A  
ENDBRANCH  21  23
ENDBRANCH  20  21
ENDBRANCH  19  20
ENDBRANCH  18  19
ENDBRANCH   4  18
TORSDOF 5
ENDMDL
MODEL       70
REMARK 921   NORMALIZED FREE ENERGY PREDICTED BY IDOCK:   -6.06 KCAL/MOL
REMARK 922        TOTAL FREE ENERGY PREDICTED BY IDOCK:   -8.59 KCAL/MOL
REMARK 923 INTER-LIGAND FREE ENERGY PREDICTED BY IDOCK:   -8.02 KCAL/MOL
REMARK 924 INTRA-LIGAND FREE ENERGY PREDICTED BY IDOCK:   -0.57 KCAL/MOL
REMARK 927      BINDING AFFINITY PREDICTED BY RF-SCORE:    0.00 PKD
ROOT
HETATM    1  C   UNL     1      -9.139   9.715  66.517  1.00  0.00    -0.154 C  
HETATM    2  C   UNL     1      -9.835  10.273  65.300  1.00  0.00    -0.372 C  
HETATM    3  C   UNL     1     -10.924  11.235  65.715  1.00  0.00    -0.145 C  
HETATM    4  N   UNL     1     -10.392  12.352  66.512  1.00  0.00    -0.226 NA 
HETATM    5  C   UNL     1      -9.977   5.325  69.454  1.00  0.00    -0.218 C  
HETATM    6  C   UNL     1      -9.675  11.880  67.728  1.00  0.00    -0.189 C  
HETATM    7  C   UNL     1      -8.594  10.811  67.488  1.00  0.00    -0.125 C  
HETATM    8  N   UNL     1      -9.483   6.391  68.620  1.00  0.00    -0.123 NA 
HETATM    9  C   UNL     1     -10.003   6.523  67.236  1.00  0.00    -0.147 C  
HETATM   10  C   UNL     1      -8.371   9.914  68.697  1.00  0.00    -0.110 A  
HETATM   11  C   UNL     1      -7.554   9.989  69.797  1.00  0.00    -0.167 A  
HETATM   12  C   UNL     1     -10.832   7.793  67.082  1.00  0.00    -0.156 C  
HETATM   13  N   UNL     1     -10.037   8.962  67.388  1.00  0.00    -0.208 NA 
HETATM   14  C   UNL     1      -9.148   8.771  68.485  1.00  0.00    -0.138 A  
HETATM   15  C   UNL     1      -7.482   8.854  70.625  1.00  0.00    -0.091 A  
HETATM   16  C   UNL     1      -8.154   7.642  70.298  1.00  0.00    -0.114 A  
HETATM   17  C   UNL     1      -8.970   7.571  69.173  1.00  0.00    -0.135 A  
ENDROOT
BRANCH   4  18
HETATM   18  C   UNL     1     -11.549  13.192  66.889  1.00  0.00    -0.368 C  
BRANCH  18  19
HETATM   19  C   UNL     1     -11.870  14.285  65.877  1.00  0.00    -0.386 C  
BRANCH  19  20
HETATM   20  C   UNL     1     -10.602  14.956  65.368  1.00  0.00    -0.391 C  
BRANCH  20  21
HETATM   21  C   UNL     1     -10.820  16.430  65.118  1.00  0.00    -0.275 C  
HETATM   22  O   UNL     1     -11.240  16.863  64.047  1.00  0.00    -1.037 OA 
BRANCH  21  23
HETATM   23  C   UNL     1     -10.513  17.382  66.222  1.00  0.00    -0.276 A  
HETATM   24  C   UNL     1      -9.827  17.696  68.525  1.00  0.00    -0.346 A  
HETATM   25  C   UNL     1     -10.117  16.850  67.458  1.00  0.00    -0.282 A  
HETATM   26  C   UNL     1      -9.935  19.072  68.357  1.00  0.00    -0.408 A  
HETATM   27  F   UNL     1      -9.666  19.884  69.384  1.00  0.00    -0.406 F  
HETATM   28  C   UNL     1     -10.611  18.773  66.064  1.00  0.00    -0.442 A  
HETATM   29  C   UNL     1     -10.321  19.617  67.138  1.00  0.00    -0.581 A  
ENDBRANCH  21  23
ENDBRANCH  20  21
ENDBRANCH  19  20
ENDBRANCH  18  19
ENDBRANCH   4  18
TORSDOF 5
ENDMDL
MODEL       71
REMARK 921   NORMALIZED FREE ENERGY PREDICTED BY IDOCK:   -6.03 KCAL/MOL
REMARK 922        TOTAL FREE ENERGY PREDICTED BY IDOCK:   -8.55 KCAL/MOL
REMARK 923 INTER-LIGAND FREE ENERGY PREDICTED BY IDOCK:   -7.90 KCAL/MOL
REMARK 924 INTRA-LIGAND FREE ENERGY PREDICTED BY IDOCK:   -0.66 KCAL/MOL
REMARK 927      BINDING AFFINITY PREDICTED BY RF-SCORE:    0.00 PKD
ROOT
HETATM    1  C   UNL     1     -11.005  10.013  68.736  1.00  0.00    -0.202 C  
HETATM    2  C   UNL     1     -11.358  11.444  69.059  1.00  0.00    -0.345 C  
HETATM    3  C   UNL     1     -10.457  12.390  68.300  1.00  0.00    -0.225 C  
HETATM    4  N   UNL     1     -10.558  12.192  66.845  1.00  0.00    -0.225 NA 
HETATM    5  C   UNL     1      -7.696   6.506  71.050  1.00  0.00    -0.094 C  
HETATM    6  C   UNL     1     -10.236  10.794  66.447  1.00  0.00    -0.240 C  
HETATM    7  C   UNL     1     -11.001   9.695  67.207  1.00  0.00    -0.107 C  
HETATM    8  N   UNL     1      -8.795   7.247  70.484  1.00  0.00    -0.152 NA 
HETATM    9  C   UNL     1      -9.308   8.439  71.205  1.00  0.00    -0.177 C  
HETATM   10  C   UNL     1     -10.235   8.382  67.276  1.00  0.00    -0.349 A  
HETATM   11  C   UNL     1     -10.164   7.280  66.462  1.00  0.00    -0.139 A  
HETATM   12  C   UNL     1      -9.019   9.716  70.423  1.00  0.00    -0.187 C  
HETATM   13  N   UNL     1      -9.639   9.666  69.117  1.00  0.00    -0.166 NA 
HETATM   14  C   UNL     1      -9.573   8.380  68.509  1.00  0.00    -0.149 A  
HETATM   15  C   UNL     1      -9.482   6.155  66.959  1.00  0.00    -0.141 A  
HETATM   16  C   UNL     1      -8.960   6.118  68.284  1.00  0.00    -0.114 A  
HETATM   17  C   UNL     1      -9.048   7.235  69.107  1.00  0.00    -0.137 A  
ENDROOT
BRANCH   4  18
HETATM   18  C   UNL     1      -9.607  13.137  66.222  1.00  0.00    -0.234 C  
BRANCH  18  19
HETATM   19  C   UNL     1     -10.181  13.886  65.026  1.00  0.00    -0.383 C  
BRANCH  19  20
HETATM   20  C   UNL     1     -11.394  14.714  65.423  1.00  0.00    -0.344 C  
BRANCH  20  21
HETATM   21  C   UNL     1     -11.211  16.171  65.065  1.00  0.00    -0.220 C  
HETATM   22  O   UNL     1     -11.421  16.604  63.934  1.00  0.00    -1.186 OA 
BRANCH  21  23
HETATM   23  C   UNL     1     -10.763  17.105  66.134  1.00  0.00    -0.094 A  
HETATM   24  C   UNL     1     -10.240  17.439  68.477  1.00  0.00    -0.369 A  
HETATM   25  C   UNL     1     -10.646  16.604  67.439  1.00  0.00    -0.295 A  
HETATM   26  C   UNL     1      -9.952  18.773  68.211  1.00  0.00    -0.385 A  
HETATM   27  F   UNL     1      -9.571  19.576  69.208  1.00  0.00    -0.427 F  
HETATM   28  C   UNL     1     -10.462  18.452  65.878  1.00  0.00    -0.346 A  
HETATM   29  C   UNL     1     -10.057  19.285  66.923  1.00  0.00    -0.467 A  
ENDBRANCH  21  23
ENDBRANCH  20  21
ENDBRANCH  19  20
ENDBRANCH  18  19
ENDBRANCH   4  18
TORSDOF 5
ENDMDL
MODEL       72
REMARK 921   NORMALIZED FREE ENERGY PREDICTED BY IDOCK:   -6.03 KCAL/MOL
REMARK 922        TOTAL FREE ENERGY PREDICTED BY IDOCK:   -8.55 KCAL/MOL
REMARK 923 INTER-LIGAND FREE ENERGY PREDICTED BY IDOCK:   -7.69 KCAL/MOL
REMARK 924 INTRA-LIGAND FREE ENERGY PREDICTED BY IDOCK:   -0.85 KCAL/MOL
REMARK 927      BINDING AFFINITY PREDICTED BY RF-SCORE:    0.00 PKD
ROOT
HETATM    1  C   UNL     1      -7.384  16.044  67.170  1.00  0.00    -0.222 C  
HETATM    2  C   UNL     1      -7.646  14.559  67.207  1.00  0.00    -0.150 C  
HETATM    3  C   UNL     1      -9.039  14.285  67.725  1.00  0.00    -0.195 C  
HETATM    4  N   UNL     1     -10.068  14.929  66.893  1.00  0.00    -0.239 NA 
HETATM    5  C   UNL     1      -5.224  19.412  70.719  1.00  0.00    -0.225 C  
HETATM    6  C   UNL     1      -9.868  16.401  66.796  1.00  0.00    -0.256 C  
HETATM    7  C   UNL     1      -8.458  16.853  66.376  1.00  0.00    -0.325 C  
HETATM    8  N   UNL     1      -5.585  18.597  69.587  1.00  0.00    -0.221 NA 
HETATM    9  C   UNL     1      -5.358  17.131  69.654  1.00  0.00    -0.172 C  
HETATM   10  C   UNL     1      -8.100  18.235  66.904  1.00  0.00    -0.259 A  
HETATM   11  C   UNL     1      -8.269  19.509  66.422  1.00  0.00    -0.347 A  
HETATM   12  C   UNL     1      -6.681  16.373  69.676  1.00  0.00    -0.145 C  
HETATM   13  N   UNL     1      -7.456  16.665  68.490  1.00  0.00    -0.193 NA 
HETATM   14  C   UNL     1      -7.375  18.027  68.083  1.00  0.00    -0.250 A  
HETATM   15  C   UNL     1      -7.623  20.549  67.114  1.00  0.00    -0.372 A  
HETATM   16  C   UNL     1      -6.755  20.296  68.213  1.00  0.00    -0.331 A  
HETATM   17  C   UNL     1      -6.579  19.000  68.686  1.00  0.00    -0.265 A  
ENDROOT
BRANCH   4  18
HETATM   18  C   UNL     1     -11.372  14.626  67.521  1.00  0.00    -0.348 C  
BRANCH  18  19
HETATM   19  C   UNL     1     -12.379  13.995  66.568  1.00  0.00    -0.442 C  
BRANCH  19  20
HETATM   20  C   UNL     1     -11.750  12.865  65.766  1.00  0.00    -0.437 C  
BRANCH  20  21
HETATM   21  C   UNL     1     -11.489  11.653  66.629  1.00  0.00    -0.206 C  
HETATM   22  O   UNL     1     -12.155  11.400  67.631  1.00  0.00    -0.630 OA 
BRANCH  21  23
HETATM   23  C   UNL     1     -10.384  10.736  66.235  1.00  0.00    -0.303 A  
HETATM   24  C   UNL     1      -8.279  10.446  65.068  1.00  0.00    -0.152 A  
HETATM   25  C   UNL     1      -9.333  11.263  65.470  1.00  0.00    -0.243 A  
HETATM   26  C   UNL     1      -8.278   9.103  65.428  1.00  0.00    -0.130 A  
HETATM   27  F   UNL     1      -7.272   8.317  65.035  1.00  0.00    -0.073 F  
HETATM   28  C   UNL     1     -10.367   9.380  66.598  1.00  0.00    -0.284 A  
HETATM   29  C   UNL     1      -9.309   8.564  66.190  1.00  0.00    -0.279 A  
ENDBRANCH  21  23
ENDBRANCH  20  21
ENDBRANCH  19  20
ENDBRANCH  18  19
ENDBRANCH   4  18
TORSDOF 5
ENDMDL
MODEL       73
REMARK 921   NORMALIZED FREE ENERGY PREDICTED BY IDOCK:   -5.99 KCAL/MOL
REMARK 922        TOTAL FREE ENERGY PREDICTED BY IDOCK:   -8.50 KCAL/MOL
REMARK 923 INTER-LIGAND FREE ENERGY PREDICTED BY IDOCK:   -7.43 KCAL/MOL
REMARK 924 INTRA-LIGAND FREE ENERGY PREDICTED BY IDOCK:   -1.07 KCAL/MOL
REMARK 927      BINDING AFFINITY PREDICTED BY RF-SCORE:    0.00 PKD
ROOT
HETATM    1  C   UNL     1     -10.713  11.842  67.513  1.00  0.00    -0.221 C  
HETATM    2  C   UNL     1     -11.238  10.441  67.711  1.00  0.00    -0.309 C  
HETATM    3  C   UNL     1     -10.391   9.451  66.944  1.00  0.00    -0.238 C  
HETATM    4  N   UNL     1      -8.982   9.495  67.366  1.00  0.00    -0.131 NA 
HETATM    5  C   UNL     1     -11.907  15.674  63.979  1.00  0.00     0.068 C  
HETATM    6  C   UNL     1      -8.395  10.854  67.214  1.00  0.00    -0.123 C  
HETATM    7  C   UNL     1      -9.197  12.000  67.856  1.00  0.00    -0.190 C  
HETATM    8  N   UNL     1     -11.667  14.844  65.132  1.00  0.00    -0.329 NA 
HETATM    9  C   UNL     1     -12.591  13.716  65.412  1.00  0.00    -0.491 C  
HETATM   10  C   UNL     1      -8.974  13.337  67.165  1.00  0.00    -0.229 A  
HETATM   11  C   UNL     1      -8.065  14.352  67.331  1.00  0.00    -0.217 A  
HETATM   12  C   UNL     1     -11.888  12.375  65.230  1.00  0.00    -0.399 C  
HETATM   13  N   UNL     1     -10.751  12.270  66.118  1.00  0.00    -0.253 NA 
HETATM   14  C   UNL     1     -10.026  13.488  66.255  1.00  0.00    -0.298 A  
HETATM   15  C   UNL     1      -8.293  15.543  66.619  1.00  0.00    -0.286 A  
HETATM   16  C   UNL     1      -9.461  15.734  65.827  1.00  0.00    -0.334 A  
HETATM   17  C   UNL     1     -10.384  14.705  65.675  1.00  0.00    -0.351 A  
ENDROOT
BRANCH   4  18
HETATM   18  C   UNL     1      -8.256   8.522  66.522  1.00  0.00    -0.108 C  
BRANCH  18  19
HETATM   19  C   UNL     1      -8.177   7.126  67.125  1.00  0.00    -0.118 C  
BRANCH  19  20
HETATM   20  C   UNL     1      -8.390   7.161  68.631  1.00  0.00    -0.125 C  
BRANCH  20  21
HETATM   21  C   UNL     1      -9.667   6.457  69.027  1.00  0.00    -0.134 C  
HETATM   22  O   UNL     1      -9.997   5.372  68.553  1.00  0.00    -0.144 OA 
BRANCH  21  23
HETATM   23  C   UNL     1     -10.547   7.114  70.033  1.00  0.00    -0.248 A  
HETATM   24  C   UNL     1     -10.841   8.903  71.642  1.00  0.00    -0.420 A  
HETATM   25  C   UNL     1     -10.061   8.256  70.686  1.00  0.00    -0.212 A  
HETATM   26  C   UNL     1     -12.104   8.406  71.945  1.00  0.00    -0.342 A  
HETATM   27  F   UNL     1     -12.848   9.021  72.869  1.00  0.00    -0.442 F  
HETATM   28  C   UNL     1     -11.826   6.628  70.343  1.00  0.00    -0.407 A  
HETATM   29  C   UNL     1     -12.604   7.278  71.304  1.00  0.00    -0.402 A  
ENDBRANCH  21  23
ENDBRANCH  20  21
ENDBRANCH  19  20
ENDBRANCH  18  19
ENDBRANCH   4  18
TORSDOF 5
ENDMDL
MODEL       74
REMARK 921   NORMALIZED FREE ENERGY PREDICTED BY IDOCK:   -5.99 KCAL/MOL
REMARK 922        TOTAL FREE ENERGY PREDICTED BY IDOCK:   -8.50 KCAL/MOL
REMARK 923 INTER-LIGAND FREE ENERGY PREDICTED BY IDOCK:   -7.13 KCAL/MOL
REMARK 924 INTRA-LIGAND FREE ENERGY PREDICTED BY IDOCK:   -1.36 KCAL/MOL
REMARK 927      BINDING AFFINITY PREDICTED BY RF-SCORE:    0.00 PKD
ROOT
HETATM    1  C   UNL     1     -10.170   6.054  66.317  1.00  0.00     0.010 C  
HETATM    2  C   UNL     1     -10.148   4.570  66.590  1.00  0.00    -0.238 C  
HETATM    3  C   UNL     1      -9.506   4.293  67.930  1.00  0.00    -0.165 C  
HETATM    4  N   UNL     1     -10.218   4.968  69.027  1.00  0.00    -0.175 NA 
HETATM    5  C   UNL     1      -6.756   9.304  63.790  1.00  0.00    -0.092 C  
HETATM    6  C   UNL     1     -10.294   6.440  68.822  1.00  0.00    -0.198 C  
HETATM    7  C   UNL     1     -10.835   6.893  67.454  1.00  0.00    -0.396 C  
HETATM    8  N   UNL     1      -7.869   8.523  64.267  1.00  0.00    -0.134 NA 
HETATM    9  C   UNL     1      -7.864   7.054  64.051  1.00  0.00    -0.109 C  
HETATM   10  C   UNL     1     -10.307   8.257  67.031  1.00  0.00    -0.393 A  
HETATM   11  C   UNL     1     -10.736   9.545  67.233  1.00  0.00    -0.269 A  
HETATM   12  C   UNL     1      -7.736   6.307  65.373  1.00  0.00    -0.097 C  
HETATM   13  N   UNL     1      -8.833   6.638  66.256  1.00  0.00    -0.144 NA 
HETATM   14  C   UNL     1      -9.209   8.011  66.200  1.00  0.00    -0.163 A  
HETATM   15  C   UNL     1     -10.082  10.561  66.513  1.00  0.00    -0.280 A  
HETATM   16  C   UNL     1      -9.078  10.269  65.546  1.00  0.00    -0.211 A  
HETATM   17  C   UNL     1      -8.659   8.959  65.338  1.00  0.00    -0.176 A  
ENDROOT
BRANCH   4  18
HETATM   18  C   UNL     1      -9.476   4.658  70.268  1.00  0.00    -0.170 C  
BRANCH  18  19
HETATM   19  C   UNL     1     -10.206   5.072  71.539  1.00  0.00    -0.273 C  
BRANCH  19  20
HETATM   20  C   UNL     1      -9.344   5.984  72.400  1.00  0.00    -0.150 C  
BRANCH  20  21
HETATM   21  C   UNL     1     -10.178   7.019  73.117  1.00  0.00    -0.255 C  
HETATM   22  O   UNL     1     -10.402   6.965  74.324  1.00  0.00    -0.346 OA 
BRANCH  21  23
HETATM   23  C   UNL     1     -10.740   8.144  72.318  1.00  0.00    -0.381 A  
HETATM   24  C   UNL     1     -12.673   9.494  71.757  1.00  0.00    -0.492 A  
HETATM   25  C   UNL     1     -12.097   8.457  72.487  1.00  0.00    -0.403 A  
HETATM   26  C   UNL     1     -11.894  10.215  70.859  1.00  0.00    -0.374 A  
HETATM   27  F   UNL     1     -12.449  11.203  70.152  1.00  0.00    -0.341 F  
HETATM   28  C   UNL     1      -9.963   8.884  71.414  1.00  0.00    -0.378 A  
HETATM   29  C   UNL     1     -10.546   9.921  70.682  1.00  0.00    -0.341 A  
ENDBRANCH  21  23
ENDBRANCH  20  21
ENDBRANCH  19  20
ENDBRANCH  18  19
ENDBRANCH   4  18
TORSDOF 5
ENDMDL
MODEL       75
REMARK 921   NORMALIZED FREE ENERGY PREDICTED BY IDOCK:   -5.99 KCAL/MOL
REMARK 922        TOTAL FREE ENERGY PREDICTED BY IDOCK:   -8.50 KCAL/MOL
REMARK 923 INTER-LIGAND FREE ENERGY PREDICTED BY IDOCK:   -6.78 KCAL/MOL
REMARK 924 INTRA-LIGAND FREE ENERGY PREDICTED BY IDOCK:   -1.72 KCAL/MOL
REMARK 927      BINDING AFFINITY PREDICTED BY RF-SCORE:    0.00 PKD
ROOT
HETATM    1  C   UNL     1     -10.708  10.592  66.879  1.00  0.00    -0.219 C  
HETATM    2  C   UNL     1      -9.925  10.348  65.613  1.00  0.00    -0.337 C  
HETATM    3  C   UNL     1      -8.464  10.132  65.935  1.00  0.00    -0.141 C  
HETATM    4  N   UNL     1      -8.267   8.992  66.843  1.00  0.00    -0.115 NA 
HETATM    5  C   UNL     1     -12.054  15.067  69.480  1.00  0.00    -0.276 C  
HETATM    6  C   UNL     1      -9.023   9.152  68.115  1.00  0.00    -0.129 C  
HETATM    7  C   UNL     1     -10.519   9.481  67.961  1.00  0.00    -0.279 C  
HETATM    8  N   UNL     1     -11.984  13.818  68.765  1.00  0.00    -0.361 NA 
HETATM    9  C   UNL     1     -11.586  13.828  67.334  1.00  0.00    -0.362 C  
HETATM   10  C   UNL     1     -11.079  10.256  69.145  1.00  0.00    -0.283 A  
HETATM   11  C   UNL     1     -11.644   9.887  70.340  1.00  0.00    -0.356 A  
HETATM   12  C   UNL     1     -10.231  13.158  67.139  1.00  0.00    -0.244 C  
HETATM   13  N   UNL     1     -10.269  11.786  67.596  1.00  0.00    -0.197 NA 
HETATM   14  C   UNL     1     -11.034  11.607  68.784  1.00  0.00    -0.226 A  
HETATM   15  C   UNL     1     -12.231  10.903  71.115  1.00  0.00    -0.441 A  
HETATM   16  C   UNL     1     -12.321  12.245  70.651  1.00  0.00    -0.375 A  
HETATM   17  C   UNL     1     -11.757  12.608  69.432  1.00  0.00    -0.325 A  
ENDROOT
BRANCH   4  18
HETATM   18  C   UNL     1      -6.815   8.911  67.114  1.00  0.00    -0.074 C  
BRANCH  18  19
HETATM   19  C   UNL     1      -6.419   7.725  67.984  1.00  0.00    -0.055 C  
BRANCH  19  20
HETATM   20  C   UNL     1      -6.696   6.405  67.279  1.00  0.00    -0.060 C  
BRANCH  20  21
HETATM   21  C   UNL     1      -7.310   5.395  68.220  1.00  0.00    -0.072 C  
HETATM   22  O   UNL     1      -6.760   4.331  68.497  1.00  0.00    -0.045 OA 
BRANCH  21  23
HETATM   23  C   UNL     1      -8.631   5.716  68.829  1.00  0.00    -0.104 A  
HETATM   24  C   UNL     1     -11.007   6.065  68.503  1.00  0.00    -0.350 A  
HETATM   25  C   UNL     1      -9.751   5.761  67.985  1.00  0.00    -0.142 A  
HETATM   26  C   UNL     1     -11.143   6.327  69.862  1.00  0.00    -0.401 A  
HETATM   27  F   UNL     1     -12.347   6.628  70.357  1.00  0.00    -0.441 F  
HETATM   28  C   UNL     1      -8.783   5.975  70.200  1.00  0.00    -0.139 A  
HETATM   29  C   UNL     1     -10.045   6.282  70.714  1.00  0.00    -0.229 A  
ENDBRANCH  21  23
ENDBRANCH  20  21
ENDBRANCH  19  20
ENDBRANCH  18  19
ENDBRANCH   4  18
TORSDOF 5
ENDMDL
MODEL       76
REMARK 921   NORMALIZED FREE ENERGY PREDICTED BY IDOCK:   -5.99 KCAL/MOL
REMARK 922        TOTAL FREE ENERGY PREDICTED BY IDOCK:   -8.50 KCAL/MOL
REMARK 923 INTER-LIGAND FREE ENERGY PREDICTED BY IDOCK:   -6.39 KCAL/MOL
REMARK 924 INTRA-LIGAND FREE ENERGY PREDICTED BY IDOCK:   -2.11 KCAL/MOL
REMARK 927      BINDING AFFINITY PREDICTED BY RF-SCORE:    0.00 PKD
ROOT
HETATM    1  C   UNL     1     -11.892  12.874  66.804  1.00  0.00    -0.385 C  
HETATM    2  C   UNL     1     -12.268  14.330  66.931  1.00  0.00    -0.366 C  
HETATM    3  C   UNL     1     -11.028  15.194  66.928  1.00  0.00    -0.323 C  
HETATM    4  N   UNL     1     -10.238  15.013  65.700  1.00  0.00    -0.333 NA 
HETATM    5  C   UNL     1     -10.924   9.072  70.438  1.00  0.00    -0.247 C  
HETATM    6  C   UNL     1      -9.838  13.593  65.497  1.00  0.00    -0.152 C  
HETATM    7  C   UNL     1     -10.981  12.564  65.573  1.00  0.00    -0.322 C  
HETATM    8  N   UNL     1     -11.397   9.912  69.367  1.00  0.00    -0.151 NA 
HETATM    9  C   UNL     1     -12.158  11.143  69.699  1.00  0.00    -0.336 C  
HETATM   10  C   UNL     1     -10.508  11.187  66.015  1.00  0.00    -0.312 A  
HETATM   11  C   UNL     1     -10.034  10.086  65.347  1.00  0.00    -0.364 A  
HETATM   12  C   UNL     1     -11.366  12.392  69.328  1.00  0.00    -0.254 C  
HETATM   13  N   UNL     1     -11.066  12.404  67.913  1.00  0.00    -0.224 NA 
HETATM   14  C   UNL     1     -10.734  11.120  67.394  1.00  0.00    -0.250 A  
HETATM   15  C   UNL     1      -9.874   8.902  66.089  1.00  0.00    -0.326 A  
HETATM   16  C   UNL     1     -10.269   8.812  67.454  1.00  0.00    -0.318 A  
HETATM   17  C   UNL     1     -10.761   9.930  68.120  1.00  0.00    -0.233 A  
ENDROOT
BRANCH   4  18
HETATM   18  C   UNL     1      -9.041  15.870  65.836  1.00  0.00    -0.269 C  
BRANCH  18  19
HETATM   19  C   UNL     1      -8.516  15.969  67.262  1.00  0.00    -0.206 C  
BRANCH  19  20
HETATM   20  C   UNL     1      -7.165  15.283  67.403  1.00  0.00    -0.235 C  
BRANCH  20  21
HETATM   21  C   UNL     1      -7.135  14.359  68.598  1.00  0.00    -0.116 C  
HETATM   22  O   UNL     1      -7.211  14.772  69.754  1.00  0.00    -0.164 OA 
BRANCH  21  23
HETATM   23  C   UNL     1      -7.013  12.895  68.351  1.00  0.00    -0.096 A  
HETATM   24  C   UNL     1      -6.930  11.090  66.736  1.00  0.00    -0.131 A  
HETATM   25  C   UNL     1      -7.032  12.450  67.021  1.00  0.00    -0.006 A  
HETATM   26  C   UNL     1      -6.812  10.178  67.779  1.00  0.00    -0.075 A  
HETATM   27  F   UNL     1      -6.723   8.874  67.505  1.00  0.00    -0.062 F  
HETATM   28  C   UNL     1      -6.885  11.965  69.393  1.00  0.00    -0.048 A  
HETATM   29  C   UNL     1      -6.786  10.603  69.103  1.00  0.00    -0.079 A  
ENDBRANCH  21  23
ENDBRANCH  20  21
ENDBRANCH  19  20
ENDBRANCH  18  19
ENDBRANCH   4  18
TORSDOF 5
ENDMDL
MODEL       77
REMARK 921   NORMALIZED FREE ENERGY PREDICTED BY IDOCK:   -5.98 KCAL/MOL
REMARK 922        TOTAL FREE ENERGY PREDICTED BY IDOCK:   -8.48 KCAL/MOL
REMARK 923 INTER-LIGAND FREE ENERGY PREDICTED BY IDOCK:   -6.92 KCAL/MOL
REMARK 924 INTRA-LIGAND FREE ENERGY PREDICTED BY IDOCK:   -1.56 KCAL/MOL
REMARK 927      BINDING AFFINITY PREDICTED BY RF-SCORE:    0.00 PKD
ROOT
HETATM    1  C   UNL     1     -11.853  14.081  67.116  1.00  0.00    -0.411 C  
HETATM    2  C   UNL     1     -12.125  15.173  68.121  1.00  0.00    -0.009 C  
HETATM    3  C   UNL     1     -10.895  16.031  68.308  1.00  0.00    -0.319 C  
HETATM    4  N   UNL     1     -10.461  16.646  67.043  1.00  0.00    -0.303 NA 
HETATM    5  C   UNL     1     -10.123   9.048  67.641  1.00  0.00    -0.216 C  
HETATM    6  C   UNL     1     -10.185  15.628  65.992  1.00  0.00    -0.335 C  
HETATM    7  C   UNL     1     -11.309  14.605  65.748  1.00  0.00    -0.340 C  
HETATM    8  N   UNL     1     -10.825  10.277  67.374  1.00  0.00    -0.288 NA 
HETATM    9  C   UNL     1     -11.424  11.026  68.508  1.00  0.00    -0.309 C  
HETATM   10  C   UNL     1     -10.792  13.276  65.216  1.00  0.00    -0.314 A  
HETATM   11  C   UNL     1     -10.553  12.787  63.956  1.00  0.00    -0.446 A  
HETATM   12  C   UNL     1     -10.707  12.355  68.724  1.00  0.00    -0.209 C  
HETATM   13  N   UNL     1     -10.786  13.177  67.536  1.00  0.00    -0.251 NA 
HETATM   14  C   UNL     1     -10.653  12.437  66.326  1.00  0.00    -0.249 A  
HETATM   15  C   UNL     1     -10.252  11.417  63.844  1.00  0.00    -0.415 A  
HETATM   16  C   UNL     1     -10.280  10.547  64.971  1.00  0.00    -0.365 A  
HETATM   17  C   UNL     1     -10.537  11.050  66.242  1.00  0.00    -0.237 A  
ENDROOT
BRANCH   4  18
HETATM   18  C   UNL     1      -9.236  17.418  67.346  1.00  0.00    -0.236 C  
BRANCH  18  19
HETATM   19  C   UNL     1      -8.653  17.128  68.723  1.00  0.00    -0.236 C  
BRANCH  19  20
HETATM   20  C   UNL     1      -7.133  17.085  68.681  1.00  0.00    -0.210 C  
BRANCH  20  21
HETATM   21  C   UNL     1      -6.635  16.009  67.743  1.00  0.00    -0.154 C  
HETATM   22  O   UNL     1      -6.262  16.254  66.598  1.00  0.00    -0.286 OA 
BRANCH  21  23
HETATM   23  C   UNL     1      -6.597  14.606  68.241  1.00  0.00    -0.118 A  
HETATM   24  C   UNL     1      -7.282  12.302  67.929  1.00  0.00    -0.106 A  
HETATM   25  C   UNL     1      -7.278  13.628  67.502  1.00  0.00    -0.169 A  
HETATM   26  C   UNL     1      -6.608  11.957  69.095  1.00  0.00    -0.103 A  
HETATM   27  F   UNL     1      -6.619  10.687  69.510  1.00  0.00    -0.051 F  
HETATM   28  C   UNL     1      -5.915  14.243  69.412  1.00  0.00    -0.103 A  
HETATM   29  C   UNL     1      -5.924  12.913  69.838  1.00  0.00    -0.135 A  
ENDBRANCH  21  23
ENDBRANCH  20  21
ENDBRANCH  19  20
ENDBRANCH  18  19
ENDBRANCH   4  18
TORSDOF 5
ENDMDL
MODEL       78
REMARK 921   NORMALIZED FREE ENERGY PREDICTED BY IDOCK:   -5.98 KCAL/MOL
REMARK 922        TOTAL FREE ENERGY PREDICTED BY IDOCK:   -8.48 KCAL/MOL
REMARK 923 INTER-LIGAND FREE ENERGY PREDICTED BY IDOCK:   -7.54 KCAL/MOL
REMARK 924 INTRA-LIGAND FREE ENERGY PREDICTED BY IDOCK:   -0.94 KCAL/MOL
REMARK 927      BINDING AFFINITY PREDICTED BY RF-SCORE:    0.00 PKD
ROOT
HETATM    1  C   UNL     1     -10.472   9.270  68.919  1.00  0.00    -0.215 C  
HETATM    2  C   UNL     1     -10.632  10.752  68.687  1.00  0.00    -0.226 C  
HETATM    3  C   UNL     1      -9.794  11.192  67.509  1.00  0.00    -0.177 C  
HETATM    4  N   UNL     1     -10.163  10.475  66.278  1.00  0.00    -0.237 NA 
HETATM    5  C   UNL     1      -7.144   6.446  72.010  1.00  0.00    -0.082 C  
HETATM    6  C   UNL     1     -10.043   9.000  66.433  1.00  0.00    -0.281 C  
HETATM    7  C   UNL     1     -10.761   8.400  67.655  1.00  0.00    -0.191 C  
HETATM    8  N   UNL     1      -8.252   7.073  71.336  1.00  0.00    -0.109 NA 
HETATM    9  C   UNL     1      -8.522   8.513  71.580  1.00  0.00    -0.170 C  
HETATM   10  C   UNL     1     -10.117   7.112  68.146  1.00  0.00    -0.195 A  
HETATM   11  C   UNL     1     -10.288   5.786  67.836  1.00  0.00    -0.266 A  
HETATM   12  C   UNL     1      -8.259   9.339  70.325  1.00  0.00    -0.172 C  
HETATM   13  N   UNL     1      -9.097   8.892  69.235  1.00  0.00    -0.143 NA 
HETATM   14  C   UNL     1      -9.255   7.477  69.186  1.00  0.00    -0.144 A  
HETATM   15  C   UNL     1      -9.635   4.845  68.651  1.00  0.00    -0.215 A  
HETATM   16  C   UNL     1      -8.897   5.233  69.805  1.00  0.00    -0.123 A  
HETATM   17  C   UNL     1      -8.740   6.579  70.120  1.00  0.00    -0.140 A  
ENDROOT
BRANCH   4  18
HETATM   18  C   UNL     1      -9.252  10.958  65.217  1.00  0.00    -0.210 C  
BRANCH  18  19
HETATM   19  C   UNL     1      -9.966  11.654  64.066  1.00  0.00    -0.328 C  
BRANCH  19  20
HETATM   20  C   UNL     1     -11.451  11.818  64.355  1.00  0.00    -0.349 C  
BRANCH  20  21
HETATM   21  C   UNL     1     -11.899  13.248  64.158  1.00  0.00    -0.443 C  
HETATM   22  O   UNL     1     -12.594  13.596  63.206  1.00  0.00    -0.816 OA 
BRANCH  21  23
HETATM   23  C   UNL     1     -11.476  14.260  65.165  1.00  0.00    -0.351 A  
HETATM   24  C   UNL     1     -10.551  16.458  65.597  1.00  0.00    -0.337 A  
HETATM   25  C   UNL     1     -10.969  15.481  64.697  1.00  0.00    -0.341 A  
HETATM   26  C   UNL     1     -10.638  16.213  66.963  1.00  0.00    -0.292 A  
HETATM   27  F   UNL     1     -10.229  17.147  67.826  1.00  0.00    -0.275 F  
HETATM   28  C   UNL     1     -11.565  14.029  66.546  1.00  0.00    -0.389 A  
HETATM   29  C   UNL     1     -11.143  15.011  67.445  1.00  0.00    -0.324 A  
ENDBRANCH  21  23
ENDBRANCH  20  21
ENDBRANCH  19  20
ENDBRANCH  18  19
ENDBRANCH   4  18
TORSDOF 5
ENDMDL
MODEL       79
REMARK 921   NORMALIZED FREE ENERGY PREDICTED BY IDOCK:   -5.97 KCAL/MOL
REMARK 922        TOTAL FREE ENERGY PREDICTED BY IDOCK:   -8.47 KCAL/MOL
REMARK 923 INTER-LIGAND FREE ENERGY PREDICTED BY IDOCK:   -7.91 KCAL/MOL
REMARK 924 INTRA-LIGAND FREE ENERGY PREDICTED BY IDOCK:   -0.56 KCAL/MOL
REMARK 927      BINDING AFFINITY PREDICTED BY RF-SCORE:    0.00 PKD
ROOT
HETATM    1  C   UNL     1      -9.836   9.358  68.405  1.00  0.00    -0.160 C  
HETATM    2  C   UNL     1     -10.761   9.872  67.329  1.00  0.00    -0.304 C  
HETATM    3  C   UNL     1     -10.894  11.374  67.426  1.00  0.00    -0.254 C  
HETATM    4  N   UNL     1      -9.593  12.048  67.295  1.00  0.00    -0.181 NA 
HETATM    5  C   UNL     1     -10.721   7.565  73.365  1.00  0.00    -0.332 C  
HETATM    6  C   UNL     1      -8.617  11.582  68.318  1.00  0.00    -0.161 C  
HETATM    7  C   UNL     1      -8.439  10.056  68.420  1.00  0.00    -0.112 C  
HETATM    8  N   UNL     1     -10.364   7.780  71.985  1.00  0.00    -0.205 NA 
HETATM    9  C   UNL     1     -11.440   7.830  70.963  1.00  0.00    -0.281 C  
HETATM   10  C   UNL     1      -8.003   9.603  69.805  1.00  0.00    -0.154 A  
HETATM   11  C   UNL     1      -6.782   9.432  70.408  1.00  0.00    -0.083 A  
HETATM   12  C   UNL     1     -11.567   9.229  70.371  1.00  0.00    -0.173 C  
HETATM   13  N   UNL     1     -10.325   9.637  69.752  1.00  0.00    -0.223 NA 
HETATM   14  C   UNL     1      -9.170   9.228  70.480  1.00  0.00    -0.261 A  
HETATM   15  C   UNL     1      -6.767   8.802  71.665  1.00  0.00    -0.078 A  
HETATM   16  C   UNL     1      -7.952   8.278  72.257  1.00  0.00    -0.189 A  
HETATM   17  C   UNL     1      -9.183   8.445  71.633  1.00  0.00    -0.206 A  
ENDROOT
BRANCH   4  18
HETATM   18  C   UNL     1      -9.848  13.497  67.449  1.00  0.00    -0.227 C  
BRANCH  18  19
HETATM   19  C   UNL     1      -9.678  14.289  66.160  1.00  0.00    -0.325 C  
BRANCH  19  20
HETATM   20  C   UNL     1     -10.968  14.998  65.773  1.00  0.00    -0.351 C  
BRANCH  20  21
HETATM   21  C   UNL     1     -10.722  16.451  65.438  1.00  0.00    -0.296 C  
HETATM   22  O   UNL     1     -11.136  16.969  64.403  1.00  0.00    -1.144 OA 
BRANCH  21  23
HETATM   23  C   UNL     1      -9.950  17.274  66.410  1.00  0.00    -0.319 A  
HETATM   24  C   UNL     1      -9.917  18.444  68.532  1.00  0.00    -0.415 A  
HETATM   25  C   UNL     1     -10.591  17.666  67.594  1.00  0.00    -0.364 A  
HETATM   26  C   UNL     1      -8.604  18.831  68.285  1.00  0.00    -0.327 A  
HETATM   27  F   UNL     1      -7.961  19.584  69.181  1.00  0.00    -0.391 F  
HETATM   28  C   UNL     1      -8.623  17.665  66.177  1.00  0.00    -0.154 A  
HETATM   29  C   UNL     1      -7.952  18.447  67.119  1.00  0.00    -0.237 A  
ENDBRANCH  21  23
ENDBRANCH  20  21
ENDBRANCH  19  20
ENDBRANCH  18  19
ENDBRANCH   4  18
TORSDOF 5
ENDMDL
MODEL       80
REMARK 921   NORMALIZED FREE ENERGY PREDICTED BY IDOCK:   -5.95 KCAL/MOL
REMARK 922        TOTAL FREE ENERGY PREDICTED BY IDOCK:   -8.45 KCAL/MOL
REMARK 923 INTER-LIGAND FREE ENERGY PREDICTED BY IDOCK:   -7.81 KCAL/MOL
REMARK 924 INTRA-LIGAND FREE ENERGY PREDICTED BY IDOCK:   -0.64 KCAL/MOL
REMARK 927      BINDING AFFINITY PREDICTED BY RF-SCORE:    0.00 PKD
ROOT
HETATM    1  C   UNL     1      -8.437   7.183  69.672  1.00  0.00    -0.134 C  
HETATM    2  C   UNL     1      -8.531   7.310  68.171  1.00  0.00    -0.123 C  
HETATM    3  C   UNL     1      -9.480   8.425  67.797  1.00  0.00    -0.149 C  
HETATM    4  N   UNL     1      -9.052   9.717  68.357  1.00  0.00    -0.123 NA 
HETATM    5  C   UNL     1     -11.123   4.209  73.213  1.00  0.00    -0.222 C  
HETATM    6  C   UNL     1      -8.923   9.668  69.840  1.00  0.00    -0.221 C  
HETATM    7  C   UNL     1      -8.064   8.517  70.394  1.00  0.00    -0.108 C  
HETATM    8  N   UNL     1     -10.162   4.868  72.366  1.00  0.00    -0.193 NA 
HETATM    9  C   UNL     1     -10.121   4.527  70.921  1.00  0.00    -0.158 C  
HETATM   10  C   UNL     1      -8.468   8.103  71.801  1.00  0.00    -0.186 A  
HETATM   11  C   UNL     1      -8.095   8.516  73.056  1.00  0.00    -0.083 A  
HETATM   12  C   UNL     1     -10.569   5.707  70.067  1.00  0.00    -0.318 C  
HETATM   13  N   UNL     1      -9.717   6.854  70.293  1.00  0.00    -0.172 NA 
HETATM   14  C   UNL     1      -9.332   7.013  71.656  1.00  0.00    -0.156 A  
HETATM   15  C   UNL     1      -8.551   7.753  74.146  1.00  0.00    -0.307 A  
HETATM   16  C   UNL     1      -9.292   6.550  73.965  1.00  0.00    -0.200 A  
HETATM   17  C   UNL     1      -9.653   6.133  72.688  1.00  0.00    -0.155 A  
ENDROOT
BRANCH   4  18
HETATM   18  C   UNL     1     -10.074  10.710  67.962  1.00  0.00    -0.157 C  
BRANCH  18  19
HETATM   19  C   UNL     1     -10.292  11.810  68.993  1.00  0.00    -0.087 C  
BRANCH  19  20
HETATM   20  C   UNL     1     -11.768  12.153  69.132  1.00  0.00    -0.384 C  
BRANCH  20  21
HETATM   21  C   UNL     1     -11.984  13.646  69.206  1.00  0.00    -0.336 C  
HETATM   22  O   UNL     1     -11.950  14.368  68.211  1.00  0.00    -0.329 OA 
BRANCH  21  23
HETATM   23  C   UNL     1     -12.252  14.252  70.540  1.00  0.00    -0.427 A  
HETATM   24  C   UNL     1     -13.444  14.124  72.646  1.00  0.00    -0.634 A  
HETATM   25  C   UNL     1     -13.152  13.595  71.391  1.00  0.00    -0.396 A  
HETATM   26  C   UNL     1     -12.838  15.310  73.047  1.00  0.00    -0.469 A  
HETATM   27  F   UNL     1     -13.125  15.822  74.247  1.00  0.00    -0.535 F  
HETATM   28  C   UNL     1     -11.642  15.444  70.960  1.00  0.00    -0.410 A  
HETATM   29  C   UNL     1     -11.939  15.972  72.218  1.00  0.00    -0.633 A  
ENDBRANCH  21  23
ENDBRANCH  20  21
ENDBRANCH  19  20
ENDBRANCH  18  19
ENDBRANCH   4  18
TORSDOF 5
ENDMDL
MODEL       81
REMARK 921   NORMALIZED FREE ENERGY PREDICTED BY IDOCK:   -5.94 KCAL/MOL
REMARK 922        TOTAL FREE ENERGY PREDICTED BY IDOCK:   -8.44 KCAL/MOL
REMARK 923 INTER-LIGAND FREE ENERGY PREDICTED BY IDOCK:   -7.38 KCAL/MOL
REMARK 924 INTRA-LIGAND FREE ENERGY PREDICTED BY IDOCK:   -1.06 KCAL/MOL
REMARK 927      BINDING AFFINITY PREDICTED BY RF-SCORE:    0.00 PKD
ROOT
HETATM    1  C   UNL     1     -11.420  11.969  67.735  1.00  0.00    -0.325 C  
HETATM    2  C   UNL     1     -10.608  11.879  66.467  1.00  0.00    -0.278 C  
HETATM    3  C   UNL     1      -9.220  11.362  66.769  1.00  0.00    -0.177 C  
HETATM    4  N   UNL     1      -9.257  10.036  67.405  1.00  0.00    -0.137 NA 
HETATM    5  C   UNL     1     -12.215  15.936  71.232  1.00  0.00    -0.422 C  
HETATM    6  C   UNL     1     -10.056  10.041  68.661  1.00  0.00    -0.172 C  
HETATM    7  C   UNL     1     -11.472  10.635  68.546  1.00  0.00    -0.333 C  
HETATM    8  N   UNL     1     -12.295  14.877  70.259  1.00  0.00    -0.329 NA 
HETATM    9  C   UNL     1     -11.814  15.130  68.877  1.00  0.00    -0.310 C  
HETATM   10  C   UNL     1     -11.976  11.218  69.858  1.00  0.00    -0.440 A  
HETATM   11  C   UNL     1     -12.663  10.697  70.926  1.00  0.00    -0.498 A  
HETATM   12  C   UNL     1     -10.569  14.304  68.572  1.00  0.00    -0.257 C  
HETATM   13  N   UNL     1     -10.847  12.892  68.710  1.00  0.00    -0.253 NA 
HETATM   14  C   UNL     1     -11.701  12.589  69.809  1.00  0.00    -0.285 A  
HETATM   15  C   UNL     1     -13.132  11.604  71.894  1.00  0.00    -0.490 A  
HETATM   16  C   UNL     1     -12.985  13.012  71.738  1.00  0.00    -0.420 A  
HETATM   17  C   UNL     1     -12.299  13.531  70.645  1.00  0.00    -0.358 A  
ENDROOT
BRANCH   4  18
HETATM   18  C   UNL     1      -7.855   9.662  67.688  1.00  0.00    -0.095 C  
BRANCH  18  19
HETATM   19  C   UNL     1      -7.610   9.248  69.133  1.00  0.00    -0.073 C  
BRANCH  19  20
HETATM   20  C   UNL     1      -7.244   7.774  69.232  1.00  0.00    -0.081 C  
BRANCH  20  21
HETATM   21  C   UNL     1      -8.453   6.925  69.551  1.00  0.00    -0.133 C  
HETATM   22  O   UNL     1      -8.896   6.809  70.692  1.00  0.00    -0.148 OA 
BRANCH  21  23
HETATM   23  C   UNL     1      -9.123   6.209  68.430  1.00  0.00    -0.113 A  
HETATM   24  C   UNL     1      -8.987   4.500  66.718  1.00  0.00    -0.115 A  
HETATM   25  C   UNL     1      -8.409   5.193  67.778  1.00  0.00    -0.105 A  
HETATM   26  C   UNL     1     -10.276   4.824  66.308  1.00  0.00    -0.282 A  
HETATM   27  F   UNL     1     -10.827   4.165  65.285  1.00  0.00    -0.243 F  
HETATM   28  C   UNL     1     -10.425   6.522  68.011  1.00  0.00    -0.265 A  
HETATM   29  C   UNL     1     -11.000   5.825  66.946  1.00  0.00    -0.242 A  
ENDBRANCH  21  23
ENDBRANCH  20  21
ENDBRANCH  19  20
ENDBRANCH  18  19
ENDBRANCH   4  18
TORSDOF 5
ENDMDL
MODEL       82
REMARK 921   NORMALIZED FREE ENERGY PREDICTED BY IDOCK:   -5.94 KCAL/MOL
REMARK 922        TOTAL FREE ENERGY PREDICTED BY IDOCK:   -8.44 KCAL/MOL
REMARK 923 INTER-LIGAND FREE ENERGY PREDICTED BY IDOCK:   -7.65 KCAL/MOL
REMARK 924 INTRA-LIGAND FREE ENERGY PREDICTED BY IDOCK:   -0.79 KCAL/MOL
REMARK 927      BINDING AFFINITY PREDICTED BY RF-SCORE:    0.00 PKD
ROOT
HETATM    1  C   UNL     1      -7.144  15.671  67.244  1.00  0.00    -0.207 C  
HETATM    2  C   UNL     1      -6.413  14.351  67.250  1.00  0.00     0.312 C  
HETATM    3  C   UNL     1      -7.172  13.336  68.074  1.00  0.00    -0.121 C  
HETATM    4  N   UNL     1      -8.534  13.122  67.559  1.00  0.00    -0.185 NA 
HETATM    5  C   UNL     1      -6.794  20.001  70.363  1.00  0.00     0.082 C  
HETATM    6  C   UNL     1      -9.317  14.387  67.509  1.00  0.00    -0.198 C  
HETATM    7  C   UNL     1      -8.634  15.563  66.787  1.00  0.00    -0.307 C  
HETATM    8  N   UNL     1      -6.819  19.024  69.305  1.00  0.00    -0.303 NA 
HETATM    9  C   UNL     1      -5.726  18.022  69.222  1.00  0.00    -0.213 C  
HETATM   10  C   UNL     1      -9.099  16.920  67.297  1.00  0.00    -0.225 A  
HETATM   11  C   UNL     1     -10.125  17.763  66.952  1.00  0.00    -0.342 A  
HETATM   12  C   UNL     1      -6.246  16.619  69.518  1.00  0.00    -0.220 C  
HETATM   13  N   UNL     1      -7.281  16.250  68.578  1.00  0.00    -0.151 NA 
HETATM   14  C   UNL     1      -8.157  17.324  68.249  1.00  0.00    -0.246 A  
HETATM   15  C   UNL     1     -10.126  19.046  67.529  1.00  0.00    -0.447 A  
HETATM   16  C   UNL     1      -9.065  19.494  68.366  1.00  0.00    -0.410 A  
HETATM   17  C   UNL     1      -8.022  18.636  68.700  1.00  0.00    -0.327 A  
ENDROOT
BRANCH   4  18
HETATM   18  C   UNL     1      -9.182  12.150  68.466  1.00  0.00    -0.099 C  
BRANCH  18  19
HETATM   19  C   UNL     1     -10.005  11.092  67.743  1.00  0.00    -0.194 C  
BRANCH  19  20
HETATM   20  C   UNL     1     -11.478  11.190  68.110  1.00  0.00    -0.373 C  
BRANCH  20  21
HETATM   21  C   UNL     1     -11.708  10.857  69.567  1.00  0.00    -0.328 C  
HETATM   22  O   UNL     1     -11.397   9.772  70.053  1.00  0.00    -0.242 OA 
BRANCH  21  23
HETATM   23  C   UNL     1     -12.332  11.896  70.433  1.00  0.00    -0.334 A  
HETATM   24  C   UNL     1     -12.638  14.252  70.911  1.00  0.00    -0.426 A  
HETATM   25  C   UNL     1     -12.086  13.242  70.127  1.00  0.00    -0.403 A  
HETATM   26  C   UNL     1     -13.433  13.915  72.001  1.00  0.00    -0.455 A  
HETATM   27  F   UNL     1     -13.956  14.884  72.759  1.00  0.00    -0.499 F  
HETATM   28  C   UNL     1     -13.142  11.570  71.532  1.00  0.00    -0.429 A  
HETATM   29  C   UNL     1     -13.692  12.586  72.316  1.00  0.00    -0.356 A  
ENDBRANCH  21  23
ENDBRANCH  20  21
ENDBRANCH  19  20
ENDBRANCH  18  19
ENDBRANCH   4  18
TORSDOF 5
ENDMDL
MODEL       83
REMARK 921   NORMALIZED FREE ENERGY PREDICTED BY IDOCK:   -5.93 KCAL/MOL
REMARK 922        TOTAL FREE ENERGY PREDICTED BY IDOCK:   -8.43 KCAL/MOL
REMARK 923 INTER-LIGAND FREE ENERGY PREDICTED BY IDOCK:   -7.85 KCAL/MOL
REMARK 924 INTRA-LIGAND FREE ENERGY PREDICTED BY IDOCK:   -0.58 KCAL/MOL
REMARK 927      BINDING AFFINITY PREDICTED BY RF-SCORE:    0.00 PKD
ROOT
HETATM    1  C   UNL     1     -11.857  14.341  66.012  1.00  0.00    -0.391 C  
HETATM    2  C   UNL     1     -11.782  13.760  64.622  1.00  0.00    -0.417 C  
HETATM    3  C   UNL     1     -10.782  12.628  64.580  1.00  0.00    -0.341 C  
HETATM    4  N   UNL     1     -11.130  11.556  65.526  1.00  0.00    -0.238 NA 
HETATM    5  C   UNL     1      -9.277  18.387  68.371  1.00  0.00    -0.322 C  
HETATM    6  C   UNL     1     -11.237  12.056  66.924  1.00  0.00    -0.320 C  
HETATM    7  C   UNL     1     -12.147  13.282  67.123  1.00  0.00    -0.352 C  
HETATM    8  N   UNL     1     -10.215  17.454  67.801  1.00  0.00    -0.329 NA 
HETATM    9  C   UNL     1     -10.299  17.329  66.324  1.00  0.00    -0.322 C  
HETATM   10  C   UNL     1     -11.742  14.130  68.319  1.00  0.00    -0.383 A  
HETATM   11  C   UNL     1     -12.071  14.110  69.652  1.00  0.00    -0.400 A  
HETATM   12  C   UNL     1      -9.802  15.963  65.862  1.00  0.00    -0.351 C  
HETATM   13  N   UNL     1     -10.587  14.905  66.459  1.00  0.00    -0.299 NA 
HETATM   14  C   UNL     1     -10.940  15.159  67.816  1.00  0.00    -0.306 A  
HETATM   15  C   UNL     1     -11.638  15.194  70.437  1.00  0.00    -0.330 A  
HETATM   16  C   UNL     1     -10.967  16.313  69.869  1.00  0.00    -0.365 A  
HETATM   17  C   UNL     1     -10.649  16.330  68.515  1.00  0.00    -0.294 A  
ENDROOT
BRANCH   4  18
HETATM   18  C   UNL     1     -10.062  10.537  65.423  1.00  0.00    -0.291 C  
BRANCH  18  19
HETATM   19  C   UNL     1      -9.666   9.928  66.762  1.00  0.00    -0.244 C  
BRANCH  19  20
HETATM   20  C   UNL     1      -8.451   9.023  66.619  1.00  0.00    -0.126 C  
BRANCH  20  21
HETATM   21  C   UNL     1      -8.632   7.729  67.379  1.00  0.00    -0.125 C  
HETATM   22  O   UNL     1      -8.581   7.672  68.605  1.00  0.00    -0.128 OA 
BRANCH  21  23
HETATM   23  C   UNL     1      -8.886   6.487  66.598  1.00  0.00    -0.135 A  
HETATM   24  C   UNL     1      -8.056   4.865  65.000  1.00  0.00    -0.107 A  
HETATM   25  C   UNL     1      -7.866   6.018  65.758  1.00  0.00    -0.104 A  
HETATM   26  C   UNL     1      -9.265   4.185  65.079  1.00  0.00    -0.154 A  
HETATM   27  F   UNL     1      -9.451   3.084  64.345  1.00  0.00    -0.125 F  
HETATM   28  C   UNL     1     -10.099   5.786  66.675  1.00  0.00    -0.235 A  
HETATM   29  C   UNL     1     -10.286   4.632  65.911  1.00  0.00    -0.315 A  
ENDBRANCH  21  23
ENDBRANCH  20  21
ENDBRANCH  19  20
ENDBRANCH  18  19
ENDBRANCH   4  18
TORSDOF 5
ENDMDL
MODEL       84
REMARK 921   NORMALIZED FREE ENERGY PREDICTED BY IDOCK:   -5.93 KCAL/MOL
REMARK 922        TOTAL FREE ENERGY PREDICTED BY IDOCK:   -8.43 KCAL/MOL
REMARK 923 INTER-LIGAND FREE ENERGY PREDICTED BY IDOCK:   -7.77 KCAL/MOL
REMARK 924 INTRA-LIGAND FREE ENERGY PREDICTED BY IDOCK:   -0.65 KCAL/MOL
REMARK 927      BINDING AFFINITY PREDICTED BY RF-SCORE:    0.00 PKD
ROOT
HETATM    1  C   UNL     1     -11.604  10.484  68.949  1.00  0.00    -0.196 C  
HETATM    2  C   UNL     1     -12.110  11.786  69.519  1.00  0.00    -0.314 C  
HETATM    3  C   UNL     1     -10.999  12.810  69.554  1.00  0.00     0.111 C  
HETATM    4  N   UNL     1     -10.445  13.061  68.214  1.00  0.00    -0.244 NA 
HETATM    5  C   UNL     1      -9.534   6.113  71.232  1.00  0.00    -0.163 C  
HETATM    6  C   UNL     1      -9.935  11.815  67.578  1.00  0.00    -0.192 C  
HETATM    7  C   UNL     1     -10.919  10.631  67.553  1.00  0.00    -0.371 C  
HETATM    8  N   UNL     1     -10.296   7.102  70.514  1.00  0.00    -0.200 NA 
HETATM    9  C   UNL     1     -11.112   8.079  71.279  1.00  0.00    -0.247 C  
HETATM   10  C   UNL     1     -10.218   9.281  67.530  1.00  0.00    -0.300 A  
HETATM   11  C   UNL     1      -9.761   8.466  66.525  1.00  0.00    -0.330 A  
HETATM   12  C   UNL     1     -10.552   9.490  71.136  1.00  0.00    -0.318 C  
HETATM   13  N   UNL     1     -10.533   9.894  69.748  1.00  0.00    -0.242 NA 
HETATM   14  C   UNL     1     -10.165   8.844  68.858  1.00  0.00    -0.206 A  
HETATM   15  C   UNL     1      -9.329   7.177  66.888  1.00  0.00    -0.189 A  
HETATM   16  C   UNL     1      -9.441   6.695  68.223  1.00  0.00    -0.123 A  
HETATM   17  C   UNL     1      -9.918   7.524  69.233  1.00  0.00    -0.179 A  
ENDROOT
BRANCH   4  18
HETATM   18  C   UNL     1      -9.348  14.038  68.385  1.00  0.00    -0.210 C  
BRANCH  18  19
HETATM   19  C   UNL     1      -9.825  15.479  68.507  1.00  0.00    -0.202 C  
BRANCH  19  20
HETATM   20  C   UNL     1     -10.865  15.809  67.447  1.00  0.00    -0.306 C  
BRANCH  20  21
HETATM   21  C   UNL     1     -10.240  16.485  66.249  1.00  0.00    -0.332 C  
HETATM   22  O   UNL     1     -10.326  16.026  65.112  1.00  0.00    -0.523 OA 
BRANCH  21  23
HETATM   23  C   UNL     1      -9.497  17.757  66.470  1.00  0.00    -0.300 A  
HETATM   24  C   UNL     1      -7.356  18.891  66.559  1.00  0.00    -0.252 A  
HETATM   25  C   UNL     1      -8.099  17.730  66.353  1.00  0.00    -0.296 A  
HETATM   26  C   UNL     1      -8.010  20.074  66.883  1.00  0.00    -0.309 A  
HETATM   27  F   UNL     1      -7.297  21.185  67.090  1.00  0.00    -0.392 F  
HETATM   28  C   UNL     1     -10.144  18.959  66.791  1.00  0.00    -0.425 A  
HETATM   29  C   UNL     1      -9.395  20.119  66.999  1.00  0.00    -0.523 A  
ENDBRANCH  21  23
ENDBRANCH  20  21
ENDBRANCH  19  20
ENDBRANCH  18  19
ENDBRANCH   4  18
TORSDOF 5
ENDMDL
MODEL       85
REMARK 921   NORMALIZED FREE ENERGY PREDICTED BY IDOCK:   -5.92 KCAL/MOL
REMARK 922        TOTAL FREE ENERGY PREDICTED BY IDOCK:   -8.41 KCAL/MOL
REMARK 923 INTER-LIGAND FREE ENERGY PREDICTED BY IDOCK:   -7.49 KCAL/MOL
REMARK 924 INTRA-LIGAND FREE ENERGY PREDICTED BY IDOCK:   -0.92 KCAL/MOL
REMARK 927      BINDING AFFINITY PREDICTED BY RF-SCORE:    0.00 PKD
ROOT
HETATM    1  C   UNL     1      -9.145   9.727  68.834  1.00  0.00    -0.148 C  
HETATM    2  C   UNL     1      -8.660  11.018  68.222  1.00  0.00    -0.143 C  
HETATM    3  C   UNL     1      -9.834  11.888  67.835  1.00  0.00    -0.190 C  
HETATM    4  N   UNL     1     -10.686  12.201  68.993  1.00  0.00    -0.169 NA 
HETATM    5  C   UNL     1     -10.229   4.927  66.740  1.00  0.00    -0.235 C  
HETATM    6  C   UNL     1     -11.195  10.972  69.663  1.00  0.00    -0.278 C  
HETATM    7  C   UNL     1     -10.126   9.928  70.033  1.00  0.00    -0.308 C  
HETATM    8  N   UNL     1      -9.742   6.070  67.469  1.00  0.00    -0.112 NA 
HETATM    9  C   UNL     1      -8.881   7.058  66.770  1.00  0.00    -0.126 C  
HETATM   10  C   UNL     1     -10.677   8.510  70.081  1.00  0.00    -0.240 A  
HETATM   11  C   UNL     1     -11.256   7.750  71.066  1.00  0.00    -0.282 A  
HETATM   12  C   UNL     1      -9.597   8.396  66.620  1.00  0.00    -0.229 C  
HETATM   13  N   UNL     1      -9.954   8.932  67.915  1.00  0.00    -0.170 NA 
HETATM   14  C   UNL     1     -10.399   7.940  68.835  1.00  0.00    -0.213 A  
HETATM   15  C   UNL     1     -11.469   6.388  70.786  1.00  0.00    -0.415 A  
HETATM   16  C   UNL     1     -11.025   5.792  69.572  1.00  0.00    -0.374 A  
HETATM   17  C   UNL     1     -10.427   6.568  68.585  1.00  0.00    -0.218 A  
ENDROOT
BRANCH   4  18
HETATM   18  C   UNL     1     -11.813  13.013  68.484  1.00  0.00    -0.325 C  
BRANCH  18  19
HETATM   19  C   UNL     1     -12.000  12.922  66.975  1.00  0.00    -0.390 C  
BRANCH  19  20
HETATM   20  C   UNL     1     -12.252  14.293  66.365  1.00  0.00    -0.426 C  
BRANCH  20  21
HETATM   21  C   UNL     1     -10.997  14.862  65.745  1.00  0.00    -0.345 C  
HETATM   22  O   UNL     1     -10.663  14.617  64.588  1.00  0.00    -0.393 OA 
BRANCH  21  23
HETATM   23  C   UNL     1     -10.145  15.755  66.579  1.00  0.00    -0.292 A  
HETATM   24  C   UNL     1      -8.030  16.097  67.713  1.00  0.00    -0.155 A  
HETATM   25  C   UNL     1      -8.863  15.304  66.927  1.00  0.00    -0.281 A  
HETATM   26  C   UNL     1      -8.480  17.337  68.152  1.00  0.00    -0.238 A  
HETATM   27  F   UNL     1      -7.684  18.093  68.914  1.00  0.00    -0.280 F  
HETATM   28  C   UNL     1     -10.583  17.012  67.024  1.00  0.00    -0.226 A  
HETATM   29  C   UNL     1      -9.745  17.802  67.814  1.00  0.00    -0.285 A  
ENDBRANCH  21  23
ENDBRANCH  20  21
ENDBRANCH  19  20
ENDBRANCH  18  19
ENDBRANCH   4  18
TORSDOF 5
ENDMDL
MODEL       86
REMARK 921   NORMALIZED FREE ENERGY PREDICTED BY IDOCK:   -5.91 KCAL/MOL
REMARK 922        TOTAL FREE ENERGY PREDICTED BY IDOCK:   -8.40 KCAL/MOL
REMARK 923 INTER-LIGAND FREE ENERGY PREDICTED BY IDOCK:   -6.42 KCAL/MOL
REMARK 924 INTRA-LIGAND FREE ENERGY PREDICTED BY IDOCK:   -1.98 KCAL/MOL
REMARK 927      BINDING AFFINITY PREDICTED BY RF-SCORE:    0.00 PKD
ROOT
HETATM    1  C   UNL     1      -8.301  10.361  69.160  1.00  0.00    -0.158 C  
HETATM    2  C   UNL     1      -6.996  10.186  68.423  1.00  0.00    -0.066 C  
HETATM    3  C   UNL     1      -7.199   9.330  67.194  1.00  0.00    -0.087 C  
HETATM    4  N   UNL     1      -8.189   9.916  66.276  1.00  0.00    -0.113 NA 
HETATM    5  C   UNL     1     -10.584   7.625  73.148  1.00  0.00    -0.379 C  
HETATM    6  C   UNL     1      -9.505  10.134  66.937  1.00  0.00    -0.169 C  
HETATM    7  C   UNL     1      -9.460  10.908  68.267  1.00  0.00    -0.168 C  
HETATM    8  N   UNL     1      -9.986   8.591  72.261  1.00  0.00    -0.312 NA 
HETATM    9  C   UNL     1      -8.530   8.507  71.982  1.00  0.00    -0.165 C  
HETATM   10  C   UNL     1     -10.613  10.555  69.195  1.00  0.00    -0.258 A  
HETATM   11  C   UNL     1     -11.884  11.045  69.359  1.00  0.00    -0.407 A  
HETATM   12  C   UNL     1      -8.273   8.124  70.528  1.00  0.00    -0.117 C  
HETATM   13  N   UNL     1      -8.859   9.097  69.633  1.00  0.00    -0.142 NA 
HETATM   14  C   UNL     1     -10.125   9.580  70.072  1.00  0.00    -0.242 A  
HETATM   15  C   UNL     1     -12.612  10.586  70.471  1.00  0.00    -0.423 A  
HETATM   16  C   UNL     1     -12.034   9.721  71.443  1.00  0.00    -0.493 A  
HETATM   17  C   UNL     1     -10.740   9.240  71.276  1.00  0.00    -0.352 A  
ENDROOT
BRANCH   4  18
HETATM   18  C   UNL     1      -8.330   8.974  65.145  1.00  0.00    -0.158 C  
BRANCH  18  19
HETATM   19  C   UNL     1      -7.446   7.739  65.263  1.00  0.00    -0.082 C  
BRANCH  19  20
HETATM   20  C   UNL     1      -8.257   6.461  65.101  1.00  0.00    -0.134 C  
BRANCH  20  21
HETATM   21  C   UNL     1      -8.155   5.582  66.326  1.00  0.00    -0.106 C  
HETATM   22  O   UNL     1      -7.259   4.753  66.470  1.00  0.00    -0.074 OA 
BRANCH  21  23
HETATM   23  C   UNL     1      -9.183   5.740  67.392  1.00  0.00    -0.109 A  
HETATM   24  C   UNL     1     -11.222   6.826  68.127  1.00  0.00    -0.154 A  
HETATM   25  C   UNL     1     -10.239   6.635  67.159  1.00  0.00    -0.275 A  
HETATM   26  C   UNL     1     -11.148   6.127  69.326  1.00  0.00    -0.393 A  
HETATM   27  F   UNL     1     -12.086   6.317  70.258  1.00  0.00    -0.426 F  
HETATM   28  C   UNL     1      -9.125   5.036  68.603  1.00  0.00    -0.139 A  
HETATM   29  C   UNL     1     -10.111   5.233  69.572  1.00  0.00    -0.322 A  
ENDBRANCH  21  23
ENDBRANCH  20  21
ENDBRANCH  19  20
ENDBRANCH  18  19
ENDBRANCH   4  18
TORSDOF 5
ENDMDL
MODEL       87
REMARK 921   NORMALIZED FREE ENERGY PREDICTED BY IDOCK:   -5.90 KCAL/MOL
REMARK 922        TOTAL FREE ENERGY PREDICTED BY IDOCK:   -8.38 KCAL/MOL
REMARK 923 INTER-LIGAND FREE ENERGY PREDICTED BY IDOCK:   -7.29 KCAL/MOL
REMARK 924 INTRA-LIGAND FREE ENERGY PREDICTED BY IDOCK:   -1.10 KCAL/MOL
REMARK 927      BINDING AFFINITY PREDICTED BY RF-SCORE:    0.00 PKD
ROOT
HETATM    1  C   UNL     1     -10.875  17.024  67.452  1.00  0.00    -0.165 C  
HETATM    2  C   UNL     1     -10.272  18.375  67.748  1.00  0.00    -0.407 C  
HETATM    3  C   UNL     1      -8.768  18.319  67.614  1.00  0.00    -0.256 C  
HETATM    4  N   UNL     1      -8.355  17.899  66.265  1.00  0.00    -0.431 NA 
HETATM    5  C   UNL     1     -12.145  12.879  70.583  1.00  0.00    -0.235 C  
HETATM    6  C   UNL     1      -8.924  16.575  65.893  1.00  0.00    -0.130 C  
HETATM    7  C   UNL     1     -10.446  16.432  66.071  1.00  0.00    -0.333 C  
HETATM    8  N   UNL     1     -12.090  13.991  69.669  1.00  0.00    -0.340 NA 
HETATM    9  C   UNL     1     -11.911  15.362  70.211  1.00  0.00    -0.355 C  
HETATM   10  C   UNL     1     -10.880  14.996  66.325  1.00  0.00    -0.333 A  
HETATM   11  C   UNL     1     -11.232  13.952  65.508  1.00  0.00    -0.307 A  
HETATM   12  C   UNL     1     -10.554  15.933  69.815  1.00  0.00    -0.322 C  
HETATM   13  N   UNL     1     -10.424  15.988  68.376  1.00  0.00    -0.252 NA 
HETATM   14  C   UNL     1     -10.988  14.860  67.714  1.00  0.00    -0.293 A  
HETATM   15  C   UNL     1     -11.770  12.807  66.122  1.00  0.00    -0.458 A  
HETATM   16  C   UNL     1     -12.027  12.755  67.522  1.00  0.00    -0.342 A  
HETATM   17  C   UNL     1     -11.678  13.823  68.341  1.00  0.00    -0.358 A  
ENDROOT
BRANCH   4  18
HETATM   18  C   UNL     1      -6.877  17.841  66.274  1.00  0.00    -0.272 C  
BRANCH  18  19
HETATM   19  C   UNL     1      -6.243  18.526  67.477  1.00  0.00    -0.185 C  
BRANCH  19  20
HETATM   20  C   UNL     1      -5.170  17.652  68.109  1.00  0.00    -0.140 C  
BRANCH  20  21
HETATM   21  C   UNL     1      -5.488  17.343  69.554  1.00  0.00    -0.193 C  
HETATM   22  O   UNL     1      -5.674  18.224  70.391  1.00  0.00    -0.237 OA 
BRANCH  21  23
HETATM   23  C   UNL     1      -5.579  15.914  69.963  1.00  0.00    -0.155 A  
HETATM   24  C   UNL     1      -6.092  13.631  69.331  1.00  0.00    -0.104 A  
HETATM   25  C   UNL     1      -5.982  14.979  68.998  1.00  0.00    -0.096 A  
HETATM   26  C   UNL     1      -5.802  13.220  70.627  1.00  0.00    -0.150 A  
HETATM   27  F   UNL     1      -5.916  11.928  70.949  1.00  0.00    -0.151 F  
HETATM   28  C   UNL     1      -5.283  15.484  71.265  1.00  0.00    -0.083 A  
HETATM   29  C   UNL     1      -5.397  14.132  71.595  1.00  0.00    -0.203 A  
ENDBRANCH  21  23
ENDBRANCH  20  21
ENDBRANCH  19  20
ENDBRANCH  18  19
ENDBRANCH   4  18
TORSDOF 5
ENDMDL
MODEL       88
REMARK 921   NORMALIZED FREE ENERGY PREDICTED BY IDOCK:   -5.90 KCAL/MOL
REMARK 922        TOTAL FREE ENERGY PREDICTED BY IDOCK:   -8.38 KCAL/MOL
REMARK 923 INTER-LIGAND FREE ENERGY PREDICTED BY IDOCK:   -7.69 KCAL/MOL
REMARK 924 INTRA-LIGAND FREE ENERGY PREDICTED BY IDOCK:   -0.69 KCAL/MOL
REMARK 927      BINDING AFFINITY PREDICTED BY RF-SCORE:    0.00 PKD
ROOT
HETATM    1  C   UNL     1      -8.893  11.654  66.126  1.00  0.00    -0.139 C  
HETATM    2  C   UNL     1      -8.011  11.075  67.204  1.00  0.00    -0.135 C  
HETATM    3  C   UNL     1      -8.854  10.478  68.307  1.00  0.00    -0.139 C  
HETATM    4  N   UNL     1      -9.745   9.422  67.803  1.00  0.00    -0.147 NA 
HETATM    5  C   UNL     1     -10.891  16.554  65.349  1.00  0.00    -0.206 C  
HETATM    6  C   UNL     1     -10.642   9.914  66.722  1.00  0.00    -0.144 C  
HETATM    7  C   UNL     1      -9.943  10.644  65.561  1.00  0.00    -0.333 C  
HETATM    8  N   UNL     1     -10.228  15.276  65.293  1.00  0.00    -0.370 NA 
HETATM    9  C   UNL     1      -9.053  15.034  66.168  1.00  0.00    -0.202 C  
HETATM   10  C   UNL     1     -10.845  11.657  64.871  1.00  0.00    -0.359 A  
HETATM   11  C   UNL     1     -11.731  11.582  63.826  1.00  0.00    -0.276 A  
HETATM   12  C   UNL     1      -9.369  13.985  67.229  1.00  0.00    -0.230 C  
HETATM   13  N   UNL     1      -9.748  12.733  66.613  1.00  0.00    -0.246 NA 
HETATM   14  C   UNL     1     -10.557  12.897  65.452  1.00  0.00    -0.289 A  
HETATM   15  C   UNL     1     -12.250  12.793  63.334  1.00  0.00    -0.594 A  
HETATM   16  C   UNL     1     -11.815  14.055  63.832  1.00  0.00    -0.263 A  
HETATM   17  C   UNL     1     -10.906  14.121  64.883  1.00  0.00    -0.411 A  
ENDROOT
BRANCH   4  18
HETATM   18  C   UNL     1     -10.541   8.952  68.958  1.00  0.00    -0.183 C  
BRANCH  18  19
HETATM   19  C   UNL     1     -10.893  10.054  69.949  1.00  0.00    -0.328 C  
BRANCH  19  20
HETATM   20  C   UNL     1     -10.710   9.585  71.385  1.00  0.00    -0.348 C  
BRANCH  20  21
HETATM   21  C   UNL     1     -11.670   8.471  71.730  1.00  0.00    -0.327 C  
HETATM   22  O   UNL     1     -12.884   8.571  71.566  1.00  0.00    -0.320 OA 
BRANCH  21  23
HETATM   23  C   UNL     1     -11.109   7.208  72.286  1.00  0.00    -0.289 A  
HETATM   24  C   UNL     1     -10.553   4.878  71.920  1.00  0.00    -0.186 A  
HETATM   25  C   UNL     1     -11.060   6.085  71.446  1.00  0.00    -0.336 A  
HETATM   26  C   UNL     1     -10.098   4.793  73.231  1.00  0.00    -0.160 A  
HETATM   27  F   UNL     1      -9.620   3.632  73.688  1.00  0.00    -0.106 F  
HETATM   28  C   UNL     1     -10.640   7.110  73.604  1.00  0.00    -0.375 A  
HETATM   29  C   UNL     1     -10.135   5.897  74.075  1.00  0.00    -0.252 A  
ENDBRANCH  21  23
ENDBRANCH  20  21
ENDBRANCH  19  20
ENDBRANCH  18  19
ENDBRANCH   4  18
TORSDOF 5
ENDMDL
MODEL       89
REMARK 921   NORMALIZED FREE ENERGY PREDICTED BY IDOCK:   -5.87 KCAL/MOL
REMARK 922        TOTAL FREE ENERGY PREDICTED BY IDOCK:   -8.35 KCAL/MOL
REMARK 923 INTER-LIGAND FREE ENERGY PREDICTED BY IDOCK:   -7.86 KCAL/MOL
REMARK 924 INTRA-LIGAND FREE ENERGY PREDICTED BY IDOCK:   -0.48 KCAL/MOL
REMARK 927      BINDING AFFINITY PREDICTED BY RF-SCORE:    0.00 PKD
ROOT
HETATM    1  C   UNL     1      -8.358  15.804  66.994  1.00  0.00    -0.226 C  
HETATM    2  C   UNL     1      -8.059  14.390  67.429  1.00  0.00    -0.217 C  
HETATM    3  C   UNL     1      -8.994  13.976  68.541  1.00  0.00    -0.160 C  
HETATM    4  N   UNL     1     -10.404  14.058  68.129  1.00  0.00    -0.236 NA 
HETATM    5  C   UNL     1      -6.395  20.537  68.526  1.00  0.00    -0.306 C  
HETATM    6  C   UNL     1     -10.774  15.426  67.671  1.00  0.00    -0.292 C  
HETATM    7  C   UNL     1      -9.851  16.040  66.602  1.00  0.00    -0.273 C  
HETATM    8  N   UNL     1      -6.825  19.342  67.845  1.00  0.00    -0.239 NA 
HETATM    9  C   UNL     1      -6.098  18.072  68.091  1.00  0.00    -0.176 C  
HETATM   10  C   UNL     1      -9.831  17.561  66.643  1.00  0.00    -0.308 A  
HETATM   11  C   UNL     1     -10.589  18.537  66.045  1.00  0.00    -0.368 A  
HETATM   12  C   UNL     1      -6.979  17.071  68.830  1.00  0.00    -0.219 C  
HETATM   13  N   UNL     1      -8.171  16.778  68.066  1.00  0.00    -0.188 NA 
HETATM   14  C   UNL     1      -8.715  17.918  67.407  1.00  0.00    -0.237 A  
HETATM   15  C   UNL     1     -10.144  19.865  66.171  1.00  0.00    -0.611 A  
HETATM   16  C   UNL     1      -8.914  20.188  66.812  1.00  0.00    -0.431 A  
HETATM   17  C   UNL     1      -8.146  19.191  67.404  1.00  0.00    -0.271 A  
ENDROOT
BRANCH   4  18
HETATM   18  C   UNL     1     -11.213  13.673  69.306  1.00  0.00    -0.233 C  
BRANCH  18  19
HETATM   19  C   UNL     1     -12.034  12.407  69.097  1.00  0.00    -0.291 C  
BRANCH  19  20
HETATM   20  C   UNL     1     -11.199  11.306  68.458  1.00  0.00    -0.311 C  
BRANCH  20  21
HETATM   21  C   UNL     1     -10.961  10.164  69.418  1.00  0.00    -0.245 C  
HETATM   22  O   UNL     1     -10.901  10.326  70.635  1.00  0.00    -0.291 OA 
BRANCH  21  23
HETATM   23  C   UNL     1     -10.798   8.795  68.854  1.00  0.00    -0.040 A  
HETATM   24  C   UNL     1     -10.692   6.409  69.264  1.00  0.00    -0.349 A  
HETATM   25  C   UNL     1     -10.848   7.709  69.740  1.00  0.00    -0.222 A  
HETATM   26  C   UNL     1     -10.485   6.197  67.906  1.00  0.00    -0.229 A  
HETATM   27  F   UNL     1     -10.327   4.951  67.451  1.00  0.00    -0.211 F  
HETATM   28  C   UNL     1     -10.596   8.566  67.484  1.00  0.00    -0.284 A  
HETATM   29  C   UNL     1     -10.438   7.262  67.013  1.00  0.00    -0.398 A  
ENDBRANCH  21  23
ENDBRANCH  20  21
ENDBRANCH  19  20
ENDBRANCH  18  19
ENDBRANCH   4  18
TORSDOF 5
ENDMDL
MODEL       90
REMARK 921   NORMALIZED FREE ENERGY PREDICTED BY IDOCK:   -5.86 KCAL/MOL
REMARK 922        TOTAL FREE ENERGY PREDICTED BY IDOCK:   -8.33 KCAL/MOL
REMARK 923 INTER-LIGAND FREE ENERGY PREDICTED BY IDOCK:   -6.98 KCAL/MOL
REMARK 924 INTRA-LIGAND FREE ENERGY PREDICTED BY IDOCK:   -1.34 KCAL/MOL
REMARK 927      BINDING AFFINITY PREDICTED BY RF-SCORE:    0.00 PKD
ROOT
HETATM    1  C   UNL     1     -11.846  12.814  67.552  1.00  0.00    -0.343 C  
HETATM    2  C   UNL     1     -11.525  11.853  66.434  1.00  0.00    -0.371 C  
HETATM    3  C   UNL     1     -10.403  10.928  66.844  1.00  0.00    -0.238 C  
HETATM    4  N   UNL     1     -10.743  10.157  68.050  1.00  0.00    -0.241 NA 
HETATM    5  C   UNL     1     -10.079  17.730  68.700  1.00  0.00    -0.384 C  
HETATM    6  C   UNL     1     -11.087  11.039  69.199  1.00  0.00    -0.243 C  
HETATM    7  C   UNL     1     -12.151  12.115  68.915  1.00  0.00    -0.187 C  
HETATM    8  N   UNL     1     -10.820  16.536  68.381  1.00  0.00    -0.335 NA 
HETATM    9  C   UNL     1     -10.698  15.953  67.021  1.00  0.00    -0.292 C  
HETATM   10  C   UNL     1     -12.006  13.340  69.806  1.00  0.00    -0.391 A  
HETATM   11  C   UNL     1     -12.499  13.680  71.041  1.00  0.00    -0.456 A  
HETATM   12  C   UNL     1      -9.991  14.603  67.067  1.00  0.00    -0.246 C  
HETATM   13  N   UNL     1     -10.718  13.673  67.902  1.00  0.00    -0.243 NA 
HETATM   14  C   UNL     1     -11.270  14.274  69.070  1.00  0.00    -0.266 A  
HETATM   15  C   UNL     1     -12.301  15.004  71.471  1.00  0.00    -0.398 A  
HETATM   16  C   UNL     1     -11.695  15.983  70.633  1.00  0.00    -0.376 A  
HETATM   17  C   UNL     1     -11.210  15.633  69.378  1.00  0.00    -0.313 A  
ENDROOT
BRANCH   4  18
HETATM   18  C   UNL     1      -9.561   9.329  68.372  1.00  0.00    -0.147 C  
BRANCH  18  19
HETATM   19  C   UNL     1      -8.533  10.041  69.242  1.00  0.00    -0.165 C  
BRANCH  19  20
HETATM   20  C   UNL     1      -7.212  10.215  68.506  1.00  0.00    -0.080 C  
BRANCH  20  21
HETATM   21  C   UNL     1      -6.966  11.662  68.146  1.00  0.00    -0.071 C  
HETATM   22  O   UNL     1      -7.141  12.099  67.010  1.00  0.00    -0.133 OA 
BRANCH  21  23
HETATM   23  C   UNL     1      -6.498  12.583  69.219  1.00  0.00    -0.104 A  
HETATM   24  C   UNL     1      -6.456  14.835  70.113  1.00  0.00    -0.163 A  
HETATM   25  C   UNL     1      -6.875  13.931  69.140  1.00  0.00    -0.108 A  
HETATM   26  C   UNL     1      -5.659  14.391  71.162  1.00  0.00    -0.183 A  
HETATM   27  F   UNL     1      -5.250  15.260  72.091  1.00  0.00    -0.159 F  
HETATM   28  C   UNL     1      -5.699  12.147  70.288  1.00  0.00    -0.163 A  
HETATM   29  C   UNL     1      -5.280  13.057  71.260  1.00  0.00    -0.182 A  
ENDBRANCH  21  23
ENDBRANCH  20  21
ENDBRANCH  19  20
ENDBRANCH  18  19
ENDBRANCH   4  18
TORSDOF 5
ENDMDL
MODEL       91
REMARK 921   NORMALIZED FREE ENERGY PREDICTED BY IDOCK:   -5.81 KCAL/MOL
REMARK 922        TOTAL FREE ENERGY PREDICTED BY IDOCK:   -8.27 KCAL/MOL
REMARK 923 INTER-LIGAND FREE ENERGY PREDICTED BY IDOCK:   -7.79 KCAL/MOL
REMARK 924 INTRA-LIGAND FREE ENERGY PREDICTED BY IDOCK:   -0.47 KCAL/MOL
REMARK 927      BINDING AFFINITY PREDICTED BY RF-SCORE:    0.00 PKD
ROOT
HETATM    1  C   UNL     1     -11.673  13.539  66.587  1.00  0.00    -0.387 C  
HETATM    2  C   UNL     1     -11.561  12.534  65.467  1.00  0.00    -0.429 C  
HETATM    3  C   UNL     1     -10.742  11.344  65.912  1.00  0.00    -0.255 C  
HETATM    4  N   UNL     1     -11.331  10.683  67.087  1.00  0.00    -0.329 NA 
HETATM    5  C   UNL     1      -8.737  17.812  67.902  1.00  0.00    -0.251 C  
HETATM    6  C   UNL     1     -11.488  11.619  68.235  1.00  0.00    -0.303 C  
HETATM    7  C   UNL     1     -12.217  12.938  67.921  1.00  0.00    -0.029 C  
HETATM    8  N   UNL     1      -9.749  16.857  67.528  1.00  0.00    -0.246 NA 
HETATM    9  C   UNL     1      -9.718  16.269  66.165  1.00  0.00    -0.329 C  
HETATM   10  C   UNL     1     -11.799  14.076  68.840  1.00  0.00    -0.390 A  
HETATM   11  C   UNL     1     -12.246  14.527  70.057  1.00  0.00    -0.396 A  
HETATM   12  C   UNL     1      -9.392  14.780  66.219  1.00  0.00    -0.278 C  
HETATM   13  N   UNL     1     -10.378  14.070  67.003  1.00  0.00    -0.266 NA 
HETATM   14  C   UNL     1     -10.810  14.789  68.155  1.00  0.00    -0.254 A  
HETATM   15  C   UNL     1     -11.729  15.751  70.519  1.00  0.00    -0.400 A  
HETATM   16  C   UNL     1     -10.848  16.541  69.728  1.00  0.00    -0.302 A  
HETATM   17  C   UNL     1     -10.411  16.082  68.490  1.00  0.00    -0.241 A  
ENDROOT
BRANCH   4  18
HETATM   18  C   UNL     1     -10.425   9.572  67.448  1.00  0.00    -0.272 C  
BRANCH  18  19
HETATM   19  C   UNL     1      -9.794   9.719  68.827  1.00  0.00    -0.176 C  
BRANCH  19  20
HETATM   20  C   UNL     1     -10.425   8.761  69.828  1.00  0.00    -0.222 C  
BRANCH  20  21
HETATM   21  C   UNL     1      -9.405   8.242  70.815  1.00  0.00    -0.161 C  
HETATM   22  O   UNL     1      -8.245   8.646  70.839  1.00  0.00    -0.114 OA 
BRANCH  21  23
HETATM   23  C   UNL     1      -9.839   7.205  71.791  1.00  0.00    -0.171 A  
HETATM   24  C   UNL     1     -10.908   5.062  72.165  1.00  0.00    -0.179 A  
HETATM   25  C   UNL     1     -10.474   6.057  71.293  1.00  0.00    -0.283 A  
HETATM   26  C   UNL     1     -10.709   5.214  73.532  1.00  0.00    -0.286 A  
HETATM   27  F   UNL     1     -11.133   4.263  74.369  1.00  0.00    -0.256 F  
HETATM   28  C   UNL     1      -9.638   7.343  73.173  1.00  0.00    -0.259 A  
HETATM   29  C   UNL     1     -10.077   6.343  74.043  1.00  0.00    -0.328 A  
ENDBRANCH  21  23
ENDBRANCH  20  21
ENDBRANCH  19  20
ENDBRANCH  18  19
ENDBRANCH   4  18
TORSDOF 5
ENDMDL
MODEL       92
REMARK 921   NORMALIZED FREE ENERGY PREDICTED BY IDOCK:   -5.79 KCAL/MOL
REMARK 922        TOTAL FREE ENERGY PREDICTED BY IDOCK:   -8.25 KCAL/MOL
REMARK 923 INTER-LIGAND FREE ENERGY PREDICTED BY IDOCK:   -7.44 KCAL/MOL
REMARK 924 INTRA-LIGAND FREE ENERGY PREDICTED BY IDOCK:   -0.80 KCAL/MOL
REMARK 927      BINDING AFFINITY PREDICTED BY RF-SCORE:    0.00 PKD
ROOT
HETATM    1  C   UNL     1     -10.133   9.339  66.566  1.00  0.00    -0.273 C  
HETATM    2  C   UNL     1     -10.688   9.946  67.831  1.00  0.00    -0.316 C  
HETATM    3  C   UNL     1      -9.931  11.206  68.184  1.00  0.00    -0.178 C  
HETATM    4  N   UNL     1     -10.002  12.206  67.106  1.00  0.00    -0.199 NA 
HETATM    5  C   UNL     1      -6.356   5.656  65.690  1.00  0.00    -0.038 C  
HETATM    6  C   UNL     1      -9.483  11.675  65.816  1.00  0.00    -0.226 C  
HETATM    7  C   UNL     1     -10.083  10.332  65.361  1.00  0.00    -0.354 C  
HETATM    8  N   UNL     1      -7.549   6.458  65.781  1.00  0.00    -0.082 NA 
HETATM    9  C   UNL     1      -8.228   6.593  67.095  1.00  0.00    -0.113 C  
HETATM   10  C   UNL     1      -9.136   9.531  64.479  1.00  0.00    -0.250 A  
HETATM   11  C   UNL     1      -8.908   9.485  63.127  1.00  0.00    -0.239 A  
HETATM   12  C   UNL     1      -8.125   8.021  67.620  1.00  0.00    -0.124 C  
HETATM   13  N   UNL     1      -8.731   8.950  66.692  1.00  0.00    -0.125 NA 
HETATM   14  C   UNL     1      -8.482   8.629  65.326  1.00  0.00    -0.179 A  
HETATM   15  C   UNL     1      -8.071   8.460  62.650  1.00  0.00    -0.176 A  
HETATM   16  C   UNL     1      -7.550   7.453  63.511  1.00  0.00    -0.121 A  
HETATM   17  C   UNL     1      -7.797   7.500  64.879  1.00  0.00    -0.128 A  
ENDROOT
BRANCH   4  18
HETATM   18  C   UNL     1      -9.196  13.364  67.548  1.00  0.00    -0.219 C  
BRANCH  18  19
HETATM   19  C   UNL     1      -9.571  14.670  66.860  1.00  0.00    -0.253 C  
BRANCH  19  20
HETATM   20  C   UNL     1     -11.029  15.028  67.109  1.00  0.00    -0.329 C  
BRANCH  20  21
HETATM   21  C   UNL     1     -11.181  15.919  68.320  1.00  0.00    -0.354 C  
HETATM   22  O   UNL     1     -10.877  17.110  68.304  1.00  0.00    -0.369 OA 
BRANCH  21  23
HETATM   23  C   UNL     1     -11.725  15.319  69.569  1.00  0.00    -0.359 A  
HETATM   24  C   UNL     1     -12.590  13.351  70.689  1.00  0.00    -0.325 A  
HETATM   25  C   UNL     1     -12.068  13.959  69.550  1.00  0.00    -0.393 A  
HETATM   26  C   UNL     1     -12.770  14.102  71.845  1.00  0.00    -0.320 A  
HETATM   27  F   UNL     1     -13.278  13.521  72.935  1.00  0.00    -0.577 F  
HETATM   28  C   UNL     1     -11.905  16.064  70.744  1.00  0.00    -0.372 A  
HETATM   29  C   UNL     1     -12.431  15.450  71.884  1.00  0.00    -0.452 A  
ENDBRANCH  21  23
ENDBRANCH  20  21
ENDBRANCH  19  20
ENDBRANCH  18  19
ENDBRANCH   4  18
TORSDOF 5
ENDMDL
MODEL       93
REMARK 921   NORMALIZED FREE ENERGY PREDICTED BY IDOCK:   -5.79 KCAL/MOL
REMARK 922        TOTAL FREE ENERGY PREDICTED BY IDOCK:   -8.25 KCAL/MOL
REMARK 923 INTER-LIGAND FREE ENERGY PREDICTED BY IDOCK:   -7.65 KCAL/MOL
REMARK 924 INTRA-LIGAND FREE ENERGY PREDICTED BY IDOCK:   -0.60 KCAL/MOL
REMARK 927      BINDING AFFINITY PREDICTED BY RF-SCORE:    0.00 PKD
ROOT
HETATM    1  C   UNL     1     -11.348  11.997  66.141  1.00  0.00    -0.351 C  
HETATM    2  C   UNL     1     -12.464  12.876  65.631  1.00  0.00    -0.400 C  
HETATM    3  C   UNL     1     -12.113  14.333  65.824  1.00  0.00    -0.405 C  
HETATM    4  N   UNL     1     -10.868  14.693  65.128  1.00  0.00    -0.373 NA 
HETATM    5  C   UNL     1     -10.446   9.713  70.892  1.00  0.00    -0.289 C  
HETATM    6  C   UNL     1      -9.718  13.856  65.569  1.00  0.00    -0.088 C  
HETATM    7  C   UNL     1      -9.951  12.335  65.531  1.00  0.00    -0.264 C  
HETATM    8  N   UNL     1     -10.683  10.050  69.512  1.00  0.00    -0.228 NA 
HETATM    9  C   UNL     1     -12.034  10.511  69.103  1.00  0.00    -0.077 C  
HETATM   10  C   UNL     1      -9.101  11.581  66.544  1.00  0.00    -0.199 A  
HETATM   11  C   UNL     1      -7.843  11.035  66.508  1.00  0.00    -0.155 A  
HETATM   12  C   UNL     1     -12.007  11.975  68.680  1.00  0.00    -0.235 C  
HETATM   13  N   UNL     1     -11.100  12.169  67.570  1.00  0.00    -0.259 NA 
HETATM   14  C   UNL     1      -9.911  11.392  67.669  1.00  0.00    -0.176 A  
HETATM   15  C   UNL     1      -7.459  10.231  67.597  1.00  0.00    -0.089 A  
HETATM   16  C   UNL     1      -8.361   9.917  68.653  1.00  0.00    -0.110 A  
HETATM   17  C   UNL     1      -9.640  10.464  68.674  1.00  0.00    -0.166 A  
ENDROOT
BRANCH   4  18
HETATM   18  C   UNL     1     -10.612  16.118  65.426  1.00  0.00    -0.380 C  
BRANCH  18  19
HETATM   19  C   UNL     1      -9.300  16.365  66.159  1.00  0.00    -0.360 C  
BRANCH  19  20
HETATM   20  C   UNL     1      -9.136  17.835  66.519  1.00  0.00    -0.281 C  
BRANCH  20  21
HETATM   21  C   UNL     1      -7.711  18.297  66.321  1.00  0.00    -0.248 C  
HETATM   22  O   UNL     1      -7.092  18.100  65.278  1.00  0.00    -0.479 OA 
BRANCH  21  23
HETATM   23  C   UNL     1      -7.046  19.020  67.441  1.00  0.00    -0.226 A  
HETATM   24  C   UNL     1      -6.260  18.969  69.733  1.00  0.00    -0.266 A  
HETATM   25  C   UNL     1      -6.868  18.335  68.652  1.00  0.00    -0.261 A  
HETATM   26  C   UNL     1      -5.834  20.286  69.603  1.00  0.00    -0.346 A  
HETATM   27  F   UNL     1      -5.259  20.897  70.643  1.00  0.00    -0.305 F  
HETATM   28  C   UNL     1      -6.605  20.347  67.322  1.00  0.00    -0.283 A  
HETATM   29  C   UNL     1      -5.999  20.979  68.409  1.00  0.00    -0.349 A  
ENDBRANCH  21  23
ENDBRANCH  20  21
ENDBRANCH  19  20
ENDBRANCH  18  19
ENDBRANCH   4  18
TORSDOF 5
ENDMDL
MODEL       94
REMARK 921   NORMALIZED FREE ENERGY PREDICTED BY IDOCK:   -5.79 KCAL/MOL
REMARK 922        TOTAL FREE ENERGY PREDICTED BY IDOCK:   -8.24 KCAL/MOL
REMARK 923 INTER-LIGAND FREE ENERGY PREDICTED BY IDOCK:   -7.16 KCAL/MOL
REMARK 924 INTRA-LIGAND FREE ENERGY PREDICTED BY IDOCK:   -1.07 KCAL/MOL
REMARK 927      BINDING AFFINITY PREDICTED BY RF-SCORE:    0.00 PKD
ROOT
HETATM    1  C   UNL     1      -9.606   9.196  68.762  1.00  0.00    -0.159 C  
HETATM    2  C   UNL     1      -9.466  10.678  69.006  1.00  0.00    -0.202 C  
HETATM    3  C   UNL     1      -9.284  11.410  67.696  1.00  0.00    -0.158 C  
HETATM    4  N   UNL     1     -10.415  11.183  66.782  1.00  0.00    -0.241 NA 
HETATM    5  C   UNL     1      -6.039   5.213  68.630  1.00  0.00    -0.029 C  
HETATM    6  C   UNL     1     -10.626   9.736  66.502  1.00  0.00    -0.080 C  
HETATM    7  C   UNL     1     -10.730   8.829  67.741  1.00  0.00    -0.193 C  
HETATM    8  N   UNL     1      -7.124   6.127  68.882  1.00  0.00    -0.079 NA 
HETATM    9  C   UNL     1      -6.836   7.420  69.554  1.00  0.00    -0.049 C  
HETATM   10  C   UNL     1     -10.290   7.398  67.464  1.00  0.00    -0.320 A  
HETATM   11  C   UNL     1     -10.941   6.274  67.022  1.00  0.00    -0.442 A  
HETATM   12  C   UNL     1      -7.058   8.591  68.603  1.00  0.00    -0.072 C  
HETATM   13  N   UNL     1      -8.425   8.612  68.130  1.00  0.00    -0.130 NA 
HETATM   14  C   UNL     1      -8.952   7.316  67.865  1.00  0.00    -0.130 A  
HETATM   15  C   UNL     1     -10.234   5.059  67.073  1.00  0.00    -0.253 A  
HETATM   16  C   UNL     1      -8.931   4.971  67.640  1.00  0.00    -0.115 A  
HETATM   17  C   UNL     1      -8.284   6.114  68.098  1.00  0.00    -0.114 A  
ENDROOT
BRANCH   4  18
HETATM   18  C   UNL     1     -10.101  11.909  65.532  1.00  0.00    -0.245 C  
BRANCH  18  19
HETATM   19  C   UNL     1     -11.287  12.667  64.950  1.00  0.00    -0.347 C  
BRANCH  19  20
HETATM   20  C   UNL     1     -12.165  13.248  66.049  1.00  0.00    -0.483 C  
BRANCH  20  21
HETATM   21  C   UNL     1     -11.585  14.530  66.601  1.00  0.00    -0.375 C  
HETATM   22  O   UNL     1     -11.111  15.404  65.879  1.00  0.00    -0.321 OA 
BRANCH  21  23
HETATM   23  C   UNL     1     -11.599  14.727  68.077  1.00  0.00    -0.367 A  
HETATM   24  C   UNL     1     -12.047  13.788  70.266  1.00  0.00    -0.425 A  
HETATM   25  C   UNL     1     -12.007  13.652  68.880  1.00  0.00    -0.392 A  
HETATM   26  C   UNL     1     -11.682  14.997  70.846  1.00  0.00    -0.328 A  
HETATM   27  F   UNL     1     -11.729  15.130  72.175  1.00  0.00    -0.393 F  
HETATM   28  C   UNL     1     -11.228  15.940  68.676  1.00  0.00    -0.360 A  
HETATM   29  C   UNL     1     -11.272  16.072  70.066  1.00  0.00    -0.362 A  
ENDBRANCH  21  23
ENDBRANCH  20  21
ENDBRANCH  19  20
ENDBRANCH  18  19
ENDBRANCH   4  18
TORSDOF 5
ENDMDL
MODEL       95
REMARK 921   NORMALIZED FREE ENERGY PREDICTED BY IDOCK:   -5.75 KCAL/MOL
REMARK 922        TOTAL FREE ENERGY PREDICTED BY IDOCK:   -8.20 KCAL/MOL
REMARK 923 INTER-LIGAND FREE ENERGY PREDICTED BY IDOCK:   -7.54 KCAL/MOL
REMARK 924 INTRA-LIGAND FREE ENERGY PREDICTED BY IDOCK:   -0.66 KCAL/MOL
REMARK 927      BINDING AFFINITY PREDICTED BY RF-SCORE:    0.00 PKD
ROOT
HETATM    1  C   UNL     1     -10.880   5.847  68.126  1.00  0.00    -0.236 C  
HETATM    2  C   UNL     1     -11.230   6.927  67.132  1.00  0.00    -0.218 C  
HETATM    3  C   UNL     1      -9.990   7.690  66.728  1.00  0.00    -0.247 C  
HETATM    4  N   UNL     1      -8.975   6.807  66.132  1.00  0.00    -0.153 NA 
HETATM    5  C   UNL     1     -10.777   5.765  73.472  1.00  0.00    -0.269 C  
HETATM    6  C   UNL     1      -8.585   5.703  67.052  1.00  0.00    -0.109 C  
HETATM    7  C   UNL     1      -9.750   4.885  67.638  1.00  0.00    -0.197 C  
HETATM    8  N   UNL     1     -11.000   5.566  72.063  1.00  0.00    -0.236 NA 
HETATM    9  C   UNL     1     -11.775   6.581  71.305  1.00  0.00    -0.331 C  
HETATM   10  C   UNL     1      -9.417   4.266  68.987  1.00  0.00    -0.242 A  
HETATM   11  C   UNL     1      -8.851   3.076  69.372  1.00  0.00    -0.151 A  
HETATM   12  C   UNL     1     -10.888   7.310  70.302  1.00  0.00    -0.245 C  
HETATM   13  N   UNL     1     -10.309   6.377  69.361  1.00  0.00    -0.193 NA 
HETATM   14  C   UNL     1      -9.918   5.143  69.955  1.00  0.00    -0.246 A  
HETATM   15  C   UNL     1      -8.879   2.764  70.744  1.00  0.00    -0.146 A  
HETATM   16  C   UNL     1      -9.543   3.596  71.690  1.00  0.00    -0.226 A  
HETATM   17  C   UNL     1     -10.126   4.793  71.288  1.00  0.00    -0.188 A  
ENDROOT
BRANCH   4  18
HETATM   18  C   UNL     1      -7.804   7.656  65.822  1.00  0.00    -0.106 C  
BRANCH  18  19
HETATM   19  C   UNL     1      -7.939   9.091  66.316  1.00  0.00    -0.103 C  
BRANCH  19  20
HETATM   20  C   UNL     1      -7.722  10.087  65.187  1.00  0.00    -0.137 C  
BRANCH  20  21
HETATM   21  C   UNL     1      -8.919  10.150  64.266  1.00  0.00    -0.237 C  
HETATM   22  O   UNL     1      -9.007   9.465  63.250  1.00  0.00    -0.227 OA 
BRANCH  21  23
HETATM   23  C   UNL     1     -10.027  11.080  64.620  1.00  0.00    -0.357 A  
HETATM   24  C   UNL     1     -11.684  12.678  63.860  1.00  0.00    -0.532 A  
HETATM   25  C   UNL     1     -10.648  11.789  63.581  1.00  0.00    -0.496 A  
HETATM   26  C   UNL     1     -12.096  12.859  65.175  1.00  0.00    -0.445 A  
HETATM   27  F   UNL     1     -13.083  13.718  65.443  1.00  0.00    -0.517 F  
HETATM   28  C   UNL     1     -10.458  11.267  65.943  1.00  0.00    -0.314 A  
HETATM   29  C   UNL     1     -11.495  12.161  66.217  1.00  0.00    -0.433 A  
ENDBRANCH  21  23
ENDBRANCH  20  21
ENDBRANCH  19  20
ENDBRANCH  18  19
ENDBRANCH   4  18
TORSDOF 5
ENDMDL
MODEL       96
REMARK 921   NORMALIZED FREE ENERGY PREDICTED BY IDOCK:   -5.74 KCAL/MOL
REMARK 922        TOTAL FREE ENERGY PREDICTED BY IDOCK:   -8.18 KCAL/MOL
REMARK 923 INTER-LIGAND FREE ENERGY PREDICTED BY IDOCK:   -7.50 KCAL/MOL
REMARK 924 INTRA-LIGAND FREE ENERGY PREDICTED BY IDOCK:   -0.68 KCAL/MOL
REMARK 927      BINDING AFFINITY PREDICTED BY RF-SCORE:    0.00 PKD
ROOT
HETATM    1  C   UNL     1      -8.412   9.738  67.951  1.00  0.00    -0.125 C  
HETATM    2  C   UNL     1      -7.875  10.403  66.707  1.00  0.00    -0.117 C  
HETATM    3  C   UNL     1      -8.997  11.061  65.938  1.00  0.00    -0.195 C  
HETATM    4  N   UNL     1      -9.699  12.067  66.750  1.00  0.00    -0.203 NA 
HETATM    5  C   UNL     1     -10.129   4.767  68.925  1.00  0.00    -0.079 C  
HETATM    6  C   UNL     1     -10.249  11.488  68.007  1.00  0.00    -0.191 C  
HETATM    7  C   UNL     1      -9.248  10.691  68.863  1.00  0.00    -0.189 C  
HETATM    8  N   UNL     1      -9.470   6.048  68.877  1.00  0.00    -0.125 NA 
HETATM    9  C   UNL     1      -8.597   6.367  67.719  1.00  0.00    -0.116 C  
HETATM   10  C   UNL     1      -9.919   9.620  69.711  1.00  0.00    -0.252 A  
HETATM   11  C   UNL     1     -10.465   9.610  70.970  1.00  0.00    -0.327 A  
HETATM   12  C   UNL     1      -9.199   7.481  66.870  1.00  0.00    -0.149 C  
HETATM   13  N   UNL     1      -9.377   8.682  67.656  1.00  0.00    -0.136 NA 
HETATM   14  C   UNL     1      -9.817   8.427  68.987  1.00  0.00    -0.183 A  
HETATM   15  C   UNL     1     -10.827   8.360  71.504  1.00  0.00    -0.323 A  
HETATM   16  C   UNL     1     -10.561   7.142  70.815  1.00  0.00    -0.240 A  
HETATM   17  C   UNL     1      -9.994   7.162  69.545  1.00  0.00    -0.164 A  
ENDROOT
BRANCH   4  18
HETATM   18  C   UNL     1     -10.791  12.604  65.909  1.00  0.00    -0.270 C  
BRANCH  18  19
HETATM   19  C   UNL     1     -10.653  14.088  65.598  1.00  0.00    -0.313 C  
BRANCH  19  20
HETATM   20  C   UNL     1     -11.465  14.934  66.568  1.00  0.00    -0.286 C  
BRANCH  20  21
HETATM   21  C   UNL     1     -10.576  15.628  67.574  1.00  0.00    -0.297 C  
HETATM   22  O   UNL     1      -9.994  15.021  68.470  1.00  0.00    -0.208 OA 
BRANCH  21  23
HETATM   23  C   UNL     1     -10.407  17.104  67.461  1.00  0.00    -0.341 A  
HETATM   24  C   UNL     1     -10.362  19.057  66.026  1.00  0.00    -0.512 A  
HETATM   25  C   UNL     1     -10.521  17.682  66.188  1.00  0.00    -0.295 A  
HETATM   26  C   UNL     1     -10.087  19.850  67.135  1.00  0.00    -0.438 A  
HETATM   27  F   UNL     1      -9.926  21.167  66.978  1.00  0.00    -0.531 F  
HETATM   28  C   UNL     1     -10.136  17.917  68.572  1.00  0.00    -0.392 A  
HETATM   29  C   UNL     1      -9.975  19.294  68.404  1.00  0.00    -0.502 A  
ENDBRANCH  21  23
ENDBRANCH  20  21
ENDBRANCH  19  20
ENDBRANCH  18  19
ENDBRANCH   4  18
TORSDOF 5
ENDMDL
MODEL       97
REMARK 921   NORMALIZED FREE ENERGY PREDICTED BY IDOCK:   -5.73 KCAL/MOL
REMARK 922        TOTAL FREE ENERGY PREDICTED BY IDOCK:   -8.17 KCAL/MOL
REMARK 923 INTER-LIGAND FREE ENERGY PREDICTED BY IDOCK:   -6.55 KCAL/MOL
REMARK 924 INTRA-LIGAND FREE ENERGY PREDICTED BY IDOCK:   -1.62 KCAL/MOL
REMARK 927      BINDING AFFINITY PREDICTED BY RF-SCORE:    0.00 PKD
ROOT
HETATM    1  C   UNL     1      -8.449  10.175  69.883  1.00  0.00    -0.081 C  
HETATM    2  C   UNL     1      -7.162  10.168  69.095  1.00  0.00    -0.081 C  
HETATM    3  C   UNL     1      -7.315   9.326  67.850  1.00  0.00    -0.080 C  
HETATM    4  N   UNL     1      -8.399   9.819  66.986  1.00  0.00    -0.117 NA 
HETATM    5  C   UNL     1     -10.253   7.098  73.868  1.00  0.00    -0.315 C  
HETATM    6  C   UNL     1      -9.705   9.869  67.699  1.00  0.00    -0.155 C  
HETATM    7  C   UNL     1      -9.696  10.610  69.049  1.00  0.00    -0.214 C  
HETATM    8  N   UNL     1      -9.802   8.147  72.989  1.00  0.00    -0.276 NA 
HETATM    9  C   UNL     1      -8.358   8.237  72.656  1.00  0.00    -0.173 C  
HETATM   10  C   UNL     1     -10.765  10.105  70.007  1.00  0.00    -0.356 A  
HETATM   11  C   UNL     1     -12.076  10.442  70.229  1.00  0.00    -0.370 A  
HETATM   12  C   UNL     1      -8.116   7.922  71.184  1.00  0.00    -0.092 C  
HETATM   13  N   UNL     1      -8.842   8.845  70.338  1.00  0.00    -0.164 NA 
HETATM   14  C   UNL     1     -10.136   9.170  70.836  1.00  0.00    -0.287 A  
HETATM   15  C   UNL     1     -12.705   9.876  71.353  1.00  0.00    -0.503 A  
HETATM   16  C   UNL     1     -11.995   9.058  72.278  1.00  0.00    -0.332 A  
HETATM   17  C   UNL     1     -10.662   8.732  72.051  1.00  0.00    -0.347 A  
ENDROOT
BRANCH   4  18
HETATM   18  C   UNL     1      -8.476   8.895  65.833  1.00  0.00    -0.136 C  
BRANCH  18  19
HETATM   19  C   UNL     1      -9.578   7.851  65.958  1.00  0.00    -0.037 C  
BRANCH  19  20
HETATM   20  C   UNL     1      -9.000   6.453  66.114  1.00  0.00    -0.162 C  
BRANCH  20  21
HETATM   21  C   UNL     1     -10.046   5.471  66.589  1.00  0.00    -0.209 C  
HETATM   22  O   UNL     1     -10.857   4.950  65.826  1.00  0.00    -0.262 OA 
BRANCH  21  23
HETATM   23  C   UNL     1     -10.081   5.130  68.038  1.00  0.00    -0.189 A  
HETATM   24  C   UNL     1     -10.825   5.726  70.266  1.00  0.00    -0.373 A  
HETATM   25  C   UNL     1     -10.770   5.995  68.901  1.00  0.00    -0.384 A  
HETATM   26  C   UNL     1     -10.190   4.595  70.768  1.00  0.00    -0.144 A  
HETATM   27  F   UNL     1     -10.235   4.342  72.079  1.00  0.00    -0.232 F  
HETATM   28  C   UNL     1      -9.451   3.988  68.556  1.00  0.00    -0.215 A  
HETATM   29  C   UNL     1      -9.507   3.724  69.926  1.00  0.00    -0.267 A  
ENDBRANCH  21  23
ENDBRANCH  20  21
ENDBRANCH  19  20
ENDBRANCH  18  19
ENDBRANCH   4  18
TORSDOF 5
ENDMDL
MODEL       98
REMARK 921   NORMALIZED FREE ENERGY PREDICTED BY IDOCK:   -5.73 KCAL/MOL
REMARK 922        TOTAL FREE ENERGY PREDICTED BY IDOCK:   -8.16 KCAL/MOL
REMARK 923 INTER-LIGAND FREE ENERGY PREDICTED BY IDOCK:   -7.12 KCAL/MOL
REMARK 924 INTRA-LIGAND FREE ENERGY PREDICTED BY IDOCK:   -1.04 KCAL/MOL
REMARK 927      BINDING AFFINITY PREDICTED BY RF-SCORE:    0.00 PKD
ROOT
HETATM    1  C   UNL     1      -9.844   9.250  66.731  1.00  0.00    -0.225 C  
HETATM    2  C   UNL     1     -10.004   9.394  68.224  1.00  0.00    -0.197 C  
HETATM    3  C   UNL     1      -9.108  10.494  68.744  1.00  0.00    -0.166 C  
HETATM    4  N   UNL     1      -9.404  11.787  68.108  1.00  0.00    -0.185 NA 
HETATM    5  C   UNL     1      -6.665   6.175  63.725  1.00  0.00    -0.037 C  
HETATM    6  C   UNL     1      -9.281  11.722  66.625  1.00  0.00    -0.198 C  
HETATM    7  C   UNL     1     -10.059  10.582  65.944  1.00  0.00    -0.323 C  
HETATM    8  N   UNL     1      -7.740   6.866  64.391  1.00  0.00    -0.108 NA 
HETATM    9  C   UNL     1      -8.034   6.543  65.810  1.00  0.00    -0.115 C  
HETATM   10  C   UNL     1      -9.432  10.142  64.629  1.00  0.00    -0.357 A  
HETATM   11  C   UNL     1      -9.576  10.547  63.326  1.00  0.00    -0.373 A  
HETATM   12  C   UNL     1      -7.710   7.726  66.717  1.00  0.00    -0.099 C  
HETATM   13  N   UNL     1      -8.486   8.887  66.339  1.00  0.00    -0.114 NA 
HETATM   14  C   UNL     1      -8.629   9.036  64.930  1.00  0.00    -0.180 A  
HETATM   15  C   UNL     1      -8.959   9.760  62.336  1.00  0.00    -0.288 A  
HETATM   16  C   UNL     1      -8.288   8.545  62.652  1.00  0.00    -0.167 A  
HETATM   17  C   UNL     1      -8.158   8.136  63.975  1.00  0.00    -0.122 A  
ENDROOT
BRANCH   4  18
HETATM   18  C   UNL     1      -8.442  12.764  68.662  1.00  0.00     0.050 C  
BRANCH  18  19
HETATM   19  C   UNL     1      -8.515  14.137  68.007  1.00  0.00    -0.171 C  
BRANCH  19  20
HETATM   20  C   UNL     1      -9.087  15.175  68.961  1.00  0.00    -0.218 C  
BRANCH  20  21
HETATM   21  C   UNL     1     -10.538  15.465  68.657  1.00  0.00    -0.239 C  
HETATM   22  O   UNL     1     -11.300  15.960  69.485  1.00  0.00    -0.291 OA 
BRANCH  21  23
HETATM   23  C   UNL     1     -11.050  15.137  67.297  1.00  0.00    -0.332 A  
HETATM   24  C   UNL     1     -12.496  13.753  65.931  1.00  0.00    -0.512 A  
HETATM   25  C   UNL     1     -11.992  14.105  67.181  1.00  0.00    -0.460 A  
HETATM   26  C   UNL     1     -12.055  14.431  64.799  1.00  0.00    -0.452 A  
HETATM   27  F   UNL     1     -12.531  14.087  63.599  1.00  0.00    -0.491 F  
HETATM   28  C   UNL     1     -10.619  15.818  66.148  1.00  0.00    -0.318 A  
HETATM   29  C   UNL     1     -11.125  15.460  64.897  1.00  0.00    -0.435 A  
ENDBRANCH  21  23
ENDBRANCH  20  21
ENDBRANCH  19  20
ENDBRANCH  18  19
ENDBRANCH   4  18
TORSDOF 5
ENDMDL
MODEL       99
REMARK 921   NORMALIZED FREE ENERGY PREDICTED BY IDOCK:   -5.72 KCAL/MOL
REMARK 922        TOTAL FREE ENERGY PREDICTED BY IDOCK:   -8.15 KCAL/MOL
REMARK 923 INTER-LIGAND FREE ENERGY PREDICTED BY IDOCK:   -6.15 KCAL/MOL
REMARK 924 INTRA-LIGAND FREE ENERGY PREDICTED BY IDOCK:   -2.00 KCAL/MOL
REMARK 927      BINDING AFFINITY PREDICTED BY RF-SCORE:    0.00 PKD
ROOT
HETATM    1  C   UNL     1     -10.402   9.926  70.887  1.00  0.00    -0.049 C  
HETATM    2  C   UNL     1     -11.252   9.017  71.740  1.00  0.00    -0.448 C  
HETATM    3  C   UNL     1     -11.637   7.778  70.965  1.00  0.00    -0.283 C  
HETATM    4  N   UNL     1     -10.455   7.032  70.505  1.00  0.00    -0.205 NA 
HETATM    5  C   UNL     1     -11.617  14.015  67.661  1.00  0.00    -0.354 C  
HETATM    6  C   UNL     1      -9.557   7.869  69.664  1.00  0.00    -0.164 C  
HETATM    7  C   UNL     1      -9.150   9.223  70.272  1.00  0.00    -0.271 C  
HETATM    8  N   UNL     1     -11.125  13.115  68.673  1.00  0.00    -0.257 NA 
HETATM    9  C   UNL     1     -12.054  12.644  69.732  1.00  0.00    -0.233 C  
HETATM   10  C   UNL     1      -8.828  10.272  69.218  1.00  0.00    -0.186 A  
HETATM   11  C   UNL     1      -7.683  10.627  68.549  1.00  0.00    -0.107 A  
HETATM   12  C   UNL     1     -12.328  11.150  69.594  1.00  0.00    -0.218 C  
HETATM   13  N   UNL     1     -11.099  10.395  69.692  1.00  0.00    -0.257 NA 
HETATM   14  C   UNL     1      -9.997  11.021  69.042  1.00  0.00    -0.167 A  
HETATM   15  C   UNL     1      -7.729  11.796  67.770  1.00  0.00    -0.133 A  
HETATM   16  C   UNL     1      -8.880  12.635  67.740  1.00  0.00    -0.179 A  
HETATM   17  C   UNL     1     -10.032  12.274  68.431  1.00  0.00    -0.209 A  
ENDROOT
BRANCH   4  18
HETATM   18  C   UNL     1     -10.959   5.877  69.730  1.00  0.00    -0.382 C  
BRANCH  18  19
HETATM   19  C   UNL     1      -9.898   5.212  68.862  1.00  0.00    -0.241 C  
BRANCH  19  20
HETATM   20  C   UNL     1     -10.201   5.395  67.382  1.00  0.00    -0.247 C  
BRANCH  20  21
HETATM   21  C   UNL     1      -8.970   5.820  66.614  1.00  0.00    -0.123 C  
HETATM   22  O   UNL     1      -8.030   5.059  66.400  1.00  0.00    -0.105 OA 
BRANCH  21  23
HETATM   23  C   UNL     1      -8.912   7.217  66.099  1.00  0.00    -0.168 A  
HETATM   24  C   UNL     1     -10.015   9.363  65.868  1.00  0.00    -0.327 A  
HETATM   25  C   UNL     1     -10.015   8.051  66.335  1.00  0.00    -0.215 A  
HETATM   26  C   UNL     1      -8.914   9.839  65.163  1.00  0.00    -0.197 A  
HETATM   27  F   UNL     1      -8.918  11.094  64.707  1.00  0.00    -0.191 F  
HETATM   28  C   UNL     1      -7.805   7.712  65.393  1.00  0.00    -0.115 A  
HETATM   29  C   UNL     1      -7.811   9.027  64.924  1.00  0.00    -0.119 A  
ENDBRANCH  21  23
ENDBRANCH  20  21
ENDBRANCH  19  20
ENDBRANCH  18  19
ENDBRANCH   4  18
TORSDOF 5
ENDMDL
MODEL      100
REMARK 921   NORMALIZED FREE ENERGY PREDICTED BY IDOCK:   -5.70 KCAL/MOL
REMARK 922        TOTAL FREE ENERGY PREDICTED BY IDOCK:   -8.13 KCAL/MOL
REMARK 923 INTER-LIGAND FREE ENERGY PREDICTED BY IDOCK:   -6.85 KCAL/MOL
REMARK 924 INTRA-LIGAND FREE ENERGY PREDICTED BY IDOCK:   -1.28 KCAL/MOL
REMARK 927      BINDING AFFINITY PREDICTED BY RF-SCORE:    0.00 PKD
ROOT
HETATM    1  C   UNL     1      -9.125   8.957  67.763  1.00  0.00    -0.134 C  
HETATM    2  C   UNL     1      -9.723   9.982  66.830  1.00  0.00    -0.237 C  
HETATM    3  C   UNL     1     -10.943  10.615  67.459  1.00  0.00    -0.310 C  
HETATM    4  N   UNL     1     -10.622  11.266  68.739  1.00  0.00    -0.196 NA 
HETATM    5  C   UNL     1      -9.873   3.687  68.285  1.00  0.00     0.120 C  
HETATM    6  C   UNL     1     -10.013  10.319  69.712  1.00  0.00    -0.181 C  
HETATM    7  C   UNL     1      -8.811   9.512  69.189  1.00  0.00    -0.147 C  
HETATM    8  N   UNL     1      -9.390   5.031  68.095  1.00  0.00    -0.120 NA 
HETATM    9  C   UNL     1      -9.751   5.759  66.852  1.00  0.00    -0.148 C  
HETATM   10  C   UNL     1      -8.647   8.173  69.894  1.00  0.00    -0.130 A  
HETATM   11  C   UNL     1      -7.978   7.769  71.022  1.00  0.00    -0.090 A  
HETATM   12  C   UNL     1     -10.677   6.932  67.155  1.00  0.00    -0.366 C  
HETATM   13  N   UNL     1     -10.043   7.861  68.063  1.00  0.00    -0.184 NA 
HETATM   14  C   UNL     1      -9.277   7.224  69.082  1.00  0.00    -0.139 A  
HETATM   15  C   UNL     1      -7.895   6.386  71.261  1.00  0.00    -0.104 A  
HETATM   16  C   UNL     1      -8.401   5.431  70.333  1.00  0.00    -0.113 A  
HETATM   17  C   UNL     1      -9.066   5.849  69.185  1.00  0.00    -0.122 A  
ENDROOT
BRANCH   4  18
HETATM   18  C   UNL     1     -11.893  11.805  69.270  1.00  0.00    -0.326 C  
BRANCH  18  19
HETATM   19  C   UNL     1     -11.834  13.288  69.613  1.00  0.00    -0.391 C  
BRANCH  19  20
HETATM   20  C   UNL     1     -10.640  13.961  68.953  1.00  0.00    -0.228 C  
BRANCH  20  21
HETATM   21  C   UNL     1     -11.058  14.774  67.750  1.00  0.00    -0.299 C  
HETATM   22  O   UNL     1     -11.232  15.990  67.803  1.00  0.00    -0.315 OA 
BRANCH  21  23
HETATM   23  C   UNL     1     -11.260  14.061  66.458  1.00  0.00    -0.326 A  
HETATM   24  C   UNL     1     -10.275  13.194  64.420  1.00  0.00    -0.319 A  
HETATM   25  C   UNL     1     -10.139  13.848  65.643  1.00  0.00    -0.332 A  
HETATM   26  C   UNL     1     -11.531  12.758  64.013  1.00  0.00    -0.417 A  
HETATM   27  F   UNL     1     -11.663  12.139  62.836  1.00  0.00    -0.328 F  
HETATM   28  C   UNL     1     -12.520  13.609  66.038  1.00  0.00    -0.477 A  
HETATM   29  C   UNL     1     -12.652  12.957  64.810  1.00  0.00    -0.493 A  
ENDBRANCH  21  23
ENDBRANCH  20  21
ENDBRANCH  19  20
ENDBRANCH  18  19
ENDBRANCH   4  18
TORSDOF 5
ENDMDL
MODEL      101
REMARK 921   NORMALIZED FREE ENERGY PREDICTED BY IDOCK:   -5.69 KCAL/MOL
REMARK 922        TOTAL FREE ENERGY PREDICTED BY IDOCK:   -8.11 KCAL/MOL
REMARK 923 INTER-LIGAND FREE ENERGY PREDICTED BY IDOCK:   -7.51 KCAL/MOL
REMARK 924 INTRA-LIGAND FREE ENERGY PREDICTED BY IDOCK:   -0.60 KCAL/MOL
REMARK 927      BINDING AFFINITY PREDICTED BY RF-SCORE:    0.00 PKD
ROOT
HETATM    1  C   UNL     1     -10.216   9.809  68.679  1.00  0.00    -0.190 C  
HETATM    2  C   UNL     1     -10.284  10.686  67.454  1.00  0.00    -0.243 C  
HETATM    3  C   UNL     1      -9.600  12.007  67.716  1.00  0.00    -0.193 C  
HETATM    4  N   UNL     1      -8.189  11.827  68.095  1.00  0.00    -0.146 NA 
HETATM    5  C   UNL     1     -13.543   9.124  72.810  1.00  0.00    -0.205 C  
HETATM    6  C   UNL     1      -8.039  10.958  69.294  1.00  0.00    -0.055 C  
HETATM    7  C   UNL     1      -8.768   9.603  69.228  1.00  0.00    -0.159 C  
HETATM    8  N   UNL     1     -12.688   9.018  71.655  1.00  0.00    -0.340 NA 
HETATM    9  C   UNL     1     -13.142   9.600  70.366  1.00  0.00     0.315 C  
HETATM   10  C   UNL     1      -9.147   9.069  70.601  1.00  0.00    -0.280 A  
HETATM   11  C   UNL     1      -8.506   8.280  71.523  1.00  0.00    -0.179 A  
HETATM   12  C   UNL     1     -12.277  10.791  69.970  1.00  0.00    -0.334 C  
HETATM   13  N   UNL     1     -10.893  10.394  69.833  1.00  0.00    -0.286 NA 
HETATM   14  C   UNL     1     -10.475   9.454  70.818  1.00  0.00    -0.304 A  
HETATM   15  C   UNL     1      -9.262   7.828  72.620  1.00  0.00    -0.237 A  
HETATM   16  C   UNL     1     -10.656   8.095  72.733  1.00  0.00    -0.386 A  
HETATM   17  C   UNL     1     -11.301   8.885  71.786  1.00  0.00    -0.361 A  
ENDROOT
BRANCH   4  18
HETATM   18  C   UNL     1      -7.647  13.176  68.365  1.00  0.00    -0.133 C  
BRANCH  18  19
HETATM   19  C   UNL     1      -8.460  14.301  67.738  1.00  0.00    -0.177 C  
BRANCH  19  20
HETATM   20  C   UNL     1      -8.977  15.266  68.795  1.00  0.00    -0.200 C  
BRANCH  20  21
HETATM   21  C   UNL     1     -10.264  15.926  68.360  1.00  0.00    -0.226 C  
HETATM   22  O   UNL     1     -10.821  16.793  69.030  1.00  0.00    -0.319 OA 
BRANCH  21  23
HETATM   23  C   UNL     1     -10.867  15.503  67.066  1.00  0.00    -0.314 A  
HETATM   24  C   UNL     1     -12.420  14.046  65.908  1.00  0.00    -0.513 A  
HETATM   25  C   UNL     1     -11.832  14.485  67.092  1.00  0.00    -0.412 A  
HETATM   26  C   UNL     1     -12.041  14.622  64.700  1.00  0.00    -0.454 A  
HETATM   27  F   UNL     1     -12.599  14.195  63.564  1.00  0.00    -0.423 F  
HETATM   28  C   UNL     1     -10.500  16.081  65.841  1.00  0.00    -0.373 A  
HETATM   29  C   UNL     1     -11.090  15.636  64.656  1.00  0.00    -0.387 A  
ENDBRANCH  21  23
ENDBRANCH  20  21
ENDBRANCH  19  20
ENDBRANCH  18  19
ENDBRANCH   4  18
TORSDOF 5
ENDMDL
MODEL      102
REMARK 921   NORMALIZED FREE ENERGY PREDICTED BY IDOCK:   -5.67 KCAL/MOL
REMARK 922        TOTAL FREE ENERGY PREDICTED BY IDOCK:   -8.09 KCAL/MOL
REMARK 923 INTER-LIGAND FREE ENERGY PREDICTED BY IDOCK:   -7.31 KCAL/MOL
REMARK 924 INTRA-LIGAND FREE ENERGY PREDICTED BY IDOCK:   -0.77 KCAL/MOL
REMARK 927      BINDING AFFINITY PREDICTED BY RF-SCORE:    0.00 PKD
ROOT
HETATM    1  C   UNL     1      -8.724   9.168  69.062  1.00  0.00    -0.135 C  
HETATM    2  C   UNL     1      -7.908  10.067  68.166  1.00  0.00    -0.089 C  
HETATM    3  C   UNL     1      -8.700  10.440  66.935  1.00  0.00    -0.126 C  
HETATM    4  N   UNL     1      -9.956  11.126  67.280  1.00  0.00    -0.182 NA 
HETATM    5  C   UNL     1      -9.137   3.848  69.418  1.00  0.00    -0.131 C  
HETATM    6  C   UNL     1     -10.814  10.304  68.177  1.00  0.00    -0.265 C  
HETATM    7  C   UNL     1     -10.121   9.755  69.438  1.00  0.00    -0.221 C  
HETATM    8  N   UNL     1      -8.940   5.263  69.605  1.00  0.00    -0.106 NA 
HETATM    9  C   UNL     1      -7.777   5.921  68.958  1.00  0.00    -0.091 C  
HETATM   10  C   UNL     1     -10.751   8.466  69.944  1.00  0.00    -0.227 A  
HETATM   11  C   UNL     1     -11.776   8.187  70.813  1.00  0.00    -0.211 A  
HETATM   12  C   UNL     1      -8.231   6.886  67.868  1.00  0.00    -0.114 C  
HETATM   13  N   UNL     1      -9.091   7.910  68.418  1.00  0.00    -0.136 NA 
HETATM   14  C   UNL     1      -9.986   7.422  69.413  1.00  0.00    -0.176 A  
HETATM   15  C   UNL     1     -11.952   6.844  71.191  1.00  0.00    -0.413 A  
HETATM   16  C   UNL     1     -11.057   5.821  70.768  1.00  0.00    -0.272 A  
HETATM   17  C   UNL     1     -10.013   6.115  69.898  1.00  0.00    -0.172 A  
ENDROOT
BRANCH   4  18
HETATM   18  C   UNL     1     -10.655  11.397  66.006  1.00  0.00    -0.266 C  
BRANCH  18  19
HETATM   19  C   UNL     1     -10.987  12.868  65.790  1.00  0.00    -0.303 C  
BRANCH  19  20
HETATM   20  C   UNL     1     -11.966  13.374  66.839  1.00  0.00    -0.437 C  
BRANCH  20  21
HETATM   21  C   UNL     1     -11.405  14.554  67.596  1.00  0.00    -0.337 C  
HETATM   22  O   UNL     1     -10.688  15.399  67.065  1.00  0.00    -0.311 OA 
BRANCH  21  23
HETATM   23  C   UNL     1     -11.746  14.688  69.040  1.00  0.00    -0.339 A  
HETATM   24  C   UNL     1     -11.695  16.057  71.039  1.00  0.00    -0.458 A  
HETATM   25  C   UNL     1     -11.407  15.885  69.688  1.00  0.00    -0.342 A  
HETATM   26  C   UNL     1     -12.319  15.032  71.742  1.00  0.00    -0.344 A  
HETATM   27  F   UNL     1     -12.587  15.194  73.041  1.00  0.00    -0.386 F  
HETATM   28  C   UNL     1     -12.381  13.665  69.760  1.00  0.00    -0.285 A  
HETATM   29  C   UNL     1     -12.666  13.841  71.115  1.00  0.00    -0.438 A  
ENDBRANCH  21  23
ENDBRANCH  20  21
ENDBRANCH  19  20
ENDBRANCH  18  19
ENDBRANCH   4  18
TORSDOF 5
ENDMDL
MODEL      103
REMARK 921   NORMALIZED FREE ENERGY PREDICTED BY IDOCK:   -5.67 KCAL/MOL
REMARK 922        TOTAL FREE ENERGY PREDICTED BY IDOCK:   -8.08 KCAL/MOL
REMARK 923 INTER-LIGAND FREE ENERGY PREDICTED BY IDOCK:   -7.17 KCAL/MOL
REMARK 924 INTRA-LIGAND FREE ENERGY PREDICTED BY IDOCK:   -0.91 KCAL/MOL
REMARK 927      BINDING AFFINITY PREDICTED BY RF-SCORE:    0.00 PKD
ROOT
HETATM    1  C   UNL     1     -11.302   9.970  68.722  1.00  0.00    -0.060 C  
HETATM    2  C   UNL     1     -11.328  11.475  68.819  1.00  0.00    -0.327 C  
HETATM    3  C   UNL     1      -9.934  12.035  68.655  1.00  0.00    -0.142 C  
HETATM    4  N   UNL     1      -9.341  11.653  67.363  1.00  0.00    -0.166 NA 
HETATM    5  C   UNL     1     -10.823   6.125  72.409  1.00  0.00    -0.243 C  
HETATM    6  C   UNL     1      -9.293  10.176  67.186  1.00  0.00    -0.153 C  
HETATM    7  C   UNL     1     -10.621   9.435  67.421  1.00  0.00    -0.326 C  
HETATM    8  N   UNL     1     -11.209   7.027  71.354  1.00  0.00    -0.245 NA 
HETATM    9  C   UNL     1     -11.636   8.406  71.704  1.00  0.00    -0.289 C  
HETATM   10  C   UNL     1     -10.423   7.996  67.876  1.00  0.00    -0.259 A  
HETATM   11  C   UNL     1     -10.281   6.802  67.214  1.00  0.00    -0.271 A  
HETATM   12  C   UNL     1     -10.630   9.435  71.200  1.00  0.00    -0.333 C  
HETATM   13  N   UNL     1     -10.489   9.348  69.763  1.00  0.00    -0.214 NA 
HETATM   14  C   UNL     1     -10.509   8.011  69.272  1.00  0.00    -0.215 A  
HETATM   15  C   UNL     1     -10.311   5.629  67.989  1.00  0.00    -0.258 A  
HETATM   16  C   UNL     1     -10.567   5.660  69.389  1.00  0.00    -0.374 A  
HETATM   17  C   UNL     1     -10.723   6.874  70.050  1.00  0.00    -0.243 A  
ENDROOT
BRANCH   4  18
HETATM   18  C   UNL     1      -7.975  12.220  67.340  1.00  0.00    -0.171 C  
BRANCH  18  19
HETATM   19  C   UNL     1      -7.782  13.392  68.293  1.00  0.00    -0.141 C  
BRANCH  19  20
HETATM   20  C   UNL     1      -7.401  14.659  67.540  1.00  0.00    -0.220 C  
BRANCH  20  21
HETATM   21  C   UNL     1      -8.621  15.373  67.006  1.00  0.00    -0.234 C  
HETATM   22  O   UNL     1      -8.654  15.874  65.884  1.00  0.00    -0.237 OA 
BRANCH  21  23
HETATM   23  C   UNL     1      -9.822  15.462  67.883  1.00  0.00    -0.219 A  
HETATM   24  C   UNL     1     -10.775  16.208  69.982  1.00  0.00    -0.318 A  
HETATM   25  C   UNL     1      -9.685  16.106  69.121  1.00  0.00    -0.248 A  
HETATM   26  C   UNL     1     -11.998  15.665  69.606  1.00  0.00    -0.349 A  
HETATM   27  F   UNL     1     -13.041  15.755  70.436  1.00  0.00    -0.458 F  
HETATM   28  C   UNL     1     -11.064  14.924  67.513  1.00  0.00    -0.319 A  
HETATM   29  C   UNL     1     -12.153  15.027  68.381  1.00  0.00    -0.139 A  
ENDBRANCH  21  23
ENDBRANCH  20  21
ENDBRANCH  19  20
ENDBRANCH  18  19
ENDBRANCH   4  18
TORSDOF 5
ENDMDL
MODEL      104
REMARK 921   NORMALIZED FREE ENERGY PREDICTED BY IDOCK:   -5.67 KCAL/MOL
REMARK 922        TOTAL FREE ENERGY PREDICTED BY IDOCK:   -8.08 KCAL/MOL
REMARK 923 INTER-LIGAND FREE ENERGY PREDICTED BY IDOCK:   -7.41 KCAL/MOL
REMARK 924 INTRA-LIGAND FREE ENERGY PREDICTED BY IDOCK:   -0.67 KCAL/MOL
REMARK 927      BINDING AFFINITY PREDICTED BY RF-SCORE:    0.00 PKD
ROOT
HETATM    1  C   UNL     1     -11.199   6.026  69.506  1.00  0.00    -0.346 C  
HETATM    2  C   UNL     1     -11.569   7.033  70.567  1.00  0.00    -0.364 C  
HETATM    3  C   UNL     1     -10.654   8.234  70.491  1.00  0.00    -0.219 C  
HETATM    4  N   UNL     1     -10.717   8.886  69.173  1.00  0.00    -0.189 NA 
HETATM    5  C   UNL     1      -7.931   1.793  69.536  1.00  0.00    -0.041 C  
HETATM    6  C   UNL     1     -10.378   7.948  68.068  1.00  0.00    -0.209 C  
HETATM    7  C   UNL     1     -11.155   6.620  68.062  1.00  0.00    -0.296 C  
HETATM    8  N   UNL     1      -9.019   2.734  69.456  1.00  0.00    -0.095 NA 
HETATM    9  C   UNL     1      -9.556   3.323  70.709  1.00  0.00    -0.158 C  
HETATM   10  C   UNL     1     -10.384   5.486  67.402  1.00  0.00    -0.279 A  
HETATM   11  C   UNL     1     -10.287   5.029  66.112  1.00  0.00    -0.309 A  
HETATM   12  C   UNL     1      -9.255   4.816  70.784  1.00  0.00    -0.139 C  
HETATM   13  N   UNL     1      -9.841   5.512  69.661  1.00  0.00    -0.176 NA 
HETATM   14  C   UNL     1      -9.754   4.787  68.438  1.00  0.00    -0.146 A  
HETATM   15  C   UNL     1      -9.610   3.812  65.910  1.00  0.00    -0.166 A  
HETATM   16  C   UNL     1      -9.122   3.034  66.998  1.00  0.00    -0.196 A  
HETATM   17  C   UNL     1      -9.237   3.499  68.303  1.00  0.00    -0.170 A  
ENDROOT
BRANCH   4  18
HETATM   18  C   UNL     1      -9.755  10.009  69.209  1.00  0.00    -0.215 C  
BRANCH  18  19
HETATM   19  C   UNL     1     -10.415  11.382  69.180  1.00  0.00    -0.159 C  
BRANCH  19  20
HETATM   20  C   UNL     1     -11.725  11.349  68.407  1.00  0.00    -0.373 C  
BRANCH  20  21
HETATM   21  C   UNL     1     -11.765  12.420  67.341  1.00  0.00    -0.347 C  
HETATM   22  O   UNL     1     -12.268  13.525  67.533  1.00  0.00    -0.325 OA 
BRANCH  21  23
HETATM   23  C   UNL     1     -11.164  12.110  66.014  1.00  0.00    -0.382 A  
HETATM   24  C   UNL     1      -9.955  10.531  64.630  1.00  0.00    -0.415 A  
HETATM   25  C   UNL     1     -10.540  10.865  65.849  1.00  0.00    -0.244 A  
HETATM   26  C   UNL     1      -9.992  11.440  63.579  1.00  0.00    -0.388 A  
HETATM   27  F   UNL     1      -9.423  11.122  62.413  1.00  0.00    -0.304 F  
HETATM   28  C   UNL     1     -11.201  13.016  64.943  1.00  0.00    -0.329 A  
HETATM   29  C   UNL     1     -10.611  12.677  63.723  1.00  0.00    -0.432 A  
ENDBRANCH  21  23
ENDBRANCH  20  21
ENDBRANCH  19  20
ENDBRANCH  18  19
ENDBRANCH   4  18
TORSDOF 5
ENDMDL
MODEL      105
REMARK 921   NORMALIZED FREE ENERGY PREDICTED BY IDOCK:   -5.65 KCAL/MOL
REMARK 922        TOTAL FREE ENERGY PREDICTED BY IDOCK:   -8.06 KCAL/MOL
REMARK 923 INTER-LIGAND FREE ENERGY PREDICTED BY IDOCK:   -7.67 KCAL/MOL
REMARK 924 INTRA-LIGAND FREE ENERGY PREDICTED BY IDOCK:   -0.39 KCAL/MOL
REMARK 927      BINDING AFFINITY PREDICTED BY RF-SCORE:    0.00 PKD
ROOT
HETATM    1  C   UNL     1     -11.908   7.269  71.520  1.00  0.00    -0.304 C  
HETATM    2  C   UNL     1     -12.655   8.531  71.877  1.00  0.00    -0.400 C  
HETATM    3  C   UNL     1     -11.868   9.746  71.444  1.00  0.00    -0.408 C  
HETATM    4  N   UNL     1     -11.609   9.741  69.996  1.00  0.00    -0.181 NA 
HETATM    5  C   UNL     1      -8.420   4.256  74.232  1.00  0.00    -0.097 C  
HETATM    6  C   UNL     1     -10.883   8.516  69.562  1.00  0.00    -0.125 C  
HETATM    7  C   UNL     1     -11.505   7.182  70.014  1.00  0.00    -0.200 C  
HETATM    8  N   UNL     1      -9.519   4.818  73.489  1.00  0.00    -0.128 NA 
HETATM    9  C   UNL     1     -10.444   5.758  74.171  1.00  0.00    -0.247 C  
HETATM   10  C   UNL     1     -10.477   6.067  70.146  1.00  0.00    -0.309 A  
HETATM   11  C   UNL     1      -9.973   5.132  69.276  1.00  0.00    -0.280 A  
HETATM   12  C   UNL     1     -10.312   7.166  73.599  1.00  0.00    -0.368 C  
HETATM   13  N   UNL     1     -10.611   7.172  72.184  1.00  0.00    -0.206 NA 
HETATM   14  C   UNL     1     -10.111   6.029  71.495  1.00  0.00    -0.192 A  
HETATM   15  C   UNL     1      -9.161   4.120  69.818  1.00  0.00    -0.213 A  
HETATM   16  C   UNL     1      -8.938   4.006  71.220  1.00  0.00    -0.159 A  
HETATM   17  C   UNL     1      -9.464   4.950  72.096  1.00  0.00    -0.145 A  
ENDROOT
BRANCH   4  18
HETATM   18  C   UNL     1     -10.803  10.947  69.705  1.00  0.00    -0.187 C  
BRANCH  18  19
HETATM   19  C   UNL     1     -11.371  11.809  68.586  1.00  0.00    -0.327 C  
BRANCH  19  20
HETATM   20  C   UNL     1     -11.455  13.270  69.002  1.00  0.00    -0.350 C  
BRANCH  20  21
HETATM   21  C   UNL     1     -11.654  14.175  67.808  1.00  0.00    -0.347 C  
HETATM   22  O   UNL     1     -12.353  13.858  66.849  1.00  0.00    -0.410 OA 
BRANCH  21  23
HETATM   23  C   UNL     1     -10.973  15.500  67.811  1.00  0.00    -0.317 A  
HETATM   24  C   UNL     1     -10.411  17.512  69.039  1.00  0.00    -0.250 A  
HETATM   25  C   UNL     1     -11.024  16.263  68.987  1.00  0.00    -0.325 A  
HETATM   26  C   UNL     1      -9.752  17.999  67.917  1.00  0.00    -0.297 A  
HETATM   27  F   UNL     1      -9.172  19.202  67.964  1.00  0.00    -0.308 F  
HETATM   28  C   UNL     1     -10.298  16.000  66.688  1.00  0.00    -0.299 A  
HETATM   29  C   UNL     1      -9.687  17.255  66.744  1.00  0.00    -0.285 A  
ENDBRANCH  21  23
ENDBRANCH  20  21
ENDBRANCH  19  20
ENDBRANCH  18  19
ENDBRANCH   4  18
TORSDOF 5
ENDMDL
MODEL      106
REMARK 921   NORMALIZED FREE ENERGY PREDICTED BY IDOCK:   -5.64 KCAL/MOL
REMARK 922        TOTAL FREE ENERGY PREDICTED BY IDOCK:   -8.05 KCAL/MOL
REMARK 923 INTER-LIGAND FREE ENERGY PREDICTED BY IDOCK:   -7.49 KCAL/MOL
REMARK 924 INTRA-LIGAND FREE ENERGY PREDICTED BY IDOCK:   -0.56 KCAL/MOL
REMARK 927      BINDING AFFINITY PREDICTED BY RF-SCORE:    0.00 PKD
ROOT
HETATM    1  C   UNL     1     -10.970  10.486  68.502  1.00  0.00    -0.252 C  
HETATM    2  C   UNL     1     -11.783  11.647  67.986  1.00  0.00    -0.351 C  
HETATM    3  C   UNL     1     -11.124  12.956  68.357  1.00  0.00    -0.262 C  
HETATM    4  N   UNL     1      -9.760  13.053  67.816  1.00  0.00    -0.212 NA 
HETATM    5  C   UNL     1     -11.166   7.691  73.058  1.00  0.00    -0.333 C  
HETATM    6  C   UNL     1      -8.895  11.930  68.272  1.00  0.00    -0.174 C  
HETATM    7  C   UNL     1      -9.473  10.519  68.057  1.00  0.00    -0.157 C  
HETATM    8  N   UNL     1     -11.161   8.181  71.703  1.00  0.00    -0.245 NA 
HETATM    9  C   UNL     1     -12.312   8.988  71.224  1.00  0.00    -0.302 C  
HETATM   10  C   UNL     1      -8.943   9.505  69.061  1.00  0.00    -0.144 A  
HETATM   11  C   UNL     1      -7.852   8.673  69.083  1.00  0.00    -0.099 A  
HETATM   12  C   UNL     1     -11.895  10.430  70.956  1.00  0.00    -0.361 C  
HETATM   13  N   UNL     1     -10.849  10.482  69.958  1.00  0.00    -0.279 NA 
HETATM   14  C   UNL     1      -9.894   9.433  70.084  1.00  0.00    -0.232 A  
HETATM   15  C   UNL     1      -7.792   7.718  70.114  1.00  0.00    -0.095 A  
HETATM   16  C   UNL     1      -8.854   7.552  71.047  1.00  0.00    -0.146 A  
HETATM   17  C   UNL     1      -9.963   8.392  71.009  1.00  0.00    -0.190 A  
ENDROOT
BRANCH   4  18
HETATM   18  C   UNL     1      -9.211  14.346  68.279  1.00  0.00    -0.201 C  
BRANCH  18  19
HETATM   19  C   UNL     1      -8.070  14.872  67.418  1.00  0.00    -0.218 C  
BRANCH  19  20
HETATM   20  C   UNL     1      -8.594  15.645  66.218  1.00  0.00    -0.265 C  
BRANCH  20  21
HETATM   21  C   UNL     1      -8.083  17.068  66.209  1.00  0.00    -0.297 C  
HETATM   22  O   UNL     1      -7.056  17.396  65.620  1.00  0.00    -0.298 OA 
BRANCH  21  23
HETATM   23  C   UNL     1      -8.867  18.099  66.944  1.00  0.00    -0.273 A  
HETATM   24  C   UNL     1      -9.175  19.371  68.984  1.00  0.00    -0.323 A  
HETATM   25  C   UNL     1      -8.470  18.420  68.251  1.00  0.00    -0.321 A  
HETATM   26  C   UNL     1     -10.276  19.998  68.413  1.00  0.00    -0.379 A  
HETATM   27  F   UNL     1     -10.958  20.904  69.120  1.00  0.00    -0.071 F  
HETATM   28  C   UNL     1      -9.977  18.745  66.377  1.00  0.00    -0.426 A  
HETATM   29  C   UNL     1     -10.682  19.696  67.118  1.00  0.00    -0.587 A  
ENDBRANCH  21  23
ENDBRANCH  20  21
ENDBRANCH  19  20
ENDBRANCH  18  19
ENDBRANCH   4  18
TORSDOF 5
ENDMDL
MODEL      107
REMARK 921   NORMALIZED FREE ENERGY PREDICTED BY IDOCK:   -5.63 KCAL/MOL
REMARK 922        TOTAL FREE ENERGY PREDICTED BY IDOCK:   -8.04 KCAL/MOL
REMARK 923 INTER-LIGAND FREE ENERGY PREDICTED BY IDOCK:   -6.80 KCAL/MOL
REMARK 924 INTRA-LIGAND FREE ENERGY PREDICTED BY IDOCK:   -1.24 KCAL/MOL
REMARK 927      BINDING AFFINITY PREDICTED BY RF-SCORE:    0.00 PKD
ROOT
HETATM    1  C   UNL     1      -8.164  10.615  69.070  1.00  0.00    -0.151 C  
HETATM    2  C   UNL     1      -7.091   9.621  68.702  1.00  0.00    -0.072 C  
HETATM    3  C   UNL     1      -7.101   9.367  67.212  1.00  0.00    -0.086 C  
HETATM    4  N   UNL     1      -6.887  10.604  66.445  1.00  0.00    -0.121 NA 
HETATM    5  C   UNL     1     -13.250  10.021  70.613  1.00  0.00    -0.118 C  
HETATM    6  C   UNL     1      -7.903  11.644  66.765  1.00  0.00    -0.130 C  
HETATM    7  C   UNL     1      -8.090  11.950  68.263  1.00  0.00    -0.154 C  
HETATM    8  N   UNL     1     -11.849  10.320  70.458  1.00  0.00    -0.304 NA 
HETATM    9  C   UNL     1     -10.862   9.215  70.559  1.00  0.00    -0.255 C  
HETATM   10  C   UNL     1      -9.486  12.460  68.591  1.00  0.00    -0.018 A  
HETATM   11  C   UNL     1     -10.056  13.708  68.625  1.00  0.00    -0.182 A  
HETATM   12  C   UNL     1     -10.191   8.957  69.214  1.00  0.00    -0.209 C  
HETATM   13  N   UNL     1      -9.508  10.143  68.748  1.00  0.00    -0.163 NA 
HETATM   14  C   UNL     1     -10.220  11.348  69.015  1.00  0.00    -0.117 A  
HETATM   15  C   UNL     1     -11.348  13.810  69.171  1.00  0.00    -0.329 A  
HETATM   16  C   UNL     1     -12.010  12.690  69.750  1.00  0.00    -0.365 A  
HETATM   17  C   UNL     1     -11.418  11.431  69.723  1.00  0.00    -0.300 A  
ENDROOT
BRANCH   4  18
HETATM   18  C   UNL     1      -6.961  10.235  65.015  1.00  0.00    -0.112 C  
BRANCH  18  19
HETATM   19  C   UNL     1      -7.858   9.035  64.737  1.00  0.00    -0.122 C  
BRANCH  19  20
HETATM   20  C   UNL     1      -9.329   9.417  64.807  1.00  0.00    -0.161 C  
BRANCH  20  21
HETATM   21  C   UNL     1      -9.661  10.521  63.828  1.00  0.00    -0.311 C  
HETATM   22  O   UNL     1      -9.134  10.601  62.721  1.00  0.00    -0.228 OA 
BRANCH  21  23
HETATM   23  C   UNL     1     -10.669  11.539  64.235  1.00  0.00    -0.416 A  
HETATM   24  C   UNL     1     -12.133  12.395  65.966  1.00  0.00    -0.327 A  
HETATM   25  C   UNL     1     -11.182  11.472  65.539  1.00  0.00    -0.204 A  
HETATM   26  C   UNL     1     -12.574  13.380  65.089  1.00  0.00    -0.440 A  
HETATM   27  F   UNL     1     -13.493  14.260  65.496  1.00  0.00    -0.467 F  
HETATM   28  C   UNL     1     -11.117  12.543  63.363  1.00  0.00    -0.419 A  
HETATM   29  C   UNL     1     -12.073  13.464  63.795  1.00  0.00    -0.516 A  
ENDBRANCH  21  23
ENDBRANCH  20  21
ENDBRANCH  19  20
ENDBRANCH  18  19
ENDBRANCH   4  18
TORSDOF 5
ENDMDL
MODEL      108
REMARK 921   NORMALIZED FREE ENERGY PREDICTED BY IDOCK:   -5.62 KCAL/MOL
REMARK 922        TOTAL FREE ENERGY PREDICTED BY IDOCK:   -8.03 KCAL/MOL
REMARK 923 INTER-LIGAND FREE ENERGY PREDICTED BY IDOCK:   -7.04 KCAL/MOL
REMARK 924 INTRA-LIGAND FREE ENERGY PREDICTED BY IDOCK:   -0.99 KCAL/MOL
REMARK 927      BINDING AFFINITY PREDICTED BY RF-SCORE:    0.00 PKD
ROOT
HETATM    1  C   UNL     1      -7.274  15.652  67.376  1.00  0.00    -0.208 C  
HETATM    2  C   UNL     1      -6.466  14.381  67.471  1.00  0.00    -0.066 C  
HETATM    3  C   UNL     1      -7.136  13.404  68.409  1.00  0.00    -0.108 C  
HETATM    4  N   UNL     1      -8.499  13.069  67.967  1.00  0.00    -0.172 NA 
HETATM    5  C   UNL     1      -7.077  20.260  70.085  1.00  0.00     0.355 C  
HETATM    6  C   UNL     1      -9.357  14.279  67.835  1.00  0.00    -0.198 C  
HETATM    7  C   UNL     1      -8.769  15.421  66.987  1.00  0.00    -0.256 C  
HETATM    8  N   UNL     1      -7.080  19.190  69.119  1.00  0.00    -0.330 NA 
HETATM    9  C   UNL     1      -5.933  18.248  69.084  1.00  0.00    -0.225 C  
HETATM   10  C   UNL     1      -9.296  16.790  67.393  1.00  0.00    -0.233 A  
HETATM   11  C   UNL     1     -10.381  17.540  67.014  1.00  0.00    -0.324 A  
HETATM   12  C   UNL     1      -6.359  16.851  69.522  1.00  0.00    -0.233 C  
HETATM   13  N   UNL     1      -7.400  16.341  68.657  1.00  0.00    -0.169 NA 
HETATM   14  C   UNL     1      -8.348  17.330  68.269  1.00  0.00    -0.242 A  
HETATM   15  C   UNL     1     -10.438  18.867  67.475  1.00  0.00    -0.522 A  
HETATM   16  C   UNL     1      -9.378  19.448  68.228  1.00  0.00    -0.414 A  
HETATM   17  C   UNL     1      -8.276  18.684  68.596  1.00  0.00    -0.318 A  
ENDROOT
BRANCH   4  18
HETATM   18  C   UNL     1      -9.059  12.149  68.980  1.00  0.00     0.397 C  
BRANCH  18  19
HETATM   19  C   UNL     1      -8.749  10.681  68.712  1.00  0.00    -0.157 C  
BRANCH  19  20
HETATM   20  C   UNL     1      -9.354  10.220  67.394  1.00  0.00    -0.163 C  
BRANCH  20  21
HETATM   21  C   UNL     1     -10.813  10.602  67.291  1.00  0.00    -0.287 C  
HETATM   22  O   UNL     1     -11.647  10.251  68.122  1.00  0.00    -0.297 OA 
BRANCH  21  23
HETATM   23  C   UNL     1     -11.239  11.438  66.134  1.00  0.00    -0.203 A  
HETATM   24  C   UNL     1     -11.085  11.876  63.756  1.00  0.00    -0.510 A  
HETATM   25  C   UNL     1     -10.725  11.120  64.869  1.00  0.00    -0.318 A  
HETATM   26  C   UNL     1     -11.955  12.950  63.909  1.00  0.00    -0.480 A  
HETATM   27  F   UNL     1     -12.293  13.681  62.843  1.00  0.00    -0.516 F  
HETATM   28  C   UNL     1     -12.121  12.520  66.274  1.00  0.00    -0.315 A  
HETATM   29  C   UNL     1     -12.477  13.277  65.156  1.00  0.00    -0.525 A  
ENDBRANCH  21  23
ENDBRANCH  20  21
ENDBRANCH  19  20
ENDBRANCH  18  19
ENDBRANCH   4  18
TORSDOF 5
ENDMDL
MODEL      109
REMARK 921   NORMALIZED FREE ENERGY PREDICTED BY IDOCK:   -5.59 KCAL/MOL
REMARK 922        TOTAL FREE ENERGY PREDICTED BY IDOCK:   -7.99 KCAL/MOL
REMARK 923 INTER-LIGAND FREE ENERGY PREDICTED BY IDOCK:   -6.85 KCAL/MOL
REMARK 924 INTRA-LIGAND FREE ENERGY PREDICTED BY IDOCK:   -1.14 KCAL/MOL
REMARK 927      BINDING AFFINITY PREDICTED BY RF-SCORE:    0.00 PKD
ROOT
HETATM    1  C   UNL     1     -10.026  15.311  69.231  1.00  0.00    -0.251 C  
HETATM    2  C   UNL     1      -9.918  15.182  70.730  1.00  0.00     0.742 C  
HETATM    3  C   UNL     1     -11.294  15.142  71.353  1.00  0.00    -0.327 C  
HETATM    4  N   UNL     1     -12.096  14.022  70.836  1.00  0.00    -0.341 NA 
HETATM    5  C   UNL     1     -10.101  19.553  65.974  1.00  0.00    -0.436 C  
HETATM    6  C   UNL     1     -12.237  14.072  69.355  1.00  0.00    -0.292 C  
HETATM    7  C   UNL     1     -10.922  14.217  68.567  1.00  0.00    -0.267 C  
HETATM    8  N   UNL     1      -9.843  18.332  66.694  1.00  0.00    -0.333 NA 
HETATM    9  C   UNL     1      -9.306  18.410  68.076  1.00  0.00    -0.291 C  
HETATM   10  C   UNL     1     -11.112  14.902  67.222  1.00  0.00    -0.336 A  
HETATM   11  C   UNL     1     -11.407  14.450  65.960  1.00  0.00    -0.335 A  
HETATM   12  C   UNL     1     -10.331  17.912  69.090  1.00  0.00    -0.111 C  
HETATM   13  N   UNL     1     -10.696  16.540  68.815  1.00  0.00    -0.317 NA 
HETATM   14  C   UNL     1     -10.811  16.253  67.424  1.00  0.00    -0.242 A  
HETATM   15  C   UNL     1     -11.311  15.376  64.906  1.00  0.00    -0.367 A  
HETATM   16  C   UNL     1     -10.841  16.704  65.113  1.00  0.00    -0.199 A  
HETATM   17  C   UNL     1     -10.531  17.150  66.394  1.00  0.00    -0.255 A  
ENDROOT
BRANCH   4  18
HETATM   18  C   UNL     1     -13.422  14.116  71.483  1.00  0.00    -0.344 C  
BRANCH  18  19
HETATM   19  C   UNL     1     -13.836  12.848  72.219  1.00  0.00    -0.464 C  
BRANCH  19  20
HETATM   20  C   UNL     1     -12.689  11.850  72.290  1.00  0.00     0.355 C  
BRANCH  20  21
HETATM   21  C   UNL     1     -12.897  10.699  71.333  1.00  0.00    -0.451 C  
HETATM   22  O   UNL     1     -13.906   9.998  71.353  1.00  0.00    -0.157 OA 
BRANCH  21  23
HETATM   23  C   UNL     1     -11.831  10.419  70.331  1.00  0.00    -0.418 A  
HETATM   24  C   UNL     1     -11.124  10.504  68.014  1.00  0.00    -0.361 A  
HETATM   25  C   UNL     1     -12.084  10.754  68.992  1.00  0.00    -0.170 A  
HETATM   26  C   UNL     1      -9.915   9.919  68.375  1.00  0.00    -0.158 A  
HETATM   27  F   UNL     1      -8.998   9.671  67.435  1.00  0.00    -0.129 F  
HETATM   28  C   UNL     1     -10.605   9.836  70.682  1.00  0.00    -0.382 A  
HETATM   29  C   UNL     1      -9.646   9.585  69.697  1.00  0.00    -0.216 A  
ENDBRANCH  21  23
ENDBRANCH  20  21
ENDBRANCH  19  20
ENDBRANCH  18  19
ENDBRANCH   4  18
TORSDOF 5
ENDMDL
MODEL      110
REMARK 921   NORMALIZED FREE ENERGY PREDICTED BY IDOCK:   -5.56 KCAL/MOL
REMARK 922        TOTAL FREE ENERGY PREDICTED BY IDOCK:   -7.95 KCAL/MOL
REMARK 923 INTER-LIGAND FREE ENERGY PREDICTED BY IDOCK:   -7.27 KCAL/MOL
REMARK 924 INTRA-LIGAND FREE ENERGY PREDICTED BY IDOCK:   -0.67 KCAL/MOL
REMARK 927      BINDING AFFINITY PREDICTED BY RF-SCORE:    0.00 PKD
ROOT
HETATM    1  C   UNL     1     -10.275   5.949  71.692  1.00  0.00    -0.202 C  
HETATM    2  C   UNL     1     -10.736   6.555  72.995  1.00  0.00    -0.291 C  
HETATM    3  C   UNL     1     -11.071   8.016  72.803  1.00  0.00    -0.381 C  
HETATM    4  N   UNL     1     -12.121   8.209  71.791  1.00  0.00    -0.299 NA 
HETATM    5  C   UNL     1      -5.428   5.340  69.517  1.00  0.00    -0.007 C  
HETATM    6  C   UNL     1     -11.744   7.622  70.476  1.00  0.00    -0.128 C  
HETATM    7  C   UNL     1     -11.277   6.156  70.512  1.00  0.00    -0.403 C  
HETATM    8  N   UNL     1      -6.747   5.209  70.082  1.00  0.00    -0.042 NA 
HETATM    9  C   UNL     1      -6.933   5.439  71.537  1.00  0.00    -0.066 C  
HETATM   10  C   UNL     1     -10.323   5.812  69.377  1.00  0.00    -0.332 A  
HETATM   11  C   UNL     1     -10.499   5.356  68.095  1.00  0.00    -0.188 A  
HETATM   12  C   UNL     1      -7.762   6.693  71.790  1.00  0.00    -0.097 C  
HETATM   13  N   UNL     1      -9.065   6.578  71.172  1.00  0.00    -0.152 NA 
HETATM   14  C   UNL     1      -9.032   5.942  69.898  1.00  0.00    -0.139 A  
HETATM   15  C   UNL     1      -9.349   4.961  67.388  1.00  0.00    -0.145 A  
HETATM   16  C   UNL     1      -8.062   4.945  67.998  1.00  0.00    -0.093 A  
HETATM   17  C   UNL     1      -7.895   5.396  69.303  1.00  0.00    -0.089 A  
ENDROOT
BRANCH   4  18
HETATM   18  C   UNL     1     -12.327   9.668  71.665  1.00  0.00    -0.404 C  
BRANCH  18  19
HETATM   19  C   UNL     1     -11.435  10.324  70.619  1.00  0.00    -0.435 C  
BRANCH  19  20
HETATM   20  C   UNL     1     -12.261  11.034  69.556  1.00  0.00    -0.352 C  
BRANCH  20  21
HETATM   21  C   UNL     1     -11.912  12.502  69.474  1.00  0.00    -0.266 C  
HETATM   22  O   UNL     1     -11.956  13.247  70.451  1.00  0.00    -0.332 OA 
BRANCH  21  23
HETATM   23  C   UNL     1     -11.497  13.052  68.153  1.00  0.00    -0.356 A  
HETATM   24  C   UNL     1     -10.775  12.606  65.883  1.00  0.00    -0.293 A  
HETATM   25  C   UNL     1     -11.177  12.143  67.134  1.00  0.00    -0.372 A  
HETATM   26  C   UNL     1     -10.691  13.975  65.654  1.00  0.00    -0.303 A  
HETATM   27  F   UNL     1     -10.296  14.418  64.457  1.00  0.00    -0.433 F  
HETATM   28  C   UNL     1     -11.415  14.431  67.906  1.00  0.00    -0.346 A  
HETATM   29  C   UNL     1     -11.009  14.890  66.651  1.00  0.00    -0.325 A  
ENDBRANCH  21  23
ENDBRANCH  20  21
ENDBRANCH  19  20
ENDBRANCH  18  19
ENDBRANCH   4  18
TORSDOF 5
ENDMDL
MODEL      111
REMARK 921   NORMALIZED FREE ENERGY PREDICTED BY IDOCK:   -5.55 KCAL/MOL
REMARK 922        TOTAL FREE ENERGY PREDICTED BY IDOCK:   -7.93 KCAL/MOL
REMARK 923 INTER-LIGAND FREE ENERGY PREDICTED BY IDOCK:   -7.43 KCAL/MOL
REMARK 924 INTRA-LIGAND FREE ENERGY PREDICTED BY IDOCK:   -0.50 KCAL/MOL
REMARK 927      BINDING AFFINITY PREDICTED BY RF-SCORE:    0.00 PKD
ROOT
HETATM    1  C   UNL     1     -10.454   9.935  68.590  1.00  0.00    -0.206 C  
HETATM    2  C   UNL     1     -11.459  10.749  67.813  1.00  0.00    -0.283 C  
HETATM    3  C   UNL     1     -11.318  12.216  68.150  1.00  0.00    -0.293 C  
HETATM    4  N   UNL     1      -9.967  12.718  67.852  1.00  0.00    -0.222 NA 
HETATM    5  C   UNL     1     -10.712   7.445  73.316  1.00  0.00    -0.391 C  
HETATM    6  C   UNL     1      -8.914  11.952  68.574  1.00  0.00    -0.115 C  
HETATM    7  C   UNL     1      -8.980  10.422  68.416  1.00  0.00    -0.137 C  
HETATM    8  N   UNL     1     -10.581   7.845  71.938  1.00  0.00    -0.220 NA 
HETATM    9  C   UNL     1     -11.800   8.219  71.177  1.00  0.00    -0.275 C  
HETATM   10  C   UNL     1      -8.382   9.680  69.603  1.00  0.00    -0.173 A  
HETATM   11  C   UNL     1      -7.118   9.242  69.909  1.00  0.00    -0.064 A  
HETATM   12  C   UNL     1     -11.795   9.704  70.831  1.00  0.00    -0.323 C  
HETATM   13  N   UNL     1     -10.636  10.039  70.035  1.00  0.00    -0.276 NA 
HETATM   14  C   UNL     1      -9.453   9.357  70.442  1.00  0.00    -0.268 A  
HETATM   15  C   UNL     1      -6.982   8.407  71.033  1.00  0.00    -0.056 A  
HETATM   16  C   UNL     1      -8.110   7.955  71.775  1.00  0.00    -0.127 A  
HETATM   17  C   UNL     1      -9.389   8.394  71.449  1.00  0.00    -0.190 A  
ENDROOT
BRANCH   4  18
HETATM   18  C   UNL     1      -9.943  14.139  68.262  1.00  0.00    -0.241 C  
BRANCH  18  19
HETATM   19  C   UNL     1      -8.677  14.875  67.846  1.00  0.00    -0.164 C  
BRANCH  19  20
HETATM   20  C   UNL     1      -8.851  15.557  66.496  1.00  0.00    -0.348 C  
BRANCH  20  21
HETATM   21  C   UNL     1     -10.311  15.689  66.128  1.00  0.00    -0.316 C  
HETATM   22  O   UNL     1     -10.986  16.666  66.446  1.00  0.00    -0.080 OA 
BRANCH  21  23
HETATM   23  C   UNL     1     -10.940  14.588  65.347  1.00  0.00    -0.346 A  
HETATM   24  C   UNL     1     -12.973  13.443  64.692  1.00  0.00    -0.011 A  
HETATM   25  C   UNL     1     -12.336  14.461  65.397  1.00  0.00    -0.359 A  
HETATM   26  C   UNL     1     -12.215  12.551  63.942  1.00  0.00    -0.503 A  
HETATM   27  F   UNL     1     -12.825  11.569  63.273  1.00  0.00    -0.634 F  
HETATM   28  C   UNL     1     -10.188  13.686  64.580  1.00  0.00    -0.338 A  
HETATM   29  C   UNL     1     -10.831  12.665  63.877  1.00  0.00    -0.468 A  
ENDBRANCH  21  23
ENDBRANCH  20  21
ENDBRANCH  19  20
ENDBRANCH  18  19
ENDBRANCH   4  18
TORSDOF 5
ENDMDL
MODEL      112
REMARK 921   NORMALIZED FREE ENERGY PREDICTED BY IDOCK:   -5.55 KCAL/MOL
REMARK 922        TOTAL FREE ENERGY PREDICTED BY IDOCK:   -7.93 KCAL/MOL
REMARK 923 INTER-LIGAND FREE ENERGY PREDICTED BY IDOCK:   -7.20 KCAL/MOL
REMARK 924 INTRA-LIGAND FREE ENERGY PREDICTED BY IDOCK:   -0.73 KCAL/MOL
REMARK 927      BINDING AFFINITY PREDICTED BY RF-SCORE:    0.00 PKD
ROOT
HETATM    1  C   UNL     1     -10.282   9.700  66.229  1.00  0.00    -0.216 C  
HETATM    2  C   UNL     1     -10.956  10.819  66.984  1.00  0.00    -0.292 C  
HETATM    3  C   UNL     1      -9.959  11.526  67.874  1.00  0.00    -0.183 C  
HETATM    4  N   UNL     1      -8.837  12.082  67.102  1.00  0.00    -0.181 NA 
HETATM    5  C   UNL     1      -9.648   4.499  67.299  1.00  0.00    -0.185 C  
HETATM    6  C   UNL     1      -8.126  11.037  66.316  1.00  0.00    -0.159 C  
HETATM    7  C   UNL     1      -9.020  10.153  65.427  1.00  0.00    -0.208 C  
HETATM    8  N   UNL     1      -9.957   5.802  66.767  1.00  0.00    -0.160 NA 
HETATM    9  C   UNL     1     -11.006   6.620  67.427  1.00  0.00    -0.360 C  
HETATM   10  C   UNL     1      -8.430   8.771  65.184  1.00  0.00    -0.192 A  
HETATM   11  C   UNL     1      -7.582   8.254  64.238  1.00  0.00    -0.122 A  
HETATM   12  C   UNL     1     -10.402   7.854  68.088  1.00  0.00    -0.200 C  
HETATM   13  N   UNL     1      -9.726   8.677  67.110  1.00  0.00    -0.174 NA 
HETATM   14  C   UNL     1      -9.017   7.924  66.130  1.00  0.00    -0.175 A  
HETATM   15  C   UNL     1      -7.408   6.859  64.223  1.00  0.00    -0.085 A  
HETATM   16  C   UNL     1      -8.144   6.000  65.088  1.00  0.00    -0.132 A  
HETATM   17  C   UNL     1      -9.012   6.533  66.036  1.00  0.00    -0.122 A  
ENDROOT
BRANCH   4  18
HETATM   18  C   UNL     1      -7.918  12.705  68.080  1.00  0.00    -0.155 C  
BRANCH  18  19
HETATM   19  C   UNL     1      -8.207  14.177  68.342  1.00  0.00    -0.149 C  
BRANCH  19  20
HETATM   20  C   UNL     1      -8.547  14.911  67.053  1.00  0.00    -0.265 C  
BRANCH  20  21
HETATM   21  C   UNL     1      -9.890  15.597  67.145  1.00  0.00    -0.229 C  
HETATM   22  O   UNL     1     -10.948  14.973  67.201  1.00  0.00    -0.315 OA 
BRANCH  21  23
HETATM   23  C   UNL     1      -9.917  17.086  67.173  1.00  0.00    -0.281 A  
HETATM   24  C   UNL     1      -9.443  19.122  68.400  1.00  0.00    -0.425 A  
HETATM   25  C   UNL     1      -9.431  17.731  68.320  1.00  0.00    -0.290 A  
HETATM   26  C   UNL     1      -9.941  19.865  67.336  1.00  0.00    -0.423 A  
HETATM   27  F   UNL     1      -9.960  21.199  67.416  1.00  0.00    -0.594 F  
HETATM   28  C   UNL     1     -10.410  17.849  66.103  1.00  0.00    -0.352 A  
HETATM   29  C   UNL     1     -10.422  19.243  66.189  1.00  0.00    -0.577 A  
ENDBRANCH  21  23
ENDBRANCH  20  21
ENDBRANCH  19  20
ENDBRANCH  18  19
ENDBRANCH   4  18
TORSDOF 5
ENDMDL
MODEL      113
REMARK 921   NORMALIZED FREE ENERGY PREDICTED BY IDOCK:   -5.54 KCAL/MOL
REMARK 922        TOTAL FREE ENERGY PREDICTED BY IDOCK:   -7.92 KCAL/MOL
REMARK 923 INTER-LIGAND FREE ENERGY PREDICTED BY IDOCK:   -7.08 KCAL/MOL
REMARK 924 INTRA-LIGAND FREE ENERGY PREDICTED BY IDOCK:   -0.84 KCAL/MOL
REMARK 927      BINDING AFFINITY PREDICTED BY RF-SCORE:    0.00 PKD
ROOT
HETATM    1  C   UNL     1     -11.002  10.434  68.577  1.00  0.00    -0.254 C  
HETATM    2  C   UNL     1     -10.785  11.923  68.694  1.00  0.00    -0.266 C  
HETATM    3  C   UNL     1      -9.324  12.256  68.501  1.00  0.00    -0.099 C  
HETATM    4  N   UNL     1      -8.829  11.805  67.190  1.00  0.00    -0.167 NA 
HETATM    5  C   UNL     1     -11.059   6.504  72.204  1.00  0.00    -0.260 C  
HETATM    6  C   UNL     1      -9.021  10.342  66.993  1.00  0.00    -0.136 C  
HETATM    7  C   UNL     1     -10.445   9.819  67.253  1.00  0.00    -0.324 C  
HETATM    8  N   UNL     1     -11.320   7.473  71.170  1.00  0.00    -0.262 NA 
HETATM    9  C   UNL     1     -11.513   8.896  71.547  1.00  0.00    -0.321 C  
HETATM   10  C   UNL     1     -10.469   8.360  67.685  1.00  0.00    -0.307 A  
HETATM   11  C   UNL     1     -10.535   7.169  67.005  1.00  0.00    -0.392 A  
HETATM   12  C   UNL     1     -10.368   9.759  71.030  1.00  0.00    -0.103 C  
HETATM   13  N   UNL     1     -10.274   9.674  69.590  1.00  0.00    -0.206 NA 
HETATM   14  C   UNL     1     -10.520   8.366  69.083  1.00  0.00    -0.206 A  
HETATM   15  C   UNL     1     -10.734   6.004  67.766  1.00  0.00    -0.369 A  
HETATM   16  C   UNL     1     -10.950   6.052  69.173  1.00  0.00    -0.429 A  
HETATM   17  C   UNL     1     -10.895   7.265  69.852  1.00  0.00    -0.247 A  
ENDROOT
BRANCH   4  18
HETATM   18  C   UNL     1      -7.391  12.147  67.140  1.00  0.00    -0.124 C  
BRANCH  18  19
HETATM   19  C   UNL     1      -6.921  12.998  68.312  1.00  0.00    -0.101 C  
BRANCH  19  20
HETATM   20  C   UNL     1      -6.394  14.346  67.841  1.00  0.00    -0.173 C  
BRANCH  20  21
HETATM   21  C   UNL     1      -7.154  15.489  68.472  1.00  0.00    -0.115 C  
HETATM   22  O   UNL     1      -6.957  15.853  69.630  1.00  0.00    -0.198 OA 
BRANCH  21  23
HETATM   23  C   UNL     1      -8.175  16.193  67.647  1.00  0.00    -0.161 A  
HETATM   24  C   UNL     1      -9.119  18.303  66.918  1.00  0.00    -0.282 A  
HETATM   25  C   UNL     1      -8.180  17.596  67.665  1.00  0.00    -0.225 A  
HETATM   26  C   UNL     1     -10.053  17.608  66.157  1.00  0.00    -0.301 A  
HETATM   27  F   UNL     1     -10.960  18.286  65.448  1.00  0.00    -0.428 F  
HETATM   28  C   UNL     1      -9.118  15.505  66.870  1.00  0.00    -0.264 A  
HETATM   29  C   UNL     1     -10.059  16.218  66.124  1.00  0.00    -0.362 A  
ENDBRANCH  21  23
ENDBRANCH  20  21
ENDBRANCH  19  20
ENDBRANCH  18  19
ENDBRANCH   4  18
TORSDOF 5
ENDMDL
MODEL      114
REMARK 921   NORMALIZED FREE ENERGY PREDICTED BY IDOCK:   -5.54 KCAL/MOL
REMARK 922        TOTAL FREE ENERGY PREDICTED BY IDOCK:   -7.92 KCAL/MOL
REMARK 923 INTER-LIGAND FREE ENERGY PREDICTED BY IDOCK:   -6.05 KCAL/MOL
REMARK 924 INTRA-LIGAND FREE ENERGY PREDICTED BY IDOCK:   -1.87 KCAL/MOL
REMARK 927      BINDING AFFINITY PREDICTED BY RF-SCORE:    0.00 PKD
ROOT
HETATM    1  C   UNL     1     -11.594   7.214  70.545  1.00  0.00    -0.290 C  
HETATM    2  C   UNL     1     -11.366   5.850  71.147  1.00  0.00    -0.230 C  
HETATM    3  C   UNL     1     -10.167   5.876  72.068  1.00  0.00    -0.197 C  
HETATM    4  N   UNL     1     -10.335   6.854  73.155  1.00  0.00    -0.239 NA 
HETATM    5  C   UNL     1      -9.904   9.478  66.004  1.00  0.00    -0.283 C  
HETATM    6  C   UNL     1     -10.579   8.229  72.638  1.00  0.00    -0.308 C  
HETATM    7  C   UNL     1     -11.711   8.357  71.603  1.00  0.00    -0.354 C  
HETATM    8  N   UNL     1     -10.629   8.922  67.118  1.00  0.00    -0.274 NA 
HETATM    9  C   UNL     1     -10.641   7.449  67.306  1.00  0.00    -0.323 C  
HETATM   10  C   UNL     1     -11.513   9.530  70.654  1.00  0.00    -0.362 A  
HETATM   11  C   UNL     1     -11.874  10.854  70.692  1.00  0.00    -0.453 A  
HETATM   12  C   UNL     1      -9.880   7.053  68.567  1.00  0.00    -0.147 C  
HETATM   13  N   UNL     1     -10.469   7.671  69.734  1.00  0.00    -0.227 NA 
HETATM   14  C   UNL     1     -10.906   9.007  69.507  1.00  0.00    -0.166 A  
HETATM   15  C   UNL     1     -11.680  11.607  69.520  1.00  0.00    -0.410 A  
HETATM   16  C   UNL     1     -11.216  11.013  68.312  1.00  0.00    -0.340 A  
HETATM   17  C   UNL     1     -10.865   9.667  68.280  1.00  0.00    -0.182 A  
ENDROOT
BRANCH   4  18
HETATM   18  C   UNL     1      -9.091   6.817  73.954  1.00  0.00    -0.170 C  
BRANCH  18  19
HETATM   19  C   UNL     1      -8.267   8.095  73.864  1.00  0.00    -0.311 C  
BRANCH  19  20
HETATM   20  C   UNL     1      -6.832   7.800  73.453  1.00  0.00    -0.101 C  
BRANCH  20  21
HETATM   21  C   UNL     1      -6.770   7.155  72.087  1.00  0.00    -0.056 C  
HETATM   22  O   UNL     1      -6.620   5.945  71.936  1.00  0.00    -0.055 OA 
BRANCH  21  23
HETATM   23  C   UNL     1      -6.901   8.032  70.891  1.00  0.00    -0.041 A  
HETATM   24  C   UNL     1      -6.493   8.340  68.522  1.00  0.00    -0.054 A  
HETATM   25  C   UNL     1      -6.403   7.556  69.669  1.00  0.00    -0.031 A  
HETATM   26  C   UNL     1      -7.078   9.599  68.597  1.00  0.00    -0.072 A  
HETATM   27  F   UNL     1      -7.155  10.355  67.498  1.00  0.00    -0.081 F  
HETATM   28  C   UNL     1      -7.496   9.301  70.951  1.00  0.00    -0.123 A  
HETATM   29  C   UNL     1      -7.581  10.085  69.798  1.00  0.00    -0.167 A  
ENDBRANCH  21  23
ENDBRANCH  20  21
ENDBRANCH  19  20
ENDBRANCH  18  19
ENDBRANCH   4  18
TORSDOF 5
ENDMDL
MODEL      115
REMARK 921   NORMALIZED FREE ENERGY PREDICTED BY IDOCK:   -5.54 KCAL/MOL
REMARK 922        TOTAL FREE ENERGY PREDICTED BY IDOCK:   -7.91 KCAL/MOL
REMARK 923 INTER-LIGAND FREE ENERGY PREDICTED BY IDOCK:   -7.39 KCAL/MOL
REMARK 924 INTRA-LIGAND FREE ENERGY PREDICTED BY IDOCK:   -0.52 KCAL/MOL
REMARK 927      BINDING AFFINITY PREDICTED BY RF-SCORE:    0.00 PKD
ROOT
HETATM    1  C   UNL     1      -9.843   9.479  68.542  1.00  0.00    -0.158 C  
HETATM    2  C   UNL     1     -10.769  10.017  67.479  1.00  0.00    -0.339 C  
HETATM    3  C   UNL     1     -10.932  11.512  67.633  1.00  0.00    -0.242 C  
HETATM    4  N   UNL     1      -9.642  12.214  67.540  1.00  0.00    -0.176 NA 
HETATM    5  C   UNL     1     -10.733   7.477  73.420  1.00  0.00    -0.332 C  
HETATM    6  C   UNL     1      -8.665  11.727  68.553  1.00  0.00    -0.118 C  
HETATM    7  C   UNL     1      -8.459  10.202  68.596  1.00  0.00    -0.122 C  
HETATM    8  N   UNL     1     -10.370   7.752  72.053  1.00  0.00    -0.205 NA 
HETATM    9  C   UNL     1     -11.438   7.822  71.024  1.00  0.00    -0.281 C  
HETATM   10  C   UNL     1      -8.026   9.703  69.967  1.00  0.00    -0.182 A  
HETATM   11  C   UNL     1      -6.807   9.531  70.573  1.00  0.00    -0.112 A  
HETATM   12  C   UNL     1     -11.587   9.241  70.486  1.00  0.00    -0.217 C  
HETATM   13  N   UNL     1     -10.347   9.695  69.895  1.00  0.00    -0.230 NA 
HETATM   14  C   UNL     1      -9.191   9.281  70.616  1.00  0.00    -0.264 A  
HETATM   15  C   UNL     1      -6.790   8.853  71.805  1.00  0.00    -0.042 A  
HETATM   16  C   UNL     1      -7.969   8.285  72.366  1.00  0.00    -0.194 A  
HETATM   17  C   UNL     1      -9.199   8.452  71.738  1.00  0.00    -0.220 A  
ENDROOT
BRANCH   4  18
HETATM   18  C   UNL     1      -9.926  13.651  67.748  1.00  0.00    -0.235 C  
BRANCH  18  19
HETATM   19  C   UNL     1      -8.677  14.500  67.946  1.00  0.00    -0.165 C  
BRANCH  19  20
HETATM   20  C   UNL     1      -8.792  15.371  69.188  1.00  0.00    -0.249 C  
BRANCH  20  21
HETATM   21  C   UNL     1     -10.029  16.238  69.144  1.00  0.00    -0.260 C  
HETATM   22  O   UNL     1     -11.023  16.005  69.828  1.00  0.00    -0.282 OA 
BRANCH  21  23
HETATM   23  C   UNL     1     -10.027  17.417  68.234  1.00  0.00    -0.320 A  
HETATM   24  C   UNL     1     -10.489  18.303  66.026  1.00  0.00    -0.380 A  
HETATM   25  C   UNL     1     -10.480  17.234  66.919  1.00  0.00    -0.272 A  
HETATM   26  C   UNL     1     -10.046  19.551  66.447  1.00  0.00    -0.455 A  
HETATM   27  F   UNL     1     -10.047  20.574  65.587  1.00  0.00    -0.464 F  
HETATM   28  C   UNL     1      -9.589  18.684  68.648  1.00  0.00    -0.407 A  
HETATM   29  C   UNL     1      -9.599  19.752  67.748  1.00  0.00    -0.469 A  
ENDBRANCH  21  23
ENDBRANCH  20  21
ENDBRANCH  19  20
ENDBRANCH  18  19
ENDBRANCH   4  18
TORSDOF 5
ENDMDL
MODEL      116
REMARK 921   NORMALIZED FREE ENERGY PREDICTED BY IDOCK:   -5.54 KCAL/MOL
REMARK 922        TOTAL FREE ENERGY PREDICTED BY IDOCK:   -7.91 KCAL/MOL
REMARK 923 INTER-LIGAND FREE ENERGY PREDICTED BY IDOCK:   -6.34 KCAL/MOL
REMARK 924 INTRA-LIGAND FREE ENERGY PREDICTED BY IDOCK:   -1.57 KCAL/MOL
REMARK 927      BINDING AFFINITY PREDICTED BY RF-SCORE:    0.00 PKD
ROOT
HETATM    1  C   UNL     1      -8.709   6.903  68.113  1.00  0.00    -0.126 C  
HETATM    2  C   UNL     1      -9.017   6.621  66.663  1.00  0.00    -0.150 C  
HETATM    3  C   UNL     1      -9.852   7.736  66.078  1.00  0.00     0.235 C  
HETATM    4  N   UNL     1      -9.172   9.037  66.174  1.00  0.00    -0.199 NA 
HETATM    5  C   UNL     1     -11.188   5.551  72.654  1.00  0.00    -0.295 C  
HETATM    6  C   UNL     1      -8.821   9.382  67.580  1.00  0.00    -0.118 C  
HETATM    7  C   UNL     1      -8.050   8.298  68.356  1.00  0.00    -0.127 C  
HETATM    8  N   UNL     1     -10.291   5.769  71.549  1.00  0.00    -0.213 NA 
HETATM    9  C   UNL     1     -10.521   5.037  70.277  1.00  0.00    -0.173 C  
HETATM   10  C   UNL     1      -8.283   8.370  69.858  1.00  0.00    -0.122 A  
HETATM   11  C   UNL     1      -7.667   9.045  70.883  1.00  0.00    -0.149 A  
HETATM   12  C   UNL     1     -10.933   5.993  69.163  1.00  0.00    -0.359 C  
HETATM   13  N   UNL     1      -9.909   6.989  68.940  1.00  0.00    -0.148 NA 
HETATM   14  C   UNL     1      -9.299   7.452  70.142  1.00  0.00    -0.158 A  
HETATM   15  C   UNL     1      -8.046   8.708  72.195  1.00  0.00    -0.110 A  
HETATM   16  C   UNL     1      -8.962   7.651  72.464  1.00  0.00    -0.191 A  
HETATM   17  C   UNL     1      -9.571   6.964  71.419  1.00  0.00    -0.166 A  
ENDROOT
BRANCH   4  18
HETATM   18  C   UNL     1     -10.099  10.043  65.614  1.00  0.00    -0.251 C  
BRANCH  18  19
HETATM   19  C   UNL     1     -10.053  11.386  66.331  1.00  0.00    -0.255 C  
BRANCH  19  20
HETATM   20  C   UNL     1     -11.357  11.666  67.064  1.00  0.00    -0.373 C  
BRANCH  20  21
HETATM   21  C   UNL     1     -11.106  12.226  68.445  1.00  0.00    -0.243 C  
HETATM   22  O   UNL     1     -10.452  13.249  68.634  1.00  0.00    -0.251 OA 
BRANCH  21  23
HETATM   23  C   UNL     1     -11.683  11.501  69.611  1.00  0.00    -0.419 A  
HETATM   24  C   UNL     1     -12.793  11.633  71.761  1.00  0.00    -0.418 A  
HETATM   25  C   UNL     1     -12.249  12.262  70.644  1.00  0.00    -0.378 A  
HETATM   26  C   UNL     1     -12.770  10.246  71.845  1.00  0.00    -0.379 A  
HETATM   27  F   UNL     1     -13.285   9.643  72.921  1.00  0.00    -0.331 F  
HETATM   28  C   UNL     1     -11.673  10.101  69.706  1.00  0.00    -0.205 A  
HETATM   29  C   UNL     1     -12.218   9.475  70.829  1.00  0.00    -0.269 A  
ENDBRANCH  21  23
ENDBRANCH  20  21
ENDBRANCH  19  20
ENDBRANCH  18  19
ENDBRANCH   4  18
TORSDOF 5
ENDMDL
MODEL      117
REMARK 921   NORMALIZED FREE ENERGY PREDICTED BY IDOCK:   -5.52 KCAL/MOL
REMARK 922        TOTAL FREE ENERGY PREDICTED BY IDOCK:   -7.90 KCAL/MOL
REMARK 923 INTER-LIGAND FREE ENERGY PREDICTED BY IDOCK:   -7.36 KCAL/MOL
REMARK 924 INTRA-LIGAND FREE ENERGY PREDICTED BY IDOCK:   -0.53 KCAL/MOL
REMARK 927      BINDING AFFINITY PREDICTED BY RF-SCORE:    0.00 PKD
ROOT
HETATM    1  C   UNL     1     -11.441  10.941  67.923  1.00  0.00    -0.266 C  
HETATM    2  C   UNL     1     -11.005   9.517  67.680  1.00  0.00    -0.150 C  
HETATM    3  C   UNL     1      -9.837   9.167  68.573  1.00  0.00    -0.164 C  
HETATM    4  N   UNL     1     -10.171   9.325  69.997  1.00  0.00    -0.201 NA 
HETATM    5  C   UNL     1     -10.081  15.572  65.618  1.00  0.00    -0.376 C  
HETATM    6  C   UNL     1     -10.626  10.706  70.315  1.00  0.00     0.103 C  
HETATM    7  C   UNL     1     -11.752  11.257  69.421  1.00  0.00    -0.409 C  
HETATM    8  N   UNL     1     -10.721  14.396  66.151  1.00  0.00    -0.298 NA 
HETATM    9  C   UNL     1     -10.500  13.089  65.483  1.00  0.00    -0.285 C  
HETATM   10  C   UNL     1     -11.732  12.775  69.314  1.00  0.00    -0.376 A  
HETATM   11  C   UNL     1     -12.300  13.786  70.048  1.00  0.00    -0.364 A  
HETATM   12  C   UNL     1      -9.700  12.147  66.375  1.00  0.00    -0.231 C  
HETATM   13  N   UNL     1     -10.393  11.913  67.623  1.00  0.00    -0.198 NA 
HETATM   14  C   UNL     1     -11.035  13.076  68.139  1.00  0.00    -0.244 A  
HETATM   15  C   UNL     1     -12.216  15.088  69.524  1.00  0.00    -0.267 A  
HETATM   16  C   UNL     1     -11.648  15.347  68.244  1.00  0.00    -0.361 A  
HETATM   17  C   UNL     1     -11.086  14.314  67.501  1.00  0.00    -0.298 A  
ENDROOT
BRANCH   4  18
HETATM   18  C   UNL     1      -8.947   8.997  70.759  1.00  0.00    -0.236 C  
BRANCH  18  19
HETATM   19  C   UNL     1      -9.133   7.866  71.761  1.00  0.00    -0.188 C  
BRANCH  19  20
HETATM   20  C   UNL     1     -10.547   7.854  72.326  1.00  0.00    -0.331 C  
BRANCH  20  21
HETATM   21  C   UNL     1     -11.391   6.778  71.683  1.00  0.00    -0.266 C  
HETATM   22  O   UNL     1     -12.618   6.774  71.751  1.00  0.00    -0.357 OA 
BRANCH  21  23
HETATM   23  C   UNL     1     -10.695   5.691  70.940  1.00  0.00    -0.313 A  
HETATM   24  C   UNL     1      -9.591   3.535  71.021  1.00  0.00    -0.243 A  
HETATM   25  C   UNL     1     -10.255   4.575  71.667  1.00  0.00    -0.214 A  
HETATM   26  C   UNL     1      -9.365   3.613  69.651  1.00  0.00    -0.173 A  
HETATM   27  F   UNL     1      -8.720   2.619  69.033  1.00  0.00    -0.084 F  
HETATM   28  C   UNL     1     -10.466   5.754  69.557  1.00  0.00    -0.364 A  
HETATM   29  C   UNL     1      -9.798   4.710  68.914  1.00  0.00    -0.211 A  
ENDBRANCH  21  23
ENDBRANCH  20  21
ENDBRANCH  19  20
ENDBRANCH  18  19
ENDBRANCH   4  18
TORSDOF 5
ENDMDL
MODEL      118
REMARK 921   NORMALIZED FREE ENERGY PREDICTED BY IDOCK:   -5.52 KCAL/MOL
REMARK 922        TOTAL FREE ENERGY PREDICTED BY IDOCK:   -7.89 KCAL/MOL
REMARK 923 INTER-LIGAND FREE ENERGY PREDICTED BY IDOCK:   -6.93 KCAL/MOL
REMARK 924 INTRA-LIGAND FREE ENERGY PREDICTED BY IDOCK:   -0.96 KCAL/MOL
REMARK 927      BINDING AFFINITY PREDICTED BY RF-SCORE:    0.00 PKD
ROOT
HETATM    1  C   UNL     1      -7.761  11.838  67.185  1.00  0.00    -0.162 C  
HETATM    2  C   UNL     1      -7.089  11.890  68.535  1.00  0.00    -0.089 C  
HETATM    3  C   UNL     1      -7.603  10.777  69.419  1.00  0.00    -0.112 C  
HETATM    4  N   UNL     1      -7.369   9.453  68.822  1.00  0.00    -0.074 NA 
HETATM    5  C   UNL     1     -12.147  14.205  65.247  1.00  0.00    -0.405 C  
HETATM    6  C   UNL     1      -7.991   9.328  67.476  1.00  0.00    -0.099 C  
HETATM    7  C   UNL     1      -7.648  10.450  66.479  1.00  0.00    -0.118 C  
HETATM    8  N   UNL     1     -10.829  13.709  65.547  1.00  0.00    -0.288 NA 
HETATM    9  C   UNL     1     -10.119  14.225  66.745  1.00  0.00    -0.264 C  
HETATM   10  C   UNL     1      -8.735  10.666  65.436  1.00  0.00    -0.195 A  
HETATM   11  C   UNL     1      -8.985  10.125  64.200  1.00  0.00    -0.267 A  
HETATM   12  C   UNL     1      -9.957  13.134  67.797  1.00  0.00    -0.227 C  
HETATM   13  N   UNL     1      -9.208  12.018  67.264  1.00  0.00    -0.177 NA 
HETATM   14  C   UNL     1      -9.528  11.716  65.910  1.00  0.00    -0.228 A  
HETATM   15  C   UNL     1      -9.998  10.724  63.429  1.00  0.00    -0.385 A  
HETATM   16  C   UNL     1     -10.680  11.896  63.863  1.00  0.00    -0.450 A  
HETATM   17  C   UNL     1     -10.410  12.445  65.112  1.00  0.00    -0.287 A  
ENDROOT
BRANCH   4  18
HETATM   18  C   UNL     1      -7.948   8.460  69.752  1.00  0.00    -0.104 C  
BRANCH  18  19
HETATM   19  C   UNL     1      -9.457   8.587  69.922  1.00  0.00    -0.163 C  
BRANCH  19  20
HETATM   20  C   UNL     1      -9.995   7.535  70.881  1.00  0.00    -0.181 C  
BRANCH  20  21
HETATM   21  C   UNL     1     -11.033   6.660  70.217  1.00  0.00    -0.303 C  
HETATM   22  O   UNL     1     -12.203   6.622  70.593  1.00  0.00    -0.377 OA 
BRANCH  21  23
HETATM   23  C   UNL     1     -10.609   5.821  69.062  1.00  0.00    -0.351 A  
HETATM   24  C   UNL     1     -10.644   5.466  66.665  1.00  0.00    -0.359 A  
HETATM   25  C   UNL     1     -11.007   6.221  67.778  1.00  0.00    -0.427 A  
HETATM   26  C   UNL     1      -9.886   4.314  66.836  1.00  0.00    -0.193 A  
HETATM   27  F   UNL     1      -9.545   3.585  65.769  1.00  0.00    -0.164 F  
HETATM   28  C   UNL     1      -9.837   4.660  69.220  1.00  0.00    -0.260 A  
HETATM   29  C   UNL     1      -9.478   3.906  68.101  1.00  0.00    -0.219 A  
ENDBRANCH  21  23
ENDBRANCH  20  21
ENDBRANCH  19  20
ENDBRANCH  18  19
ENDBRANCH   4  18
TORSDOF 5
ENDMDL
MODEL      119
REMARK 921   NORMALIZED FREE ENERGY PREDICTED BY IDOCK:   -5.47 KCAL/MOL
REMARK 922        TOTAL FREE ENERGY PREDICTED BY IDOCK:   -7.83 KCAL/MOL
REMARK 923 INTER-LIGAND FREE ENERGY PREDICTED BY IDOCK:   -7.15 KCAL/MOL
REMARK 924 INTRA-LIGAND FREE ENERGY PREDICTED BY IDOCK:   -0.69 KCAL/MOL
REMARK 927      BINDING AFFINITY PREDICTED BY RF-SCORE:    0.00 PKD
ROOT
HETATM    1  C   UNL     1      -9.929  15.552  68.932  1.00  0.00    -0.218 C  
HETATM    2  C   UNL     1      -9.756  15.458  70.428  1.00  0.00     0.435 C  
HETATM    3  C   UNL     1     -11.104  15.414  71.110  1.00  0.00    -0.312 C  
HETATM    4  N   UNL     1     -11.912  14.273  70.651  1.00  0.00    -0.317 NA 
HETATM    5  C   UNL     1     -10.201  19.719  65.590  1.00  0.00    -0.267 C  
HETATM    6  C   UNL     1     -12.116  14.288  69.177  1.00  0.00    -0.302 C  
HETATM    7  C   UNL     1     -10.837  14.433  68.331  1.00  0.00    -0.256 C  
HETATM    8  N   UNL     1      -9.895  18.518  66.325  1.00  0.00    -0.431 NA 
HETATM    9  C   UNL     1      -9.302  18.634  67.681  1.00  0.00    -0.288 C  
HETATM   10  C   UNL     1     -11.094  15.085  66.980  1.00  0.00    -0.334 A  
HETATM   11  C   UNL     1     -11.436  14.601  65.742  1.00  0.00    -0.338 A  
HETATM   12  C   UNL     1     -10.276  18.146  68.747  1.00  0.00    -0.337 C  
HETATM   13  N   UNL     1     -10.633  16.763  68.518  1.00  0.00    -0.333 NA 
HETATM   14  C   UNL     1     -10.803  16.444  67.140  1.00  0.00    -0.169 A  
HETATM   15  C   UNL     1     -11.397  15.505  64.665  1.00  0.00    -0.363 A  
HETATM   16  C   UNL     1     -10.937  16.843  64.823  1.00  0.00     0.079 A  
HETATM   17  C   UNL     1     -10.579  17.321  66.080  1.00  0.00    -0.217 A  
ENDROOT
BRANCH   4  18
HETATM   18  C   UNL     1     -13.211  14.364  71.352  1.00  0.00    -0.348 C  
BRANCH  18  19
HETATM   19  C   UNL     1     -13.724  13.026  71.868  1.00  0.00    -0.309 C  
BRANCH  19  20
HETATM   20  C   UNL     1     -12.626  11.972  71.861  1.00  0.00    -0.049 C  
BRANCH  20  21
HETATM   21  C   UNL     1     -12.911  10.883  70.853  1.00  0.00    -0.326 C  
HETATM   22  O   UNL     1     -13.275  11.125  69.705  1.00  0.00     0.226 OA 
BRANCH  21  23
HETATM   23  C   UNL     1     -12.735   9.467  71.282  1.00  0.00    -0.416 A  
HETATM   24  C   UNL     1     -11.208   7.658  71.800  1.00  0.00    -0.285 A  
HETATM   25  C   UNL     1     -11.427   8.977  71.411  1.00  0.00    -0.400 A  
HETATM   26  C   UNL     1     -12.295   6.830  72.057  1.00  0.00    -0.271 A  
HETATM   27  F   UNL     1     -12.085   5.562  72.422  1.00  0.00    -0.311 F  
HETATM   28  C   UNL     1     -13.823   8.623  71.552  1.00  0.00    -0.384 A  
HETATM   29  C   UNL     1     -13.598   7.301  71.940  1.00  0.00    -0.303 A  
ENDBRANCH  21  23
ENDBRANCH  20  21
ENDBRANCH  19  20
ENDBRANCH  18  19
ENDBRANCH   4  18
TORSDOF 5
ENDMDL
MODEL      120
REMARK 921   NORMALIZED FREE ENERGY PREDICTED BY IDOCK:   -5.47 KCAL/MOL
REMARK 922        TOTAL FREE ENERGY PREDICTED BY IDOCK:   -7.83 KCAL/MOL
REMARK 923 INTER-LIGAND FREE ENERGY PREDICTED BY IDOCK:   -7.41 KCAL/MOL
REMARK 924 INTRA-LIGAND FREE ENERGY PREDICTED BY IDOCK:   -0.42 KCAL/MOL
REMARK 927      BINDING AFFINITY PREDICTED BY RF-SCORE:    0.00 PKD
ROOT
HETATM    1  C   UNL     1     -10.375  11.053  65.888  1.00  0.00    -0.257 C  
HETATM    2  C   UNL     1     -11.192  11.816  66.901  1.00  0.00    -0.387 C  
HETATM    3  C   UNL     1     -11.049  13.303  66.676  1.00  0.00    -0.291 C  
HETATM    4  N   UNL     1     -11.480  13.696  65.325  1.00  0.00    -0.303 NA 
HETATM    5  C   UNL     1      -5.366   9.178  65.972  1.00  0.00    -0.040 C  
HETATM    6  C   UNL     1     -10.726  12.972  64.265  1.00  0.00    -0.407 C  
HETATM    7  C   UNL     1     -10.687  11.439  64.407  1.00  0.00    -0.405 C  
HETATM    8  N   UNL     1      -6.789   9.399  65.906  1.00  0.00    -0.087 NA 
HETATM    9  C   UNL     1      -7.524   9.738  67.151  1.00  0.00    -0.088 C  
HETATM   10  C   UNL     1      -9.451  10.819  63.773  1.00  0.00    -0.320 A  
HETATM   11  C   UNL     1      -9.160  10.357  62.513  1.00  0.00    -0.312 A  
HETATM   12  C   UNL     1      -8.053  11.167  67.102  1.00  0.00    -0.138 C  
HETATM   13  N   UNL     1      -8.946  11.342  65.978  1.00  0.00    -0.208 NA 
HETATM   14  C   UNL     1      -8.521  10.656  64.805  1.00  0.00    -0.100 A  
HETATM   15  C   UNL     1      -7.950   9.661  62.347  1.00  0.00    -0.128 A  
HETATM   16  C   UNL     1      -7.097   9.362  63.447  1.00  0.00    -0.096 A  
HETATM   17  C   UNL     1      -7.406   9.822  64.723  1.00  0.00    -0.130 A  
ENDROOT
BRANCH   4  18
HETATM   18  C   UNL     1     -11.254  15.153  65.214  1.00  0.00    -0.358 C  
BRANCH  18  19
HETATM   19  C   UNL     1     -10.278  15.702  66.246  1.00  0.00    -0.312 C  
BRANCH  19  20
HETATM   20  C   UNL     1     -10.902  16.833  67.051  1.00  0.00    -0.066 C  
BRANCH  20  21
HETATM   21  C   UNL     1     -10.417  16.827  68.482  1.00  0.00    -0.335 C  
HETATM   22  O   UNL     1      -9.431  17.463  68.848  1.00  0.00    -0.264 OA 
BRANCH  21  23
HETATM   23  C   UNL     1     -11.176  16.017  69.476  1.00  0.00    -0.348 A  
HETATM   24  C   UNL     1     -11.750  15.638  71.799  1.00  0.00    -0.535 A  
HETATM   25  C   UNL     1     -11.068  16.369  70.829  1.00  0.00    -0.128 A  
HETATM   26  C   UNL     1     -12.536  14.557  71.417  1.00  0.00    -0.353 A  
HETATM   27  F   UNL     1     -13.183  13.851  72.348  1.00  0.00    -0.429 F  
HETATM   28  C   UNL     1     -11.978  14.928  69.102  1.00  0.00    -0.313 A  
HETATM   29  C   UNL     1     -12.658  14.197  70.079  1.00  0.00    -0.268 A  
ENDBRANCH  21  23
ENDBRANCH  20  21
ENDBRANCH  19  20
ENDBRANCH  18  19
ENDBRANCH   4  18
TORSDOF 5
ENDMDL
MODEL      121
REMARK 921   NORMALIZED FREE ENERGY PREDICTED BY IDOCK:   -5.41 KCAL/MOL
REMARK 922        TOTAL FREE ENERGY PREDICTED BY IDOCK:   -7.76 KCAL/MOL
REMARK 923 INTER-LIGAND FREE ENERGY PREDICTED BY IDOCK:   -7.14 KCAL/MOL
REMARK 924 INTRA-LIGAND FREE ENERGY PREDICTED BY IDOCK:   -0.62 KCAL/MOL
REMARK 927      BINDING AFFINITY PREDICTED BY RF-SCORE:    0.00 PKD
ROOT
HETATM    1  C   UNL     1     -11.730  12.662  67.517  1.00  0.00    -0.368 C  
HETATM    2  C   UNL     1     -11.320  11.728  66.405  1.00  0.00    -0.361 C  
HETATM    3  C   UNL     1     -10.151  10.875  66.841  1.00  0.00    -0.212 C  
HETATM    4  N   UNL     1     -10.472  10.078  68.036  1.00  0.00    -0.203 NA 
HETATM    5  C   UNL     1     -10.309  17.675  68.723  1.00  0.00    -0.348 C  
HETATM    6  C   UNL     1     -10.901  10.932  69.178  1.00  0.00    -0.235 C  
HETATM    7  C   UNL     1     -12.024  11.939  68.869  1.00  0.00    -0.313 C  
HETATM    8  N   UNL     1     -10.965  16.438  68.382  1.00  0.00    -0.341 NA 
HETATM    9  C   UNL     1     -10.771  15.870  67.024  1.00  0.00    -0.292 C  
HETATM   10  C   UNL     1     -11.980  13.166  69.768  1.00  0.00    -0.382 A  
HETATM   11  C   UNL     1     -12.525  13.468  70.990  1.00  0.00    -0.451 A  
HETATM   12  C   UNL     1      -9.980  14.567  67.084  1.00  0.00    -0.252 C  
HETATM   13  N   UNL     1     -10.668  13.590  67.898  1.00  0.00    -0.243 NA 
HETATM   14  C   UNL     1     -11.287  14.149  69.053  1.00  0.00    -0.275 A  
HETATM   15  C   UNL     1     -12.423  14.801  71.429  1.00  0.00    -0.401 A  
HETATM   16  C   UNL     1     -11.860  15.821  70.609  1.00  0.00    -0.415 A  
HETATM   17  C   UNL     1     -11.322  15.507  69.366  1.00  0.00    -0.316 A  
ENDROOT
BRANCH   4  18
HETATM   18  C   UNL     1      -9.248   9.326  68.386  1.00  0.00    -0.131 C  
BRANCH  18  19
HETATM   19  C   UNL     1      -8.446   8.863  67.176  1.00  0.00    -0.106 C  
BRANCH  19  20
HETATM   20  C   UNL     1      -7.314   7.934  67.587  1.00  0.00    -0.096 C  
BRANCH  20  21
HETATM   21  C   UNL     1      -7.834   6.576  67.999  1.00  0.00    -0.105 C  
HETATM   22  O   UNL     1      -7.614   6.094  69.108  1.00  0.00    -0.090 OA 
BRANCH  21  23
HETATM   23  C   UNL     1      -8.645   5.807  67.014  1.00  0.00    -0.110 A  
HETATM   24  C   UNL     1     -10.845   5.125  66.259  1.00  0.00    -0.180 A  
HETATM   25  C   UNL     1     -10.041   5.835  67.149  1.00  0.00    -0.216 A  
HETATM   26  C   UNL     1     -10.254   4.389  65.239  1.00  0.00    -0.210 A  
HETATM   27  F   UNL     1     -11.024   3.701  64.392  1.00  0.00    -0.238 F  
HETATM   28  C   UNL     1      -8.062   5.065  65.976  1.00  0.00    -0.108 A  
HETATM   29  C   UNL     1      -8.872   4.354  65.088  1.00  0.00    -0.138 A  
ENDBRANCH  21  23
ENDBRANCH  20  21
ENDBRANCH  19  20
ENDBRANCH  18  19
ENDBRANCH   4  18
TORSDOF 5
ENDMDL
MODEL      122
REMARK 921   NORMALIZED FREE ENERGY PREDICTED BY IDOCK:   -5.39 KCAL/MOL
REMARK 922        TOTAL FREE ENERGY PREDICTED BY IDOCK:   -7.72 KCAL/MOL
REMARK 923 INTER-LIGAND FREE ENERGY PREDICTED BY IDOCK:   -7.19 KCAL/MOL
REMARK 924 INTRA-LIGAND FREE ENERGY PREDICTED BY IDOCK:   -0.53 KCAL/MOL
REMARK 927      BINDING AFFINITY PREDICTED BY RF-SCORE:    0.00 PKD
ROOT
HETATM    1  C   UNL     1     -10.405   9.087  68.072  1.00  0.00    -0.224 C  
HETATM    2  C   UNL     1     -11.118  10.358  67.680  1.00  0.00    -0.361 C  
HETATM    3  C   UNL     1     -10.249  11.558  67.975  1.00  0.00    -0.191 C  
HETATM    4  N   UNL     1      -8.965  11.493  67.257  1.00  0.00    -0.159 NA 
HETATM    5  C   UNL     1     -10.373   6.215  72.583  1.00  0.00    -0.196 C  
HETATM    6  C   UNL     1      -8.206  10.255  67.582  1.00  0.00    -0.114 C  
HETATM    7  C   UNL     1      -8.988   8.937  67.432  1.00  0.00    -0.143 C  
HETATM    8  N   UNL     1     -10.480   6.738  71.245  1.00  0.00    -0.212 NA 
HETATM    9  C   UNL     1     -11.567   7.700  70.932  1.00  0.00    -0.280 C  
HETATM   10  C   UNL     1      -8.470   7.836  68.345  1.00  0.00    -0.125 A  
HETATM   11  C   UNL     1      -7.506   6.868  68.214  1.00  0.00    -0.099 A  
HETATM   12  C   UNL     1     -11.001   9.083  70.626  1.00  0.00    -0.257 C  
HETATM   13  N   UNL     1     -10.097   9.026  69.498  1.00  0.00    -0.191 NA 
HETATM   14  C   UNL     1      -9.281   7.859  69.485  1.00  0.00    -0.152 A  
HETATM   15  C   UNL     1      -7.438   5.886  69.218  1.00  0.00    -0.084 A  
HETATM   16  C   UNL     1      -8.383   5.833  70.282  1.00  0.00    -0.117 A  
HETATM   17  C   UNL     1      -9.366   6.810  70.400  1.00  0.00    -0.163 A  
ENDROOT
BRANCH   4  18
HETATM   18  C   UNL     1      -8.195  12.690  67.657  1.00  0.00    -0.174 C  
BRANCH  18  19
HETATM   19  C   UNL     1      -9.062  13.904  67.962  1.00  0.00    -0.192 C  
BRANCH  19  20
HETATM   20  C   UNL     1      -8.797  15.034  66.978  1.00  0.00    -0.257 C  
BRANCH  20  21
HETATM   21  C   UNL     1     -10.063  15.794  66.653  1.00  0.00    -0.279 C  
HETATM   22  O   UNL     1     -11.071  15.241  66.220  1.00  0.00    -0.330 OA 
BRANCH  21  23
HETATM   23  C   UNL     1     -10.073  17.266  66.875  1.00  0.00    -0.304 A  
HETATM   24  C   UNL     1      -9.795  19.107  68.427  1.00  0.00    -0.473 A  
HETATM   25  C   UNL     1      -9.788  17.739  68.165  1.00  0.00    -0.326 A  
HETATM   26  C   UNL     1     -10.088  20.000  67.403  1.00  0.00    -0.428 A  
HETATM   27  F   UNL     1     -10.102  21.311  67.657  1.00  0.00    -0.462 F  
HETATM   28  C   UNL     1     -10.360  18.179  65.849  1.00  0.00    -0.284 A  
HETATM   29  C   UNL     1     -10.368  19.549  66.118  1.00  0.00    -0.614 A  
ENDBRANCH  21  23
ENDBRANCH  20  21
ENDBRANCH  19  20
ENDBRANCH  18  19
ENDBRANCH   4  18
TORSDOF 5
ENDMDL
MODEL      123
REMARK 921   NORMALIZED FREE ENERGY PREDICTED BY IDOCK:   -5.39 KCAL/MOL
REMARK 922        TOTAL FREE ENERGY PREDICTED BY IDOCK:   -7.72 KCAL/MOL
REMARK 923 INTER-LIGAND FREE ENERGY PREDICTED BY IDOCK:   -7.01 KCAL/MOL
REMARK 924 INTRA-LIGAND FREE ENERGY PREDICTED BY IDOCK:   -0.71 KCAL/MOL
REMARK 927      BINDING AFFINITY PREDICTED BY RF-SCORE:    0.00 PKD
ROOT
HETATM    1  C   UNL     1     -11.765  12.598  67.725  1.00  0.00    -0.356 C  
HETATM    2  C   UNL     1     -11.026  12.809  66.427  1.00  0.00    -0.305 C  
HETATM    3  C   UNL     1      -9.584  12.379  66.569  1.00  0.00    -0.240 C  
HETATM    4  N   UNL     1      -9.472  10.963  66.956  1.00  0.00    -0.164 NA 
HETATM    5  C   UNL     1     -12.677  15.794  71.915  1.00  0.00    -0.451 C  
HETATM    6  C   UNL     1     -10.191  10.672  68.226  1.00  0.00    -0.166 C  
HETATM    7  C   UNL     1     -11.656  11.143  68.283  1.00  0.00    -0.359 C  
HETATM    8  N   UNL     1     -12.727  14.921  70.770  1.00  0.00    -0.341 NA 
HETATM    9  C   UNL     1     -12.353  15.457  69.437  1.00  0.00    -0.126 C  
HETATM   10  C   UNL     1     -12.127  11.435  69.700  1.00  0.00    -0.373 A  
HETATM   11  C   UNL     1     -12.703  10.673  70.685  1.00  0.00    -0.445 A  
HETATM   12  C   UNL     1     -11.063  14.818  68.933  1.00  0.00    -0.252 C  
HETATM   13  N   UNL     1     -11.213  13.383  68.826  1.00  0.00    -0.261 NA 
HETATM   14  C   UNL     1     -11.972  12.813  69.888  1.00  0.00    -0.298 A  
HETATM   15  C   UNL     1     -13.187  11.347  71.820  1.00  0.00    -0.472 A  
HETATM   16  C   UNL     1     -13.169  12.767  71.916  1.00  0.00    -0.511 A  
HETATM   17  C   UNL     1     -12.595  13.533  70.906  1.00  0.00    -0.337 A  
ENDROOT
BRANCH   4  18
HETATM   18  C   UNL     1      -8.028  10.677  67.104  1.00  0.00    -0.121 C  
BRANCH  18  19
HETATM   19  C   UNL     1      -7.682   9.198  66.999  1.00  0.00    -0.098 C  
BRANCH  19  20
HETATM   20  C   UNL     1      -8.377   8.551  65.809  1.00  0.00    -0.144 C  
BRANCH  20  21
HETATM   21  C   UNL     1      -9.266   7.408  66.241  1.00  0.00    -0.135 C  
HETATM   22  O   UNL     1     -10.263   7.576  66.940  1.00  0.00    -0.252 OA 
BRANCH  21  23
HETATM   23  C   UNL     1      -8.910   6.034  65.792  1.00  0.00    -0.143 A  
HETATM   24  C   UNL     1      -7.765   4.639  64.174  1.00  0.00    -0.078 A  
HETATM   25  C   UNL     1      -8.119   5.902  64.641  1.00  0.00    -0.132 A  
HETATM   26  C   UNL     1      -8.204   3.509  64.855  1.00  0.00    -0.090 A  
HETATM   27  F   UNL     1      -7.873   2.297  64.402  1.00  0.00    -0.068 F  
HETATM   28  C   UNL     1      -9.341   4.885  66.474  1.00  0.00    -0.142 A  
HETATM   29  C   UNL     1      -8.986   3.621  66.000  1.00  0.00    -0.144 A  
ENDBRANCH  21  23
ENDBRANCH  20  21
ENDBRANCH  19  20
ENDBRANCH  18  19
ENDBRANCH   4  18
TORSDOF 5
ENDMDL
MODEL      124
REMARK 921   NORMALIZED FREE ENERGY PREDICTED BY IDOCK:   -5.34 KCAL/MOL
REMARK 922        TOTAL FREE ENERGY PREDICTED BY IDOCK:   -7.66 KCAL/MOL
REMARK 923 INTER-LIGAND FREE ENERGY PREDICTED BY IDOCK:   -5.79 KCAL/MOL
REMARK 924 INTRA-LIGAND FREE ENERGY PREDICTED BY IDOCK:   -1.87 KCAL/MOL
REMARK 927      BINDING AFFINITY PREDICTED BY RF-SCORE:    0.00 PKD
ROOT
HETATM    1  C   UNL     1      -8.510   7.774  66.700  1.00  0.00    -0.129 C  
HETATM    2  C   UNL     1      -9.344   8.569  65.727  1.00  0.00    -0.187 C  
HETATM    3  C   UNL     1     -10.214   9.559  66.468  1.00  0.00    -0.237 C  
HETATM    4  N   UNL     1      -9.413  10.490  67.279  1.00  0.00    -0.157 NA 
HETATM    5  C   UNL     1      -9.324   3.097  69.163  1.00  0.00    -0.158 C  
HETATM    6  C   UNL     1      -8.549   9.776  68.259  1.00  0.00    -0.119 C  
HETATM    7  C   UNL     1      -7.667   8.657  67.675  1.00  0.00    -0.102 C  
HETATM    8  N   UNL     1      -8.864   4.223  68.390  1.00  0.00    -0.102 NA 
HETATM    9  C   UNL     1      -9.609   4.607  67.164  1.00  0.00    -0.176 C  
HETATM   10  C   UNL     1      -7.338   7.574  68.692  1.00  0.00    -0.095 A  
HETATM   11  C   UNL     1      -6.330   7.407  69.609  1.00  0.00    -0.031 A  
HETATM   12  C   UNL     1     -10.292   5.959  67.340  1.00  0.00    -0.220 C  
HETATM   13  N   UNL     1      -9.318   6.989  67.629  1.00  0.00    -0.122 NA 
HETATM   14  C   UNL     1      -8.274   6.553  68.495  1.00  0.00    -0.121 A  
HETATM   15  C   UNL     1      -6.247   6.161  70.255  1.00  0.00    -0.031 A  
HETATM   16  C   UNL     1      -7.109   5.080  69.916  1.00  0.00    -0.054 A  
HETATM   17  C   UNL     1      -8.120   5.254  68.976  1.00  0.00    -0.086 A  
ENDROOT
BRANCH   4  18
HETATM   18  C   UNL     1     -10.370  11.370  67.982  1.00  0.00    -0.184 C  
BRANCH  18  19
HETATM   19  C   UNL     1     -11.424  10.616  68.783  1.00  0.00    -0.330 C  
BRANCH  19  20
HETATM   20  C   UNL     1     -11.547  11.170  70.195  1.00  0.00    -0.410 C  
BRANCH  20  21
HETATM   21  C   UNL     1     -12.216  10.181  71.121  1.00  0.00    -0.389 C  
HETATM   22  O   UNL     1     -13.333  10.375  71.597  1.00  0.00    -0.376 OA 
BRANCH  21  23
HETATM   23  C   UNL     1     -11.484   8.928  71.457  1.00  0.00    -0.391 A  
HETATM   24  C   UNL     1      -9.362   7.861  71.938  1.00  0.00    -0.204 A  
HETATM   25  C   UNL     1     -10.095   9.005  71.632  1.00  0.00    -0.405 A  
HETATM   26  C   UNL     1     -10.018   6.642  72.066  1.00  0.00    -0.165 A  
HETATM   27  F   UNL     1      -9.314   5.542  72.351  1.00  0.00    -0.142 F  
HETATM   28  C   UNL     1     -12.135   7.693  71.596  1.00  0.00    -0.336 A  
HETATM   29  C   UNL     1     -11.395   6.548  71.901  1.00  0.00    -0.327 A  
ENDBRANCH  21  23
ENDBRANCH  20  21
ENDBRANCH  19  20
ENDBRANCH  18  19
ENDBRANCH   4  18
TORSDOF 5
ENDMDL
MODEL      125
REMARK 921   NORMALIZED FREE ENERGY PREDICTED BY IDOCK:   -5.33 KCAL/MOL
REMARK 922        TOTAL FREE ENERGY PREDICTED BY IDOCK:   -7.64 KCAL/MOL
REMARK 923 INTER-LIGAND FREE ENERGY PREDICTED BY IDOCK:   -6.48 KCAL/MOL
REMARK 924 INTRA-LIGAND FREE ENERGY PREDICTED BY IDOCK:   -1.17 KCAL/MOL
REMARK 927      BINDING AFFINITY PREDICTED BY RF-SCORE:    0.00 PKD
ROOT
HETATM    1  C   UNL     1      -8.342   7.014  67.751  1.00  0.00    -0.117 C  
HETATM    2  C   UNL     1      -8.281   6.729  66.271  1.00  0.00    -0.120 C  
HETATM    3  C   UNL     1      -8.562   7.988  65.484  1.00  0.00    -0.135 C  
HETATM    4  N   UNL     1      -7.602   9.058  65.802  1.00  0.00    -0.090 NA 
HETATM    5  C   UNL     1     -12.311   6.698  71.322  1.00  0.00    -0.273 C  
HETATM    6  C   UNL     1      -7.594   9.387  67.254  1.00  0.00    -0.091 C  
HETATM    7  C   UNL     1      -7.419   8.189  68.206  1.00  0.00    -0.097 C  
HETATM    8  N   UNL     1     -11.107   6.588  70.538  1.00  0.00    -0.294 NA 
HETATM    9  C   UNL     1     -11.153   5.863  69.243  1.00  0.00    -0.282 C  
HETATM   10  C   UNL     1      -8.048   8.423  69.571  1.00  0.00    -0.113 A  
HETATM   11  C   UNL     1      -7.594   8.970  70.745  1.00  0.00    -0.131 A  
HETATM   12  C   UNL     1     -10.937   6.818  68.074  1.00  0.00    -0.209 C  
HETATM   13  N   UNL     1      -9.656   7.479  68.185  1.00  0.00    -0.146 NA 
HETATM   14  C   UNL     1      -9.318   7.837  69.522  1.00  0.00    -0.149 A  
HETATM   15  C   UNL     1      -8.418   8.839  71.877  1.00  0.00    -0.151 A  
HETATM   16  C   UNL     1      -9.630   8.093  71.842  1.00  0.00    -0.264 A  
HETATM   17  C   UNL     1     -10.076   7.530  70.651  1.00  0.00    -0.187 A  
ENDROOT
BRANCH   4  18
HETATM   18  C   UNL     1      -8.005  10.239  65.009  1.00  0.00    -0.144 C  
BRANCH  18  19
HETATM   19  C   UNL     1      -9.513  10.422  64.904  1.00  0.00    -0.320 C  
BRANCH  19  20
HETATM   20  C   UNL     1      -9.962  11.711  65.578  1.00  0.00    -0.277 C  
BRANCH  20  21
HETATM   21  C   UNL     1     -10.750  11.432  66.837  1.00  0.00    -0.265 C  
HETATM   22  O   UNL     1     -11.058  10.294  67.184  1.00  0.00    -0.231 OA 
BRANCH  21  23
HETATM   23  C   UNL     1     -11.158  12.590  67.680  1.00  0.00    -0.301 A  
HETATM   24  C   UNL     1     -12.039  13.372  69.798  1.00  0.00    -0.374 A  
HETATM   25  C   UNL     1     -11.636  12.326  68.972  1.00  0.00    -0.368 A  
HETATM   26  C   UNL     1     -11.966  14.680  69.331  1.00  0.00    -0.313 A  
HETATM   27  F   UNL     1     -12.361  15.683  70.120  1.00  0.00    -0.366 F  
HETATM   28  C   UNL     1     -11.083  13.915  67.224  1.00  0.00    -0.312 A  
HETATM   29  C   UNL     1     -11.491  14.960  68.055  1.00  0.00    -0.355 A  
ENDBRANCH  21  23
ENDBRANCH  20  21
ENDBRANCH  19  20
ENDBRANCH  18  19
ENDBRANCH   4  18
TORSDOF 5
ENDMDL
MODEL      126
REMARK 921   NORMALIZED FREE ENERGY PREDICTED BY IDOCK:   -5.33 KCAL/MOL
REMARK 922        TOTAL FREE ENERGY PREDICTED BY IDOCK:   -7.64 KCAL/MOL
REMARK 923 INTER-LIGAND FREE ENERGY PREDICTED BY IDOCK:   -6.73 KCAL/MOL
REMARK 924 INTRA-LIGAND FREE ENERGY PREDICTED BY IDOCK:   -0.91 KCAL/MOL
REMARK 927      BINDING AFFINITY PREDICTED BY RF-SCORE:    0.00 PKD
ROOT
HETATM    1  C   UNL     1     -11.890   6.321  71.195  1.00  0.00    -0.168 C  
HETATM    2  C   UNL     1     -12.905   7.356  71.613  1.00  0.00    -0.406 C  
HETATM    3  C   UNL     1     -12.281   8.733  71.614  1.00  0.00    -0.339 C  
HETATM    4  N   UNL     1     -11.751   9.094  70.289  1.00  0.00    -0.100 NA 
HETATM    5  C   UNL     1      -8.504   3.261  73.982  1.00  0.00    -0.074 C  
HETATM    6  C   UNL     1     -10.749   8.108  69.800  1.00  0.00    -0.229 C  
HETATM    7  C   UNL     1     -11.196   6.635  69.831  1.00  0.00    -0.421 C  
HETATM    8  N   UNL     1      -9.523   3.826  73.135  1.00  0.00    -0.108 NA 
HETATM    9  C   UNL     1     -10.715   4.453  73.760  1.00  0.00    -0.271 C  
HETATM   10  C   UNL     1     -10.031   5.667  69.971  1.00  0.00    -0.267 A  
HETATM   11  C   UNL     1      -9.211   5.032  69.072  1.00  0.00    -0.157 A  
HETATM   12  C   UNL     1     -10.730   5.959  73.519  1.00  0.00    -0.259 C  
HETATM   13  N   UNL     1     -10.748   6.249  72.102  1.00  0.00    -0.223 NA 
HETATM   14  C   UNL     1      -9.929   5.371  71.335  1.00  0.00    -0.184 A  
HETATM   15  C   UNL     1      -8.350   4.040  69.576  1.00  0.00    -0.076 A  
HETATM   16  C   UNL     1      -8.383   3.639  70.942  1.00  0.00    -0.088 A  
HETATM   17  C   UNL     1      -9.227   4.279  71.843  1.00  0.00    -0.126 A  
ENDROOT
BRANCH   4  18
HETATM   18  C   UNL     1     -11.134  10.430  70.429  1.00  0.00    -0.296 C  
BRANCH  18  19
HETATM   19  C   UNL     1     -11.839  11.518  69.629  1.00  0.00    -0.421 C  
BRANCH  19  20
HETATM   20  C   UNL     1     -10.870  12.240  68.705  1.00  0.00    -0.268 C  
BRANCH  20  21
HETATM   21  C   UNL     1     -11.085  11.848  67.261  1.00  0.00    -0.288 C  
HETATM   22  O   UNL     1     -12.021  12.281  66.593  1.00  0.00    -0.598 OA 
BRANCH  21  23
HETATM   23  C   UNL     1     -10.117  10.903  66.639  1.00  0.00    -0.264 A  
HETATM   24  C   UNL     1      -8.123   9.549  66.894  1.00  0.00    -0.109 A  
HETATM   25  C   UNL     1      -9.062  10.427  67.431  1.00  0.00    -0.144 A  
HETATM   26  C   UNL     1      -8.239   9.150  65.568  1.00  0.00    -0.123 A  
HETATM   27  F   UNL     1      -7.334   8.314  65.051  1.00  0.00    -0.076 F  
HETATM   28  C   UNL     1     -10.225  10.487  65.304  1.00  0.00    -0.352 A  
HETATM   29  C   UNL     1      -9.281   9.608  64.769  1.00  0.00    -0.298 A  
ENDBRANCH  21  23
ENDBRANCH  20  21
ENDBRANCH  19  20
ENDBRANCH  18  19
ENDBRANCH   4  18
TORSDOF 5
ENDMDL
MODEL      127
REMARK 921   NORMALIZED FREE ENERGY PREDICTED BY IDOCK:   -5.30 KCAL/MOL
REMARK 922        TOTAL FREE ENERGY PREDICTED BY IDOCK:   -7.61 KCAL/MOL
REMARK 923 INTER-LIGAND FREE ENERGY PREDICTED BY IDOCK:   -7.02 KCAL/MOL
REMARK 924 INTRA-LIGAND FREE ENERGY PREDICTED BY IDOCK:   -0.59 KCAL/MOL
REMARK 927      BINDING AFFINITY PREDICTED BY RF-SCORE:    0.00 PKD
ROOT
HETATM    1  C   UNL     1      -8.355  11.339  65.787  1.00  0.00     0.023 C  
HETATM    2  C   UNL     1      -7.111  10.605  66.225  1.00  0.00    -0.137 C  
HETATM    3  C   UNL     1      -7.417   9.143  66.451  1.00  0.00    -0.092 C  
HETATM    4  N   UNL     1      -7.945   8.501  65.236  1.00  0.00    -0.112 NA 
HETATM    5  C   UNL     1     -12.126  13.981  68.507  1.00  0.00    -0.294 C  
HETATM    6  C   UNL     1      -9.171   9.180  64.733  1.00  0.00    -0.018 C  
HETATM    7  C   UNL     1      -9.056  10.703  64.545  1.00  0.00    -0.243 C  
HETATM    8  N   UNL     1     -11.070  13.529  67.637  1.00  0.00    -0.262 NA 
HETATM    9  C   UNL     1      -9.729  13.255  68.214  1.00  0.00    -0.225 C  
HETATM   10  C   UNL     1     -10.393  11.417  64.681  1.00  0.00    -0.362 A  
HETATM   11  C   UNL     1     -11.393  11.738  63.798  1.00  0.00    -0.524 A  
HETATM   12  C   UNL     1      -9.401  11.768  68.154  1.00  0.00    -0.190 C  
HETATM   13  N   UNL     1      -9.419  11.296  66.786  1.00  0.00    -0.176 NA 
HETATM   14  C   UNL     1     -10.461  11.870  66.004  1.00  0.00    -0.245 A  
HETATM   15  C   UNL     1     -12.413  12.588  64.261  1.00  0.00    -0.520 A  
HETATM   16  C   UNL     1     -12.374  13.171  65.560  1.00  0.00    -0.529 A  
HETATM   17  C   UNL     1     -11.349  12.851  66.444  1.00  0.00    -0.319 A  
ENDROOT
BRANCH   4  18
HETATM   18  C   UNL     1      -8.244   7.097  65.594  1.00  0.00    -0.138 C  
BRANCH  18  19
HETATM   19  C   UNL     1      -9.407   6.947  66.565  1.00  0.00    -0.197 C  
BRANCH  19  20
HETATM   20  C   UNL     1      -8.927   6.500  67.939  1.00  0.00    -0.115 C  
BRANCH  20  21
HETATM   21  C   UNL     1      -9.695   5.294  68.428  1.00  0.00    -0.141 C  
HETATM   22  O   UNL     1      -9.929   4.324  67.710  1.00  0.00    -0.116 OA 
BRANCH  21  23
HETATM   23  C   UNL     1     -10.178   5.295  69.837  1.00  0.00    -0.364 A  
HETATM   24  C   UNL     1     -10.197   4.194  71.997  1.00  0.00    -0.200 A  
HETATM   25  C   UNL     1      -9.766   4.246  70.673  1.00  0.00    -0.274 A  
HETATM   26  C   UNL     1     -11.038   5.189  72.483  1.00  0.00    -0.194 A  
HETATM   27  F   UNL     1     -11.458   5.134  73.750  1.00  0.00    -0.324 F  
HETATM   28  C   UNL     1     -11.021   6.295  70.343  1.00  0.00    -0.385 A  
HETATM   29  C   UNL     1     -11.452   6.238  71.670  1.00  0.00    -0.351 A  
ENDBRANCH  21  23
ENDBRANCH  20  21
ENDBRANCH  19  20
ENDBRANCH  18  19
ENDBRANCH   4  18
TORSDOF 5
ENDMDL
MODEL      128
REMARK 921   NORMALIZED FREE ENERGY PREDICTED BY IDOCK:   -5.30 KCAL/MOL
REMARK 922        TOTAL FREE ENERGY PREDICTED BY IDOCK:   -7.60 KCAL/MOL
REMARK 923 INTER-LIGAND FREE ENERGY PREDICTED BY IDOCK:   -6.86 KCAL/MOL
REMARK 924 INTRA-LIGAND FREE ENERGY PREDICTED BY IDOCK:   -0.74 KCAL/MOL
REMARK 927      BINDING AFFINITY PREDICTED BY RF-SCORE:    0.00 PKD
ROOT
HETATM    1  C   UNL     1      -8.633   8.243  72.377  1.00  0.00    -0.206 C  
HETATM    2  C   UNL     1      -7.187   8.634  72.200  1.00  0.00    -0.058 C  
HETATM    3  C   UNL     1      -6.832   8.676  70.731  1.00  0.00    -0.049 C  
HETATM    4  N   UNL     1      -7.676   9.628  69.992  1.00  0.00    -0.138 NA 
HETATM    5  C   UNL     1     -11.026   3.513  73.089  1.00  0.00    -0.118 C  
HETATM    6  C   UNL     1      -9.125   9.315  70.130  1.00  0.00    -0.222 C  
HETATM    7  C   UNL     1      -9.631   9.137  71.573  1.00  0.00    -0.278 C  
HETATM    8  N   UNL     1     -10.507   4.855  73.157  1.00  0.00    -0.185 NA 
HETATM    9  C   UNL     1      -9.061   5.056  73.431  1.00  0.00    -0.121 C  
HETATM   10  C   UNL     1     -10.842   8.219  71.665  1.00  0.00    -0.320 A  
HETATM   11  C   UNL     1     -12.196   8.425  71.590  1.00  0.00    -0.358 A  
HETATM   12  C   UNL     1      -8.350   5.641  72.216  1.00  0.00    -0.119 C  
HETATM   13  N   UNL     1      -8.929   6.914  71.849  1.00  0.00    -0.137 NA 
HETATM   14  C   UNL     1     -10.347   6.949  71.981  1.00  0.00    -0.199 A  
HETATM   15  C   UNL     1     -13.031   7.342  71.919  1.00  0.00    -0.296 A  
HETATM   16  C   UNL     1     -12.507   6.108  72.400  1.00  0.00     0.023 A  
HETATM   17  C   UNL     1     -11.132   5.914  72.486  1.00  0.00    -0.283 A  
ENDROOT
BRANCH   4  18
HETATM   18  C   UNL     1      -7.264   9.546  68.573  1.00  0.00    -0.071 C  
BRANCH  18  19
HETATM   19  C   UNL     1      -7.895  10.615  67.690  1.00  0.00    -0.105 C  
BRANCH  19  20
HETATM   20  C   UNL     1      -8.171  10.083  66.291  1.00  0.00    -0.124 C  
BRANCH  20  21
HETATM   21  C   UNL     1      -9.648   9.861  66.064  1.00  0.00    -0.225 C  
HETATM   22  O   UNL     1     -10.217   8.821  66.390  1.00  0.00    -0.289 OA 
BRANCH  21  23
HETATM   23  C   UNL     1     -10.432  10.954  65.424  1.00  0.00    -0.291 A  
HETATM   24  C   UNL     1     -11.044  12.114  63.386  1.00  0.00    -0.495 A  
HETATM   25  C   UNL     1     -10.339  11.101  64.032  1.00  0.00    -0.437 A  
HETATM   26  C   UNL     1     -11.839  12.978  64.131  1.00  0.00    -0.416 A  
HETATM   27  F   UNL     1     -12.508  13.955  63.512  1.00  0.00    -0.498 F  
HETATM   28  C   UNL     1     -11.243  11.829  66.163  1.00  0.00    -0.363 A  
HETATM   29  C   UNL     1     -11.946  12.844  65.511  1.00  0.00    -0.482 A  
ENDBRANCH  21  23
ENDBRANCH  20  21
ENDBRANCH  19  20
ENDBRANCH  18  19
ENDBRANCH   4  18
TORSDOF 5
ENDMDL
MODEL      129
REMARK 921   NORMALIZED FREE ENERGY PREDICTED BY IDOCK:   -5.29 KCAL/MOL
REMARK 922        TOTAL FREE ENERGY PREDICTED BY IDOCK:   -7.60 KCAL/MOL
REMARK 923 INTER-LIGAND FREE ENERGY PREDICTED BY IDOCK:   -6.84 KCAL/MOL
REMARK 924 INTRA-LIGAND FREE ENERGY PREDICTED BY IDOCK:   -0.76 KCAL/MOL
REMARK 927      BINDING AFFINITY PREDICTED BY RF-SCORE:    0.00 PKD
ROOT
HETATM    1  C   UNL     1     -11.652  12.853  67.407  1.00  0.00    -0.360 C  
HETATM    2  C   UNL     1     -11.289  11.895  66.300  1.00  0.00    -0.394 C  
HETATM    3  C   UNL     1     -10.172  10.979  66.744  1.00  0.00    -0.229 C  
HETATM    4  N   UNL     1     -10.543  10.205  67.940  1.00  0.00    -0.230 NA 
HETATM    5  C   UNL     1      -9.960  17.783  68.605  1.00  0.00    -0.379 C  
HETATM    6  C   UNL     1     -10.929  11.085  69.078  1.00  0.00    -0.233 C  
HETATM    7  C   UNL     1     -11.992  12.152  68.761  1.00  0.00    -0.292 C  
HETATM    8  N   UNL     1     -10.682  16.584  68.265  1.00  0.00    -0.330 NA 
HETATM    9  C   UNL     1     -10.514  16.001  66.909  1.00  0.00    -0.306 C  
HETATM   10  C   UNL     1     -11.884  13.378  69.655  1.00  0.00    -0.394 A  
HETATM   11  C   UNL     1     -12.417  13.714  70.874  1.00  0.00    -0.448 A  
HETATM   12  C   UNL     1      -9.797  14.657  66.977  1.00  0.00    -0.244 C  
HETATM   13  N   UNL     1     -10.542  13.722  67.791  1.00  0.00    -0.244 NA 
HETATM   14  C   UNL     1     -11.134  14.319  68.941  1.00  0.00    -0.262 A  
HETATM   15  C   UNL     1     -12.243  15.040  71.309  1.00  0.00    -0.380 A  
HETATM   16  C   UNL     1     -11.620  16.024  70.490  1.00  0.00    -0.383 A  
HETATM   17  C   UNL     1     -11.094  15.678  69.250  1.00  0.00    -0.293 A  
ENDROOT
BRANCH   4  18
HETATM   18  C   UNL     1      -9.364   9.387  68.298  1.00  0.00    -0.133 C  
BRANCH  18  19
HETATM   19  C   UNL     1      -9.501   7.917  67.924  1.00  0.00    -0.160 C  
BRANCH  19  20
HETATM   20  C   UNL     1      -8.179   7.346  67.432  1.00  0.00    -0.113 C  
BRANCH  20  21
HETATM   21  C   UNL     1      -8.235   7.011  65.960  1.00  0.00    -0.129 C  
HETATM   22  O   UNL     1      -8.710   5.958  65.541  1.00  0.00    -0.154 OA 
BRANCH  21  23
HETATM   23  C   UNL     1      -7.693   8.005  64.993  1.00  0.00    -0.112 A  
HETATM   24  C   UNL     1      -6.189   9.863  64.590  1.00  0.00    -0.112 A  
HETATM   25  C   UNL     1      -6.721   8.906  65.452  1.00  0.00    -0.072 A  
HETATM   26  C   UNL     1      -6.630   9.919  63.273  1.00  0.00    -0.125 A  
HETATM   27  F   UNL     1      -6.126  10.842  62.449  1.00  0.00    -0.126 F  
HETATM   28  C   UNL     1      -8.124   8.069  63.659  1.00  0.00    -0.099 A  
HETATM   29  C   UNL     1      -7.590   9.030  62.800  1.00  0.00    -0.106 A  
ENDBRANCH  21  23
ENDBRANCH  20  21
ENDBRANCH  19  20
ENDBRANCH  18  19
ENDBRANCH   4  18
TORSDOF 5
ENDMDL
MODEL      130
REMARK 921   NORMALIZED FREE ENERGY PREDICTED BY IDOCK:   -5.26 KCAL/MOL
REMARK 922        TOTAL FREE ENERGY PREDICTED BY IDOCK:   -7.56 KCAL/MOL
REMARK 923 INTER-LIGAND FREE ENERGY PREDICTED BY IDOCK:   -6.57 KCAL/MOL
REMARK 924 INTRA-LIGAND FREE ENERGY PREDICTED BY IDOCK:   -0.99 KCAL/MOL
REMARK 927      BINDING AFFINITY PREDICTED BY RF-SCORE:    0.00 PKD
ROOT
HETATM    1  C   UNL     1     -10.086   9.363  66.130  1.00  0.00    -0.254 C  
HETATM    2  C   UNL     1     -10.681  10.461  66.977  1.00  0.00    -0.298 C  
HETATM    3  C   UNL     1      -9.615  11.092  67.842  1.00  0.00    -0.175 C  
HETATM    4  N   UNL     1      -8.520  11.655  67.035  1.00  0.00    -0.162 NA 
HETATM    5  C   UNL     1      -9.559   4.098  66.902  1.00  0.00    -0.209 C  
HETATM    6  C   UNL     1      -7.888  10.631  66.158  1.00  0.00    -0.152 C  
HETATM    7  C   UNL     1      -8.858   9.820  65.280  1.00  0.00    -0.206 C  
HETATM    8  N   UNL     1      -9.855   5.435  66.455  1.00  0.00    -0.165 NA 
HETATM    9  C   UNL     1     -10.840   6.247  67.214  1.00  0.00    -0.375 C  
HETATM   10  C   UNL     1      -8.326   8.436  64.936  1.00  0.00    -0.159 A  
HETATM   11  C   UNL     1      -7.549   7.944  63.917  1.00  0.00    -0.121 A  
HETATM   12  C   UNL     1     -10.161   7.428  67.899  1.00  0.00    -0.178 C  
HETATM   13  N   UNL     1      -9.514   8.280  66.925  1.00  0.00    -0.172 NA 
HETATM   14  C   UNL     1      -8.885   7.558  65.871  1.00  0.00    -0.126 A  
HETATM   15  C   UNL     1      -7.421   6.546  63.824  1.00  0.00    -0.086 A  
HETATM   16  C   UNL     1      -8.134   5.667  64.686  1.00  0.00    -0.128 A  
HETATM   17  C   UNL     1      -8.931   6.174  65.707  1.00  0.00    -0.086 A  
ENDROOT
BRANCH   4  18
HETATM   18  C   UNL     1      -7.528  12.199  67.988  1.00  0.00    -0.116 C  
BRANCH  18  19
HETATM   19  C   UNL     1      -7.805  13.638  68.405  1.00  0.00    -0.140 C  
BRANCH  19  20
HETATM   20  C   UNL     1      -8.329  14.461  67.237  1.00  0.00    -0.228 C  
BRANCH  20  21
HETATM   21  C   UNL     1      -9.831  14.617  67.300  1.00  0.00    -0.231 C  
HETATM   22  O   UNL     1     -10.399  15.156  68.248  1.00  0.00    -0.226 OA 
BRANCH  21  23
HETATM   23  C   UNL     1     -10.639  14.098  66.162  1.00  0.00    -0.293 A  
HETATM   24  C   UNL     1     -12.837  13.690  65.228  1.00  0.00    -0.421 A  
HETATM   25  C   UNL     1     -12.036  14.171  66.261  1.00  0.00    -0.448 A  
HETATM   26  C   UNL     1     -12.242  13.136  64.100  1.00  0.00    -0.398 A  
HETATM   27  F   UNL     1     -13.011  12.667  63.114  1.00  0.00    -0.327 F  
HETATM   28  C   UNL     1     -10.051  13.542  65.015  1.00  0.00    -0.280 A  
HETATM   29  C   UNL     1     -10.859  13.060  63.984  1.00  0.00    -0.408 A  
ENDBRANCH  21  23
ENDBRANCH  20  21
ENDBRANCH  19  20
ENDBRANCH  18  19
ENDBRANCH   4  18
TORSDOF 5
ENDMDL
MODEL      131
REMARK 921   NORMALIZED FREE ENERGY PREDICTED BY IDOCK:   -5.24 KCAL/MOL
REMARK 922        TOTAL FREE ENERGY PREDICTED BY IDOCK:   -7.54 KCAL/MOL
REMARK 923 INTER-LIGAND FREE ENERGY PREDICTED BY IDOCK:   -6.04 KCAL/MOL
REMARK 924 INTRA-LIGAND FREE ENERGY PREDICTED BY IDOCK:   -1.50 KCAL/MOL
REMARK 927      BINDING AFFINITY PREDICTED BY RF-SCORE:    0.00 PKD
ROOT
HETATM    1  C   UNL     1     -10.572   9.766  67.729  1.00  0.00    -0.266 C  
HETATM    2  C   UNL     1      -9.630   9.515  66.577  1.00  0.00    -0.259 C  
HETATM    3  C   UNL     1      -8.219   9.327  67.084  1.00  0.00    -0.117 C  
HETATM    4  N   UNL     1      -8.124   8.203  68.030  1.00  0.00    -0.127 NA 
HETATM    5  C   UNL     1     -12.296  14.260  70.061  1.00  0.00    -0.346 C  
HETATM    6  C   UNL     1      -9.038   8.372  69.193  1.00  0.00    -0.147 C  
HETATM    7  C   UNL     1     -10.507   8.675  68.844  1.00  0.00    -0.211 C  
HETATM    8  N   UNL     1     -12.119  13.001  69.382  1.00  0.00    -0.255 NA 
HETATM    9  C   UNL     1     -11.543  12.996  68.013  1.00  0.00    -0.343 C  
HETATM   10  C   UNL     1     -11.223   9.459  69.934  1.00  0.00    -0.180 A  
HETATM   11  C   UNL     1     -11.930   9.100  71.054  1.00  0.00    -0.344 A  
HETATM   12  C   UNL     1     -10.165  12.343  68.003  1.00  0.00    -0.219 C  
HETATM   13  N   UNL     1     -10.243  10.978  68.475  1.00  0.00    -0.184 NA 
HETATM   14  C   UNL     1     -11.151  10.805  69.560  1.00  0.00    -0.278 A  
HETATM   15  C   UNL     1     -12.624  10.118  71.731  1.00  0.00    -0.500 A  
HETATM   16  C   UNL     1     -12.673  11.452  71.236  1.00  0.00    -0.498 A  
HETATM   17  C   UNL     1     -11.963  11.805  70.093  1.00  0.00    -0.339 A  
ENDROOT
BRANCH   4  18
HETATM   18  C   UNL     1      -6.718   8.149  68.484  1.00  0.00    -0.063 C  
BRANCH  18  19
HETATM   19  C   UNL     1      -6.566   7.900  69.979  1.00  0.00    -0.037 C  
BRANCH  19  20
HETATM   20  C   UNL     1      -5.888   6.565  70.251  1.00  0.00    -0.023 C  
BRANCH  20  21
HETATM   21  C   UNL     1      -6.316   5.988  71.580  1.00  0.00    -0.048 C  
HETATM   22  O   UNL     1      -5.516   5.511  72.381  1.00  0.00    -0.017 OA 
BRANCH  21  23
HETATM   23  C   UNL     1      -7.767   6.008  71.919  1.00  0.00    -0.098 A  
HETATM   24  C   UNL     1      -9.549   6.985  73.238  1.00  0.00    -0.209 A  
HETATM   25  C   UNL     1      -8.205   6.932  72.878  1.00  0.00    -0.117 A  
HETATM   26  C   UNL     1     -10.453   6.115  72.640  1.00  0.00    -0.208 A  
HETATM   27  F   UNL     1     -11.741   6.160  72.991  1.00  0.00    -0.209 F  
HETATM   28  C   UNL     1      -8.691   5.139  71.318  1.00  0.00    -0.137 A  
HETATM   29  C   UNL     1     -10.037   5.195  71.683  1.00  0.00    -0.262 A  
ENDBRANCH  21  23
ENDBRANCH  20  21
ENDBRANCH  19  20
ENDBRANCH  18  19
ENDBRANCH   4  18
TORSDOF 5
ENDMDL
MODEL      132
REMARK 921   NORMALIZED FREE ENERGY PREDICTED BY IDOCK:   -5.24 KCAL/MOL
REMARK 922        TOTAL FREE ENERGY PREDICTED BY IDOCK:   -7.53 KCAL/MOL
REMARK 923 INTER-LIGAND FREE ENERGY PREDICTED BY IDOCK:   -6.86 KCAL/MOL
REMARK 924 INTRA-LIGAND FREE ENERGY PREDICTED BY IDOCK:   -0.66 KCAL/MOL
REMARK 927      BINDING AFFINITY PREDICTED BY RF-SCORE:    0.00 PKD
ROOT
HETATM    1  C   UNL     1     -12.031  11.153  68.936  1.00  0.00    -0.298 C  
HETATM    2  C   UNL     1     -11.417  10.035  68.131  1.00  0.00     0.055 C  
HETATM    3  C   UNL     1     -10.280   9.399  68.898  1.00  0.00    -0.200 C  
HETATM    4  N   UNL     1     -10.728   8.862  70.193  1.00  0.00    -0.221 NA 
HETATM    5  C   UNL     1     -11.063  16.410  69.128  1.00  0.00    -0.303 C  
HETATM    6  C   UNL     1     -11.361   9.908  71.043  1.00  0.00    -0.386 C  
HETATM    7  C   UNL     1     -12.479  10.724  70.370  1.00  0.00    -0.430 C  
HETATM    8  N   UNL     1     -11.597  15.078  69.000  1.00  0.00    -0.302 NA 
HETATM    9  C   UNL     1     -11.180  14.242  67.846  1.00  0.00    -0.285 C  
HETATM   10  C   UNL     1     -12.628  12.119  70.959  1.00  0.00    -0.359 A  
HETATM   11  C   UNL     1     -13.359  12.637  71.999  1.00  0.00    -0.555 A  
HETATM   12  C   UNL     1     -10.339  13.056  68.305  1.00  0.00    -0.252 C  
HETATM   13  N   UNL     1     -11.085  12.228  69.227  1.00  0.00    -0.199 NA 
HETATM   14  C   UNL     1     -11.892  12.974  70.132  1.00  0.00    -0.252 A  
HETATM   15  C   UNL     1     -13.391  14.037  72.129  1.00  0.00    -0.545 A  
HETATM   16  C   UNL     1     -12.770  14.894  71.176  1.00  0.00    -0.411 A  
HETATM   17  C   UNL     1     -12.043  14.361  70.118  1.00  0.00    -0.335 A  
ENDROOT
BRANCH   4  18
HETATM   18  C   UNL     1      -9.529   8.311  70.861  1.00  0.00    -0.162 C  
BRANCH  18  19
HETATM   19  C   UNL     1      -9.651   8.239  72.377  1.00  0.00    -0.364 C  
BRANCH  19  20
HETATM   20  C   UNL     1      -8.937   7.015  72.932  1.00  0.00    -0.148 C  
BRANCH  20  21
HETATM   21  C   UNL     1      -9.509   5.737  72.365  1.00  0.00    -0.143 C  
HETATM   22  O   UNL     1     -10.646   5.351  72.624  1.00  0.00    -0.205 OA 
BRANCH  21  23
HETATM   23  C   UNL     1      -8.651   4.927  71.456  1.00  0.00    -0.129 A  
HETATM   24  C   UNL     1      -6.416   4.219  70.838  1.00  0.00    -0.030 A  
HETATM   25  C   UNL     1      -7.264   4.952  71.666  1.00  0.00    -0.066 A  
HETATM   26  C   UNL     1      -6.955   3.465  69.801  1.00  0.00    -0.041 A  
HETATM   27  F   UNL     1      -6.141   2.770  69.002  1.00  0.00    -0.022 F  
HETATM   28  C   UNL     1      -9.181   4.156  70.410  1.00  0.00    -0.196 A  
HETATM   29  C   UNL     1      -8.327   3.425  69.582  1.00  0.00    -0.080 A  
ENDBRANCH  21  23
ENDBRANCH  20  21
ENDBRANCH  19  20
ENDBRANCH  18  19
ENDBRANCH   4  18
TORSDOF 5
ENDMDL
MODEL      133
REMARK 921   NORMALIZED FREE ENERGY PREDICTED BY IDOCK:   -5.23 KCAL/MOL
REMARK 922        TOTAL FREE ENERGY PREDICTED BY IDOCK:   -7.51 KCAL/MOL
REMARK 923 INTER-LIGAND FREE ENERGY PREDICTED BY IDOCK:   -5.84 KCAL/MOL
REMARK 924 INTRA-LIGAND FREE ENERGY PREDICTED BY IDOCK:   -1.67 KCAL/MOL
REMARK 927      BINDING AFFINITY PREDICTED BY RF-SCORE:    0.00 PKD
ROOT
HETATM    1  C   UNL     1     -11.372  11.947  65.902  1.00  0.00    -0.308 C  
HETATM    2  C   UNL     1     -12.527  12.746  65.350  1.00  0.00    -0.478 C  
HETATM    3  C   UNL     1     -12.205  14.222  65.381  1.00  0.00    -0.405 C  
HETATM    4  N   UNL     1     -10.995  14.535  64.603  1.00  0.00    -0.368 NA 
HETATM    5  C   UNL     1     -10.238  10.178  70.820  1.00  0.00     0.290 C  
HETATM    6  C   UNL     1      -9.810  13.771  65.081  1.00  0.00    -0.093 C  
HETATM    7  C   UNL     1     -10.007  12.249  65.206  1.00  0.00    -0.250 C  
HETATM    8  N   UNL     1     -10.534  10.367  69.423  1.00  0.00    -0.224 NA 
HETATM    9  C   UNL     1     -11.910  10.757  69.024  1.00  0.00    -0.254 C  
HETATM   10  C   UNL     1      -9.102  11.620  66.255  1.00  0.00    -0.219 A  
HETATM   11  C   UNL     1      -7.833  11.099  66.226  1.00  0.00    -0.109 A  
HETATM   12  C   UNL     1     -11.935  12.171  68.454  1.00  0.00    -0.198 C  
HETATM   13  N   UNL     1     -11.075  12.269  67.295  1.00  0.00    -0.259 NA 
HETATM   14  C   UNL     1      -9.864  11.530  67.425  1.00  0.00    -0.186 A  
HETATM   15  C   UNL     1      -7.390  10.418  67.374  1.00  0.00    -0.093 A  
HETATM   16  C   UNL     1      -8.244  10.194  68.491  1.00  0.00    -0.111 A  
HETATM   17  C   UNL     1      -9.533  10.715  68.507  1.00  0.00    -0.176 A  
ENDROOT
BRANCH   4  18
HETATM   18  C   UNL     1     -10.763  15.988  64.745  1.00  0.00    -0.204 C  
BRANCH  18  19
HETATM   19  C   UNL     1     -10.767  16.471  66.190  1.00  0.00    -0.155 C  
BRANCH  19  20
HETATM   20  C   UNL     1     -10.149  17.856  66.311  1.00  0.00    -0.351 C  
BRANCH  20  21
HETATM   21  C   UNL     1      -9.093  17.899  67.392  1.00  0.00    -0.245 C  
HETATM   22  O   UNL     1      -8.725  18.949  67.914  1.00  0.00    -0.286 OA 
BRANCH  21  23
HETATM   23  C   UNL     1      -8.488  16.611  67.832  1.00  0.00    -0.194 A  
HETATM   24  C   UNL     1      -8.222  14.969  69.594  1.00  0.00    -0.029 A  
HETATM   25  C   UNL     1      -8.771  16.162  69.131  1.00  0.00    -0.235 A  
HETATM   26  C   UNL     1      -7.391  14.227  68.762  1.00  0.00    -0.131 A  
HETATM   27  F   UNL     1      -6.858  13.087  69.210  1.00  0.00    -0.107 F  
HETATM   28  C   UNL     1      -7.653  15.850  67.000  1.00  0.00    -0.264 A  
HETATM   29  C   UNL     1      -7.104  14.655  67.470  1.00  0.00    -0.203 A  
ENDBRANCH  21  23
ENDBRANCH  20  21
ENDBRANCH  19  20
ENDBRANCH  18  19
ENDBRANCH   4  18
TORSDOF 5
ENDMDL
MODEL      134
REMARK 921   NORMALIZED FREE ENERGY PREDICTED BY IDOCK:   -5.22 KCAL/MOL
REMARK 922        TOTAL FREE ENERGY PREDICTED BY IDOCK:   -7.51 KCAL/MOL
REMARK 923 INTER-LIGAND FREE ENERGY PREDICTED BY IDOCK:   -5.99 KCAL/MOL
REMARK 924 INTRA-LIGAND FREE ENERGY PREDICTED BY IDOCK:   -1.53 KCAL/MOL
REMARK 927      BINDING AFFINITY PREDICTED BY RF-SCORE:    0.00 PKD
ROOT
HETATM    1  C   UNL     1      -7.894  12.472  68.497  1.00  0.00    -0.108 C  
HETATM    2  C   UNL     1      -7.232  13.757  68.929  1.00  0.00    -0.095 C  
HETATM    3  C   UNL     1      -7.684  14.901  68.051  1.00  0.00    -0.122 C  
HETATM    4  N   UNL     1      -9.144  15.079  68.096  1.00  0.00    -0.175 NA 
HETATM    5  C   UNL     1      -6.411   8.619  65.097  1.00  0.00    -0.060 C  
HETATM    6  C   UNL     1      -9.872  13.844  67.694  1.00  0.00    -0.236 C  
HETATM    7  C   UNL     1      -9.452  12.558  68.429  1.00  0.00    -0.167 C  
HETATM    8  N   UNL     1      -6.816   9.437  66.212  1.00  0.00    -0.084 NA 
HETATM    9  C   UNL     1      -5.838  10.384  66.804  1.00  0.00    -0.058 C  
HETATM   10  C   UNL     1      -9.687  11.302  67.602  1.00  0.00    -0.183 A  
HETATM   11  C   UNL     1     -10.752  10.450  67.453  1.00  0.00    -0.338 A  
HETATM   12  C   UNL     1      -6.254  11.829  66.553  1.00  0.00     0.079 C  
HETATM   13  N   UNL     1      -7.555  12.092  67.128  1.00  0.00    -0.149 NA 
HETATM   14  C   UNL     1      -8.468  11.009  66.981  1.00  0.00    -0.141 A  
HETATM   15  C   UNL     1     -10.529   9.262  66.732  1.00  0.00    -0.263 A  
HETATM   16  C   UNL     1      -9.237   8.906  66.252  1.00  0.00    -0.261 A  
HETATM   17  C   UNL     1      -8.160   9.770  66.420  1.00  0.00    -0.116 A  
ENDROOT
BRANCH   4  18
HETATM   18  C   UNL     1      -9.464  16.189  67.172  1.00  0.00    -0.223 C  
BRANCH  18  19
HETATM   19  C   UNL     1     -10.874  16.123  66.600  1.00  0.00    -0.149 C  
BRANCH  19  20
HETATM   20  C   UNL     1     -10.870  16.338  65.094  1.00  0.00    -0.333 C  
BRANCH  20  21
HETATM   21  C   UNL     1     -11.869  15.438  64.404  1.00  0.00    -0.256 C  
HETATM   22  O   UNL     1     -12.977  15.834  64.047  1.00  0.00    -0.442 OA 
BRANCH  21  23
HETATM   23  C   UNL     1     -11.481  14.023  64.150  1.00  0.00    -0.230 A  
HETATM   24  C   UNL     1      -9.762  12.318  64.262  1.00  0.00    -0.044 A  
HETATM   25  C   UNL     1     -10.178  13.628  64.487  1.00  0.00    -0.253 A  
HETATM   26  C   UNL     1     -10.647  11.406  63.698  1.00  0.00    -0.412 A  
HETATM   27  F   UNL     1     -10.245  10.152  63.473  1.00  0.00    -0.224 F  
HETATM   28  C   UNL     1     -12.366  13.090  63.588  1.00  0.00    -0.499 A  
HETATM   29  C   UNL     1     -11.944  11.779  63.362  1.00  0.00    -0.443 A  
ENDBRANCH  21  23
ENDBRANCH  20  21
ENDBRANCH  19  20
ENDBRANCH  18  19
ENDBRANCH   4  18
TORSDOF 5
ENDMDL
MODEL      135
REMARK 921   NORMALIZED FREE ENERGY PREDICTED BY IDOCK:   -5.22 KCAL/MOL
REMARK 922        TOTAL FREE ENERGY PREDICTED BY IDOCK:   -7.51 KCAL/MOL
REMARK 923 INTER-LIGAND FREE ENERGY PREDICTED BY IDOCK:   -6.97 KCAL/MOL
REMARK 924 INTRA-LIGAND FREE ENERGY PREDICTED BY IDOCK:   -0.54 KCAL/MOL
REMARK 927      BINDING AFFINITY PREDICTED BY RF-SCORE:    0.00 PKD
ROOT
HETATM    1  C   UNL     1     -11.761  13.103  68.002  1.00  0.00    -0.355 C  
HETATM    2  C   UNL     1     -11.055  13.747  66.834  1.00  0.00    -0.311 C  
HETATM    3  C   UNL     1      -9.560  13.562  66.959  1.00  0.00    -0.248 C  
HETATM    4  N   UNL     1      -9.188  12.139  67.014  1.00  0.00    -0.195 NA 
HETATM    5  C   UNL     1     -13.325  14.993  72.754  1.00  0.00    -0.481 C  
HETATM    6  C   UNL     1      -9.859  11.429  68.137  1.00  0.00    -0.191 C  
HETATM    7  C   UNL     1     -11.387  11.602  68.214  1.00  0.00    -0.348 C  
HETATM    8  N   UNL     1     -13.191  14.423  71.438  1.00  0.00    -0.334 NA 
HETATM    9  C   UNL     1     -12.904  15.320  70.290  1.00  0.00    -0.260 C  
HETATM   10  C   UNL     1     -11.928  11.458  69.629  1.00  0.00    -0.416 A  
HETATM   11  C   UNL     1     -12.364  10.393  70.375  1.00  0.00    -0.370 A  
HETATM   12  C   UNL     1     -11.510  15.061  69.729  1.00  0.00    -0.295 C  
HETATM   13  N   UNL     1     -11.385  13.690  69.285  1.00  0.00    -0.270 NA 
HETATM   14  C   UNL     1     -12.038  12.757  70.139  1.00  0.00    -0.298 A  
HETATM   15  C   UNL     1     -12.985  10.679  71.605  1.00  0.00    -0.582 A  
HETATM   16  C   UNL     1     -13.236  12.016  72.027  1.00  0.00    -0.481 A  
HETATM   17  C   UNL     1     -12.802  13.090  71.257  1.00  0.00    -0.281 A  
ENDROOT
BRANCH   4  18
HETATM   18  C   UNL     1      -7.719  12.090  67.178  1.00  0.00    -0.161 C  
BRANCH  18  19
HETATM   19  C   UNL     1      -7.031  11.104  66.243  1.00  0.00    -0.052 C  
BRANCH  19  20
HETATM   20  C   UNL     1      -6.979   9.710  66.851  1.00  0.00    -0.085 C  
BRANCH  20  21
HETATM   21  C   UNL     1      -6.319   9.723  68.210  1.00  0.00    -0.055 C  
HETATM   22  O   UNL     1      -5.190  10.174  68.391  1.00  0.00    -0.036 OA 
BRANCH  21  23
HETATM   23  C   UNL     1      -7.079   9.168  69.365  1.00  0.00    -0.053 A  
HETATM   24  C   UNL     1      -7.100   7.686  71.282  1.00  0.00    -0.054 A  
HETATM   25  C   UNL     1      -6.431   8.241  70.194  1.00  0.00    -0.035 A  
HETATM   26  C   UNL     1      -8.416   8.055  71.538  1.00  0.00    -0.121 A  
HETATM   27  F   UNL     1      -9.060   7.516  72.577  1.00  0.00    -0.148 F  
HETATM   28  C   UNL     1      -8.404   9.538  69.639  1.00  0.00    -0.155 A  
HETATM   29  C   UNL     1      -9.072   8.977  70.730  1.00  0.00    -0.297 A  
ENDBRANCH  21  23
ENDBRANCH  20  21
ENDBRANCH  19  20
ENDBRANCH  18  19
ENDBRANCH   4  18
TORSDOF 5
ENDMDL
MODEL      136
REMARK 921   NORMALIZED FREE ENERGY PREDICTED BY IDOCK:   -5.21 KCAL/MOL
REMARK 922        TOTAL FREE ENERGY PREDICTED BY IDOCK:   -7.50 KCAL/MOL
REMARK 923 INTER-LIGAND FREE ENERGY PREDICTED BY IDOCK:   -6.78 KCAL/MOL
REMARK 924 INTRA-LIGAND FREE ENERGY PREDICTED BY IDOCK:   -0.72 KCAL/MOL
REMARK 927      BINDING AFFINITY PREDICTED BY RF-SCORE:    0.00 PKD
ROOT
HETATM    1  C   UNL     1      -6.993   7.358  64.997  1.00  0.00    -0.051 C  
HETATM    2  C   UNL     1      -6.359   8.624  64.477  1.00  0.00    -0.066 C  
HETATM    3  C   UNL     1      -7.402   9.707  64.323  1.00  0.00    -0.122 C  
HETATM    4  N   UNL     1      -8.076  10.002  65.598  1.00  0.00    -0.132 NA 
HETATM    5  C   UNL     1      -9.060   3.085  62.533  1.00  0.00    -0.087 C  
HETATM    6  C   UNL     1      -8.717   8.793  66.184  1.00  0.00    -0.160 C  
HETATM    7  C   UNL     1      -7.809   7.557  66.315  1.00  0.00    -0.102 C  
HETATM    8  N   UNL     1      -8.322   4.038  63.322  1.00  0.00    -0.090 NA 
HETATM    9  C   UNL     1      -7.378   4.960  62.640  1.00  0.00    -0.043 C  
HETATM   10  C   UNL     1      -8.583   6.248  66.272  1.00  0.00    -0.138 A  
HETATM   11  C   UNL     1      -9.186   5.469  67.228  1.00  0.00    -0.110 A  
HETATM   12  C   UNL     1      -7.870   6.401  62.718  1.00  0.00    -0.100 C  
HETATM   13  N   UNL     1      -8.008   6.820  64.095  1.00  0.00    -0.114 NA 
HETATM   14  C   UNL     1      -8.524   5.801  64.947  1.00  0.00    -0.103 A  
HETATM   15  C   UNL     1      -9.649   4.203  66.828  1.00  0.00    -0.229 A  
HETATM   16  C   UNL     1      -9.428   3.702  65.514  1.00  0.00    -0.158 A  
HETATM   17  C   UNL     1      -8.805   4.493  64.555  1.00  0.00    -0.151 A  
ENDROOT
BRANCH   4  18
HETATM   18  C   UNL     1      -9.093  11.036  65.310  1.00  0.00    -0.189 C  
BRANCH  18  19
HETATM   19  C   UNL     1     -10.244  10.540  64.446  1.00  0.00    -0.337 C  
BRANCH  19  20
HETATM   20  C   UNL     1     -10.635  11.574  63.400  1.00  0.00    -0.460 C  
BRANCH  20  21
HETATM   21  C   UNL     1     -11.784  12.434  63.874  1.00  0.00    -0.447 C  
HETATM   22  O   UNL     1     -12.925  12.314  63.432  1.00  0.00    -0.753 OA 
BRANCH  21  23
HETATM   23  C   UNL     1     -11.508  13.458  64.919  1.00  0.00    -0.346 A  
HETATM   24  C   UNL     1     -11.964  14.280  67.153  1.00  0.00    -0.449 A  
HETATM   25  C   UNL     1     -12.179  13.343  66.146  1.00  0.00    -0.471 A  
HETATM   26  C   UNL     1     -11.081  15.331  66.934  1.00  0.00    -0.288 A  
HETATM   27  F   UNL     1     -10.882  16.235  67.897  1.00  0.00    -0.302 F  
HETATM   28  C   UNL     1     -10.615  14.521  64.713  1.00  0.00    -0.401 A  
HETATM   29  C   UNL     1     -10.405  15.459  65.726  1.00  0.00    -0.381 A  
ENDBRANCH  21  23
ENDBRANCH  20  21
ENDBRANCH  19  20
ENDBRANCH  18  19
ENDBRANCH   4  18
TORSDOF 5
ENDMDL
MODEL      137
REMARK 921   NORMALIZED FREE ENERGY PREDICTED BY IDOCK:   -5.20 KCAL/MOL
REMARK 922        TOTAL FREE ENERGY PREDICTED BY IDOCK:   -7.48 KCAL/MOL
REMARK 923 INTER-LIGAND FREE ENERGY PREDICTED BY IDOCK:   -6.99 KCAL/MOL
REMARK 924 INTRA-LIGAND FREE ENERGY PREDICTED BY IDOCK:   -0.49 KCAL/MOL
REMARK 927      BINDING AFFINITY PREDICTED BY RF-SCORE:    0.00 PKD
ROOT
HETATM    1  C   UNL     1     -10.342  16.491  68.952  1.00  0.00    -0.292 C  
HETATM    2  C   UNL     1     -11.733  15.908  68.894  1.00  0.00    -0.376 C  
HETATM    3  C   UNL     1     -11.728  14.619  68.107  1.00  0.00    -0.330 C  
HETATM    4  N   UNL     1     -10.819  13.622  68.694  1.00  0.00    -0.257 NA 
HETATM    5  C   UNL     1      -7.780  20.017  65.853  1.00  0.00    -0.282 C  
HETATM    6  C   UNL     1      -9.423  14.130  68.798  1.00  0.00    -0.102 C  
HETATM    7  C   UNL     1      -9.264  15.497  69.490  1.00  0.00    -0.265 C  
HETATM    8  N   UNL     1      -8.418  19.264  66.903  1.00  0.00    -0.279 NA 
HETATM    9  C   UNL     1      -9.899  19.158  66.917  1.00  0.00    -0.335 C  
HETATM   10  C   UNL     1      -8.035  16.258  69.017  1.00  0.00    -0.238 A  
HETATM   11  C   UNL     1      -6.725  16.294  69.426  1.00  0.00    -0.209 A  
HETATM   12  C   UNL     1     -10.347  17.727  66.639  1.00  0.00    -0.345 C  
HETATM   13  N   UNL     1      -9.812  16.823  67.633  1.00  0.00    -0.256 NA 
HETATM   14  C   UNL     1      -8.476  17.132  68.018  1.00  0.00    -0.219 A  
HETATM   15  C   UNL     1      -5.901  17.283  68.860  1.00  0.00    -0.165 A  
HETATM   16  C   UNL     1      -6.414  18.269  67.969  1.00  0.00    -0.193 A  
HETATM   17  C   UNL     1      -7.746  18.233  67.571  1.00  0.00    -0.223 A  
ENDROOT
BRANCH   4  18
HETATM   18  C   UNL     1     -10.870  12.432  67.818  1.00  0.00    -0.225 C  
BRANCH  18  19
HETATM   19  C   UNL     1     -11.131  11.131  68.565  1.00  0.00    -0.298 C  
BRANCH  19  20
HETATM   20  C   UNL     1      -9.830  10.455  68.970  1.00  0.00    -0.222 C  
BRANCH  20  21
HETATM   21  C   UNL     1     -10.074   9.319  69.936  1.00  0.00    -0.209 C  
HETATM   22  O   UNL     1     -10.362   9.507  71.116  1.00  0.00    -0.308 OA 
BRANCH  21  23
HETATM   23  C   UNL     1      -9.961   7.925  69.423  1.00  0.00    -0.189 A  
HETATM   24  C   UNL     1     -11.003   5.755  69.142  1.00  0.00    -0.308 A  
HETATM   25  C   UNL     1     -11.060   7.071  69.596  1.00  0.00    -0.254 A  
HETATM   26  C   UNL     1      -9.848   5.294  68.520  1.00  0.00    -0.152 A  
HETATM   27  F   UNL     1      -9.790   4.030  68.093  1.00  0.00    -0.213 F  
HETATM   28  C   UNL     1      -8.804   7.449  68.787  1.00  0.00    -0.130 A  
HETATM   29  C   UNL     1      -8.751   6.129  68.337  1.00  0.00    -0.115 A  
ENDBRANCH  21  23
ENDBRANCH  20  21
ENDBRANCH  19  20
ENDBRANCH  18  19
ENDBRANCH   4  18
TORSDOF 5
ENDMDL
MODEL      138
REMARK 921   NORMALIZED FREE ENERGY PREDICTED BY IDOCK:   -5.20 KCAL/MOL
REMARK 922        TOTAL FREE ENERGY PREDICTED BY IDOCK:   -7.48 KCAL/MOL
REMARK 923 INTER-LIGAND FREE ENERGY PREDICTED BY IDOCK:   -6.88 KCAL/MOL
REMARK 924 INTRA-LIGAND FREE ENERGY PREDICTED BY IDOCK:   -0.60 KCAL/MOL
REMARK 927      BINDING AFFINITY PREDICTED BY RF-SCORE:    0.00 PKD
ROOT
HETATM    1  C   UNL     1      -8.381  11.614  67.221  1.00  0.00    -0.158 C  
HETATM    2  C   UNL     1      -8.035  11.485  68.684  1.00  0.00    -0.135 C  
HETATM    3  C   UNL     1      -8.850  10.382  69.320  1.00  0.00    -0.154 C  
HETATM    4  N   UNL     1      -8.623   9.086  68.662  1.00  0.00    -0.128 NA 
HETATM    5  C   UNL     1     -11.937  14.636  64.610  1.00  0.00    -0.462 C  
HETATM    6  C   UNL     1      -8.931   9.136  67.206  1.00  0.00    -0.123 C  
HETATM    7  C   UNL     1      -8.254  10.276  66.423  1.00  0.00    -0.129 C  
HETATM    8  N   UNL     1     -10.781  13.960  65.141  1.00  0.00    -0.339 NA 
HETATM    9  C   UNL     1     -10.316  14.298  66.511  1.00  0.00    -0.278 C  
HETATM   10  C   UNL     1      -9.044  10.699  65.194  1.00  0.00    -0.227 A  
HETATM   11  C   UNL     1      -9.059  10.284  63.886  1.00  0.00    -0.284 A  
HETATM   12  C   UNL     1     -10.513  13.121  67.460  1.00  0.00    -0.228 C  
HETATM   13  N   UNL     1      -9.781  11.963  66.998  1.00  0.00    -0.192 NA 
HETATM   14  C   UNL     1      -9.812  11.802  65.583  1.00  0.00    -0.237 A  
HETATM   15  C   UNL     1      -9.801  11.057  62.974  1.00  0.00    -0.370 A  
HETATM   16  C   UNL     1     -10.439  12.269  63.362  1.00  0.00    -0.408 A  
HETATM   17  C   UNL     1     -10.407  12.689  64.687  1.00  0.00    -0.330 A  
ENDROOT
BRANCH   4  18
HETATM   18  C   UNL     1      -9.500   8.107  69.340  1.00  0.00    -0.162 C  
BRANCH  18  19
HETATM   19  C   UNL     1     -10.815   8.699  69.831  1.00  0.00    -0.210 C  
BRANCH  19  20
HETATM   20  C   UNL     1     -10.961   8.548  71.338  1.00  0.00    -0.329 C  
BRANCH  20  21
HETATM   21  C   UNL     1     -11.783   7.332  71.695  1.00  0.00    -0.284 C  
HETATM   22  O   UNL     1     -13.009   7.314  71.602  1.00  0.00    -0.357 OA 
BRANCH  21  23
HETATM   23  C   UNL     1     -11.068   6.116  72.173  1.00  0.00    -0.321 A  
HETATM   24  C   UNL     1     -10.082   3.971  71.626  1.00  0.00    -0.183 A  
HETATM   25  C   UNL     1     -10.743   5.131  71.229  1.00  0.00    -0.142 A  
HETATM   26  C   UNL     1      -9.749   3.796  72.964  1.00  0.00    -0.127 A  
HETATM   27  F   UNL     1      -9.123   2.679  73.346  1.00  0.00    -0.081 F  
HETATM   28  C   UNL     1     -10.719   5.930  73.519  1.00  0.00    -0.284 A  
HETATM   29  C   UNL     1     -10.059   4.765  73.913  1.00  0.00    -0.218 A  
ENDBRANCH  21  23
ENDBRANCH  20  21
ENDBRANCH  19  20
ENDBRANCH  18  19
ENDBRANCH   4  18
TORSDOF 5
ENDMDL
MODEL      139
REMARK 921   NORMALIZED FREE ENERGY PREDICTED BY IDOCK:   -5.19 KCAL/MOL
REMARK 922        TOTAL FREE ENERGY PREDICTED BY IDOCK:   -7.47 KCAL/MOL
REMARK 923 INTER-LIGAND FREE ENERGY PREDICTED BY IDOCK:   -6.22 KCAL/MOL
REMARK 924 INTRA-LIGAND FREE ENERGY PREDICTED BY IDOCK:   -1.25 KCAL/MOL
REMARK 927      BINDING AFFINITY PREDICTED BY RF-SCORE:    0.00 PKD
ROOT
HETATM    1  C   UNL     1     -10.509   9.533  68.898  1.00  0.00    -0.216 C  
HETATM    2  C   UNL     1     -11.194   9.437  70.239  1.00  0.00    -0.286 C  
HETATM    3  C   UNL     1     -11.433  10.818  70.805  1.00  0.00    -0.122 C  
HETATM    4  N   UNL     1     -12.258  11.642  69.907  1.00  0.00    -0.267 NA 
HETATM    5  C   UNL     1      -5.355   9.491  67.472  1.00  0.00    -0.037 C  
HETATM    6  C   UNL     1     -11.652  11.772  68.554  1.00  0.00    -0.321 C  
HETATM    7  C   UNL     1     -11.253  10.449  67.875  1.00  0.00    -0.332 C  
HETATM    8  N   UNL     1      -6.762   9.265  67.680  1.00  0.00    -0.068 NA 
HETATM    9  C   UNL     1      -7.222   8.735  68.990  1.00  0.00    -0.072 C  
HETATM   10  C   UNL     1     -10.109  10.615  66.885  1.00  0.00    -0.260 A  
HETATM   11  C   UNL     1     -10.047  10.912  65.547  1.00  0.00    -0.325 A  
HETATM   12  C   UNL     1      -8.039   9.778  69.745  1.00  0.00    -0.167 C  
HETATM   13  N   UNL     1      -9.199  10.172  68.976  1.00  0.00    -0.174 NA 
HETATM   14  C   UNL     1      -8.940  10.285  67.579  1.00  0.00    -0.134 A  
HETATM   15  C   UNL     1      -8.795  10.788  64.917  1.00  0.00    -0.176 A  
HETATM   16  C   UNL     1      -7.654  10.289  65.607  1.00  0.00    -0.148 A  
HETATM   17  C   UNL     1      -7.729   9.977  66.960  1.00  0.00    -0.095 A  
ENDROOT
BRANCH   4  18
HETATM   18  C   UNL     1     -12.383  12.970  70.546  1.00  0.00    -0.287 C  
BRANCH  18  19
HETATM   19  C   UNL     1     -12.152  14.134  69.590  1.00  0.00    -0.400 C  
BRANCH  19  20
HETATM   20  C   UNL     1     -11.102  15.094  70.131  1.00  0.00    -0.298 C  
BRANCH  20  21
HETATM   21  C   UNL     1      -9.938  15.235  69.178  1.00  0.00    -0.238 C  
HETATM   22  O   UNL     1      -8.770  15.107  69.539  1.00  0.00    -0.214 OA 
BRANCH  21  23
HETATM   23  C   UNL     1     -10.233  15.538  67.750  1.00  0.00    -0.243 A  
HETATM   24  C   UNL     1     -10.602  14.690  65.510  1.00  0.00    -0.369 A  
HETATM   25  C   UNL     1     -10.337  14.461  66.858  1.00  0.00    -0.265 A  
HETATM   26  C   UNL     1     -10.762  15.994  65.056  1.00  0.00    -0.378 A  
HETATM   27  F   UNL     1     -11.008  16.214  63.761  1.00  0.00     0.117 F  
HETATM   28  C   UNL     1     -10.404  16.849  67.279  1.00  0.00    -0.309 A  
HETATM   29  C   UNL     1     -10.668  17.074  65.927  1.00  0.00    -0.140 A  
ENDBRANCH  21  23
ENDBRANCH  20  21
ENDBRANCH  19  20
ENDBRANCH  18  19
ENDBRANCH   4  18
TORSDOF 5
ENDMDL
MODEL      140
REMARK 921   NORMALIZED FREE ENERGY PREDICTED BY IDOCK:   -5.19 KCAL/MOL
REMARK 922        TOTAL FREE ENERGY PREDICTED BY IDOCK:   -7.47 KCAL/MOL
REMARK 923 INTER-LIGAND FREE ENERGY PREDICTED BY IDOCK:   -6.28 KCAL/MOL
REMARK 924 INTRA-LIGAND FREE ENERGY PREDICTED BY IDOCK:   -1.19 KCAL/MOL
REMARK 927      BINDING AFFINITY PREDICTED BY RF-SCORE:    0.00 PKD
ROOT
HETATM    1  C   UNL     1     -11.635   7.173  70.594  1.00  0.00    -0.314 C  
HETATM    2  C   UNL     1     -11.158   5.755  70.789  1.00  0.00    -0.272 C  
HETATM    3  C   UNL     1     -10.112   5.698  71.879  1.00  0.00    -0.189 C  
HETATM    4  N   UNL     1     -10.630   6.206  73.159  1.00  0.00    -0.234 NA 
HETATM    5  C   UNL     1     -10.032  11.101  67.338  1.00  0.00    -0.179 C  
HETATM    6  C   UNL     1     -11.135   7.602  73.045  1.00  0.00    -0.381 C  
HETATM    7  C   UNL     1     -12.140   7.853  71.907  1.00  0.00    -0.352 C  
HETATM    8  N   UNL     1     -10.725  10.078  68.079  1.00  0.00    -0.240 NA 
HETATM    9  C   UNL     1     -10.407   8.652  67.810  1.00  0.00    -0.242 C  
HETATM   10  C   UNL     1     -12.121   9.290  71.408  1.00  0.00    -0.424 A  
HETATM   11  C   UNL     1     -12.789  10.432  71.776  1.00  0.00    -0.561 A  
HETATM   12  C   UNL     1      -9.720   8.009  69.010  1.00  0.00    -0.159 C  
HETATM   13  N   UNL     1     -10.567   8.078  70.180  1.00  0.00    -0.233 NA 
HETATM   14  C   UNL     1     -11.281   9.306  70.289  1.00  0.00    -0.231 A  
HETATM   15  C   UNL     1     -12.650  11.556  70.942  1.00  0.00    -0.438 A  
HETATM   16  C   UNL     1     -11.924  11.498  69.718  1.00  0.00    -0.415 A  
HETATM   17  C   UNL     1     -11.261  10.333  69.347  1.00  0.00    -0.239 A  
ENDROOT
BRANCH   4  18
HETATM   18  C   UNL     1      -9.511   6.140  74.125  1.00  0.00    -0.166 C  
BRANCH  18  19
HETATM   19  C   UNL     1      -8.217   5.603  73.528  1.00  0.00    -0.112 C  
BRANCH  19  20
HETATM   20  C   UNL     1      -7.037   6.501  73.867  1.00  0.00    -0.081 C  
BRANCH  20  21
HETATM   21  C   UNL     1      -7.162   7.853  73.204  1.00  0.00    -0.099 C  
HETATM   22  O   UNL     1      -7.627   8.832  73.784  1.00  0.00    -0.402 OA 
BRANCH  21  23
HETATM   23  C   UNL     1      -6.698   7.990  71.795  1.00  0.00    -0.058 A  
HETATM   24  C   UNL     1      -5.562   6.983  69.905  1.00  0.00    -0.023 A  
HETATM   25  C   UNL     1      -6.025   6.903  71.217  1.00  0.00    -0.036 A  
HETATM   26  C   UNL     1      -5.771   8.148  69.175  1.00  0.00    -0.034 A  
HETATM   27  F   UNL     1      -5.319   8.227  67.920  1.00  0.00    -0.030 F  
HETATM   28  C   UNL     1      -6.908   9.156  71.044  1.00  0.00    -0.095 A  
HETATM   29  C   UNL     1      -6.441   9.232  69.731  1.00  0.00    -0.040 A  
ENDBRANCH  21  23
ENDBRANCH  20  21
ENDBRANCH  19  20
ENDBRANCH  18  19
ENDBRANCH   4  18
TORSDOF 5
ENDMDL
MODEL      141
REMARK 921   NORMALIZED FREE ENERGY PREDICTED BY IDOCK:   -5.19 KCAL/MOL
REMARK 922        TOTAL FREE ENERGY PREDICTED BY IDOCK:   -7.46 KCAL/MOL
REMARK 923 INTER-LIGAND FREE ENERGY PREDICTED BY IDOCK:   -7.21 KCAL/MOL
REMARK 924 INTRA-LIGAND FREE ENERGY PREDICTED BY IDOCK:   -0.25 KCAL/MOL
REMARK 927      BINDING AFFINITY PREDICTED BY RF-SCORE:    0.00 PKD
ROOT
HETATM    1  C   UNL     1      -9.209   6.921  71.215  1.00  0.00    -0.157 C  
HETATM    2  C   UNL     1      -9.364   8.053  70.231  1.00  0.00    -0.159 C  
HETATM    3  C   UNL     1     -10.805   8.502  70.171  1.00  0.00    -0.233 C  
HETATM    4  N   UNL     1     -11.295   8.945  71.486  1.00  0.00    -0.298 NA 
HETATM    5  C   UNL     1      -9.389   1.605  70.653  1.00  0.00    -0.105 C  
HETATM    6  C   UNL     1     -11.162   7.882  72.520  1.00  0.00    -0.376 C  
HETATM    7  C   UNL     1      -9.766   7.243  72.639  1.00  0.00    -0.196 C  
HETATM    8  N   UNL     1      -9.067   2.986  70.907  1.00  0.00    -0.101 NA 
HETATM    9  C   UNL     1      -8.820   3.892  69.756  1.00  0.00    -0.087 C  
HETATM   10  C   UNL     1      -9.813   5.815  73.164  1.00  0.00    -0.178 A  
HETATM   11  C   UNL     1      -9.786   5.265  74.420  1.00  0.00    -0.213 A  
HETATM   12  C   UNL     1      -9.917   4.945  69.643  1.00  0.00    -0.231 C  
HETATM   13  N   UNL     1      -9.987   5.741  70.849  1.00  0.00    -0.182 NA 
HETATM   14  C   UNL     1      -9.789   4.984  72.039  1.00  0.00    -0.174 A  
HETATM   15  C   UNL     1      -9.652   3.867  74.508  1.00  0.00    -0.142 A  
HETATM   16  C   UNL     1      -9.460   3.057  73.353  1.00  0.00    -0.119 A  
HETATM   17  C   UNL     1      -9.476   3.626  72.084  1.00  0.00    -0.134 A  
ENDROOT
BRANCH   4  18
HETATM   18  C   UNL     1     -12.715   9.315  71.307  1.00  0.00    -0.299 C  
BRANCH  18  19
HETATM   19  C   UNL     1     -12.929  10.788  70.983  1.00  0.00    -0.425 C  
BRANCH  19  20
HETATM   20  C   UNL     1     -11.656  11.427  70.450  1.00  0.00    -0.267 C  
BRANCH  20  21
HETATM   21  C   UNL     1     -11.803  11.828  69.000  1.00  0.00    -0.317 C  
HETATM   22  O   UNL     1     -12.046  11.014  68.112  1.00  0.00    -0.610 OA 
BRANCH  21  23
HETATM   23  C   UNL     1     -11.650  13.268  68.651  1.00  0.00    -0.362 A  
HETATM   24  C   UNL     1     -11.286  15.536  69.424  1.00  0.00    -0.302 A  
HETATM   25  C   UNL     1     -11.427  14.177  69.696  1.00  0.00    -0.329 A  
HETATM   26  C   UNL     1     -11.370  15.984  68.111  1.00  0.00    -0.289 A  
HETATM   27  F   UNL     1     -11.243  17.289  67.851  1.00  0.00    -0.331 F  
HETATM   28  C   UNL     1     -11.726  13.733  67.330  1.00  0.00    -0.416 A  
HETATM   29  C   UNL     1     -11.586  15.097  67.063  1.00  0.00    -0.179 A  
ENDBRANCH  21  23
ENDBRANCH  20  21
ENDBRANCH  19  20
ENDBRANCH  18  19
ENDBRANCH   4  18
TORSDOF 5
ENDMDL
MODEL      142
REMARK 921   NORMALIZED FREE ENERGY PREDICTED BY IDOCK:   -5.18 KCAL/MOL
REMARK 922        TOTAL FREE ENERGY PREDICTED BY IDOCK:   -7.45 KCAL/MOL
REMARK 923 INTER-LIGAND FREE ENERGY PREDICTED BY IDOCK:   -7.05 KCAL/MOL
REMARK 924 INTRA-LIGAND FREE ENERGY PREDICTED BY IDOCK:   -0.40 KCAL/MOL
REMARK 927      BINDING AFFINITY PREDICTED BY RF-SCORE:    0.00 PKD
ROOT
HETATM    1  C   UNL     1     -11.647  12.782  65.803  1.00  0.00    -0.376 C  
HETATM    2  C   UNL     1     -11.381  11.898  64.610  1.00  0.00    -0.355 C  
HETATM    3  C   UNL     1     -10.103  11.118  64.810  1.00  0.00    -0.295 C  
HETATM    4  N   UNL     1     -10.156  10.281  66.019  1.00  0.00    -0.246 NA 
HETATM    5  C   UNL     1     -10.358  17.857  66.889  1.00  0.00    -0.355 C  
HETATM    6  C   UNL     1     -10.430  11.083  67.243  1.00  0.00    -0.231 C  
HETATM    7  C   UNL     1     -11.652  12.016  67.165  1.00  0.00    -0.387 C  
HETATM    8  N   UNL     1     -10.984  16.585  66.632  1.00  0.00    -0.040 NA 
HETATM    9  C   UNL     1     -10.997  16.055  65.244  1.00  0.00    -0.299 C  
HETATM   10  C   UNL     1     -11.527  13.228  68.077  1.00  0.00    -0.344 A  
HETATM   11  C   UNL     1     -11.866  13.471  69.384  1.00  0.00    -0.389 A  
HETATM   12  C   UNL     1     -10.126  14.809  65.127  1.00  0.00    -0.323 C  
HETATM   13  N   UNL     1     -10.596  13.772  66.020  1.00  0.00    -0.286 NA 
HETATM   14  C   UNL     1     -11.036  14.268  67.281  1.00  0.00    -0.297 A  
HETATM   15  C   UNL     1     -11.773  14.800  69.837  1.00  0.00    -0.352 A  
HETATM   16  C   UNL     1     -11.430  15.869  68.962  1.00  0.00    -0.380 A  
HETATM   17  C   UNL     1     -11.101  15.615  67.635  1.00  0.00    -0.305 A  
ENDROOT
BRANCH   4  18
HETATM   18  C   UNL     1      -8.844   9.607  66.127  1.00  0.00    -0.150 C  
BRANCH  18  19
HETATM   19  C   UNL     1      -8.937   8.087  66.168  1.00  0.00    -0.215 C  
BRANCH  19  20
HETATM   20  C   UNL     1     -10.199   7.630  66.885  1.00  0.00    -0.365 C  
BRANCH  20  21
HETATM   21  C   UNL     1      -9.885   7.058  68.248  1.00  0.00    -0.144 C  
HETATM   22  O   UNL     1     -10.145   7.656  69.290  1.00  0.00    -0.181 OA 
BRANCH  21  23
HETATM   23  C   UNL     1      -9.238   5.718  68.315  1.00  0.00    -0.119 A  
HETATM   24  C   UNL     1      -9.454   3.364  68.849  1.00  0.00    -0.201 A  
HETATM   25  C   UNL     1     -10.013   4.636  68.759  1.00  0.00    -0.153 A  
HETATM   26  C   UNL     1      -8.122   3.175  68.497  1.00  0.00    -0.060 A  
HETATM   27  F   UNL     1      -7.583   1.956  68.592  1.00  0.00    -0.046 F  
HETATM   28  C   UNL     1      -7.898   5.512  67.956  1.00  0.00    -0.096 A  
HETATM   29  C   UNL     1      -7.341   4.234  68.050  1.00  0.00    -0.064 A  
ENDBRANCH  21  23
ENDBRANCH  20  21
ENDBRANCH  19  20
ENDBRANCH  18  19
ENDBRANCH   4  18
TORSDOF 5
ENDMDL
MODEL      143
REMARK 921   NORMALIZED FREE ENERGY PREDICTED BY IDOCK:   -5.16 KCAL/MOL
REMARK 922        TOTAL FREE ENERGY PREDICTED BY IDOCK:   -7.43 KCAL/MOL
REMARK 923 INTER-LIGAND FREE ENERGY PREDICTED BY IDOCK:   -6.84 KCAL/MOL
REMARK 924 INTRA-LIGAND FREE ENERGY PREDICTED BY IDOCK:   -0.58 KCAL/MOL
REMARK 927      BINDING AFFINITY PREDICTED BY RF-SCORE:    0.00 PKD
ROOT
HETATM    1  C   UNL     1      -9.547   6.218  68.305  1.00  0.00    -0.119 C  
HETATM    2  C   UNL     1     -10.444   6.486  67.122  1.00  0.00    -0.354 C  
HETATM    3  C   UNL     1     -10.283   7.914  66.654  1.00  0.00    -0.233 C  
HETATM    4  N   UNL     1      -8.893   8.211  66.274  1.00  0.00    -0.155 NA 
HETATM    5  C   UNL     1     -10.342   6.568  73.582  1.00  0.00    -0.304 C  
HETATM    6  C   UNL     1      -7.941   7.958  67.391  1.00  0.00    -0.122 C  
HETATM    7  C   UNL     1      -8.047   6.570  68.050  1.00  0.00    -0.113 C  
HETATM    8  N   UNL     1     -10.067   6.190  72.219  1.00  0.00    -0.178 NA 
HETATM    9  C   UNL     1     -11.194   6.086  71.258  1.00  0.00    -0.258 C  
HETATM   10  C   UNL     1      -7.591   6.571  69.502  1.00  0.00    -0.095 A  
HETATM   11  C   UNL     1      -6.379   6.382  70.117  1.00  0.00    -0.039 A  
HETATM   12  C   UNL     1     -11.103   7.170  70.190  1.00  0.00    -0.272 C  
HETATM   13  N   UNL     1      -9.861   7.060  69.456  1.00  0.00    -0.160 NA 
HETATM   14  C   UNL     1      -8.749   6.715  70.275  1.00  0.00    -0.147 A  
HETATM   15  C   UNL     1      -6.380   6.262  71.519  1.00  0.00    -0.045 A  
HETATM   16  C   UNL     1      -7.589   6.245  72.271  1.00  0.00    -0.095 A  
HETATM   17  C   UNL     1      -8.814   6.424  71.637  1.00  0.00    -0.136 A  
ENDROOT
BRANCH   4  18
HETATM   18  C   UNL     1      -8.856   9.636  65.880  1.00  0.00    -0.153 C  
BRANCH  18  19
HETATM   19  C   UNL     1     -10.154  10.133  65.257  1.00  0.00    -0.344 C  
BRANCH  19  20
HETATM   20  C   UNL     1     -10.159  11.649  65.125  1.00  0.00    -0.304 C  
BRANCH  20  21
HETATM   21  C   UNL     1     -11.053  12.292  66.159  1.00  0.00    -0.311 C  
HETATM   22  O   UNL     1     -11.895  11.657  66.790  1.00  0.00    -0.557 OA 
BRANCH  21  23
HETATM   23  C   UNL     1     -10.893  13.751  66.415  1.00  0.00    -0.287 A  
HETATM   24  C   UNL     1     -11.204  15.610  67.939  1.00  0.00    -0.328 A  
HETATM   25  C   UNL     1     -11.323  14.252  67.653  1.00  0.00    -0.344 A  
HETATM   26  C   UNL     1     -10.659  16.465  66.988  1.00  0.00    -0.260 A  
HETATM   27  F   UNL     1     -10.554  17.769  67.259  1.00  0.00    -0.343 F  
HETATM   28  C   UNL     1     -10.339  14.624  65.467  1.00  0.00    -0.383 A  
HETATM   29  C   UNL     1     -10.224  15.985  65.758  1.00  0.00    -0.401 A  
ENDBRANCH  21  23
ENDBRANCH  20  21
ENDBRANCH  19  20
ENDBRANCH  18  19
ENDBRANCH   4  18
TORSDOF 5
ENDMDL
MODEL      144
REMARK 921   NORMALIZED FREE ENERGY PREDICTED BY IDOCK:   -5.14 KCAL/MOL
REMARK 922        TOTAL FREE ENERGY PREDICTED BY IDOCK:   -7.41 KCAL/MOL
REMARK 923 INTER-LIGAND FREE ENERGY PREDICTED BY IDOCK:   -6.64 KCAL/MOL
REMARK 924 INTRA-LIGAND FREE ENERGY PREDICTED BY IDOCK:   -0.77 KCAL/MOL
REMARK 927      BINDING AFFINITY PREDICTED BY RF-SCORE:    0.00 PKD
ROOT
HETATM    1  C   UNL     1     -10.469   9.088  68.807  1.00  0.00    -0.206 C  
HETATM    2  C   UNL     1     -11.283   9.093  70.077  1.00  0.00    -0.168 C  
HETATM    3  C   UNL     1     -11.377  10.495  70.634  1.00  0.00    -0.275 C  
HETATM    4  N   UNL     1     -11.990  11.425  69.672  1.00  0.00    -0.334 NA 
HETATM    5  C   UNL     1      -5.261   8.314  67.869  1.00  0.00    -0.034 C  
HETATM    6  C   UNL     1     -11.247  11.465  68.382  1.00  0.00    -0.263 C  
HETATM    7  C   UNL     1     -10.976  10.097  67.729  1.00  0.00    -0.338 C  
HETATM    8  N   UNL     1      -6.699   8.290  67.942  1.00  0.00    -0.064 NA 
HETATM    9  C   UNL     1      -7.350   7.833  69.197  1.00  0.00    -0.088 C  
HETATM   10  C   UNL     1      -9.733  10.097  66.852  1.00  0.00    -0.233 A  
HETATM   11  C   UNL     1      -9.504  10.380  65.529  1.00  0.00    -0.267 A  
HETATM   12  C   UNL     1      -8.079   8.983  69.883  1.00  0.00    -0.117 C  
HETATM   13  N   UNL     1      -9.094   9.535  69.014  1.00  0.00    -0.140 NA 
HETATM   14  C   UNL     1      -8.692   9.607  67.649  1.00  0.00    -0.126 A  
HETATM   15  C   UNL     1      -8.229  10.078  65.018  1.00  0.00    -0.148 A  
HETATM   16  C   UNL     1      -7.239   9.425  65.805  1.00  0.00    -0.095 A  
HETATM   17  C   UNL     1      -7.484   9.130  67.142  1.00  0.00    -0.087 A  
ENDROOT
BRANCH   4  18
HETATM   18  C   UNL     1     -11.985  12.759  70.310  1.00  0.00    -0.280 C  
BRANCH  18  19
HETATM   19  C   UNL     1     -11.910  13.913  69.319  1.00  0.00    -0.394 C  
BRANCH  19  20
HETATM   20  C   UNL     1     -11.087  15.066  69.874  1.00  0.00    -0.298 C  
BRANCH  20  21
HETATM   21  C   UNL     1      -9.810  15.261  69.091  1.00  0.00    -0.239 C  
HETATM   22  O   UNL     1      -9.077  14.325  68.780  1.00  0.00    -0.179 OA 
BRANCH  21  23
HETATM   23  C   UNL     1      -9.440  16.646  68.684  1.00  0.00    -0.249 A  
HETATM   24  C   UNL     1      -7.705  18.323  68.466  1.00  0.00    -0.319 A  
HETATM   25  C   UNL     1      -8.100  17.036  68.823  1.00  0.00    -0.250 A  
HETATM   26  C   UNL     1      -8.648  19.218  67.973  1.00  0.00    -0.321 A  
HETATM   27  F   UNL     1      -8.270  20.455  67.639  1.00  0.00    -0.341 F  
HETATM   28  C   UNL     1     -10.380  17.556  68.179  1.00  0.00    -0.375 A  
HETATM   29  C   UNL     1      -9.979  18.846  67.824  1.00  0.00    -0.411 A  
ENDBRANCH  21  23
ENDBRANCH  20  21
ENDBRANCH  19  20
ENDBRANCH  18  19
ENDBRANCH   4  18
TORSDOF 5
ENDMDL
MODEL      145
REMARK 921   NORMALIZED FREE ENERGY PREDICTED BY IDOCK:   -5.12 KCAL/MOL
REMARK 922        TOTAL FREE ENERGY PREDICTED BY IDOCK:   -7.38 KCAL/MOL
REMARK 923 INTER-LIGAND FREE ENERGY PREDICTED BY IDOCK:   -6.55 KCAL/MOL
REMARK 924 INTRA-LIGAND FREE ENERGY PREDICTED BY IDOCK:   -0.83 KCAL/MOL
REMARK 927      BINDING AFFINITY PREDICTED BY RF-SCORE:    0.00 PKD
ROOT
HETATM    1  C   UNL     1      -8.128   6.114  67.983  1.00  0.00    -0.114 C  
HETATM    2  C   UNL     1      -8.138   5.480  66.614  1.00  0.00    -0.105 C  
HETATM    3  C   UNL     1      -8.038   6.543  65.544  1.00  0.00    -0.127 C  
HETATM    4  N   UNL     1      -6.815   7.348  65.686  1.00  0.00    -0.055 NA 
HETATM    5  C   UNL     1     -12.054   7.768  71.217  1.00  0.00    -0.306 C  
HETATM    6  C   UNL     1      -6.726   7.998  67.023  1.00  0.00    -0.065 C  
HETATM    7  C   UNL     1      -6.911   7.061  68.230  1.00  0.00    -0.074 C  
HETATM    8  N   UNL     1     -10.924   7.147  70.573  1.00  0.00    -0.253 NA 
HETATM    9  C   UNL     1     -11.165   6.176  69.475  1.00  0.00    -0.411 C  
HETATM   10  C   UNL     1      -7.459   7.777  69.455  1.00  0.00    -0.094 A  
HETATM   11  C   UNL     1      -6.878   8.441  70.507  1.00  0.00    -0.037 A  
HETATM   12  C   UNL     1     -10.673   6.727  68.141  1.00  0.00    -0.236 C  
HETATM   13  N   UNL     1      -9.257   7.015  68.198  1.00  0.00    -0.131 NA 
HETATM   14  C   UNL     1      -8.843   7.572  69.442  1.00  0.00    -0.136 A  
HETATM   15  C   UNL     1      -7.715   8.816  71.573  1.00  0.00    -0.139 A  
HETATM   16  C   UNL     1      -9.090   8.449  71.614  1.00  0.00    -0.268 A  
HETATM   17  C   UNL     1      -9.668   7.764  70.550  1.00  0.00    -0.175 A  
ENDROOT
BRANCH   4  18
HETATM   18  C   UNL     1      -6.854   8.371  64.618  1.00  0.00    -0.069 C  
BRANCH  18  19
HETATM   19  C   UNL     1      -8.264   8.780  64.213  1.00  0.00    -0.164 C  
BRANCH  19  20
HETATM   20  C   UNL     1      -8.550  10.226  64.590  1.00  0.00    -0.194 C  
BRANCH  20  21
HETATM   21  C   UNL     1      -9.634  10.821  63.722  1.00  0.00    -0.295 C  
HETATM   22  O   UNL     1      -9.754  10.540  62.532  1.00  0.00    -0.260 OA 
BRANCH  21  23
HETATM   23  C   UNL     1     -10.589  11.777  64.348  1.00  0.00    -0.368 A  
HETATM   24  C   UNL     1     -11.974  13.750  64.096  1.00  0.00    -0.473 A  
HETATM   25  C   UNL     1     -11.086  12.823  63.556  1.00  0.00    -0.377 A  
HETATM   26  C   UNL     1     -12.362  13.633  65.426  1.00  0.00    -0.476 A  
HETATM   27  F   UNL     1     -13.207  14.528  65.947  1.00  0.00    -0.351 F  
HETATM   28  C   UNL     1     -10.994  11.667  65.687  1.00  0.00    -0.322 A  
HETATM   29  C   UNL     1     -11.883  12.600  66.224  1.00  0.00    -0.471 A  
ENDBRANCH  21  23
ENDBRANCH  20  21
ENDBRANCH  19  20
ENDBRANCH  18  19
ENDBRANCH   4  18
TORSDOF 5
ENDMDL
MODEL      146
REMARK 921   NORMALIZED FREE ENERGY PREDICTED BY IDOCK:   -5.10 KCAL/MOL
REMARK 922        TOTAL FREE ENERGY PREDICTED BY IDOCK:   -7.35 KCAL/MOL
REMARK 923 INTER-LIGAND FREE ENERGY PREDICTED BY IDOCK:   -6.81 KCAL/MOL
REMARK 924 INTRA-LIGAND FREE ENERGY PREDICTED BY IDOCK:   -0.54 KCAL/MOL
REMARK 927      BINDING AFFINITY PREDICTED BY RF-SCORE:    0.00 PKD
ROOT
HETATM    1  C   UNL     1     -10.505  15.741  68.507  1.00  0.00    -0.236 C  
HETATM    2  C   UNL     1     -11.700  14.960  68.018  1.00  0.00    -0.344 C  
HETATM    3  C   UNL     1     -11.301  14.045  66.883  1.00  0.00    -0.329 C  
HETATM    4  N   UNL     1     -10.248  13.100  67.289  1.00  0.00    -0.241 NA 
HETATM    5  C   UNL     1      -8.543  20.535  67.178  1.00  0.00    -0.271 C  
HETATM    6  C   UNL     1      -9.036  13.797  67.798  1.00  0.00    -0.194 C  
HETATM    7  C   UNL     1      -9.286  14.846  68.897  1.00  0.00    -0.192 C  
HETATM    8  N   UNL     1      -9.091  19.361  67.807  1.00  0.00    -0.308 NA 
HETATM    9  C   UNL     1     -10.496  18.977  67.517  1.00  0.00    -0.454 C  
HETATM   10  C   UNL     1      -8.231  15.943  68.917  1.00  0.00    -0.213 A  
HETATM   11  C   UNL     1      -7.020  16.085  69.548  1.00  0.00    -0.191 A  
HETATM   12  C   UNL     1     -10.555  17.671  66.732  1.00  0.00    -0.224 C  
HETATM   13  N   UNL     1      -9.929  16.600  67.476  1.00  0.00    -0.258 NA 
HETATM   14  C   UNL     1      -8.757  17.006  68.175  1.00  0.00    -0.233 A  
HETATM   15  C   UNL     1      -6.401  17.346  69.478  1.00  0.00    -0.233 A  
HETATM   16  C   UNL     1      -7.035  18.460  68.859  1.00  0.00    -0.297 A  
HETATM   17  C   UNL     1      -8.268  18.311  68.233  1.00  0.00    -0.298 A  
ENDROOT
BRANCH   4  18
HETATM   18  C   UNL     1      -9.916  12.297  66.092  1.00  0.00    -0.243 C  
BRANCH  18  19
HETATM   19  C   UNL     1      -9.346  10.922  66.416  1.00  0.00    -0.199 C  
BRANCH  19  20
HETATM   20  C   UNL     1     -10.080  10.280  67.585  1.00  0.00    -0.229 C  
BRANCH  20  21
HETATM   21  C   UNL     1     -10.101   8.774  67.465  1.00  0.00    -0.222 C  
HETATM   22  O   UNL     1     -10.273   8.199  66.393  1.00  0.00    -0.239 OA 
BRANCH  21  23
HETATM   23  C   UNL     1      -9.899   7.969  68.702  1.00  0.00    -0.182 A  
HETATM   24  C   UNL     1      -8.344   6.870  70.201  1.00  0.00    -0.135 A  
HETATM   25  C   UNL     1      -8.586   7.628  69.058  1.00  0.00    -0.136 A  
HETATM   26  C   UNL     1      -9.413   6.451  70.984  1.00  0.00    -0.171 A  
HETATM   27  F   UNL     1      -9.181   5.715  72.075  1.00  0.00    -0.142 F  
HETATM   28  C   UNL     1     -10.969   7.546  69.506  1.00  0.00    -0.127 A  
HETATM   29  C   UNL     1     -10.721   6.784  70.649  1.00  0.00    -0.273 A  
ENDBRANCH  21  23
ENDBRANCH  20  21
ENDBRANCH  19  20
ENDBRANCH  18  19
ENDBRANCH   4  18
TORSDOF 5
ENDMDL
MODEL      147
REMARK 921   NORMALIZED FREE ENERGY PREDICTED BY IDOCK:   -5.09 KCAL/MOL
REMARK 922        TOTAL FREE ENERGY PREDICTED BY IDOCK:   -7.34 KCAL/MOL
REMARK 923 INTER-LIGAND FREE ENERGY PREDICTED BY IDOCK:   -6.35 KCAL/MOL
REMARK 924 INTRA-LIGAND FREE ENERGY PREDICTED BY IDOCK:   -1.00 KCAL/MOL
REMARK 927      BINDING AFFINITY PREDICTED BY RF-SCORE:    0.00 PKD
ROOT
HETATM    1  C   UNL     1      -8.574   9.612  69.870  1.00  0.00    -0.203 C  
HETATM    2  C   UNL     1      -7.516   8.547  69.724  1.00  0.00    -0.071 C  
HETATM    3  C   UNL     1      -7.654   7.849  68.391  1.00  0.00    -0.108 C  
HETATM    4  N   UNL     1      -7.539   8.792  67.266  1.00  0.00    -0.089 NA 
HETATM    5  C   UNL     1     -13.486   9.547  71.985  1.00  0.00    -0.443 C  
HETATM    6  C   UNL     1      -8.546   9.885  67.347  1.00  0.00    -0.125 C  
HETATM    7  C   UNL     1      -8.605  10.635  68.690  1.00  0.00    -0.144 C  
HETATM    8  N   UNL     1     -12.112   9.775  71.617  1.00  0.00    -0.398 NA 
HETATM    9  C   UNL     1     -11.094   8.750  71.958  1.00  0.00    -0.371 C  
HETATM   10  C   UNL     1      -9.977  11.230  68.975  1.00  0.00    -0.124 A  
HETATM   11  C   UNL     1     -10.571  12.431  68.680  1.00  0.00    -0.243 A  
HETATM   12  C   UNL     1     -10.541   8.088  70.700  1.00  0.00    -0.219 C  
HETATM   13  N   UNL     1      -9.931   9.072  69.833  1.00  0.00    -0.184 NA 
HETATM   14  C   UNL     1     -10.643  10.304  69.785  1.00  0.00    -0.271 A  
HETATM   15  C   UNL     1     -11.810  12.702  69.287  1.00  0.00    -0.358 A  
HETATM   16  C   UNL     1     -12.391  11.816  70.238  1.00  0.00    -0.320 A  
HETATM   17  C   UNL     1     -11.775  10.607  70.542  1.00  0.00    -0.356 A  
ENDROOT
BRANCH   4  18
HETATM   18  C   UNL     1      -7.733   8.003  66.030  1.00  0.00    -0.088 C  
BRANCH  18  19
HETATM   19  C   UNL     1      -9.015   7.180  66.023  1.00  0.00    -0.141 C  
BRANCH  19  20
HETATM   20  C   UNL     1      -8.754   5.754  65.560  1.00  0.00    -0.141 C  
BRANCH  20  21
HETATM   21  C   UNL     1      -9.832   4.810  66.039  1.00  0.00    -0.216 C  
HETATM   22  O   UNL     1     -10.806   4.516  65.350  1.00  0.00    -0.271 OA 
BRANCH  21  23
HETATM   23  C   UNL     1      -9.693   4.220  67.400  1.00  0.00    -0.210 A  
HETATM   24  C   UNL     1      -9.909   4.519  69.795  1.00  0.00    -0.295 A  
HETATM   25  C   UNL     1     -10.030   5.020  68.501  1.00  0.00    -0.207 A  
HETATM   26  C   UNL     1      -9.451   3.220  69.986  1.00  0.00    -0.161 A  
HETATM   27  F   UNL     1      -9.326   2.742  71.228  1.00  0.00    -0.152 F  
HETATM   28  C   UNL     1      -9.238   2.909  67.607  1.00  0.00    -0.243 A  
HETATM   29  C   UNL     1      -9.117   2.411  68.906  1.00  0.00    -0.194 A  
ENDBRANCH  21  23
ENDBRANCH  20  21
ENDBRANCH  19  20
ENDBRANCH  18  19
ENDBRANCH   4  18
TORSDOF 5
ENDMDL
MODEL      148
REMARK 921   NORMALIZED FREE ENERGY PREDICTED BY IDOCK:   -5.09 KCAL/MOL
REMARK 922        TOTAL FREE ENERGY PREDICTED BY IDOCK:   -7.34 KCAL/MOL
REMARK 923 INTER-LIGAND FREE ENERGY PREDICTED BY IDOCK:   -6.52 KCAL/MOL
REMARK 924 INTRA-LIGAND FREE ENERGY PREDICTED BY IDOCK:   -0.82 KCAL/MOL
REMARK 927      BINDING AFFINITY PREDICTED BY RF-SCORE:    0.00 PKD
ROOT
HETATM    1  C   UNL     1      -8.071   9.348  69.388  1.00  0.00    -0.105 C  
HETATM    2  C   UNL     1      -7.065  10.370  68.919  1.00  0.00    -0.074 C  
HETATM    3  C   UNL     1      -7.670  11.247  67.847  1.00  0.00    -0.110 C  
HETATM    4  N   UNL     1      -8.872  11.947  68.326  1.00  0.00    -0.173 NA 
HETATM    5  C   UNL     1      -9.110   4.338  67.832  1.00  0.00    -0.131 C  
HETATM    6  C   UNL     1      -9.910  11.002  68.820  1.00  0.00    -0.198 C  
HETATM    7  C   UNL     1      -9.428   9.966  69.853  1.00  0.00    -0.256 C  
HETATM    8  N   UNL     1      -8.779   5.562  68.515  1.00  0.00    -0.105 NA 
HETATM    9  C   UNL     1      -7.485   6.227  68.218  1.00  0.00    -0.090 C  
HETATM   10  C   UNL     1     -10.250   8.686  69.833  1.00  0.00    -0.206 A  
HETATM   11  C   UNL     1     -11.390   8.279  70.480  1.00  0.00    -0.225 A  
HETATM   12  C   UNL     1      -7.705   7.558  67.506  1.00  0.00    -0.118 C  
HETATM   13  N   UNL     1      -8.502   8.447  68.322  1.00  0.00    -0.134 NA 
HETATM   14  C   UNL     1      -9.551   7.785  69.022  1.00  0.00    -0.155 A  
HETATM   15  C   UNL     1     -11.755   6.927  70.351  1.00  0.00    -0.377 A  
HETATM   16  C   UNL     1     -10.937   5.990  69.658  1.00  0.00    -0.470 A  
HETATM   17  C   UNL     1      -9.776   6.409  69.016  1.00  0.00    -0.134 A  
ENDROOT
BRANCH   4  18
HETATM   18  C   UNL     1      -9.390  12.731  67.184  1.00  0.00    -0.216 C  
BRANCH  18  19
HETATM   19  C   UNL     1     -10.892  12.975  67.239  1.00  0.00    -0.270 C  
BRANCH  19  20
HETATM   20  C   UNL     1     -11.642  12.019  66.324  1.00  0.00    -0.378 C  
BRANCH  20  21
HETATM   21  C   UNL     1     -11.229  12.195  64.881  1.00  0.00    -0.323 C  
HETATM   22  O   UNL     1     -11.633  13.126  64.188  1.00  0.00    -0.369 OA 
BRANCH  21  23
HETATM   23  C   UNL     1     -10.292  11.198  64.293  1.00  0.00    -0.413 A  
HETATM   24  C   UNL     1      -9.013  10.476  62.365  1.00  0.00    -0.308 A  
HETATM   25  C   UNL     1      -9.881  11.385  62.965  1.00  0.00    -0.373 A  
HETATM   26  C   UNL     1      -8.559   9.381  63.091  1.00  0.00    -0.219 A  
HETATM   27  F   UNL     1      -7.733   8.504  62.512  1.00  0.00    -0.109 F  
HETATM   28  C   UNL     1      -9.820  10.092  65.017  1.00  0.00    -0.374 A  
HETATM   29  C   UNL     1      -8.952   9.182  64.410  1.00  0.00    -0.104 A  
ENDBRANCH  21  23
ENDBRANCH  20  21
ENDBRANCH  19  20
ENDBRANCH  18  19
ENDBRANCH   4  18
TORSDOF 5
ENDMDL
MODEL      149
REMARK 921   NORMALIZED FREE ENERGY PREDICTED BY IDOCK:   -5.07 KCAL/MOL
REMARK 922        TOTAL FREE ENERGY PREDICTED BY IDOCK:   -7.32 KCAL/MOL
REMARK 923 INTER-LIGAND FREE ENERGY PREDICTED BY IDOCK:   -6.24 KCAL/MOL
REMARK 924 INTRA-LIGAND FREE ENERGY PREDICTED BY IDOCK:   -1.08 KCAL/MOL
REMARK 927      BINDING AFFINITY PREDICTED BY RF-SCORE:    0.00 PKD
ROOT
HETATM    1  C   UNL     1     -10.997   9.951  67.403  1.00  0.00    -0.145 C  
HETATM    2  C   UNL     1     -10.382   8.614  67.068  1.00  0.00    -0.368 C  
HETATM    3  C   UNL     1      -8.978   8.531  67.623  1.00  0.00    -0.135 C  
HETATM    4  N   UNL     1      -8.955   8.713  69.083  1.00  0.00    -0.141 NA 
HETATM    5  C   UNL     1     -11.171  14.600  64.765  1.00  0.00    -0.389 C  
HETATM    6  C   UNL     1      -9.561  10.009  69.494  1.00  0.00    -0.230 C  
HETATM    7  C   UNL     1     -10.963  10.297  68.925  1.00  0.00    -0.279 C  
HETATM    8  N   UNL     1     -11.420  13.365  65.463  1.00  0.00    -0.301 NA 
HETATM    9  C   UNL     1     -11.140  12.079  64.775  1.00  0.00    -0.317 C  
HETATM   10  C   UNL     1     -11.255  11.785  68.800  1.00  0.00    -0.308 A  
HETATM   11  C   UNL     1     -11.792  12.722  69.647  1.00  0.00    -0.384 A  
HETATM   12  C   UNL     1      -9.974  11.349  65.434  1.00  0.00    -0.245 C  
HETATM   13  N   UNL     1     -10.264  11.073  66.824  1.00  0.00    -0.220 NA 
HETATM   14  C   UNL     1     -10.956  12.132  67.478  1.00  0.00    -0.257 A  
HETATM   15  C   UNL     1     -12.091  13.984  69.104  1.00  0.00    -0.375 A  
HETATM   16  C   UNL     1     -11.933  14.262  67.716  1.00  0.00    -0.384 A  
HETATM   17  C   UNL     1     -11.401  13.302  66.862  1.00  0.00    -0.318 A  
ENDROOT
BRANCH   4  18
HETATM   18  C   UNL     1      -7.536   8.654  69.495  1.00  0.00    -0.088 C  
BRANCH  18  19
HETATM   19  C   UNL     1      -7.193   7.431  70.337  1.00  0.00    -0.068 C  
BRANCH  19  20
HETATM   20  C   UNL     1      -8.448   6.680  70.758  1.00  0.00    -0.134 C  
BRANCH  20  21
HETATM   21  C   UNL     1      -8.338   5.205  70.453  1.00  0.00    -0.105 C  
HETATM   22  O   UNL     1      -7.956   4.385  71.285  1.00  0.00    -0.078 OA 
BRANCH  21  23
HETATM   23  C   UNL     1      -8.714   4.741  69.088  1.00  0.00    -0.109 A  
HETATM   24  C   UNL     1     -10.316   4.808  67.270  1.00  0.00    -0.109 A  
HETATM   25  C   UNL     1      -9.914   5.218  68.539  1.00  0.00    -0.227 A  
HETATM   26  C   UNL     1      -9.521   3.921  66.553  1.00  0.00    -0.195 A  
HETATM   27  F   UNL     1      -9.912   3.520  65.340  1.00  0.00    -0.161 F  
HETATM   28  C   UNL     1      -7.918   3.851  68.351  1.00  0.00    -0.075 A  
HETATM   29  C   UNL     1      -8.327   3.441  67.080  1.00  0.00    -0.093 A  
ENDBRANCH  21  23
ENDBRANCH  20  21
ENDBRANCH  19  20
ENDBRANCH  18  19
ENDBRANCH   4  18
TORSDOF 5
ENDMDL
MODEL      150
REMARK 921   NORMALIZED FREE ENERGY PREDICTED BY IDOCK:   -5.07 KCAL/MOL
REMARK 922        TOTAL FREE ENERGY PREDICTED BY IDOCK:   -7.32 KCAL/MOL
REMARK 923 INTER-LIGAND FREE ENERGY PREDICTED BY IDOCK:   -6.77 KCAL/MOL
REMARK 924 INTRA-LIGAND FREE ENERGY PREDICTED BY IDOCK:   -0.54 KCAL/MOL
REMARK 927      BINDING AFFINITY PREDICTED BY RF-SCORE:    0.00 PKD
ROOT
HETATM    1  C   UNL     1      -7.578   6.533  67.462  1.00  0.00    -0.105 C  
HETATM    2  C   UNL     1      -7.092   7.266  66.235  1.00  0.00    -0.077 C  
HETATM    3  C   UNL     1      -8.229   8.030  65.597  1.00  0.00    -0.135 C  
HETATM    4  N   UNL     1      -8.824   9.003  66.527  1.00  0.00    -0.130 NA 
HETATM    5  C   UNL     1      -9.471   1.585  68.193  1.00  0.00    -0.168 C  
HETATM    6  C   UNL     1      -9.317   8.355  67.774  1.00  0.00    -0.134 C  
HETATM    7  C   UNL     1      -8.302   7.451  68.498  1.00  0.00    -0.126 C  
HETATM    8  N   UNL     1      -8.755   2.835  68.192  1.00  0.00    -0.091 NA 
HETATM    9  C   UNL     1      -7.946   3.201  67.001  1.00  0.00    -0.079 C  
HETATM   10  C   UNL     1      -8.967   6.350  69.311  1.00  0.00    -0.133 A  
HETATM   11  C   UNL     1      -9.427   6.269  70.602  1.00  0.00    -0.182 A  
HETATM   12  C   UNL     1      -8.547   4.402  66.280  1.00  0.00    -0.112 C  
HETATM   13  N   UNL     1      -8.612   5.547  67.161  1.00  0.00    -0.110 NA 
HETATM   14  C   UNL     1      -8.974   5.212  68.498  1.00  0.00    -0.106 A  
HETATM   15  C   UNL     1      -9.815   5.000  71.068  1.00  0.00    -0.266 A  
HETATM   16  C   UNL     1      -9.656   3.828  70.276  1.00  0.00    -0.257 A  
HETATM   17  C   UNL     1      -9.176   3.918  68.974  1.00  0.00    -0.153 A  
ENDROOT
BRANCH   4  18
HETATM   18  C   UNL     1      -9.942   9.649  65.807  1.00  0.00    -0.272 C  
BRANCH  18  19
HETATM   19  C   UNL     1     -10.037  11.151  66.043  1.00  0.00    -0.292 C  
BRANCH  19  20
HETATM   20  C   UNL     1     -11.405  11.540  66.584  1.00  0.00    -0.285 C  
BRANCH  20  21
HETATM   21  C   UNL     1     -12.013  12.672  65.789  1.00  0.00    -0.446 C  
HETATM   22  O   UNL     1     -12.906  12.493  64.963  1.00  0.00    -0.742 OA 
BRANCH  21  23
HETATM   23  C   UNL     1     -11.504  14.051  66.029  1.00  0.00    -0.340 A  
HETATM   24  C   UNL     1     -10.679  16.124  65.082  1.00  0.00    -0.391 A  
HETATM   25  C   UNL     1     -11.168  14.831  64.912  1.00  0.00    -0.411 A  
HETATM   26  C   UNL     1     -10.524  16.634  66.366  1.00  0.00    -0.266 A  
HETATM   27  F   UNL     1     -10.047  17.871  66.529  1.00  0.00    -0.300 F  
HETATM   28  C   UNL     1     -11.350  14.581  67.318  1.00  0.00    -0.363 A  
HETATM   29  C   UNL     1     -10.857  15.877  67.484  1.00  0.00    -0.305 A  
ENDBRANCH  21  23
ENDBRANCH  20  21
ENDBRANCH  19  20
ENDBRANCH  18  19
ENDBRANCH   4  18
TORSDOF 5
ENDMDL
MODEL      151
REMARK 921   NORMALIZED FREE ENERGY PREDICTED BY IDOCK:   -5.05 KCAL/MOL
REMARK 922        TOTAL FREE ENERGY PREDICTED BY IDOCK:   -7.28 KCAL/MOL
REMARK 923 INTER-LIGAND FREE ENERGY PREDICTED BY IDOCK:   -6.69 KCAL/MOL
REMARK 924 INTRA-LIGAND FREE ENERGY PREDICTED BY IDOCK:   -0.60 KCAL/MOL
REMARK 927      BINDING AFFINITY PREDICTED BY RF-SCORE:    0.00 PKD
ROOT
HETATM    1  C   UNL     1      -8.641   8.638  66.500  1.00  0.00    -0.116 C  
HETATM    2  C   UNL     1      -8.913   8.791  65.024  1.00  0.00    -0.113 C  
HETATM    3  C   UNL     1      -9.889   9.920  64.785  1.00  0.00    -0.169 C  
HETATM    4  N   UNL     1      -9.386  11.199  65.311  1.00  0.00    -0.220 NA 
HETATM    5  C   UNL     1     -10.909   5.622  70.290  1.00  0.00    -0.266 C  
HETATM    6  C   UNL     1      -9.080  11.124  66.766  1.00  0.00    -0.166 C  
HETATM    7  C   UNL     1      -8.171   9.957  67.194  1.00  0.00    -0.121 C  
HETATM    8  N   UNL     1     -10.051   6.290  69.344  1.00  0.00    -0.168 NA 
HETATM    9  C   UNL     1     -10.186   5.973  67.899  1.00  0.00    -0.178 C  
HETATM   10  C   UNL     1      -8.407   9.522  68.633  1.00  0.00    -0.117 A  
HETATM   11  C   UNL     1      -7.883   9.910  69.840  1.00  0.00    -0.182 A  
HETATM   12  C   UNL     1     -10.723   7.171  67.125  1.00  0.00    -0.352 C  
HETATM   13  N   UNL     1      -9.840   8.308  67.266  1.00  0.00    -0.178 NA 
HETATM   14  C   UNL     1      -9.293   8.440  68.574  1.00  0.00    -0.139 A  
HETATM   15  C   UNL     1      -8.211   9.132  70.964  1.00  0.00    -0.186 A  
HETATM   16  C   UNL     1      -8.979   7.938  70.854  1.00  0.00    -0.147 A  
HETATM   17  C   UNL     1      -9.496   7.544  69.623  1.00  0.00    -0.156 A  
ENDROOT
BRANCH   4  18
HETATM   18  C   UNL     1     -10.439  12.205  65.057  1.00  0.00    -0.290 C  
BRANCH  18  19
HETATM   19  C   UNL     1     -10.076  13.606  65.534  1.00  0.00    -0.293 C  
BRANCH  19  20
HETATM   20  C   UNL     1     -11.296  14.515  65.557  1.00  0.00    -0.335 C  
BRANCH  20  21
HETATM   21  C   UNL     1     -11.147  15.614  66.583  1.00  0.00    -0.147 C  
HETATM   22  O   UNL     1     -10.834  16.764  66.279  1.00  0.00    -0.161 OA 
BRANCH  21  23
HETATM   23  C   UNL     1     -11.397  15.278  68.012  1.00  0.00    -0.345 A  
HETATM   24  C   UNL     1     -11.932  13.577  69.653  1.00  0.00    -0.397 A  
HETATM   25  C   UNL     1     -11.682  13.942  68.333  1.00  0.00    -0.391 A  
HETATM   26  C   UNL     1     -11.899  14.545  70.650  1.00  0.00    -0.303 A  
HETATM   27  F   UNL     1     -12.148  14.195  71.916  1.00  0.00    -0.362 F  
HETATM   28  C   UNL     1     -11.360  16.244  69.029  1.00  0.00    -0.301 A  
HETATM   29  C   UNL     1     -11.614  15.872  70.351  1.00  0.00    -0.387 A  
ENDBRANCH  21  23
ENDBRANCH  20  21
ENDBRANCH  19  20
ENDBRANCH  18  19
ENDBRANCH   4  18
TORSDOF 5
ENDMDL
MODEL      152
REMARK 921   NORMALIZED FREE ENERGY PREDICTED BY IDOCK:   -5.04 KCAL/MOL
REMARK 922        TOTAL FREE ENERGY PREDICTED BY IDOCK:   -7.28 KCAL/MOL
REMARK 923 INTER-LIGAND FREE ENERGY PREDICTED BY IDOCK:   -6.65 KCAL/MOL
REMARK 924 INTRA-LIGAND FREE ENERGY PREDICTED BY IDOCK:   -0.63 KCAL/MOL
REMARK 927      BINDING AFFINITY PREDICTED BY RF-SCORE:    0.00 PKD
ROOT
HETATM    1  C   UNL     1      -8.912   8.306  70.277  1.00  0.00    -0.142 C  
HETATM    2  C   UNL     1      -8.701   9.283  69.147  1.00  0.00    -0.139 C  
HETATM    3  C   UNL     1     -10.022   9.872  68.709  1.00  0.00    -0.173 C  
HETATM    4  N   UNL     1     -10.704  10.564  69.814  1.00  0.00    -0.269 NA 
HETATM    5  C   UNL     1      -9.715   3.020  70.372  1.00  0.00    -0.009 C  
HETATM    6  C   UNL     1     -10.937   9.666  70.978  1.00  0.00    -0.361 C  
HETATM    7  C   UNL     1      -9.700   8.904  71.487  1.00  0.00    -0.372 C  
HETATM    8  N   UNL     1      -9.262   4.380  70.513  1.00  0.00    -0.113 NA 
HETATM    9  C   UNL     1      -8.659   5.064  69.341  1.00  0.00    -0.088 C  
HETATM   10  C   UNL     1     -10.053   7.589  72.166  1.00  0.00    -0.235 A  
HETATM   11  C   UNL     1     -10.363   7.240  73.456  1.00  0.00    -0.412 A  
HETATM   12  C   UNL     1      -9.552   6.200  68.852  1.00  0.00    -0.129 C  
HETATM   13  N   UNL     1      -9.756   7.176  69.899  1.00  0.00    -0.170 NA 
HETATM   14  C   UNL     1      -9.915   6.595  71.190  1.00  0.00    -0.182 A  
HETATM   15  C   UNL     1     -10.446   5.867  73.749  1.00  0.00    -0.288 A  
HETATM   16  C   UNL     1     -10.137   4.871  72.779  1.00  0.00    -0.215 A  
HETATM   17  C   UNL     1      -9.811   5.235  71.477  1.00  0.00    -0.172 A  
ENDROOT
BRANCH   4  18
HETATM   18  C   UNL     1     -11.992  11.054  69.276  1.00  0.00    -0.339 C  
BRANCH  18  19
HETATM   19  C   UNL     1     -11.867  12.331  68.455  1.00  0.00    -0.359 C  
BRANCH  19  20
HETATM   20  C   UNL     1     -10.856  13.288  69.071  1.00  0.00    -0.212 C  
BRANCH  20  21
HETATM   21  C   UNL     1      -9.981  13.922  68.015  1.00  0.00    -0.241 C  
HETATM   22  O   UNL     1      -9.435  13.268  67.129  1.00  0.00    -0.223 OA 
BRANCH  21  23
HETATM   23  C   UNL     1      -9.784  15.398  68.061  1.00  0.00    -0.207 A  
HETATM   24  C   UNL     1     -10.635  17.558  68.759  1.00  0.00    -0.241 A  
HETATM   25  C   UNL     1     -10.766  16.172  68.697  1.00  0.00    -0.295 A  
HETATM   26  C   UNL     1      -9.525  18.167  68.185  1.00  0.00    -0.294 A  
HETATM   27  F   UNL     1      -9.404  19.497  68.237  1.00  0.00    -0.353 F  
HETATM   28  C   UNL     1      -8.666  16.025  67.492  1.00  0.00    -0.193 A  
HETATM   29  C   UNL     1      -8.540  17.415  67.555  1.00  0.00    -0.221 A  
ENDBRANCH  21  23
ENDBRANCH  20  21
ENDBRANCH  19  20
ENDBRANCH  18  19
ENDBRANCH   4  18
TORSDOF 5
ENDMDL
MODEL      153
REMARK 921   NORMALIZED FREE ENERGY PREDICTED BY IDOCK:   -5.02 KCAL/MOL
REMARK 922        TOTAL FREE ENERGY PREDICTED BY IDOCK:   -7.25 KCAL/MOL
REMARK 923 INTER-LIGAND FREE ENERGY PREDICTED BY IDOCK:   -6.96 KCAL/MOL
REMARK 924 INTRA-LIGAND FREE ENERGY PREDICTED BY IDOCK:   -0.28 KCAL/MOL
REMARK 927      BINDING AFFINITY PREDICTED BY RF-SCORE:    0.00 PKD
ROOT
HETATM    1  C   UNL     1     -11.711  12.553  66.852  1.00  0.00    -0.377 C  
HETATM    2  C   UNL     1     -12.333  13.803  67.425  1.00  0.00    -0.156 C  
HETATM    3  C   UNL     1     -11.383  14.971  67.287  1.00  0.00    -0.332 C  
HETATM    4  N   UNL     1     -11.024  15.219  65.882  1.00  0.00    -0.337 NA 
HETATM    5  C   UNL     1      -8.792   8.647  69.049  1.00  0.00    -0.138 C  
HETATM    6  C   UNL     1     -10.414  14.022  65.240  1.00  0.00    -0.382 C  
HETATM    7  C   UNL     1     -11.214  12.714  65.380  1.00  0.00    -0.334 C  
HETATM    8  N   UNL     1      -9.764   9.479  68.386  1.00  0.00    -0.152 NA 
HETATM    9  C   UNL     1     -10.622  10.375  69.202  1.00  0.00    -0.228 C  
HETATM   10  C   UNL     1     -10.334  11.474  65.329  1.00  0.00    -0.322 A  
HETATM   11  C   UNL     1      -9.879  10.674  64.310  1.00  0.00    -0.391 A  
HETATM   12  C   UNL     1     -10.290  11.840  68.938  1.00  0.00    -0.128 C  
HETATM   13  N   UNL     1     -10.484  12.163  67.542  1.00  0.00    -0.207 NA 
HETATM   14  C   UNL     1     -10.071  11.125  66.658  1.00  0.00    -0.217 A  
HETATM   15  C   UNL     1      -9.229   9.480  64.671  1.00  0.00    -0.247 A  
HETATM   16  C   UNL     1      -9.120   9.064  66.029  1.00  0.00    -0.257 A  
HETATM   17  C   UNL     1      -9.596   9.876  67.053  1.00  0.00    -0.175 A  
ENDROOT
BRANCH   4  18
HETATM   18  C   UNL     1     -10.066  16.346  65.882  1.00  0.00    -0.347 C  
BRANCH  18  19
HETATM   19  C   UNL     1      -8.688  15.980  66.417  1.00  0.00    -0.362 C  
BRANCH  19  20
HETATM   20  C   UNL     1      -7.811  17.213  66.574  1.00  0.00    -0.325 C  
BRANCH  20  21
HETATM   21  C   UNL     1      -7.635  17.585  68.028  1.00  0.00    -0.220 C  
HETATM   22  O   UNL     1      -7.981  18.676  68.477  1.00  0.00    -0.319 OA 
BRANCH  21  23
HETATM   23  C   UNL     1      -7.023  16.580  68.941  1.00  0.00    -0.191 A  
HETATM   24  C   UNL     1      -7.011  14.302  69.767  1.00  0.00    -0.011 A  
HETATM   25  C   UNL     1      -7.542  15.277  68.926  1.00  0.00    -0.152 A  
HETATM   26  C   UNL     1      -5.965  14.630  70.622  1.00  0.00    -0.164 A  
HETATM   27  F   UNL     1      -5.462  13.696  71.435  1.00  0.00    -0.147 F  
HETATM   28  C   UNL     1      -5.963  16.896  69.804  1.00  0.00    -0.232 A  
HETATM   29  C   UNL     1      -5.436  15.915  70.646  1.00  0.00    -0.115 A  
ENDBRANCH  21  23
ENDBRANCH  20  21
ENDBRANCH  19  20
ENDBRANCH  18  19
ENDBRANCH   4  18
TORSDOF 5
ENDMDL
MODEL      154
REMARK 921   NORMALIZED FREE ENERGY PREDICTED BY IDOCK:   -5.01 KCAL/MOL
REMARK 922        TOTAL FREE ENERGY PREDICTED BY IDOCK:   -7.24 KCAL/MOL
REMARK 923 INTER-LIGAND FREE ENERGY PREDICTED BY IDOCK:   -6.58 KCAL/MOL
REMARK 924 INTRA-LIGAND FREE ENERGY PREDICTED BY IDOCK:   -0.65 KCAL/MOL
REMARK 927      BINDING AFFINITY PREDICTED BY RF-SCORE:    0.00 PKD
ROOT
HETATM    1  C   UNL     1      -9.094   8.322  69.769  1.00  0.00    -0.147 C  
HETATM    2  C   UNL     1      -8.584   9.563  70.459  1.00  0.00    -0.231 C  
HETATM    3  C   UNL     1      -8.084  10.561  69.441  1.00  0.00    -0.128 C  
HETATM    4  N   UNL     1      -9.139  10.946  68.490  1.00  0.00    -0.167 NA 
HETATM    5  C   UNL     1      -6.741   3.703  68.452  1.00  0.00    -0.046 C  
HETATM    6  C   UNL     1      -9.705   9.768  67.776  1.00  0.00    -0.141 C  
HETATM    7  C   UNL     1     -10.171   8.608  68.674  1.00  0.00    -0.214 C  
HETATM    8  N   UNL     1      -7.558   4.775  68.963  1.00  0.00    -0.067 NA 
HETATM    9  C   UNL     1      -6.998   5.675  70.002  1.00  0.00    -0.065 C  
HETATM   10  C   UNL     1     -10.109   7.258  67.974  1.00  0.00    -0.207 A  
HETATM   11  C   UNL     1     -10.993   6.549  67.201  1.00  0.00    -0.480 A  
HETATM   12  C   UNL     1      -6.802   7.085  69.456  1.00  0.00    -0.051 C  
HETATM   13  N   UNL     1      -8.060   7.635  69.000  1.00  0.00    -0.124 NA 
HETATM   14  C   UNL     1      -8.889   6.681  68.343  1.00  0.00    -0.121 A  
HETATM   15  C   UNL     1     -10.649   5.223  66.881  1.00  0.00    -0.283 A  
HETATM   16  C   UNL     1      -9.480   4.603  67.407  1.00  0.00    -0.177 A  
HETATM   17  C   UNL     1      -8.596   5.326  68.201  1.00  0.00    -0.099 A  
ENDROOT
BRANCH   4  18
HETATM   18  C   UNL     1      -8.522  11.884  67.527  1.00  0.00    -0.161 C  
BRANCH  18  19
HETATM   19  C   UNL     1      -9.327  13.158  67.310  1.00  0.00    -0.225 C  
BRANCH  19  20
HETATM   20  C   UNL     1      -9.678  13.822  68.633  1.00  0.00    -0.140 C  
BRANCH  20  21
HETATM   21  C   UNL     1     -11.174  13.934  68.816  1.00  0.00    -0.272 C  
HETATM   22  O   UNL     1     -11.974  13.544  67.969  1.00  0.00    -0.355 OA 
BRANCH  21  23
HETATM   23  C   UNL     1     -11.683  14.540  70.078  1.00  0.00    -0.359 A  
HETATM   24  C   UNL     1     -11.892  16.517  71.464  1.00  0.00    -0.081 A  
HETATM   25  C   UNL     1     -11.445  15.905  70.295  1.00  0.00    -0.376 A  
HETATM   26  C   UNL     1     -12.574  15.765  72.414  1.00  0.00    -0.453 A  
HETATM   27  F   UNL     1     -12.995  16.351  73.539  1.00  0.00    -0.535 F  
HETATM   28  C   UNL     1     -12.378  13.794  71.042  1.00  0.00    -0.452 A  
HETATM   29  C   UNL     1     -12.823  14.412  72.213  1.00  0.00    -0.425 A  
ENDBRANCH  21  23
ENDBRANCH  20  21
ENDBRANCH  19  20
ENDBRANCH  18  19
ENDBRANCH   4  18
TORSDOF 5
ENDMDL
MODEL      155
REMARK 921   NORMALIZED FREE ENERGY PREDICTED BY IDOCK:   -5.00 KCAL/MOL
REMARK 922        TOTAL FREE ENERGY PREDICTED BY IDOCK:   -7.22 KCAL/MOL
REMARK 923 INTER-LIGAND FREE ENERGY PREDICTED BY IDOCK:   -5.88 KCAL/MOL
REMARK 924 INTRA-LIGAND FREE ENERGY PREDICTED BY IDOCK:   -1.34 KCAL/MOL
REMARK 927      BINDING AFFINITY PREDICTED BY RF-SCORE:    0.00 PKD
ROOT
HETATM    1  C   UNL     1      -7.086  12.507  67.059  1.00  0.00     0.039 C  
HETATM    2  C   UNL     1      -6.112  12.971  68.113  1.00  0.00    -0.099 C  
HETATM    3  C   UNL     1      -6.179  12.068  69.323  1.00  0.00    -0.096 C  
HETATM    4  N   UNL     1      -5.877  10.669  68.979  1.00  0.00    -0.040 NA 
HETATM    5  C   UNL     1     -12.167  13.814  66.020  1.00  0.00    -0.457 C  
HETATM    6  C   UNL     1      -6.791  10.141  67.930  1.00  0.00    -0.075 C  
HETATM    7  C   UNL     1      -6.916  11.006  66.662  1.00  0.00    -0.140 C  
HETATM    8  N   UNL     1     -10.749  13.556  66.023  1.00  0.00    -0.277 NA 
HETATM    9  C   UNL     1      -9.859  14.432  66.826  1.00  0.00    -0.264 C  
HETATM   10  C   UNL     1      -8.254  10.831  65.957  1.00  0.00    -0.164 A  
HETATM   11  C   UNL     1      -8.713   9.972  64.991  1.00  0.00    -0.192 A  
HETATM   12  C   UNL     1      -9.245  13.666  67.993  1.00  0.00    -0.197 C  
HETATM   13  N   UNL     1      -8.473  12.541  67.515  1.00  0.00    -0.166 NA 
HETATM   14  C   UNL     1      -9.071  11.874  66.407  1.00  0.00    -0.208 A  
HETATM   15  C   UNL     1      -9.978  10.242  64.439  1.00  0.00    -0.331 A  
HETATM   16  C   UNL     1     -10.721  11.404  64.793  1.00  0.00    -0.362 A  
HETATM   17  C   UNL     1     -10.241  12.277  65.764  1.00  0.00    -0.255 A  
ENDROOT
BRANCH   4  18
HETATM   18  C   UNL     1      -6.017   9.886  70.226  1.00  0.00    -0.064 C  
BRANCH  18  19
HETATM   19  C   UNL     1      -7.455   9.508  70.554  1.00  0.00    -0.159 C  
BRANCH  19  20
HETATM   20  C   UNL     1      -7.698   8.021  70.345  1.00  0.00    -0.085 C  
BRANCH  20  21
HETATM   21  C   UNL     1      -9.172   7.690  70.378  1.00  0.00    -0.156 C  
HETATM   22  O   UNL     1      -9.589   6.554  70.590  1.00  0.00    -0.171 OA 
BRANCH  21  23
HETATM   23  C   UNL     1     -10.143   8.795  70.146  1.00  0.00    -0.203 A  
HETATM   24  C   UNL     1     -11.263  10.239  68.553  1.00  0.00    -0.271 A  
HETATM   25  C   UNL     1     -10.371   9.204  68.824  1.00  0.00    -0.235 A  
HETATM   26  C   UNL     1     -11.924  10.865  69.604  1.00  0.00    -0.343 A  
HETATM   27  F   UNL     1     -12.773  11.864  69.345  1.00  0.00    -0.047 F  
HETATM   28  C   UNL     1     -10.822   9.432  71.196  1.00  0.00    -0.427 A  
HETATM   29  C   UNL     1     -11.714  10.470  70.920  1.00  0.00    -0.431 A  
ENDBRANCH  21  23
ENDBRANCH  20  21
ENDBRANCH  19  20
ENDBRANCH  18  19
ENDBRANCH   4  18
TORSDOF 5
ENDMDL
MODEL      156
REMARK 921   NORMALIZED FREE ENERGY PREDICTED BY IDOCK:   -4.97 KCAL/MOL
REMARK 922        TOTAL FREE ENERGY PREDICTED BY IDOCK:   -7.18 KCAL/MOL
REMARK 923 INTER-LIGAND FREE ENERGY PREDICTED BY IDOCK:   -6.42 KCAL/MOL
REMARK 924 INTRA-LIGAND FREE ENERGY PREDICTED BY IDOCK:   -0.76 KCAL/MOL
REMARK 927      BINDING AFFINITY PREDICTED BY RF-SCORE:    0.00 PKD
ROOT
HETATM    1  C   UNL     1     -11.372   9.545  69.467  1.00  0.00     0.010 C  
HETATM    2  C   UNL     1     -12.188  10.602  70.170  1.00  0.00    -0.398 C  
HETATM    3  C   UNL     1     -11.642  11.977  69.861  1.00  0.00    -0.238 C  
HETATM    4  N   UNL     1     -11.648  12.255  68.416  1.00  0.00    -0.304 NA 
HETATM    5  C   UNL     1      -7.119   6.676  70.979  1.00  0.00    -0.072 C  
HETATM    6  C   UNL     1     -10.871  11.243  67.649  1.00  0.00    -0.238 C  
HETATM    7  C   UNL     1     -11.237   9.774  67.928  1.00  0.00    -0.036 C  
HETATM    8  N   UNL     1      -8.392   7.184  70.536  1.00  0.00    -0.129 NA 
HETATM    9  C   UNL     1      -9.286   7.846  71.520  1.00  0.00    -0.136 C  
HETATM   10  C   UNL     1     -10.077   8.820  67.683  1.00  0.00    -0.273 A  
HETATM   11  C   UNL     1      -9.629   8.132  66.583  1.00  0.00    -0.295 A  
HETATM   12  C   UNL     1      -9.428   9.334  71.215  1.00  0.00    -0.175 C  
HETATM   13  N   UNL     1      -9.974   9.533  69.891  1.00  0.00    -0.214 NA 
HETATM   14  C   UNL     1      -9.473   8.611  68.928  1.00  0.00    -0.146 A  
HETATM   15  C   UNL     1      -8.618   7.177  66.790  1.00  0.00    -0.124 A  
HETATM   16  C   UNL     1      -8.135   6.863  68.092  1.00  0.00    -0.119 A  
HETATM   17  C   UNL     1      -8.605   7.556  69.203  1.00  0.00    -0.136 A  
ENDROOT
BRANCH   4  18
HETATM   18  C   UNL     1     -11.057  13.600  68.241  1.00  0.00    -0.256 C  
BRANCH  18  19
HETATM   19  C   UNL     1      -9.697  13.587  67.556  1.00  0.00    -0.228 C  
BRANCH  19  20
HETATM   20  C   UNL     1      -8.636  14.252  68.420  1.00  0.00    -0.175 C  
BRANCH  20  21
HETATM   21  C   UNL     1      -7.980  15.408  67.699  1.00  0.00    -0.155 C  
HETATM   22  O   UNL     1      -6.876  15.313  67.168  1.00  0.00    -0.254 OA 
BRANCH  21  23
HETATM   23  C   UNL     1      -8.714  16.702  67.636  1.00  0.00    -0.206 A  
HETATM   24  C   UNL     1     -10.018  18.255  66.308  1.00  0.00    -0.361 A  
HETATM   25  C   UNL     1      -9.327  17.052  66.423  1.00  0.00    -0.295 A  
HETATM   26  C   UNL     1     -10.093  19.109  67.403  1.00  0.00    -0.379 A  
HETATM   27  F   UNL     1     -10.748  20.268  67.290  1.00  0.00    -0.463 F  
HETATM   28  C   UNL     1      -8.805  17.570  68.735  1.00  0.00    -0.215 A  
HETATM   29  C   UNL     1      -9.496  18.777  68.614  1.00  0.00    -0.412 A  
ENDBRANCH  21  23
ENDBRANCH  20  21
ENDBRANCH  19  20
ENDBRANCH  18  19
ENDBRANCH   4  18
TORSDOF 5
ENDMDL
MODEL      157
REMARK 921   NORMALIZED FREE ENERGY PREDICTED BY IDOCK:   -4.97 KCAL/MOL
REMARK 922        TOTAL FREE ENERGY PREDICTED BY IDOCK:   -7.18 KCAL/MOL
REMARK 923 INTER-LIGAND FREE ENERGY PREDICTED BY IDOCK:   -6.60 KCAL/MOL
REMARK 924 INTRA-LIGAND FREE ENERGY PREDICTED BY IDOCK:   -0.58 KCAL/MOL
REMARK 927      BINDING AFFINITY PREDICTED BY RF-SCORE:    0.00 PKD
ROOT
HETATM    1  C   UNL     1      -8.745   8.666  68.708  1.00  0.00    -0.135 C  
HETATM    2  C   UNL     1      -8.409   9.985  69.357  1.00  0.00    -0.169 C  
HETATM    3  C   UNL     1      -9.168  11.108  68.688  1.00  0.00    -0.171 C  
HETATM    4  N   UNL     1     -10.624  10.901  68.758  1.00  0.00    -0.189 NA 
HETATM    5  C   UNL     1      -6.484   5.941  64.699  1.00  0.00    -0.037 C  
HETATM    6  C   UNL     1     -11.034   9.607  68.147  1.00  0.00    -0.132 C  
HETATM    7  C   UNL     1     -10.277   8.365  68.650  1.00  0.00    -0.220 C  
HETATM    8  N   UNL     1      -7.036   6.431  65.937  1.00  0.00    -0.060 NA 
HETATM    9  C   UNL     1      -6.302   7.482  66.687  1.00  0.00    -0.045 C  
HETATM   10  C   UNL     1     -10.223   7.247  67.619  1.00  0.00    -0.257 A  
HETATM   11  C   UNL     1     -11.046   6.190  67.320  1.00  0.00    -0.334 A  
HETATM   12  C   UNL     1      -7.077   8.795  66.688  1.00  0.00    -0.081 C  
HETATM   13  N   UNL     1      -8.378   8.620  67.295  1.00  0.00    -0.108 NA 
HETATM   14  C   UNL     1      -8.996   7.381  66.960  1.00  0.00    -0.130 A  
HETATM   15  C   UNL     1     -10.563   5.236  66.407  1.00  0.00    -0.338 A  
HETATM   16  C   UNL     1      -9.243   5.305  65.876  1.00  0.00    -0.166 A  
HETATM   17  C   UNL     1      -8.411   6.373  66.195  1.00  0.00    -0.140 A  
ENDROOT
BRANCH   4  18
HETATM   18  C   UNL     1     -11.248  12.032  68.039  1.00  0.00    -0.258 C  
BRANCH  18  19
HETATM   19  C   UNL     1     -11.037  11.990  66.531  1.00  0.00    -0.362 C  
BRANCH  19  20
HETATM   20  C   UNL     1     -12.251  12.529  65.788  1.00  0.00    -0.361 C  
BRANCH  20  21
HETATM   21  C   UNL     1     -11.947  13.846  65.113  1.00  0.00    -0.385 C  
HETATM   22  O   UNL     1     -12.262  14.078  63.948  1.00  0.00    -0.584 OA 
BRANCH  21  23
HETATM   23  C   UNL     1     -11.243  14.893  65.903  1.00  0.00    -0.328 A  
HETATM   24  C   UNL     1      -9.394  16.454  66.048  1.00  0.00    -0.335 A  
HETATM   25  C   UNL     1     -10.095  15.476  65.346  1.00  0.00    -0.387 A  
HETATM   26  C   UNL     1      -9.839  16.845  67.306  1.00  0.00    -0.265 A  
HETATM   27  F   UNL     1      -9.161  17.777  67.983  1.00  0.00    -0.249 F  
HETATM   28  C   UNL     1     -11.685  15.303  67.170  1.00  0.00    -0.061 A  
HETATM   29  C   UNL     1     -10.977  16.282  67.871  1.00  0.00    -0.310 A  
ENDBRANCH  21  23
ENDBRANCH  20  21
ENDBRANCH  19  20
ENDBRANCH  18  19
ENDBRANCH   4  18
TORSDOF 5
ENDMDL
MODEL      158
REMARK 921   NORMALIZED FREE ENERGY PREDICTED BY IDOCK:   -4.95 KCAL/MOL
REMARK 922        TOTAL FREE ENERGY PREDICTED BY IDOCK:   -7.16 KCAL/MOL
REMARK 923 INTER-LIGAND FREE ENERGY PREDICTED BY IDOCK:   -6.55 KCAL/MOL
REMARK 924 INTRA-LIGAND FREE ENERGY PREDICTED BY IDOCK:   -0.61 KCAL/MOL
REMARK 927      BINDING AFFINITY PREDICTED BY RF-SCORE:    0.00 PKD
ROOT
HETATM    1  C   UNL     1      -9.326   8.925  71.194  1.00  0.00    -0.257 C  
HETATM    2  C   UNL     1      -7.952   9.340  70.729  1.00  0.00    -0.187 C  
HETATM    3  C   UNL     1      -7.790   9.057  69.254  1.00  0.00    -0.095 C  
HETATM    4  N   UNL     1      -8.799   9.765  68.448  1.00  0.00    -0.119 NA 
HETATM    5  C   UNL     1     -11.204   4.371  73.278  1.00  0.00    -0.271 C  
HETATM    6  C   UNL     1     -10.187   9.417  68.858  1.00  0.00    -0.200 C  
HETATM    7  C   UNL     1     -10.489   9.553  70.362  1.00  0.00    -0.336 C  
HETATM    8  N   UNL     1     -10.794   5.718  72.970  1.00  0.00    -0.254 NA 
HETATM    9  C   UNL     1      -9.348   6.052  72.984  1.00  0.00    -0.139 C  
HETATM   10  C   UNL     1     -11.597   8.620  70.828  1.00  0.00    -0.273 A  
HETATM   11  C   UNL     1     -12.963   8.731  70.903  1.00  0.00     0.135 A  
HETATM   12  C   UNL     1      -8.848   6.375  71.580  1.00  0.00    -0.137 C  
HETATM   13  N   UNL     1      -9.574   7.496  71.024  1.00  0.00    -0.161 NA 
HETATM   14  C   UNL     1     -10.962   7.486  71.346  1.00  0.00    -0.231 A  
HETATM   15  C   UNL     1     -13.655   7.712  71.582  1.00  0.00    -0.431 A  
HETATM   16  C   UNL     1     -12.972   6.653  72.246  1.00  0.00     0.081 A  
HETATM   17  C   UNL     1     -11.587   6.557  72.176  1.00  0.00    -0.308 A  
ENDROOT
BRANCH   4  18
HETATM   18  C   UNL     1      -8.565   9.377  67.040  1.00  0.00    -0.128 C  
BRANCH  18  19
HETATM   19  C   UNL     1      -8.644  10.543  66.063  1.00  0.00    -0.166 C  
BRANCH  19  20
HETATM   20  C   UNL     1      -8.982  11.843  66.778  1.00  0.00    -0.196 C  
BRANCH  20  21
HETATM   21  C   UNL     1     -10.253  12.456  66.239  1.00  0.00    -0.238 C  
HETATM   22  O   UNL     1     -11.226  11.780  65.913  1.00  0.00    -0.324 OA 
BRANCH  21  23
HETATM   23  C   UNL     1     -10.316  13.939  66.109  1.00  0.00    -0.303 A  
HETATM   24  C   UNL     1     -11.151  15.854  64.881  1.00  0.00    -0.400 A  
HETATM   25  C   UNL     1     -11.067  14.474  65.053  1.00  0.00    -0.393 A  
HETATM   26  C   UNL     1     -10.483  16.696  65.763  1.00  0.00    -0.311 A  
HETATM   27  F   UNL     1     -10.556  18.019  65.593  1.00  0.00    -0.402 F  
HETATM   28  C   UNL     1      -9.653  14.800  66.997  1.00  0.00    -0.248 A  
HETATM   29  C   UNL     1      -9.738  16.182  66.819  1.00  0.00    -0.255 A  
ENDBRANCH  21  23
ENDBRANCH  20  21
ENDBRANCH  19  20
ENDBRANCH  18  19
ENDBRANCH   4  18
TORSDOF 5
ENDMDL
MODEL      159
REMARK 921   NORMALIZED FREE ENERGY PREDICTED BY IDOCK:   -4.92 KCAL/MOL
REMARK 922        TOTAL FREE ENERGY PREDICTED BY IDOCK:   -7.12 KCAL/MOL
REMARK 923 INTER-LIGAND FREE ENERGY PREDICTED BY IDOCK:   -6.42 KCAL/MOL
REMARK 924 INTRA-LIGAND FREE ENERGY PREDICTED BY IDOCK:   -0.69 KCAL/MOL
REMARK 927      BINDING AFFINITY PREDICTED BY RF-SCORE:    0.00 PKD
ROOT
HETATM    1  C   UNL     1     -10.699  11.837  67.844  1.00  0.00    -0.204 C  
HETATM    2  C   UNL     1     -11.385  10.510  68.054  1.00  0.00    -0.319 C  
HETATM    3  C   UNL     1     -10.642   9.415  67.322  1.00  0.00    -0.244 C  
HETATM    4  N   UNL     1      -9.246   9.306  67.774  1.00  0.00    -0.129 NA 
HETATM    5  C   UNL     1     -11.377  15.712  64.221  1.00  0.00    -0.171 C  
HETATM    6  C   UNL     1      -8.504  10.586  67.611  1.00  0.00    -0.115 C  
HETATM    7  C   UNL     1      -9.182  11.828  68.217  1.00  0.00    -0.188 C  
HETATM    8  N   UNL     1     -11.256  14.882  65.392  1.00  0.00    -0.349 NA 
HETATM    9  C   UNL     1     -12.309  13.872  65.672  1.00  0.00    -0.482 C  
HETATM   10  C   UNL     1      -8.794  13.118  67.508  1.00  0.00    -0.199 A  
HETATM   11  C   UNL     1      -7.778  14.025  67.676  1.00  0.00    -0.188 A  
HETATM   12  C   UNL     1     -11.761  12.457  65.527  1.00  0.00    -0.407 C  
HETATM   13  N   UNL     1     -10.661  12.240  66.441  1.00  0.00    -0.237 NA 
HETATM   14  C   UNL     1      -9.803  13.370  66.573  1.00  0.00    -0.286 A  
HETATM   15  C   UNL     1      -7.854  15.221  66.940  1.00  0.00    -0.152 A  
HETATM   16  C   UNL     1      -8.977  15.528  66.120  1.00  0.00    -0.329 A  
HETATM   17  C   UNL     1     -10.009  14.608  65.966  1.00  0.00    -0.316 A  
ENDROOT
BRANCH   4  18
HETATM   18  C   UNL     1      -8.620   8.240  66.962  1.00  0.00    -0.123 C  
BRANCH  18  19
HETATM   19  C   UNL     1      -8.627   6.873  67.633  1.00  0.00    -0.121 C  
BRANCH  19  20
HETATM   20  C   UNL     1      -8.751   7.001  69.145  1.00  0.00    -0.132 C  
BRANCH  20  21
HETATM   21  C   UNL     1      -9.986   6.297  69.660  1.00  0.00    -0.165 C  
HETATM   22  O   UNL     1     -11.093   6.447  69.147  1.00  0.00    -0.322 OA 
BRANCH  21  23
HETATM   23  C   UNL     1      -9.839   5.389  70.831  1.00  0.00    -0.249 A  
HETATM   24  C   UNL     1     -10.739   4.602  72.939  1.00  0.00    -0.295 A  
HETATM   25  C   UNL     1     -10.834   5.425  71.819  1.00  0.00    -0.242 A  
HETATM   26  C   UNL     1      -9.650   3.748  73.071  1.00  0.00    -0.120 A  
HETATM   27  F   UNL     1      -9.554   2.965  74.150  1.00  0.00    -0.095 F  
HETATM   28  C   UNL     1      -8.749   4.518  70.974  1.00  0.00    -0.142 A  
HETATM   29  C   UNL     1      -8.657   3.696  72.100  1.00  0.00    -0.101 A  
ENDBRANCH  21  23
ENDBRANCH  20  21
ENDBRANCH  19  20
ENDBRANCH  18  19
ENDBRANCH   4  18
TORSDOF 5
ENDMDL
MODEL      160
REMARK 921   NORMALIZED FREE ENERGY PREDICTED BY IDOCK:   -4.91 KCAL/MOL
REMARK 922        TOTAL FREE ENERGY PREDICTED BY IDOCK:   -7.11 KCAL/MOL
REMARK 923 INTER-LIGAND FREE ENERGY PREDICTED BY IDOCK:   -6.55 KCAL/MOL
REMARK 924 INTRA-LIGAND FREE ENERGY PREDICTED BY IDOCK:   -0.56 KCAL/MOL
REMARK 927      BINDING AFFINITY PREDICTED BY RF-SCORE:    0.00 PKD
ROOT
HETATM    1  C   UNL     1      -8.542   9.183  69.456  1.00  0.00    -0.138 C  
HETATM    2  C   UNL     1      -7.566   9.861  68.526  1.00  0.00    -0.080 C  
HETATM    3  C   UNL     1      -8.259  10.268  67.246  1.00  0.00    -0.121 C  
HETATM    4  N   UNL     1      -9.386  11.180  67.501  1.00  0.00    -0.166 NA 
HETATM    5  C   UNL     1      -9.864   4.051  70.175  1.00  0.00    -0.137 C  
HETATM    6  C   UNL     1     -10.389  10.585  68.426  1.00  0.00    -0.176 C  
HETATM    7  C   UNL     1      -9.826  10.025  69.744  1.00  0.00    -0.270 C  
HETATM    8  N   UNL     1      -9.433   5.423  70.268  1.00  0.00    -0.156 NA 
HETATM    9  C   UNL     1      -8.161   5.824  69.614  1.00  0.00    -0.108 C  
HETATM   10  C   UNL     1     -10.677   8.902  70.320  1.00  0.00    -0.248 A  
HETATM   11  C   UNL     1     -11.751   8.867  71.173  1.00  0.00    -0.356 A  
HETATM   12  C   UNL     1      -8.422   6.767  68.444  1.00  0.00    -0.122 C  
HETATM   13  N   UNL     1      -9.106   7.960  68.892  1.00  0.00    -0.141 NA 
HETATM   14  C   UNL     1     -10.091   7.707  69.889  1.00  0.00    -0.198 A  
HETATM   15  C   UNL     1     -12.161   7.605  71.640  1.00  0.00    -0.346 A  
HETATM   16  C   UNL     1     -11.445   6.416  71.320  1.00  0.00    -0.371 A  
HETATM   17  C   UNL     1     -10.349   6.463  70.465  1.00  0.00    -0.202 A  
ENDROOT
BRANCH   4  18
HETATM   18  C   UNL     1     -10.003  11.469  66.188  1.00  0.00    -0.224 C  
BRANCH  18  19
HETATM   19  C   UNL     1     -10.404  12.927  66.006  1.00  0.00    -0.294 C  
BRANCH  19  20
HETATM   20  C   UNL     1      -9.365  13.864  66.605  1.00  0.00    -0.282 C  
BRANCH  20  21
HETATM   21  C   UNL     1      -9.530  15.275  66.090  1.00  0.00    -0.326 C  
HETATM   22  O   UNL     1     -10.236  15.545  65.121  1.00  0.00    -0.359 OA 
BRANCH  21  23
HETATM   23  C   UNL     1      -8.808  16.369  66.797  1.00  0.00    -0.255 A  
HETATM   24  C   UNL     1      -8.363  17.516  68.886  1.00  0.00    -0.147 A  
HETATM   25  C   UNL     1      -9.008  16.503  68.179  1.00  0.00    -0.207 A  
HETATM   26  C   UNL     1      -7.523  18.394  68.211  1.00  0.00    -0.280 A  
HETATM   27  F   UNL     1      -6.911  19.370  68.887  1.00  0.00    -0.317 F  
HETATM   28  C   UNL     1      -7.951  17.258  66.130  1.00  0.00    -0.292 A  
HETATM   29  C   UNL     1      -7.309  18.273  66.842  1.00  0.00    -0.229 A  
ENDBRANCH  21  23
ENDBRANCH  20  21
ENDBRANCH  19  20
ENDBRANCH  18  19
ENDBRANCH   4  18
TORSDOF 5
ENDMDL
MODEL      161
REMARK 921   NORMALIZED FREE ENERGY PREDICTED BY IDOCK:   -4.87 KCAL/MOL
REMARK 922        TOTAL FREE ENERGY PREDICTED BY IDOCK:   -7.06 KCAL/MOL
REMARK 923 INTER-LIGAND FREE ENERGY PREDICTED BY IDOCK:   -6.49 KCAL/MOL
REMARK 924 INTRA-LIGAND FREE ENERGY PREDICTED BY IDOCK:   -0.57 KCAL/MOL
REMARK 927      BINDING AFFINITY PREDICTED BY RF-SCORE:    0.00 PKD
ROOT
HETATM    1  C   UNL     1     -11.526  11.097  68.195  1.00  0.00    -0.303 C  
HETATM    2  C   UNL     1     -10.778  10.182  67.256  1.00  0.00    -0.316 C  
HETATM    3  C   UNL     1      -9.473   9.744  67.880  1.00  0.00    -0.130 C  
HETATM    4  N   UNL     1      -9.686   9.044  69.157  1.00  0.00    -0.164 NA 
HETATM    5  C   UNL     1     -11.606  16.416  68.742  1.00  0.00    -0.144 C  
HETATM    6  C   UNL     1     -10.433   9.881  70.136  1.00  0.00    -0.285 C  
HETATM    7  C   UNL     1     -11.747  10.494  69.618  1.00  0.00    -0.328 C  
HETATM    8  N   UNL     1     -11.875  15.014  68.546  1.00  0.00    -0.319 NA 
HETATM    9  C   UNL     1     -11.407  14.358  67.299  1.00  0.00    -0.342 C  
HETATM   10  C   UNL     1     -12.116  11.787  70.330  1.00  0.00    -0.426 A  
HETATM   11  C   UNL     1     -12.837  12.076  71.461  1.00  0.00    -0.403 A  
HETATM   12  C   UNL     1     -10.310  13.342  67.594  1.00  0.00    -0.230 C  
HETATM   13  N   UNL     1     -10.790  12.321  68.499  1.00  0.00    -0.228 NA 
HETATM   14  C   UNL     1     -11.643  12.827  69.522  1.00  0.00    -0.276 A  
HETATM   15  C   UNL     1     -13.134  13.429  71.707  1.00  0.00    -0.479 A  
HETATM   16  C   UNL     1     -12.785  14.455  70.783  1.00  0.00    -0.427 A  
HETATM   17  C   UNL     1     -12.066  14.151  69.632  1.00  0.00    -0.349 A  
ENDROOT
BRANCH   4  18
HETATM   18  C   UNL     1      -8.346   8.708  69.684  1.00  0.00    -0.123 C  
BRANCH  18  19
HETATM   19  C   UNL     1      -8.380   7.842  70.937  1.00  0.00    -0.115 C  
BRANCH  19  20
HETATM   20  C   UNL     1      -7.174   6.917  71.003  1.00  0.00    -0.076 C  
BRANCH  20  21
HETATM   21  C   UNL     1      -7.496   5.548  70.449  1.00  0.00    -0.079 C  
HETATM   22  O   UNL     1      -7.190   5.209  69.308  1.00  0.00    -0.055 OA 
BRANCH  21  23
HETATM   23  C   UNL     1      -8.209   4.584  71.332  1.00  0.00    -0.100 A  
HETATM   24  C   UNL     1      -8.623   3.787  73.584  1.00  0.00    -0.090 A  
HETATM   25  C   UNL     1      -7.987   4.671  72.715  1.00  0.00    -0.096 A  
HETATM   26  C   UNL     1      -9.476   2.817  73.071  1.00  0.00    -0.091 A  
HETATM   27  F   UNL     1     -10.078   1.963  73.904  1.00  0.00    -0.103 F  
HETATM   28  C   UNL     1      -9.078   3.604  70.829  1.00  0.00    -0.182 A  
HETATM   29  C   UNL     1      -9.711   2.719  71.704  1.00  0.00    -0.226 A  
ENDBRANCH  21  23
ENDBRANCH  20  21
ENDBRANCH  19  20
ENDBRANCH  18  19
ENDBRANCH   4  18
TORSDOF 5
ENDMDL
MODEL      162
REMARK 921   NORMALIZED FREE ENERGY PREDICTED BY IDOCK:   -4.87 KCAL/MOL
REMARK 922        TOTAL FREE ENERGY PREDICTED BY IDOCK:   -7.05 KCAL/MOL
REMARK 923 INTER-LIGAND FREE ENERGY PREDICTED BY IDOCK:   -6.50 KCAL/MOL
REMARK 924 INTRA-LIGAND FREE ENERGY PREDICTED BY IDOCK:   -0.55 KCAL/MOL
REMARK 927      BINDING AFFINITY PREDICTED BY RF-SCORE:    0.00 PKD
ROOT
HETATM    1  C   UNL     1     -10.072   9.364  66.691  1.00  0.00    -0.262 C  
HETATM    2  C   UNL     1     -10.412   9.715  68.119  1.00  0.00    -0.266 C  
HETATM    3  C   UNL     1      -9.405  10.697  68.671  1.00  0.00    -0.177 C  
HETATM    4  N   UNL     1      -9.356  11.935  67.876  1.00  0.00    -0.181 NA 
HETATM    5  C   UNL     1      -7.144   5.437  64.545  1.00  0.00    -0.050 C  
HETATM    6  C   UNL     1      -9.038  11.668  66.446  1.00  0.00    -0.206 C  
HETATM    7  C   UNL     1      -9.914  10.607  65.758  1.00  0.00    -0.315 C  
HETATM    8  N   UNL     1      -8.151   6.381  64.959  1.00  0.00    -0.134 NA 
HETATM    9  C   UNL     1      -8.701   6.291  66.335  1.00  0.00    -0.137 C  
HETATM   10  C   UNL     1      -9.202   9.906  64.610  1.00  0.00    -0.313 A  
HETATM   11  C   UNL     1      -9.079  10.167  63.268  1.00  0.00    -0.293 A  
HETATM   12  C   UNL     1      -8.289   7.501  67.168  1.00  0.00    -0.121 C  
HETATM   13  N   UNL     1      -8.766   8.724  66.561  1.00  0.00    -0.116 NA 
HETATM   14  C   UNL     1      -8.677   8.722  65.139  1.00  0.00    -0.167 A  
HETATM   15  C   UNL     1      -8.490   9.170  62.470  1.00  0.00    -0.209 A  
HETATM   16  C   UNL     1      -8.115   7.904  63.004  1.00  0.00    -0.108 A  
HETATM   17  C   UNL     1      -8.255   7.644  64.363  1.00  0.00    -0.028 A  
ENDROOT
BRANCH   4  18
HETATM   18  C   UNL     1      -8.313  12.789  68.485  1.00  0.00    -0.054 C  
BRANCH  18  19
HETATM   19  C   UNL     1      -8.162  14.146  67.811  1.00  0.00    -0.172 C  
BRANCH  19  20
HETATM   20  C   UNL     1      -7.856  15.237  68.827  1.00  0.00    -0.154 C  
BRANCH  20  21
HETATM   21  C   UNL     1      -9.076  16.079  69.119  1.00  0.00    -0.246 C  
HETATM   22  O   UNL     1      -9.960  15.714  69.892  1.00  0.00    -0.283 OA 
BRANCH  21  23
HETATM   23  C   UNL     1      -9.196  17.399  68.442  1.00  0.00    -0.277 A  
HETATM   24  C   UNL     1     -10.649  19.086  67.483  1.00  0.00    -0.546 A  
HETATM   25  C   UNL     1     -10.482  17.862  68.126  1.00  0.00    -0.380 A  
HETATM   26  C   UNL     1      -9.532  19.845  67.156  1.00  0.00    -0.373 A  
HETATM   27  F   UNL     1      -9.691  21.016  66.531  1.00  0.00    -0.325 F  
HETATM   28  C   UNL     1      -8.078  18.179  68.112  1.00  0.00    -0.289 A  
HETATM   29  C   UNL     1      -8.250  19.405  67.466  1.00  0.00    -0.321 A  
ENDBRANCH  21  23
ENDBRANCH  20  21
ENDBRANCH  19  20
ENDBRANCH  18  19
ENDBRANCH   4  18
TORSDOF 5
ENDMDL
MODEL      163
REMARK 921   NORMALIZED FREE ENERGY PREDICTED BY IDOCK:   -4.86 KCAL/MOL
REMARK 922        TOTAL FREE ENERGY PREDICTED BY IDOCK:   -7.05 KCAL/MOL
REMARK 923 INTER-LIGAND FREE ENERGY PREDICTED BY IDOCK:   -6.44 KCAL/MOL
REMARK 924 INTRA-LIGAND FREE ENERGY PREDICTED BY IDOCK:   -0.60 KCAL/MOL
REMARK 927      BINDING AFFINITY PREDICTED BY RF-SCORE:    0.00 PKD
ROOT
HETATM    1  C   UNL     1      -9.039   6.388  67.384  1.00  0.00    -0.111 C  
HETATM    2  C   UNL     1     -10.235   7.307  67.363  1.00  0.00    -0.304 C  
HETATM    3  C   UNL     1     -11.180   6.963  68.492  1.00  0.00     0.010 C  
HETATM    4  N   UNL     1     -10.523   7.067  69.805  1.00  0.00    -0.212 NA 
HETATM    5  C   UNL     1      -8.027   1.732  64.956  1.00  0.00    -0.073 C  
HETATM    6  C   UNL     1      -9.320   6.196  69.899  1.00  0.00    -0.149 C  
HETATM    7  C   UNL     1      -8.297   6.351  68.758  1.00  0.00    -0.121 C  
HETATM    8  N   UNL     1      -8.058   3.079  65.466  1.00  0.00    -0.086 NA 
HETATM    9  C   UNL     1      -9.107   4.010  64.978  1.00  0.00    -0.140 C  
HETATM   10  C   UNL     1      -7.487   5.086  68.515  1.00  0.00    -0.074 A  
HETATM   11  C   UNL     1      -6.312   4.598  69.029  1.00  0.00    -0.032 A  
HETATM   12  C   UNL     1     -10.087   4.362  66.091  1.00  0.00    -0.234 C  
HETATM   13  N   UNL     1      -9.398   4.985  67.200  1.00  0.00    -0.120 NA 
HETATM   14  C   UNL     1      -8.125   4.407  67.472  1.00  0.00    -0.099 A  
HETATM   15  C   UNL     1      -5.762   3.461  68.410  1.00  0.00    -0.022 A  
HETATM   16  C   UNL     1      -6.342   2.886  67.244  1.00  0.00    -0.035 A  
HETATM   17  C   UNL     1      -7.526   3.396  66.722  1.00  0.00    -0.076 A  
ENDROOT
BRANCH   4  18
HETATM   18  C   UNL     1     -11.528   6.668  70.814  1.00  0.00    -0.353 C  
BRANCH  18  19
HETATM   19  C   UNL     1     -12.245   7.845  71.464  1.00  0.00    -0.338 C  
BRANCH  19  20
HETATM   20  C   UNL     1     -11.535   9.157  71.166  1.00  0.00    -0.388 C  
BRANCH  20  21
HETATM   21  C   UNL     1     -12.499  10.321  71.169  1.00  0.00    -0.391 C  
HETATM   22  O   UNL     1     -13.473  10.369  71.917  1.00  0.00    -0.372 OA 
BRANCH  21  23
HETATM   23  C   UNL     1     -12.243  11.447  70.228  1.00  0.00    -0.433 A  
HETATM   24  C   UNL     1     -12.147  13.843  69.877  1.00  0.00    -0.406 A  
HETATM   25  C   UNL     1     -12.366  12.755  70.719  1.00  0.00    -0.375 A  
HETATM   26  C   UNL     1     -11.808  13.622  68.547  1.00  0.00    -0.371 A  
HETATM   27  F   UNL     1     -11.606  14.666  67.738  1.00  0.00    -0.307 F  
HETATM   28  C   UNL     1     -11.894  11.238  68.885  1.00  0.00    -0.413 A  
HETATM   29  C   UNL     1     -11.677  12.332  68.045  1.00  0.00    -0.417 A  
ENDBRANCH  21  23
ENDBRANCH  20  21
ENDBRANCH  19  20
ENDBRANCH  18  19
ENDBRANCH   4  18
TORSDOF 5
ENDMDL
MODEL      164
REMARK 921   NORMALIZED FREE ENERGY PREDICTED BY IDOCK:   -4.83 KCAL/MOL
REMARK 922        TOTAL FREE ENERGY PREDICTED BY IDOCK:   -7.01 KCAL/MOL
REMARK 923 INTER-LIGAND FREE ENERGY PREDICTED BY IDOCK:   -7.48 KCAL/MOL
REMARK 924 INTRA-LIGAND FREE ENERGY PREDICTED BY IDOCK:    0.47 KCAL/MOL
REMARK 927      BINDING AFFINITY PREDICTED BY RF-SCORE:    0.00 PKD
ROOT
HETATM    1  C   UNL     1      -9.085   8.299  70.505  1.00  0.00    -0.147 C  
HETATM    2  C   UNL     1      -8.972   9.309  69.390  1.00  0.00    -0.147 C  
HETATM    3  C   UNL     1     -10.337   9.851  69.033  1.00  0.00    -0.209 C  
HETATM    4  N   UNL     1     -10.991  10.487  70.187  1.00  0.00    -0.290 NA 
HETATM    5  C   UNL     1      -9.661   2.982  70.506  1.00  0.00    -0.117 C  
HETATM    6  C   UNL     1     -11.127   9.553  71.339  1.00  0.00    -0.368 C  
HETATM    7  C   UNL     1      -9.835   8.834  71.766  1.00  0.00    -0.391 C  
HETATM    8  N   UNL     1      -9.258   4.357  70.658  1.00  0.00    -0.120 NA 
HETATM    9  C   UNL     1      -8.745   5.093  69.475  1.00  0.00    -0.099 C  
HETATM   10  C   UNL     1     -10.099   7.490  72.428  1.00  0.00    -0.252 A  
HETATM   11  C   UNL     1     -10.328   7.098  73.724  1.00  0.00    -0.390 A  
HETATM   12  C   UNL     1      -9.707   6.200  69.060  1.00  0.00    -0.135 C  
HETATM   13  N   UNL     1      -9.899   7.142  70.141  1.00  0.00    -0.179 NA 
HETATM   14  C   UNL     1      -9.968   6.526  71.423  1.00  0.00    -0.183 A  
HETATM   15  C   UNL     1     -10.339   5.716  73.986  1.00  0.00    -0.298 A  
HETATM   16  C   UNL     1     -10.037   4.758  72.977  1.00  0.00    -0.201 A  
HETATM   17  C   UNL     1      -9.793   5.165  71.670  1.00  0.00    -0.173 A  
ENDROOT
BRANCH   4  18
HETATM   18  C   UNL     1     -12.324  10.934  69.726  1.00  0.00    -0.256 C  
BRANCH  18  19
HETATM   19  C   UNL     1     -12.273  12.073  68.716  1.00  0.00     0.012 C  
BRANCH  19  20
HETATM   20  C   UNL     1     -11.413  13.223  69.222  1.00  0.00    -0.345 C  
BRANCH  20  21
HETATM   21  C   UNL     1     -10.536  13.781  68.126  1.00  0.00    -0.249 C  
HETATM   22  O   UNL     1      -9.544  14.469  68.361  1.00  0.00    -0.201 OA 
BRANCH  21  23
HETATM   23  C   UNL     1     -10.896  13.475  66.714  1.00  0.00    -0.284 A  
HETATM   24  C   UNL     1     -12.635  12.939  65.113  1.00  0.00    -0.536 A  
HETATM   25  C   UNL     1     -12.247  13.238  66.417  1.00  0.00    -0.419 A  
HETATM   26  C   UNL     1     -11.676  12.873  64.110  1.00  0.00    -0.406 A  
HETATM   27  F   UNL     1     -12.048  12.577  62.861  1.00  0.00    -0.456 F  
HETATM   28  C   UNL     1      -9.939  13.413  65.690  1.00  0.00    -0.249 A  
HETATM   29  C   UNL     1     -10.333  13.110  64.385  1.00  0.00    -0.390 A  
ENDBRANCH  21  23
ENDBRANCH  20  21
ENDBRANCH  19  20
ENDBRANCH  18  19
ENDBRANCH   4  18
TORSDOF 5
ENDMDL
MODEL      165
REMARK 921   NORMALIZED FREE ENERGY PREDICTED BY IDOCK:   -4.83 KCAL/MOL
REMARK 922        TOTAL FREE ENERGY PREDICTED BY IDOCK:   -7.01 KCAL/MOL
REMARK 923 INTER-LIGAND FREE ENERGY PREDICTED BY IDOCK:   -6.24 KCAL/MOL
REMARK 924 INTRA-LIGAND FREE ENERGY PREDICTED BY IDOCK:   -0.77 KCAL/MOL
REMARK 927      BINDING AFFINITY PREDICTED BY RF-SCORE:    0.00 PKD
ROOT
HETATM    1  C   UNL     1     -10.144   5.975  68.977  1.00  0.00    -0.176 C  
HETATM    2  C   UNL     1     -11.019   6.583  67.908  1.00  0.00    -0.382 C  
HETATM    3  C   UNL     1     -10.473   7.928  67.487  1.00  0.00    -0.262 C  
HETATM    4  N   UNL     1      -9.098   7.823  66.974  1.00  0.00    -0.133 NA 
HETATM    5  C   UNL     1     -10.322   6.164  74.319  1.00  0.00    -0.274 C  
HETATM    6  C   UNL     1      -8.173   7.217  67.971  1.00  0.00    -0.120 C  
HETATM    7  C   UNL     1      -8.637   5.880  68.579  1.00  0.00    -0.110 C  
HETATM    8  N   UNL     1     -10.297   5.820  72.920  1.00  0.00    -0.190 NA 
HETATM    9  C   UNL     1     -11.484   6.127  72.081  1.00  0.00    -0.311 C  
HETATM   10  C   UNL     1      -8.076   5.640  69.973  1.00  0.00    -0.106 A  
HETATM   11  C   UNL     1      -6.929   5.054  70.447  1.00  0.00    -0.049 A  
HETATM   12  C   UNL     1     -11.163   7.209  71.055  1.00  0.00    -0.269 C  
HETATM   13  N   UNL     1     -10.084   6.787  70.189  1.00  0.00    -0.177 NA 
HETATM   14  C   UNL     1      -9.060   6.067  70.870  1.00  0.00    -0.153 A  
HETATM   15  C   UNL     1      -6.841   4.839  71.834  1.00  0.00    -0.051 A  
HETATM   16  C   UNL     1      -7.926   5.129  72.709  1.00  0.00    -0.098 A  
HETATM   17  C   UNL     1      -9.091   5.711  72.218  1.00  0.00    -0.139 A  
ENDROOT
BRANCH   4  18
HETATM   18  C   UNL     1      -8.665   9.197  66.638  1.00  0.00    -0.127 C  
BRANCH  18  19
HETATM   19  C   UNL     1      -7.833   9.860  67.728  1.00  0.00    -0.094 C  
BRANCH  19  20
HETATM   20  C   UNL     1      -8.566  11.045  68.339  1.00  0.00    -0.149 C  
BRANCH  20  21
HETATM   21  C   UNL     1      -8.518  12.253  67.432  1.00  0.00    -0.176 C  
HETATM   22  O   UNL     1      -7.461  12.774  67.082  1.00  0.00    -0.126 OA 
BRANCH  21  23
HETATM   23  C   UNL     1      -9.808  12.821  66.950  1.00  0.00    -0.236 A  
HETATM   24  C   UNL     1     -11.972  12.417  65.937  1.00  0.00    -0.434 A  
HETATM   25  C   UNL     1     -10.754  11.936  66.410  1.00  0.00    -0.303 A  
HETATM   26  C   UNL     1     -12.242  13.779  66.000  1.00  0.00    -0.457 A  
HETATM   27  F   UNL     1     -13.408  14.241  65.538  1.00  0.00    -0.520 F  
HETATM   28  C   UNL     1     -10.096  14.192  67.015  1.00  0.00    -0.261 A  
HETATM   29  C   UNL     1     -11.318  14.669  66.536  1.00  0.00    -0.353 A  
ENDBRANCH  21  23
ENDBRANCH  20  21
ENDBRANCH  19  20
ENDBRANCH  18  19
ENDBRANCH   4  18
TORSDOF 5
ENDMDL
MODEL      166
REMARK 921   NORMALIZED FREE ENERGY PREDICTED BY IDOCK:   -4.79 KCAL/MOL
REMARK 922        TOTAL FREE ENERGY PREDICTED BY IDOCK:   -6.95 KCAL/MOL
REMARK 923 INTER-LIGAND FREE ENERGY PREDICTED BY IDOCK:   -6.41 KCAL/MOL
REMARK 924 INTRA-LIGAND FREE ENERGY PREDICTED BY IDOCK:   -0.54 KCAL/MOL
REMARK 927      BINDING AFFINITY PREDICTED BY RF-SCORE:    0.00 PKD
ROOT
HETATM    1  C   UNL     1     -11.511   6.247  70.183  1.00  0.00    -0.382 C  
HETATM    2  C   UNL     1     -12.094   7.368  71.006  1.00  0.00    -0.330 C  
HETATM    3  C   UNL     1     -11.161   8.557  71.009  1.00  0.00    -0.260 C  
HETATM    4  N   UNL     1     -10.901   9.051  69.648  1.00  0.00    -0.218 NA 
HETATM    5  C   UNL     1      -8.433   2.063  71.460  1.00  0.00    -0.054 C  
HETATM    6  C   UNL     1     -10.334   7.993  68.767  1.00  0.00    -0.206 C  
HETATM    7  C   UNL     1     -11.118   6.669  68.731  1.00  0.00    -0.297 C  
HETATM    8  N   UNL     1      -9.452   2.983  71.021  1.00  0.00    -0.149 NA 
HETATM    9  C   UNL     1     -10.253   3.710  72.037  1.00  0.00    -0.075 C  
HETATM   10  C   UNL     1     -10.239   5.471  68.404  1.00  0.00    -0.242 A  
HETATM   11  C   UNL     1      -9.855   4.867  67.234  1.00  0.00    -0.214 A  
HETATM   12  C   UNL     1      -9.945   5.203  72.010  1.00  0.00    -0.187 C  
HETATM   13  N   UNL     1     -10.237   5.762  70.709  1.00  0.00    -0.207 NA 
HETATM   14  C   UNL     1      -9.883   4.900  69.631  1.00  0.00    -0.218 A  
HETATM   15  C   UNL     1      -9.177   3.638  67.335  1.00  0.00    -0.220 A  
HETATM   16  C   UNL     1      -8.973   2.994  68.589  1.00  0.00    -0.190 A  
HETATM   17  C   UNL     1      -9.378   3.608  69.769  1.00  0.00    -0.173 A  
ENDROOT
BRANCH   4  18
HETATM   18  C   UNL     1      -9.949  10.176  69.780  1.00  0.00    -0.220 C  
BRANCH  18  19
HETATM   19  C   UNL     1     -10.555  11.533  69.448  1.00  0.00    -0.056 C  
BRANCH  19  20
HETATM   20  C   UNL     1     -11.779  11.389  68.555  1.00  0.00    -0.386 C  
BRANCH  20  21
HETATM   21  C   UNL     1     -11.463  11.748  67.121  1.00  0.00    -0.295 C  
HETATM   22  O   UNL     1     -11.594  10.948  66.197  1.00  0.00     0.074 OA 
BRANCH  21  23
HETATM   23  C   UNL     1     -10.979  13.127  66.833  1.00  0.00    -0.295 A  
HETATM   24  C   UNL     1      -9.094  14.635  66.625  1.00  0.00    -0.285 A  
HETATM   25  C   UNL     1      -9.597  13.361  66.877  1.00  0.00    -0.257 A  
HETATM   26  C   UNL     1      -9.972  15.673  66.331  1.00  0.00    -0.281 A  
HETATM   27  F   UNL     1      -9.489  16.897  66.098  1.00  0.00    -0.269 F  
HETATM   28  C   UNL     1     -11.853  14.181  66.529  1.00  0.00    -0.439 A  
HETATM   29  C   UNL     1     -11.344  15.457  66.279  1.00  0.00    -0.081 A  
ENDBRANCH  21  23
ENDBRANCH  20  21
ENDBRANCH  19  20
ENDBRANCH  18  19
ENDBRANCH   4  18
TORSDOF 5
ENDMDL
MODEL      167
REMARK 921   NORMALIZED FREE ENERGY PREDICTED BY IDOCK:   -4.76 KCAL/MOL
REMARK 922        TOTAL FREE ENERGY PREDICTED BY IDOCK:   -6.91 KCAL/MOL
REMARK 923 INTER-LIGAND FREE ENERGY PREDICTED BY IDOCK:   -5.04 KCAL/MOL
REMARK 924 INTRA-LIGAND FREE ENERGY PREDICTED BY IDOCK:   -1.87 KCAL/MOL
REMARK 927      BINDING AFFINITY PREDICTED BY RF-SCORE:    0.00 PKD
ROOT
HETATM    1  C   UNL     1     -11.427   7.008  70.424  1.00  0.00    -0.310 C  
HETATM    2  C   UNL     1     -11.601   6.215  71.696  1.00  0.00    -0.317 C  
HETATM    3  C   UNL     1     -10.427   6.444  72.620  1.00  0.00    -0.210 C  
HETATM    4  N   UNL     1     -10.271   7.867  72.964  1.00  0.00    -0.322 NA 
HETATM    5  C   UNL     1      -9.249   5.799  65.692  1.00  0.00    -0.021 C  
HETATM    6  C   UNL     1     -10.108   8.720  71.755  1.00  0.00    -0.333 C  
HETATM    7  C   UNL     1     -11.175   8.531  70.661  1.00  0.00    -0.278 C  
HETATM    8  N   UNL     1     -10.080   6.175  66.807  1.00  0.00    -0.173 NA 
HETATM    9  C   UNL     1     -10.524   5.126  67.760  1.00  0.00    -0.043 C  
HETATM   10  C   UNL     1     -10.660   8.868  69.269  1.00  0.00    -0.219 A  
HETATM   11  C   UNL     1     -10.610  10.023  68.529  1.00  0.00    -0.245 A  
HETATM   12  C   UNL     1      -9.885   5.327  69.130  1.00  0.00    -0.187 C  
HETATM   13  N   UNL     1     -10.237   6.621  69.673  1.00  0.00    -0.181 NA 
HETATM   14  C   UNL     1     -10.262   7.656  68.695  1.00  0.00    -0.199 A  
HETATM   15  C   UNL     1     -10.229   9.906  67.180  1.00  0.00    -0.285 A  
HETATM   16  C   UNL     1      -9.991   8.641  66.573  1.00  0.00    -0.353 A  
HETATM   17  C   UNL     1     -10.056   7.474  67.328  1.00  0.00    -0.231 A  
ENDROOT
BRANCH   4  18
HETATM   18  C   UNL     1      -9.076   7.966  73.829  1.00  0.00    -0.242 C  
BRANCH  18  19
HETATM   19  C   UNL     1      -7.962   6.999  73.448  1.00  0.00    -0.111 C  
BRANCH  19  20
HETATM   20  C   UNL     1      -6.592   7.582  73.765  1.00  0.00    -0.081 C  
BRANCH  20  21
HETATM   21  C   UNL     1      -6.182   8.617  72.743  1.00  0.00    -0.068 C  
HETATM   22  O   UNL     1      -5.729   9.714  73.060  1.00  0.00    -0.305 OA 
BRANCH  21  23
HETATM   23  C   UNL     1      -6.334   8.278  71.301  1.00  0.00    -0.038 A  
HETATM   24  C   UNL     1      -5.967   6.671  69.524  1.00  0.00    -0.022 A  
HETATM   25  C   UNL     1      -5.857   7.033  70.864  1.00  0.00    -0.028 A  
HETATM   26  C   UNL     1      -6.550   7.553  68.621  1.00  0.00    -0.053 A  
HETATM   27  F   UNL     1      -6.647   7.209  67.334  1.00  0.00    -0.049 F  
HETATM   28  C   UNL     1      -6.927   9.156  70.381  1.00  0.00    -0.071 A  
HETATM   29  C   UNL     1      -7.033   8.789  69.037  1.00  0.00    -0.064 A  
ENDBRANCH  21  23
ENDBRANCH  20  21
ENDBRANCH  19  20
ENDBRANCH  18  19
ENDBRANCH   4  18
TORSDOF 5
ENDMDL
MODEL      168
REMARK 921   NORMALIZED FREE ENERGY PREDICTED BY IDOCK:   -4.73 KCAL/MOL
REMARK 922        TOTAL FREE ENERGY PREDICTED BY IDOCK:   -6.87 KCAL/MOL
REMARK 923 INTER-LIGAND FREE ENERGY PREDICTED BY IDOCK:   -6.02 KCAL/MOL
REMARK 924 INTRA-LIGAND FREE ENERGY PREDICTED BY IDOCK:   -0.86 KCAL/MOL
REMARK 927      BINDING AFFINITY PREDICTED BY RF-SCORE:    0.00 PKD
ROOT
HETATM    1  C   UNL     1     -12.085  12.722  68.445  1.00  0.00    -0.101 C  
HETATM    2  C   UNL     1     -12.141  12.934  69.938  1.00  0.00    -0.335 C  
HETATM    3  C   UNL     1     -11.261  14.096  70.336  1.00  0.00     0.123 C  
HETATM    4  N   UNL     1     -11.663  15.342  69.663  1.00  0.00    -0.312 NA 
HETATM    5  C   UNL     1      -8.996   9.637  65.356  1.00  0.00    -0.190 C  
HETATM    6  C   UNL     1     -11.646  15.208  68.181  1.00  0.00    -0.341 C  
HETATM    7  C   UNL     1     -12.419  14.002  67.614  1.00  0.00     0.136 C  
HETATM    8  N   UNL     1     -10.050  10.314  66.068  1.00  0.00    -0.246 NA 
HETATM    9  C   UNL     1     -10.224  10.052  67.519  1.00  0.00    -0.212 C  
HETATM   10  C   UNL     1     -11.870  13.523  66.279  1.00  0.00    -0.431 A  
HETATM   11  C   UNL     1     -12.128  13.855  64.972  1.00  0.00    -0.422 A  
HETATM   12  C   UNL     1      -9.890  11.291  68.342  1.00  0.00    -0.199 C  
HETATM   13  N   UNL     1     -10.743  12.397  67.969  1.00  0.00    -0.216 NA 
HETATM   14  C   UNL     1     -10.997  12.469  66.569  1.00  0.00    -0.266 A  
HETATM   15  C   UNL     1     -11.550  13.046  63.977  1.00  0.00    -0.487 A  
HETATM   16  C   UNL     1     -10.801  11.878  64.298  1.00  0.00    -0.396 A  
HETATM   17  C   UNL     1     -10.556  11.543  65.625  1.00  0.00    -0.274 A  
ENDROOT
BRANCH   4  18
HETATM   18  C   UNL     1     -10.709  16.385  70.097  1.00  0.00    -0.207 C  
BRANCH  18  19
HETATM   19  C   UNL     1     -10.071  17.149  68.944  1.00  0.00    -0.322 C  
BRANCH  19  20
HETATM   20  C   UNL     1      -8.554  17.022  68.969  1.00  0.00    -0.126 C  
BRANCH  20  21
HETATM   21  C   UNL     1      -8.087  15.816  68.187  1.00  0.00    -0.140 C  
HETATM   22  O   UNL     1      -8.302  15.687  66.983  1.00  0.00    -0.187 OA 
BRANCH  21  23
HETATM   23  C   UNL     1      -7.337  14.756  68.914  1.00  0.00    -0.130 A  
HETATM   24  C   UNL     1      -5.683  14.204  70.597  1.00  0.00    -0.178 A  
HETATM   25  C   UNL     1      -6.417  15.156  69.894  1.00  0.00    -0.171 A  
HETATM   26  C   UNL     1      -5.867  12.854  70.319  1.00  0.00    -0.155 A  
HETATM   27  F   UNL     1      -5.156  11.941  70.987  1.00  0.00    -0.096 F  
HETATM   28  C   UNL     1      -7.518  13.390  68.648  1.00  0.00    -0.104 A  
HETATM   29  C   UNL     1      -6.778  12.439  69.354  1.00  0.00    -0.032 A  
ENDBRANCH  21  23
ENDBRANCH  20  21
ENDBRANCH  19  20
ENDBRANCH  18  19
ENDBRANCH   4  18
TORSDOF 5
ENDMDL
MODEL      169
REMARK 921   NORMALIZED FREE ENERGY PREDICTED BY IDOCK:   -4.72 KCAL/MOL
REMARK 922        TOTAL FREE ENERGY PREDICTED BY IDOCK:   -6.86 KCAL/MOL
REMARK 923 INTER-LIGAND FREE ENERGY PREDICTED BY IDOCK:   -6.18 KCAL/MOL
REMARK 924 INTRA-LIGAND FREE ENERGY PREDICTED BY IDOCK:   -0.67 KCAL/MOL
REMARK 927      BINDING AFFINITY PREDICTED BY RF-SCORE:    0.00 PKD
ROOT
HETATM    1  C   UNL     1      -9.063   8.191  67.549  1.00  0.00    -0.137 C  
HETATM    2  C   UNL     1      -9.759   8.843  66.379  1.00  0.00    -0.332 C  
HETATM    3  C   UNL     1     -10.935   9.662  66.859  1.00  0.00     0.098 C  
HETATM    4  N   UNL     1     -10.522  10.706  67.810  1.00  0.00    -0.206 NA 
HETATM    5  C   UNL     1      -9.651   3.417  69.888  1.00  0.00    -0.127 C  
HETATM    6  C   UNL     1      -9.813  10.140  68.990  1.00  0.00    -0.205 C  
HETATM    7  C   UNL     1      -8.642   9.194  68.670  1.00  0.00    -0.128 C  
HETATM    8  N   UNL     1      -9.214   4.613  69.213  1.00  0.00    -0.116 NA 
HETATM    9  C   UNL     1      -9.694   4.878  67.833  1.00  0.00    -0.155 C  
HETATM   10  C   UNL     1      -8.390   8.172  69.769  1.00  0.00    -0.124 A  
HETATM   11  C   UNL     1      -7.621   8.170  70.905  1.00  0.00    -0.076 A  
HETATM   12  C   UNL     1     -10.616   6.092  67.799  1.00  0.00    -0.269 C  
HETATM   13  N   UNL     1      -9.928   7.270  68.281  1.00  0.00    -0.155 NA 
HETATM   14  C   UNL     1      -9.066   7.009  69.385  1.00  0.00    -0.145 A  
HETATM   15  C   UNL     1      -7.488   6.949  71.591  1.00  0.00    -0.085 A  
HETATM   16  C   UNL     1      -8.049   5.740  71.088  1.00  0.00    -0.117 A  
HETATM   17  C   UNL     1      -8.817   5.750  69.929  1.00  0.00    -0.127 A  
ENDROOT
BRANCH   4  18
HETATM   18  C   UNL     1     -11.755  11.404  68.235  1.00  0.00    -0.288 C  
BRANCH  18  19
HETATM   19  C   UNL     1     -11.726  12.906  67.987  1.00  0.00    -0.401 C  
BRANCH  19  20
HETATM   20  C   UNL     1     -10.920  13.245  66.741  1.00  0.00    -0.302 C  
BRANCH  20  21
HETATM   21  C   UNL     1      -9.758  14.156  67.063  1.00  0.00    -0.258 C  
HETATM   22  O   UNL     1      -8.631  13.728  67.299  1.00  0.00    -0.196 OA 
BRANCH  21  23
HETATM   23  C   UNL     1     -10.004  15.624  67.089  1.00  0.00    -0.240 A  
HETATM   24  C   UNL     1     -10.636  17.618  65.864  1.00  0.00    -0.203 A  
HETATM   25  C   UNL     1     -10.403  16.245  65.896  1.00  0.00    -0.381 A  
HETATM   26  C   UNL     1     -10.469  18.368  67.022  1.00  0.00    -0.399 A  
HETATM   27  F   UNL     1     -10.685  19.686  66.989  1.00  0.00    -0.508 F  
HETATM   28  C   UNL     1      -9.846  16.393  68.252  1.00  0.00    -0.229 A  
HETATM   29  C   UNL     1     -10.080  17.769  68.215  1.00  0.00    -0.371 A  
ENDBRANCH  21  23
ENDBRANCH  20  21
ENDBRANCH  19  20
ENDBRANCH  18  19
ENDBRANCH   4  18
TORSDOF 5
ENDMDL
MODEL      170
REMARK 921   NORMALIZED FREE ENERGY PREDICTED BY IDOCK:   -4.72 KCAL/MOL
REMARK 922        TOTAL FREE ENERGY PREDICTED BY IDOCK:   -6.86 KCAL/MOL
REMARK 923 INTER-LIGAND FREE ENERGY PREDICTED BY IDOCK:   -6.91 KCAL/MOL
REMARK 924 INTRA-LIGAND FREE ENERGY PREDICTED BY IDOCK:    0.05 KCAL/MOL
REMARK 927      BINDING AFFINITY PREDICTED BY RF-SCORE:    0.00 PKD
ROOT
HETATM    1  C   UNL     1     -12.036   5.921  71.051  1.00  0.00     0.477 C  
HETATM    2  C   UNL     1     -13.014   6.824  71.760  1.00  0.00    -0.274 C  
HETATM    3  C   UNL     1     -12.439   8.215  71.897  1.00  0.00    -0.332 C  
HETATM    4  N   UNL     1     -12.112   8.803  70.588  1.00  0.00    -0.079 NA 
HETATM    5  C   UNL     1      -8.198   2.653  72.840  1.00  0.00    -0.070 C  
HETATM    6  C   UNL     1     -11.158   7.958  69.819  1.00  0.00    -0.075 C  
HETATM    7  C   UNL     1     -11.550   6.476  69.675  1.00  0.00    -0.348 C  
HETATM    8  N   UNL     1      -9.343   3.287  72.236  1.00  0.00    -0.108 NA 
HETATM    9  C   UNL     1     -10.455   3.747  73.107  1.00  0.00    -0.176 C  
HETATM   10  C   UNL     1     -10.346   5.561  69.502  1.00  0.00    -0.357 A  
HETATM   11  C   UNL     1      -9.640   5.116  68.413  1.00  0.00    -0.185 A  
HETATM   12  C   UNL     1     -10.551   5.268  73.113  1.00  0.00    -0.234 C  
HETATM   13  N   UNL     1     -10.776   5.771  71.775  1.00  0.00    -0.242 NA 
HETATM   14  C   UNL     1     -10.046   5.066  70.776  1.00  0.00    -0.237 A  
HETATM   15  C   UNL     1      -8.686   4.106  68.633  1.00  0.00    -0.126 A  
HETATM   16  C   UNL     1      -8.515   3.499  69.910  1.00  0.00    -0.089 A  
HETATM   17  C   UNL     1      -9.245   3.948  71.006  1.00  0.00    -0.130 A  
ENDROOT
BRANCH   4  18
HETATM   18  C   UNL     1     -11.524  10.133  70.856  1.00  0.00    -0.360 C  
BRANCH  18  19
HETATM   19  C   UNL     1     -12.517  11.280  70.726  1.00  0.00    -0.471 C  
BRANCH  19  20
HETATM   20  C   UNL     1     -12.734  11.976  72.062  1.00  0.00    -0.095 C  
BRANCH  20  21
HETATM   21  C   UNL     1     -13.320  13.357  71.878  1.00  0.00    -0.451 C  
HETATM   22  O   UNL     1     -14.374  13.703  72.407  1.00  0.00    -0.661 OA 
BRANCH  21  23
HETATM   23  C   UNL     1     -12.578  14.325  71.023  1.00  0.00    -0.428 A  
HETATM   24  C   UNL     1     -11.757  14.899  68.816  1.00  0.00    -0.353 A  
HETATM   25  C   UNL     1     -12.449  14.031  69.657  1.00  0.00    -0.204 A  
HETATM   26  C   UNL     1     -11.194  16.057  69.340  1.00  0.00    -0.349 A  
HETATM   27  F   UNL     1     -10.522  16.885  68.535  1.00  0.00    -0.279 F  
HETATM   28  C   UNL     1     -12.011  15.500  71.537  1.00  0.00    -0.463 A  
HETATM   29  C   UNL     1     -11.316  16.366  70.690  1.00  0.00    -0.208 A  
ENDBRANCH  21  23
ENDBRANCH  20  21
ENDBRANCH  19  20
ENDBRANCH  18  19
ENDBRANCH   4  18
TORSDOF 5
ENDMDL
MODEL      171
REMARK 921   NORMALIZED FREE ENERGY PREDICTED BY IDOCK:   -4.72 KCAL/MOL
REMARK 922        TOTAL FREE ENERGY PREDICTED BY IDOCK:   -6.85 KCAL/MOL
REMARK 923 INTER-LIGAND FREE ENERGY PREDICTED BY IDOCK:   -6.60 KCAL/MOL
REMARK 924 INTRA-LIGAND FREE ENERGY PREDICTED BY IDOCK:   -0.25 KCAL/MOL
REMARK 927      BINDING AFFINITY PREDICTED BY RF-SCORE:    0.00 PKD
ROOT
HETATM    1  C   UNL     1     -11.653  11.120  68.479  1.00  0.00    -0.314 C  
HETATM    2  C   UNL     1     -10.905  10.115  67.639  1.00  0.00    -0.346 C  
HETATM    3  C   UNL     1      -9.697   9.601  68.387  1.00  0.00    -0.150 C  
HETATM    4  N   UNL     1     -10.072   8.970  69.663  1.00  0.00    -0.190 NA 
HETATM    5  C   UNL     1     -11.348  16.447  68.846  1.00  0.00    -0.272 C  
HETATM    6  C   UNL     1     -10.829   9.900  70.545  1.00  0.00    -0.326 C  
HETATM    7  C   UNL     1     -12.041  10.592  69.896  1.00  0.00    -0.372 C  
HETATM    8  N   UNL     1     -11.712  15.064  68.673  1.00  0.00    -0.341 NA 
HETATM    9  C   UNL     1     -11.196  14.325  67.492  1.00  0.00    -0.307 C  
HETATM   10  C   UNL     1     -12.363  11.937  70.531  1.00  0.00    -0.372 A  
HETATM   11  C   UNL     1     -13.151  12.326  71.585  1.00  0.00    -0.408 A  
HETATM   12  C   UNL     1     -10.213  13.239  67.915  1.00  0.00    -0.233 C  
HETATM   13  N   UNL     1     -10.848  12.294  68.807  1.00  0.00    -0.232 NA 
HETATM   14  C   UNL     1     -11.740  12.904  69.734  1.00  0.00    -0.281 A  
HETATM   15  C   UNL     1     -13.356  13.706  71.761  1.00  0.00    -0.469 A  
HETATM   16  C   UNL     1     -12.849  14.665  70.838  1.00  0.00    -0.427 A  
HETATM   17  C   UNL     1     -12.063  14.261  69.765  1.00  0.00    -0.347 A  
ENDROOT
BRANCH   4  18
HETATM   18  C   UNL     1      -8.813   8.551  70.315  1.00  0.00    -0.148 C  
BRANCH  18  19
HETATM   19  C   UNL     1      -7.575   8.769  69.455  1.00  0.00    -0.088 C  
BRANCH  19  20
HETATM   20  C   UNL     1      -7.387   7.634  68.458  1.00  0.00    -0.095 C  
BRANCH  20  21
HETATM   21  C   UNL     1      -6.870   6.385  69.134  1.00  0.00    -0.062 C  
HETATM   22  O   UNL     1      -5.856   6.382  69.828  1.00  0.00    -0.017 OA 
BRANCH  21  23
HETATM   23  C   UNL     1      -7.630   5.119  68.944  1.00  0.00    -0.081 A  
HETATM   24  C   UNL     1      -7.686   2.707  69.180  1.00  0.00    -0.048 A  
HETATM   25  C   UNL     1      -7.021   3.920  69.344  1.00  0.00    -0.046 A  
HETATM   26  C   UNL     1      -8.956   2.693  68.614  1.00  0.00    -0.129 A  
HETATM   27  F   UNL     1      -9.591   1.529  68.449  1.00  0.00    -0.198 F  
HETATM   28  C   UNL     1      -8.915   5.091  68.381  1.00  0.00    -0.123 A  
HETATM   29  C   UNL     1      -9.577   3.872  68.217  1.00  0.00    -0.178 A  
ENDBRANCH  21  23
ENDBRANCH  20  21
ENDBRANCH  19  20
ENDBRANCH  18  19
ENDBRANCH   4  18
TORSDOF 5
ENDMDL
MODEL      172
REMARK 921   NORMALIZED FREE ENERGY PREDICTED BY IDOCK:   -4.70 KCAL/MOL
REMARK 922        TOTAL FREE ENERGY PREDICTED BY IDOCK:   -6.83 KCAL/MOL
REMARK 923 INTER-LIGAND FREE ENERGY PREDICTED BY IDOCK:   -6.38 KCAL/MOL
REMARK 924 INTRA-LIGAND FREE ENERGY PREDICTED BY IDOCK:   -0.45 KCAL/MOL
REMARK 927      BINDING AFFINITY PREDICTED BY RF-SCORE:    0.00 PKD
ROOT
HETATM    1  C   UNL     1      -7.927  16.031  66.340  1.00  0.00    -0.162 C  
HETATM    2  C   UNL     1      -7.862  17.492  65.970  1.00  0.00    -0.213 C  
HETATM    3  C   UNL     1      -8.509  18.335  67.044  1.00  0.00    -0.250 C  
HETATM    4  N   UNL     1      -7.861  18.147  68.352  1.00  0.00    -0.289 NA 
HETATM    5  C   UNL     1     -11.489  12.193  65.254  1.00  0.00    -0.336 C  
HETATM    6  C   UNL     1      -7.873  16.722  68.782  1.00  0.00    -0.243 C  
HETATM    7  C   UNL     1      -7.336  15.712  67.751  1.00  0.00    -0.169 C  
HETATM    8  N   UNL     1     -10.339  13.046  65.410  1.00  0.00    -0.296 NA 
HETATM    9  C   UNL     1     -10.248  14.288  64.601  1.00  0.00    -0.112 C  
HETATM   10  C   UNL     1      -7.940  14.325  67.912  1.00  0.00    -0.156 A  
HETATM   11  C   UNL     1      -7.596  13.220  68.650  1.00  0.00    -0.094 A  
HETATM   12  C   UNL     1     -10.354  15.526  65.486  1.00  0.00    -0.394 C  
HETATM   13  N   UNL     1      -9.296  15.541  66.471  1.00  0.00    -0.259 NA 
HETATM   14  C   UNL     1      -9.005  14.254  67.008  1.00  0.00    -0.236 A  
HETATM   15  C   UNL     1      -8.298  12.029  68.391  1.00  0.00    -0.151 A  
HETATM   16  C   UNL     1      -9.264  11.938  67.349  1.00  0.00    -0.177 A  
HETATM   17  C   UNL     1      -9.597  13.060  66.597  1.00  0.00    -0.259 A  
ENDROOT
BRANCH   4  18
HETATM   18  C   UNL     1      -8.605  18.983  69.318  1.00  0.00     0.073 C  
BRANCH  18  19
HETATM   19  C   UNL     1     -10.059  18.564  69.499  1.00  0.00     0.247 C  
BRANCH  19  20
HETATM   20  C   UNL     1     -10.162  17.142  70.030  1.00  0.00     0.463 C  
BRANCH  20  21
HETATM   21  C   UNL     1     -11.332  16.407  69.417  1.00  0.00    -0.213 C  
HETATM   22  O   UNL     1     -11.764  16.671  68.298  1.00  0.00    -0.024 OA 
BRANCH  21  23
HETATM   23  C   UNL     1     -11.972  15.321  70.211  1.00  0.00    -0.367 A  
HETATM   24  C   UNL     1     -13.404  14.713  72.069  1.00  0.00    -0.459 A  
HETATM   25  C   UNL     1     -12.789  15.690  71.289  1.00  0.00    -0.550 A  
HETATM   26  C   UNL     1     -13.198  13.370  71.773  1.00  0.00    -0.407 A  
HETATM   27  F   UNL     1     -13.781  12.433  72.526  1.00  0.00    -0.601 F  
HETATM   28  C   UNL     1     -11.778  13.962  69.919  1.00  0.00    -0.358 A  
HETATM   29  C   UNL     1     -12.395  12.987  70.705  1.00  0.00    -0.391 A  
ENDBRANCH  21  23
ENDBRANCH  20  21
ENDBRANCH  19  20
ENDBRANCH  18  19
ENDBRANCH   4  18
TORSDOF 5
ENDMDL
MODEL      173
REMARK 921   NORMALIZED FREE ENERGY PREDICTED BY IDOCK:   -4.69 KCAL/MOL
REMARK 922        TOTAL FREE ENERGY PREDICTED BY IDOCK:   -6.82 KCAL/MOL
REMARK 923 INTER-LIGAND FREE ENERGY PREDICTED BY IDOCK:   -6.16 KCAL/MOL
REMARK 924 INTRA-LIGAND FREE ENERGY PREDICTED BY IDOCK:   -0.66 KCAL/MOL
REMARK 927      BINDING AFFINITY PREDICTED BY RF-SCORE:    0.00 PKD
ROOT
HETATM    1  C   UNL     1      -9.420  12.330  66.802  1.00  0.00    -0.222 C  
HETATM    2  C   UNL     1      -8.632  11.958  68.034  1.00  0.00    -0.168 C  
HETATM    3  C   UNL     1      -9.565  11.679  69.189  1.00  0.00     0.242 C  
HETATM    4  N   UNL     1     -10.507  10.592  68.881  1.00  0.00    -0.193 NA 
HETATM    5  C   UNL     1     -11.019  17.037  64.832  1.00  0.00     0.092 C  
HETATM    6  C   UNL     1     -11.316  10.880  67.664  1.00  0.00    -0.270 C  
HETATM    7  C   UNL     1     -10.513  11.284  66.414  1.00  0.00    -0.306 C  
HETATM    8  N   UNL     1     -10.449  15.742  65.102  1.00  0.00    -0.483 NA 
HETATM    9  C   UNL     1      -9.335  15.635  66.080  1.00  0.00    -0.349 C  
HETATM   10  C   UNL     1     -11.307  12.166  65.462  1.00  0.00    -0.393 A  
HETATM   11  C   UNL     1     -12.147  11.910  64.408  1.00  0.00    -0.305 A  
HETATM   12  C   UNL     1      -9.774  14.875  67.327  1.00  0.00    -0.228 C  
HETATM   13  N   UNL     1     -10.215  13.541  66.983  1.00  0.00    -0.247 NA 
HETATM   14  C   UNL     1     -10.956  13.486  65.768  1.00  0.00    -0.278 A  
HETATM   15  C   UNL     1     -12.554  13.007  63.628  1.00  0.00    -0.283 A  
HETATM   16  C   UNL     1     -12.051  14.320  63.857  1.00  0.00    -0.247 A  
HETATM   17  C   UNL     1     -11.189  14.568  64.920  1.00  0.00    -0.391 A  
ENDROOT
BRANCH   4  18
HETATM   18  C   UNL     1     -11.387  10.445  70.061  1.00  0.00    -0.313 C  
BRANCH  18  19
HETATM   19  C   UNL     1     -10.916   9.386  71.049  1.00  0.00    -0.409 C  
BRANCH  19  20
HETATM   20  C   UNL     1     -10.462   8.123  70.330  1.00  0.00    -0.217 C  
BRANCH  20  21
HETATM   21  C   UNL     1      -9.115   7.655  70.832  1.00  0.00    -0.149 C  
HETATM   22  O   UNL     1      -8.216   8.436  71.135  1.00  0.00    -0.108 OA 
BRANCH  21  23
HETATM   23  C   UNL     1      -8.886   6.189  70.962  1.00  0.00    -0.139 A  
HETATM   24  C   UNL     1      -7.439   4.402  71.727  1.00  0.00    -0.070 A  
HETATM   25  C   UNL     1      -7.706   5.762  71.588  1.00  0.00    -0.101 A  
HETATM   26  C   UNL     1      -8.349   3.472  71.238  1.00  0.00    -0.067 A  
HETATM   27  F   UNL     1      -8.089   2.167  71.363  1.00  0.00    -0.045 F  
HETATM   28  C   UNL     1      -9.799   5.240  70.479  1.00  0.00    -0.274 A  
HETATM   29  C   UNL     1      -9.526   3.878  70.618  1.00  0.00    -0.244 A  
ENDBRANCH  21  23
ENDBRANCH  20  21
ENDBRANCH  19  20
ENDBRANCH  18  19
ENDBRANCH   4  18
TORSDOF 5
ENDMDL
MODEL      174
REMARK 921   NORMALIZED FREE ENERGY PREDICTED BY IDOCK:   -4.69 KCAL/MOL
REMARK 922        TOTAL FREE ENERGY PREDICTED BY IDOCK:   -6.82 KCAL/MOL
REMARK 923 INTER-LIGAND FREE ENERGY PREDICTED BY IDOCK:   -6.25 KCAL/MOL
REMARK 924 INTRA-LIGAND FREE ENERGY PREDICTED BY IDOCK:   -0.56 KCAL/MOL
REMARK 927      BINDING AFFINITY PREDICTED BY RF-SCORE:    0.00 PKD
ROOT
HETATM    1  C   UNL     1      -7.353   7.468  66.416  1.00  0.00    -0.083 C  
HETATM    2  C   UNL     1      -6.986   8.384  65.274  1.00  0.00    -0.074 C  
HETATM    3  C   UNL     1      -8.196   9.170  64.824  1.00  0.00    -0.149 C  
HETATM    4  N   UNL     1      -8.762   9.976  65.918  1.00  0.00    -0.136 NA 
HETATM    5  C   UNL     1      -8.986   2.378  66.570  1.00  0.00    -0.118 C  
HETATM    6  C   UNL     1      -9.137   9.141  67.092  1.00  0.00    -0.126 C  
HETATM    7  C   UNL     1      -8.038   8.198  67.614  1.00  0.00    -0.127 C  
HETATM    8  N   UNL     1      -8.323   3.651  66.697  1.00  0.00    -0.103 NA 
HETATM    9  C   UNL     1      -7.616   4.216  65.519  1.00  0.00    -0.085 C  
HETATM   10  C   UNL     1      -8.597   6.965  68.308  1.00  0.00    -0.125 A  
HETATM   11  C   UNL     1      -8.961   6.686  69.601  1.00  0.00    -0.142 A  
HETATM   12  C   UNL     1      -8.316   5.472  65.013  1.00  0.00    -0.146 C  
HETATM   13  N   UNL     1      -8.364   6.482  66.048  1.00  0.00    -0.127 NA 
HETATM   14  C   UNL     1      -8.616   5.950  67.345  1.00  0.00    -0.106 A  
HETATM   15  C   UNL     1      -9.262   5.347  69.910  1.00  0.00    -0.174 A  
HETATM   16  C   UNL     1      -9.113   4.303  68.954  1.00  0.00    -0.183 A  
HETATM   17  C   UNL     1      -8.731   4.594  67.648  1.00  0.00    -0.104 A  
ENDROOT
BRANCH   4  18
HETATM   18  C   UNL     1      -9.954  10.658  65.369  1.00  0.00    -0.281 C  
BRANCH  18  19
HETATM   19  C   UNL     1     -10.303  11.955  66.087  1.00  0.00    -0.261 C  
BRANCH  19  20
HETATM   20  C   UNL     1     -11.809  12.161  66.157  1.00  0.00    -0.327 C  
BRANCH  20  21
HETATM   21  C   UNL     1     -12.159  13.608  66.415  1.00  0.00    -0.433 C  
HETATM   22  O   UNL     1     -12.651  14.332  65.552  1.00  0.00    -0.458 OA 
BRANCH  21  23
HETATM   23  C   UNL     1     -11.895  14.162  67.772  1.00  0.00    -0.414 A  
HETATM   24  C   UNL     1     -11.110  16.027  69.106  1.00  0.00    -0.317 A  
HETATM   25  C   UNL     1     -11.383  15.466  67.861  1.00  0.00    -0.328 A  
HETATM   26  C   UNL     1     -11.346  15.287  70.259  1.00  0.00    -0.292 A  
HETATM   27  F   UNL     1     -11.076  15.823  71.452  1.00  0.00    -0.371 F  
HETATM   28  C   UNL     1     -12.135  13.429  68.944  1.00  0.00    -0.289 A  
HETATM   29  C   UNL     1     -11.857  13.996  70.189  1.00  0.00    -0.377 A  
ENDBRANCH  21  23
ENDBRANCH  20  21
ENDBRANCH  19  20
ENDBRANCH  18  19
ENDBRANCH   4  18
TORSDOF 5
ENDMDL
MODEL      175
REMARK 921   NORMALIZED FREE ENERGY PREDICTED BY IDOCK:   -4.66 KCAL/MOL
REMARK 922        TOTAL FREE ENERGY PREDICTED BY IDOCK:   -6.79 KCAL/MOL
REMARK 923 INTER-LIGAND FREE ENERGY PREDICTED BY IDOCK:   -5.76 KCAL/MOL
REMARK 924 INTRA-LIGAND FREE ENERGY PREDICTED BY IDOCK:   -1.03 KCAL/MOL
REMARK 927      BINDING AFFINITY PREDICTED BY RF-SCORE:    0.00 PKD
ROOT
HETATM    1  C   UNL     1     -11.589  15.687  65.916  1.00  0.00     0.296 C  
HETATM    2  C   UNL     1     -11.765  15.661  64.417  1.00  0.00    -0.218 C  
HETATM    3  C   UNL     1     -11.429  14.292  63.874  1.00  0.00     0.192 C  
HETATM    4  N   UNL     1     -12.273  13.245  64.470  1.00  0.00    -0.455 NA 
HETATM    5  C   UNL     1      -7.446  16.995  69.036  1.00  0.00    -0.211 C  
HETATM    6  C   UNL     1     -12.164  13.216  65.954  1.00  0.00    -0.436 C  
HETATM    7  C   UNL     1     -12.380  14.566  66.662  1.00  0.00    -0.141 C  
HETATM    8  N   UNL     1      -8.702  16.859  68.342  1.00  0.00    -0.235 NA 
HETATM    9  C   UNL     1      -8.797  17.309  66.930  1.00  0.00    -0.240 C  
HETATM   10  C   UNL     1     -11.649  14.658  67.994  1.00  0.00    -0.366 A  
HETATM   11  C   UNL     1     -11.982  14.328  69.284  1.00  0.00    -0.375 A  
HETATM   12  C   UNL     1      -9.004  16.125  65.991  1.00  0.00    -0.298 C  
HETATM   13  N   UNL     1     -10.216  15.412  66.329  1.00  0.00    -0.275 NA 
HETATM   14  C   UNL     1     -10.439  15.309  67.733  1.00  0.00    -0.253 A  
HETATM   15  C   UNL     1     -11.104  14.744  70.301  1.00  0.00    -0.185 A  
HETATM   16  C   UNL     1      -9.963  15.550  70.026  1.00  0.00    -0.178 A  
HETATM   17  C   UNL     1      -9.641  15.890  68.717  1.00  0.00    -0.219 A  
ENDROOT
BRANCH   4  18
HETATM   18  C   UNL     1     -11.823  11.959  63.895  1.00  0.00    -0.411 C  
BRANCH  18  19
HETATM   19  C   UNL     1     -10.803  11.226  64.757  1.00  0.00    -0.314 C  
BRANCH  19  20
HETATM   20  C   UNL     1      -9.478  11.062  64.025  1.00  0.00    -0.278 C  
BRANCH  20  21
HETATM   21  C   UNL     1      -8.466  10.325  64.872  1.00  0.00    -0.177 C  
HETATM   22  O   UNL     1      -7.956   9.265  64.516  1.00  0.00    -0.115 OA 
BRANCH  21  23
HETATM   23  C   UNL     1      -8.081  10.920  66.182  1.00  0.00    -0.160 A  
HETATM   24  C   UNL     1      -6.492  10.995  68.010  1.00  0.00    -0.057 A  
HETATM   25  C   UNL     1      -6.892  10.477  66.780  1.00  0.00    -0.103 A  
HETATM   26  C   UNL     1      -7.279  11.951  68.640  1.00  0.00    -0.109 A  
HETATM   27  F   UNL     1      -6.899  12.441  69.823  1.00  0.00    -0.069 F  
HETATM   28  C   UNL     1      -8.863  11.891  66.825  1.00  0.00    -0.193 A  
HETATM   29  C   UNL     1      -8.458  12.405  68.059  1.00  0.00    -0.176 A  
ENDBRANCH  21  23
ENDBRANCH  20  21
ENDBRANCH  19  20
ENDBRANCH  18  19
ENDBRANCH   4  18
TORSDOF 5
ENDMDL
MODEL      176
REMARK 921   NORMALIZED FREE ENERGY PREDICTED BY IDOCK:   -4.65 KCAL/MOL
REMARK 922        TOTAL FREE ENERGY PREDICTED BY IDOCK:   -6.77 KCAL/MOL
REMARK 923 INTER-LIGAND FREE ENERGY PREDICTED BY IDOCK:   -6.50 KCAL/MOL
REMARK 924 INTRA-LIGAND FREE ENERGY PREDICTED BY IDOCK:   -0.27 KCAL/MOL
REMARK 927      BINDING AFFINITY PREDICTED BY RF-SCORE:    0.00 PKD
ROOT
HETATM    1  C   UNL     1      -8.814   7.420  67.664  1.00  0.00    -0.127 C  
HETATM    2  C   UNL     1      -9.664   7.772  66.469  1.00  0.00    -0.265 C  
HETATM    3  C   UNL     1     -10.281   9.139  66.649  1.00  0.00    -0.258 C  
HETATM    4  N   UNL     1      -9.259  10.182  66.829  1.00  0.00    -0.149 NA 
HETATM    5  C   UNL     1      -9.886   4.805  72.205  1.00  0.00    -0.172 C  
HETATM    6  C   UNL     1      -8.367   9.897  67.987  1.00  0.00    -0.113 C  
HETATM    7  C   UNL     1      -7.733   8.494  68.007  1.00  0.00    -0.103 C  
HETATM    8  N   UNL     1      -9.395   5.297  70.943  1.00  0.00    -0.149 NA 
HETATM    9  C   UNL     1     -10.247   5.158  69.734  1.00  0.00    -0.287 C  
HETATM   10  C   UNL     1      -7.410   8.013  69.414  1.00  0.00    -0.080 A  
HETATM   11  C   UNL     1      -6.314   8.136  70.231  1.00  0.00    -0.036 A  
HETATM   12  C   UNL     1     -10.712   6.522  69.235  1.00  0.00    -0.280 C  
HETATM   13  N   UNL     1      -9.580   7.359  68.906  1.00  0.00    -0.148 NA 
HETATM   14  C   UNL     1      -8.492   7.221  69.815  1.00  0.00    -0.136 A  
HETATM   15  C   UNL     1      -6.308   7.378  71.416  1.00  0.00    -0.036 A  
HETATM   16  C   UNL     1      -7.345   6.452  71.722  1.00  0.00    -0.088 A  
HETATM   17  C   UNL     1      -8.445   6.324  70.881  1.00  0.00    -0.131 A  
ENDROOT
BRANCH   4  18
HETATM   18  C   UNL     1      -9.982  11.455  67.036  1.00  0.00    -0.201 C  
BRANCH  18  19
HETATM   19  C   UNL     1     -11.063  11.722  65.997  1.00  0.00    -0.363 C  
BRANCH  19  20
HETATM   20  C   UNL     1     -11.701  13.088  66.201  1.00  0.00    -0.445 C  
BRANCH  20  21
HETATM   21  C   UNL     1     -10.782  14.020  66.956  1.00  0.00    -0.284 C  
HETATM   22  O   UNL     1      -9.788  14.527  66.441  1.00  0.00    -0.266 OA 
BRANCH  21  23
HETATM   23  C   UNL     1     -11.109  14.330  68.376  1.00  0.00    -0.274 A  
HETATM   24  C   UNL     1     -10.917  15.876  70.232  1.00  0.00    -0.370 A  
HETATM   25  C   UNL     1     -10.647  15.543  68.907  1.00  0.00    -0.240 A  
HETATM   26  C   UNL     1     -11.647  14.997  71.024  1.00  0.00    -0.322 A  
HETATM   27  F   UNL     1     -11.899  15.313  72.298  1.00  0.00    -0.381 F  
HETATM   28  C   UNL     1     -11.850  13.455  69.185  1.00  0.00    -0.383 A  
HETATM   29  C   UNL     1     -12.117  13.793  70.513  1.00  0.00    -0.416 A  
ENDBRANCH  21  23
ENDBRANCH  20  21
ENDBRANCH  19  20
ENDBRANCH  18  19
ENDBRANCH   4  18
TORSDOF 5
ENDMDL
MODEL      177
REMARK 921   NORMALIZED FREE ENERGY PREDICTED BY IDOCK:   -4.64 KCAL/MOL
REMARK 922        TOTAL FREE ENERGY PREDICTED BY IDOCK:   -6.75 KCAL/MOL
REMARK 923 INTER-LIGAND FREE ENERGY PREDICTED BY IDOCK:   -6.13 KCAL/MOL
REMARK 924 INTRA-LIGAND FREE ENERGY PREDICTED BY IDOCK:   -0.62 KCAL/MOL
REMARK 927      BINDING AFFINITY PREDICTED BY RF-SCORE:    0.00 PKD
ROOT
HETATM    1  C   UNL     1     -11.772  12.740  67.788  1.00  0.00    -0.359 C  
HETATM    2  C   UNL     1     -11.072  13.029  66.483  1.00  0.00    -0.315 C  
HETATM    3  C   UNL     1      -9.691  12.414  66.481  1.00  0.00    -0.240 C  
HETATM    4  N   UNL     1      -9.742  10.957  66.681  1.00  0.00    -0.185 NA 
HETATM    5  C   UNL     1     -12.077  15.447  72.390  1.00  0.00    -0.419 C  
HETATM    6  C   UNL     1     -10.433  10.590  67.947  1.00  0.00    -0.210 C  
HETATM    7  C   UNL     1     -11.822  11.222  68.153  1.00  0.00    -0.276 C  
HETATM    8  N   UNL     1     -12.290  14.743  71.151  1.00  0.00    -0.308 NA 
HETATM    9  C   UNL     1     -11.912  15.400  69.875  1.00  0.00    -0.359 C  
HETATM   10  C   UNL     1     -12.187  11.381  69.622  1.00  0.00    -0.316 A  
HETATM   11  C   UNL     1     -12.809  10.570  70.538  1.00  0.00    -0.339 A  
HETATM   12  C   UNL     1     -10.739  14.682  69.216  1.00  0.00    -0.243 C  
HETATM   13  N   UNL     1     -11.075  13.303  68.941  1.00  0.00    -0.258 NA 
HETATM   14  C   UNL     1     -11.849  12.693  69.969  1.00  0.00    -0.285 A  
HETATM   15  C   UNL     1     -13.151  11.143  71.776  1.00  0.00    -0.536 A  
HETATM   16  C   UNL     1     -12.947  12.527  72.046  1.00  0.00    -0.379 A  
HETATM   17  C   UNL     1     -12.328  13.344  71.106  1.00  0.00    -0.259 A  
ENDROOT
BRANCH   4  18
HETATM   18  C   UNL     1      -8.341  10.483  66.703  1.00  0.00    -0.131 C  
BRANCH  18  19
HETATM   19  C   UNL     1      -8.122   9.257  67.579  1.00  0.00    -0.107 C  
BRANCH  19  20
HETATM   20  C   UNL     1      -7.607   8.080  66.764  1.00  0.00    -0.094 C  
BRANCH  20  21
HETATM   21  C   UNL     1      -8.240   6.781  67.207  1.00  0.00    -0.121 C  
HETATM   22  O   UNL     1      -9.381   6.459  66.885  1.00  0.00    -0.126 OA 
BRANCH  21  23
HETATM   23  C   UNL     1      -7.436   5.865  68.064  1.00  0.00    -0.085 A  
HETATM   24  C   UNL     1      -7.411   4.204  69.828  1.00  0.00    -0.049 A  
HETATM   25  C   UNL     1      -8.117   5.070  68.997  1.00  0.00    -0.084 A  
HETATM   26  C   UNL     1      -6.027   4.134  69.727  1.00  0.00    -0.018 A  
HETATM   27  F   UNL     1      -5.349   3.309  70.531  1.00  0.00    -0.009 F  
HETATM   28  C   UNL     1      -6.039   5.779  67.967  1.00  0.00    -0.021 A  
HETATM   29  C   UNL     1      -5.335   4.911  68.804  1.00  0.00    -0.004 A  
ENDBRANCH  21  23
ENDBRANCH  20  21
ENDBRANCH  19  20
ENDBRANCH  18  19
ENDBRANCH   4  18
TORSDOF 5
ENDMDL
MODEL      178
REMARK 921   NORMALIZED FREE ENERGY PREDICTED BY IDOCK:   -4.63 KCAL/MOL
REMARK 922        TOTAL FREE ENERGY PREDICTED BY IDOCK:   -6.74 KCAL/MOL
REMARK 923 INTER-LIGAND FREE ENERGY PREDICTED BY IDOCK:   -6.32 KCAL/MOL
REMARK 924 INTRA-LIGAND FREE ENERGY PREDICTED BY IDOCK:   -0.42 KCAL/MOL
REMARK 927      BINDING AFFINITY PREDICTED BY RF-SCORE:    0.00 PKD
ROOT
HETATM    1  C   UNL     1     -11.306   8.528  69.614  1.00  0.00     0.210 C  
HETATM    2  C   UNL     1     -11.598  10.005  69.715  1.00  0.00    -0.193 C  
HETATM    3  C   UNL     1     -10.315  10.800  69.631  1.00  0.00    -0.101 C  
HETATM    4  N   UNL     1      -9.593  10.542  68.375  1.00  0.00    -0.154 NA 
HETATM    5  C   UNL     1     -10.377   4.777  73.311  1.00  0.00    -0.182 C  
HETATM    6  C   UNL     1      -9.280   9.097  68.196  1.00  0.00    -0.131 C  
HETATM    7  C   UNL     1     -10.472   8.136  68.353  1.00  0.00    -0.205 C  
HETATM    8  N   UNL     1     -10.854   5.613  72.238  1.00  0.00    -0.232 NA 
HETATM    9  C   UNL     1     -11.531   6.892  72.568  1.00  0.00    -0.230 C  
HETATM   10  C   UNL     1     -10.054   6.747  68.814  1.00  0.00    -0.165 A  
HETATM   11  C   UNL     1      -9.671   5.604  68.157  1.00  0.00    -0.153 A  
HETATM   12  C   UNL     1     -10.692   8.086  72.125  1.00  0.00    -0.276 C  
HETATM   13  N   UNL     1     -10.457   8.043  70.698  1.00  0.00    -0.207 NA 
HETATM   14  C   UNL     1     -10.219   6.729  70.203  1.00  0.00    -0.195 A  
HETATM   15  C   UNL     1      -9.541   4.433  68.926  1.00  0.00    -0.233 A  
HETATM   16  C   UNL     1      -9.876   4.402  70.309  1.00  0.00    -0.284 A  
HETATM   17  C   UNL     1     -10.276   5.562  70.964  1.00  0.00    -0.223 A  
ENDROOT
BRANCH   4  18
HETATM   18  C   UNL     1      -8.347  11.336  68.432  1.00  0.00    -0.152 C  
BRANCH  18  19
HETATM   19  C   UNL     1      -8.291  12.464  67.410  1.00  0.00    -0.180 C  
BRANCH  19  20
HETATM   20  C   UNL     1      -9.158  13.639  67.837  1.00  0.00    -0.198 C  
BRANCH  20  21
HETATM   21  C   UNL     1      -9.570  14.483  66.653  1.00  0.00    -0.276 C  
HETATM   22  O   UNL     1     -10.068  13.998  65.639  1.00  0.00    -0.313 OA 
BRANCH  21  23
HETATM   23  C   UNL     1      -9.360  15.955  66.733  1.00  0.00    -0.262 A  
HETATM   24  C   UNL     1     -10.282  18.129  67.279  1.00  0.00    -0.377 A  
HETATM   25  C   UNL     1     -10.423  16.746  67.193  1.00  0.00    -0.299 A  
HETATM   26  C   UNL     1      -9.081  18.720  66.903  1.00  0.00    -0.300 A  
HETATM   27  F   UNL     1      -8.949  20.047  66.977  1.00  0.00    -0.346 F  
HETATM   28  C   UNL     1      -8.151  16.564  66.364  1.00  0.00    -0.362 A  
HETATM   29  C   UNL     1      -8.015  17.951  66.449  1.00  0.00    -0.302 A  
ENDBRANCH  21  23
ENDBRANCH  20  21
ENDBRANCH  19  20
ENDBRANCH  18  19
ENDBRANCH   4  18
TORSDOF 5
ENDMDL
MODEL      179
REMARK 921   NORMALIZED FREE ENERGY PREDICTED BY IDOCK:   -4.61 KCAL/MOL
REMARK 922        TOTAL FREE ENERGY PREDICTED BY IDOCK:   -6.71 KCAL/MOL
REMARK 923 INTER-LIGAND FREE ENERGY PREDICTED BY IDOCK:   -4.80 KCAL/MOL
REMARK 924 INTRA-LIGAND FREE ENERGY PREDICTED BY IDOCK:   -1.91 KCAL/MOL
REMARK 927      BINDING AFFINITY PREDICTED BY RF-SCORE:    0.00 PKD
ROOT
HETATM    1  C   UNL     1      -9.353  16.776  67.944  1.00  0.00    -0.229 C  
HETATM    2  C   UNL     1      -8.354  17.749  68.519  1.00  0.00    -0.298 C  
HETATM    3  C   UNL     1      -7.034  17.057  68.771  1.00  0.00    -0.211 C  
HETATM    4  N   UNL     1      -6.478  16.475  67.540  1.00  0.00    -0.139 NA 
HETATM    5  C   UNL     1     -13.030  13.624  70.213  1.00  0.00     0.146 C  
HETATM    6  C   UNL     1      -7.416  15.510  66.903  1.00  0.00    -0.082 C  
HETATM    7  C   UNL     1      -8.846  16.031  66.668  1.00  0.00    -0.307 C  
HETATM    8  N   UNL     1     -12.272  14.590  69.460  1.00  0.00    -0.295 NA 
HETATM    9  C   UNL     1     -11.699  15.765  70.164  1.00  0.00    -0.356 C  
HETATM   10  C   UNL     1      -9.885  14.920  66.658  1.00  0.00    -0.272 A  
HETATM   11  C   UNL     1     -10.397  14.108  65.677  1.00  0.00    -0.348 A  
HETATM   12  C   UNL     1     -10.176  15.699  70.189  1.00  0.00    -0.196 C  
HETATM   13  N   UNL     1      -9.644  15.664  68.845  1.00  0.00    -0.210 NA 
HETATM   14  C   UNL     1     -10.418  14.870  67.951  1.00  0.00    -0.250 A  
HETATM   15  C   UNL     1     -11.506  13.312  66.015  1.00  0.00    -0.360 A  
HETATM   16  C   UNL     1     -12.136  13.402  67.289  1.00  0.00    -0.352 A  
HETATM   17  C   UNL     1     -11.618  14.237  68.273  1.00  0.00    -0.324 A  
ENDROOT
BRANCH   4  18
HETATM   18  C   UNL     1      -5.221  15.795  67.922  1.00  0.00    -0.128 C  
BRANCH  18  19
HETATM   19  C   UNL     1      -5.133  14.353  67.440  1.00  0.00     0.407 C  
BRANCH  19  20
HETATM   20  C   UNL     1      -5.228  13.375  68.603  1.00  0.00    -0.072 C  
BRANCH  20  21
HETATM   21  C   UNL     1      -6.659  13.183  69.049  1.00  0.00    -0.105 C  
HETATM   22  O   UNL     1      -7.125  13.752  70.033  1.00  0.00     0.224 OA 
BRANCH  21  23
HETATM   23  C   UNL     1      -7.525  12.268  68.254  1.00  0.00    -0.119 A  
HETATM   24  C   UNL     1      -7.813  10.962  66.233  1.00  0.00    -0.158 A  
HETATM   25  C   UNL     1      -7.039  11.811  67.020  1.00  0.00    -0.132 A  
HETATM   26  C   UNL     1      -9.071  10.573  66.678  1.00  0.00    -0.155 A  
HETATM   27  F   UNL     1      -9.817   9.765  65.919  1.00  0.00    -0.263 F  
HETATM   28  C   UNL     1      -8.793  11.863  68.694  1.00  0.00    -0.041 A  
HETATM   29  C   UNL     1      -9.567  11.013  67.901  1.00  0.00    -0.180 A  
ENDBRANCH  21  23
ENDBRANCH  20  21
ENDBRANCH  19  20
ENDBRANCH  18  19
ENDBRANCH   4  18
TORSDOF 5
ENDMDL
MODEL      180
REMARK 921   NORMALIZED FREE ENERGY PREDICTED BY IDOCK:   -4.58 KCAL/MOL
REMARK 922        TOTAL FREE ENERGY PREDICTED BY IDOCK:   -6.67 KCAL/MOL
REMARK 923 INTER-LIGAND FREE ENERGY PREDICTED BY IDOCK:   -5.87 KCAL/MOL
REMARK 924 INTRA-LIGAND FREE ENERGY PREDICTED BY IDOCK:   -0.81 KCAL/MOL
REMARK 927      BINDING AFFINITY PREDICTED BY RF-SCORE:    0.00 PKD
ROOT
HETATM    1  C   UNL     1      -8.137   6.777  67.308  1.00  0.00    -0.118 C  
HETATM    2  C   UNL     1      -8.708   7.942  66.539  1.00  0.00    -0.162 C  
HETATM    3  C   UNL     1     -10.010   8.393  67.161  1.00  0.00    -0.238 C  
HETATM    4  N   UNL     1      -9.835   8.790  68.567  1.00  0.00    -0.164 NA 
HETATM    5  C   UNL     1      -8.636   1.484  66.727  1.00  0.00    -0.101 C  
HETATM    6  C   UNL     1      -9.260   7.692  69.391  1.00  0.00    -0.149 C  
HETATM    7  C   UNL     1      -7.975   7.049  68.837  1.00  0.00    -0.120 C  
HETATM    8  N   UNL     1      -8.213   2.855  66.848  1.00  0.00    -0.083 NA 
HETATM    9  C   UNL     1      -8.507   3.800  65.740  1.00  0.00    -0.110 C  
HETATM   10  C   UNL     1      -7.798   5.605  69.281  1.00  0.00    -0.089 A  
HETATM   11  C   UNL     1      -7.207   5.011  70.368  1.00  0.00    -0.054 A  
HETATM   12  C   UNL     1      -9.517   4.855  66.176  1.00  0.00    -0.161 C  
HETATM   13  N   UNL     1      -9.015   5.610  67.303  1.00  0.00    -0.112 NA 
HETATM   14  C   UNL     1      -8.305   4.812  68.246  1.00  0.00    -0.091 A  
HETATM   15  C   UNL     1      -7.069   3.612  70.341  1.00  0.00    -0.037 A  
HETATM   16  C   UNL     1      -7.440   2.842  69.203  1.00  0.00    -0.044 A  
HETATM   17  C   UNL     1      -8.027   3.454  68.100  1.00  0.00    -0.074 A  
ENDROOT
BRANCH   4  18
HETATM   18  C   UNL     1     -11.174   9.165  69.071  1.00  0.00     0.216 C  
BRANCH  18  19
HETATM   19  C   UNL     1     -11.179  10.437  69.910  1.00  0.00    -0.371 C  
BRANCH  19  20
HETATM   20  C   UNL     1     -10.487  11.581  69.183  1.00  0.00    -0.135 C  
BRANCH  20  21
HETATM   21  C   UNL     1     -11.478  12.630  68.734  1.00  0.00    -0.306 C  
HETATM   22  O   UNL     1     -12.096  13.337  69.527  1.00  0.00    -0.303 OA 
BRANCH  21  23
HETATM   23  C   UNL     1     -11.700  12.805  67.272  1.00  0.00    -0.440 A  
HETATM   24  C   UNL     1     -11.397  11.926  65.034  1.00  0.00    -0.333 A  
HETATM   25  C   UNL     1     -11.223  11.806  66.410  1.00  0.00    -0.382 A  
HETATM   26  C   UNL     1     -12.045  13.043  64.520  1.00  0.00    -0.410 A  
HETATM   27  F   UNL     1     -12.203  13.163  63.199  1.00  0.00    -0.610 F  
HETATM   28  C   UNL     1     -12.359  13.924  66.740  1.00  0.00    -0.370 A  
HETATM   29  C   UNL     1     -12.529  14.041  65.359  1.00  0.00    -0.520 A  
ENDBRANCH  21  23
ENDBRANCH  20  21
ENDBRANCH  19  20
ENDBRANCH  18  19
ENDBRANCH   4  18
TORSDOF 5
ENDMDL
MODEL      181
REMARK 921   NORMALIZED FREE ENERGY PREDICTED BY IDOCK:   -4.55 KCAL/MOL
REMARK 922        TOTAL FREE ENERGY PREDICTED BY IDOCK:   -6.64 KCAL/MOL
REMARK 923 INTER-LIGAND FREE ENERGY PREDICTED BY IDOCK:   -6.03 KCAL/MOL
REMARK 924 INTRA-LIGAND FREE ENERGY PREDICTED BY IDOCK:   -0.62 KCAL/MOL
REMARK 927      BINDING AFFINITY PREDICTED BY RF-SCORE:    0.00 PKD
ROOT
HETATM    1  C   UNL     1     -10.407  11.705  67.879  1.00  0.00    -0.188 C  
HETATM    2  C   UNL     1     -11.163  10.401  67.948  1.00  0.00    -0.332 C  
HETATM    3  C   UNL     1     -10.531   9.379  67.032  1.00  0.00    -0.231 C  
HETATM    4  N   UNL     1      -9.122   9.131  67.379  1.00  0.00    -0.127 NA 
HETATM    5  C   UNL     1     -11.028  16.076  64.861  1.00  0.00    -0.384 C  
HETATM    6  C   UNL     1      -8.310  10.378  67.347  1.00  0.00    -0.121 C  
HETATM    7  C   UNL     1      -8.877  11.560  68.154  1.00  0.00    -0.165 C  
HETATM    8  N   UNL     1     -10.899  15.086  65.900  1.00  0.00    -0.328 NA 
HETATM    9  C   UNL     1     -11.997  14.107  66.103  1.00  0.00    -0.422 C  
HETATM   10  C   UNL     1      -8.445  12.912  67.605  1.00  0.00    -0.183 A  
HETATM   11  C   UNL     1      -7.367  13.730  67.833  1.00  0.00    -0.155 A  
HETATM   12  C   UNL     1     -11.547  12.698  65.736  1.00  0.00    -0.387 C  
HETATM   13  N   UNL     1     -10.417  12.295  66.544  1.00  0.00    -0.224 NA 
HETATM   14  C   UNL     1      -9.485  13.347  66.775  1.00  0.00    -0.261 A  
HETATM   15  C   UNL     1      -7.406  15.018  67.271  1.00  0.00    -0.195 A  
HETATM   16  C   UNL     1      -8.548  15.498  66.570  1.00  0.00    -0.320 A  
HETATM   17  C   UNL     1      -9.643  14.667  66.355  1.00  0.00    -0.301 A  
ENDROOT
BRANCH   4  18
HETATM   18  C   UNL     1      -8.608   8.156  66.394  1.00  0.00    -0.139 C  
BRANCH  18  19
HETATM   19  C   UNL     1      -9.180   6.754  66.562  1.00  0.00    -0.190 C  
BRANCH  19  20
HETATM   20  C   UNL     1      -9.579   6.490  68.007  1.00  0.00    -0.119 C  
BRANCH  20  21
HETATM   21  C   UNL     1      -8.383   6.113  68.851  1.00  0.00    -0.115 C  
HETATM   22  O   UNL     1      -7.490   5.376  68.438  1.00  0.00    -0.071 OA 
BRANCH  21  23
HETATM   23  C   UNL     1      -8.296   6.666  70.231  1.00  0.00    -0.134 A  
HETATM   24  C   UNL     1      -9.317   8.017  71.965  1.00  0.00    -0.237 A  
HETATM   25  C   UNL     1      -9.354   7.468  70.686  1.00  0.00    -0.163 A  
HETATM   26  C   UNL     1      -8.223   7.767  72.787  1.00  0.00    -0.126 A  
HETATM   27  F   UNL     1      -8.184   8.302  74.011  1.00  0.00    -0.256 F  
HETATM   28  C   UNL     1      -7.202   6.417  71.073  1.00  0.00    -0.078 A  
HETATM   29  C   UNL     1      -7.169   6.972  72.354  1.00  0.00    -0.073 A  
ENDBRANCH  21  23
ENDBRANCH  20  21
ENDBRANCH  19  20
ENDBRANCH  18  19
ENDBRANCH   4  18
TORSDOF 5
ENDMDL
MODEL      182
REMARK 921   NORMALIZED FREE ENERGY PREDICTED BY IDOCK:   -4.51 KCAL/MOL
REMARK 922        TOTAL FREE ENERGY PREDICTED BY IDOCK:   -6.59 KCAL/MOL
REMARK 923 INTER-LIGAND FREE ENERGY PREDICTED BY IDOCK:   -5.39 KCAL/MOL
REMARK 924 INTRA-LIGAND FREE ENERGY PREDICTED BY IDOCK:   -1.20 KCAL/MOL
REMARK 927      BINDING AFFINITY PREDICTED BY RF-SCORE:    0.00 PKD
ROOT
HETATM    1  C   UNL     1      -8.932   9.258  70.787  1.00  0.00    -0.232 C  
HETATM    2  C   UNL     1      -7.761   9.964  70.151  1.00  0.00    -0.188 C  
HETATM    3  C   UNL     1      -7.942  10.035  68.652  1.00  0.00    -0.097 C  
HETATM    4  N   UNL     1      -9.180  10.740  68.284  1.00  0.00    -0.151 NA 
HETATM    5  C   UNL     1      -9.801   4.134  72.049  1.00  0.00    -0.174 C  
HETATM    6  C   UNL     1     -10.385  10.109  68.888  1.00  0.00    -0.206 C  
HETATM    7  C   UNL     1     -10.318   9.870  70.408  1.00  0.00    -0.322 C  
HETATM    8  N   UNL     1      -9.609   5.561  71.999  1.00  0.00    -0.150 NA 
HETATM    9  C   UNL     1      -8.241   6.097  71.779  1.00  0.00    -0.114 C  
HETATM   10  C   UNL     1     -11.184   8.704  70.861  1.00  0.00    -0.311 A  
HETATM   11  C   UNL     1     -12.494   8.590  71.256  1.00  0.00    -0.275 A  
HETATM   12  C   UNL     1      -8.136   6.786  70.422  1.00  0.00    -0.116 C  
HETATM   13  N   UNL     1      -9.079   7.879  70.330  1.00  0.00    -0.153 NA 
HETATM   14  C   UNL     1     -10.337   7.593  70.934  1.00  0.00    -0.201 A  
HETATM   15  C   UNL     1     -12.898   7.357  71.798  1.00  0.00    -0.365 A  
HETATM   16  C   UNL     1     -11.976   6.295  72.018  1.00  0.00    -0.353 A  
HETATM   17  C   UNL     1     -10.648   6.423  71.627  1.00  0.00    -0.222 A  
ENDROOT
BRANCH   4  18
HETATM   18  C   UNL     1      -9.265  10.706  66.808  1.00  0.00    -0.156 C  
BRANCH  18  19
HETATM   19  C   UNL     1      -9.795   9.389  66.256  1.00  0.00    -0.351 C  
BRANCH  19  20
HETATM   20  C   UNL     1      -8.945   8.895  65.094  1.00  0.00    -0.189 C  
BRANCH  20  21
HETATM   21  C   UNL     1      -7.898   7.907  65.555  1.00  0.00    -0.112 C  
HETATM   22  O   UNL     1      -6.745   8.242  65.815  1.00  0.00    -0.052 OA 
BRANCH  21  23
HETATM   23  C   UNL     1      -8.296   6.479  65.698  1.00  0.00    -0.144 A  
HETATM   24  C   UNL     1      -9.003   4.687  67.168  1.00  0.00    -0.118 A  
HETATM   25  C   UNL     1      -8.633   6.016  66.979  1.00  0.00    -0.107 A  
HETATM   26  C   UNL     1      -9.033   3.822  66.080  1.00  0.00    -0.135 A  
HETATM   27  F   UNL     1      -9.379   2.545  66.264  1.00  0.00    -0.142 F  
HETATM   28  C   UNL     1      -8.338   5.598  64.608  1.00  0.00    -0.119 A  
HETATM   29  C   UNL     1      -8.707   4.265  64.803  1.00  0.00    -0.135 A  
ENDBRANCH  21  23
ENDBRANCH  20  21
ENDBRANCH  19  20
ENDBRANCH  18  19
ENDBRANCH   4  18
TORSDOF 5
ENDMDL
MODEL      183
REMARK 921   NORMALIZED FREE ENERGY PREDICTED BY IDOCK:   -4.51 KCAL/MOL
REMARK 922        TOTAL FREE ENERGY PREDICTED BY IDOCK:   -6.59 KCAL/MOL
REMARK 923 INTER-LIGAND FREE ENERGY PREDICTED BY IDOCK:   -4.86 KCAL/MOL
REMARK 924 INTRA-LIGAND FREE ENERGY PREDICTED BY IDOCK:   -1.73 KCAL/MOL
REMARK 927      BINDING AFFINITY PREDICTED BY RF-SCORE:    0.00 PKD
ROOT
HETATM    1  C   UNL     1      -6.619   8.265  69.131  1.00  0.00    -0.043 C  
HETATM    2  C   UNL     1      -5.440   7.512  68.565  1.00  0.00    -0.026 C  
HETATM    3  C   UNL     1      -5.913   6.414  67.641  1.00  0.00    -0.017 C  
HETATM    4  N   UNL     1      -6.717   6.945  66.528  1.00  0.00    -0.051 NA 
HETATM    5  C   UNL     1      -9.483   7.640  73.605  1.00  0.00    -0.282 C  
HETATM    6  C   UNL     1      -7.897   7.716  67.008  1.00  0.00    -0.112 C  
HETATM    7  C   UNL     1      -7.596   8.815  68.043  1.00  0.00    -0.097 C  
HETATM    8  N   UNL     1      -8.657   8.079  72.508  1.00  0.00    -0.152 NA 
HETATM    9  C   UNL     1      -7.294   7.508  72.360  1.00  0.00    -0.074 C  
HETATM   10  C   UNL     1      -8.776   9.103  68.960  1.00  0.00    -0.135 A  
HETATM   11  C   UNL     1      -9.849   9.956  68.888  1.00  0.00    -0.179 A  
HETATM   12  C   UNL     1      -7.198   6.642  71.108  1.00  0.00    -0.078 C  
HETATM   13  N   UNL     1      -7.503   7.417  69.926  1.00  0.00    -0.083 NA 
HETATM   14  C   UNL     1      -8.565   8.347  70.118  1.00  0.00    -0.131 A  
HETATM   15  C   UNL     1     -10.647  10.084  70.038  1.00  0.00    -0.344 A  
HETATM   16  C   UNL     1     -10.316   9.432  71.260  1.00  0.00    -0.363 A  
HETATM   17  C   UNL     1      -9.219   8.580  71.328  1.00  0.00    -0.200 A  
ENDROOT
BRANCH   4  18
HETATM   18  C   UNL     1      -7.153   5.781  65.727  1.00  0.00    -0.070 C  
BRANCH  18  19
HETATM   19  C   UNL     1      -6.519   4.466  66.161  1.00  0.00    -0.041 C  
BRANCH  19  20
HETATM   20  C   UNL     1      -7.497   3.618  66.960  1.00  0.00    -0.075 C  
BRANCH  20  21
HETATM   21  C   UNL     1      -8.930   3.949  66.611  1.00  0.00    -0.135 C  
HETATM   22  O   UNL     1      -9.445   3.612  65.547  1.00  0.00    -0.155 OA 
BRANCH  21  23
HETATM   23  C   UNL     1      -9.737   4.709  67.606  1.00  0.00    -0.207 A  
HETATM   24  C   UNL     1     -11.391   6.432  68.015  1.00  0.00    -0.086 A  
HETATM   25  C   UNL     1     -10.620   5.687  67.126  1.00  0.00    -0.344 A  
HETATM   26  C   UNL     1     -11.277   6.201  69.381  1.00  0.00    -0.396 A  
HETATM   27  F   UNL     1     -12.010   6.921  70.235  1.00  0.00    -0.368 F  
HETATM   28  C   UNL     1      -9.637   4.480  68.987  1.00  0.00    -0.245 A  
HETATM   29  C   UNL     1     -10.410   5.232  69.874  1.00  0.00    -0.374 A  
ENDBRANCH  21  23
ENDBRANCH  20  21
ENDBRANCH  19  20
ENDBRANCH  18  19
ENDBRANCH   4  18
TORSDOF 5
ENDMDL
MODEL      184
REMARK 921   NORMALIZED FREE ENERGY PREDICTED BY IDOCK:   -4.48 KCAL/MOL
REMARK 922        TOTAL FREE ENERGY PREDICTED BY IDOCK:   -6.55 KCAL/MOL
REMARK 923 INTER-LIGAND FREE ENERGY PREDICTED BY IDOCK:   -5.56 KCAL/MOL
REMARK 924 INTRA-LIGAND FREE ENERGY PREDICTED BY IDOCK:   -1.00 KCAL/MOL
REMARK 927      BINDING AFFINITY PREDICTED BY RF-SCORE:    0.00 PKD
ROOT
HETATM    1  C   UNL     1      -8.515   8.633  66.180  1.00  0.00    -0.133 C  
HETATM    2  C   UNL     1      -8.730   8.666  64.687  1.00  0.00    -0.065 C  
HETATM    3  C   UNL     1      -9.830   9.642  64.338  1.00  0.00     0.355 C  
HETATM    4  N   UNL     1      -9.522  11.003  64.805  1.00  0.00    -0.223 NA 
HETATM    5  C   UNL     1     -10.564   5.560  70.048  1.00  0.00    -0.314 C  
HETATM    6  C   UNL     1      -9.282  11.050  66.273  1.00  0.00    -0.182 C  
HETATM    7  C   UNL     1      -8.254  10.038  66.811  1.00  0.00    -0.121 C  
HETATM    8  N   UNL     1      -9.752   6.281  69.101  1.00  0.00    -0.134 NA 
HETATM    9  C   UNL     1      -9.773   5.869  67.674  1.00  0.00    -0.115 C  
HETATM   10  C   UNL     1      -8.504   9.656  68.262  1.00  0.00    -0.118 A  
HETATM   11  C   UNL     1      -8.095  10.176  69.465  1.00  0.00    -0.176 A  
HETATM   12  C   UNL     1     -10.420   6.942  66.805  1.00  0.00    -0.230 C  
HETATM   13  N   UNL     1      -9.698   8.190  66.913  1.00  0.00    -0.204 NA 
HETATM   14  C   UNL     1      -9.239   8.466  68.233  1.00  0.00    -0.134 A  
HETATM   15  C   UNL     1      -8.377   9.425  70.620  1.00  0.00    -0.217 A  
HETATM   16  C   UNL     1      -8.979   8.136  70.550  1.00  0.00    -0.145 A  
HETATM   17  C   UNL     1      -9.377   7.611  69.326  1.00  0.00    -0.148 A  
ENDROOT
BRANCH   4  18
HETATM   18  C   UNL     1     -10.682  11.847  64.445  1.00  0.00    -0.323 C  
BRANCH  18  19
HETATM   19  C   UNL     1     -10.350  13.330  64.337  1.00  0.00    -0.372 C  
BRANCH  19  20
HETATM   20  C   UNL     1     -10.869  14.102  65.542  1.00  0.00    -0.312 C  
BRANCH  20  21
HETATM   21  C   UNL     1     -10.023  15.322  65.824  1.00  0.00    -0.360 C  
HETATM   22  O   UNL     1     -10.251  16.416  65.312  1.00  0.00    -0.575 OA 
BRANCH  21  23
HETATM   23  C   UNL     1      -8.876  15.178  66.762  1.00  0.00    -0.302 A  
HETATM   24  C   UNL     1      -6.737  16.022  67.528  1.00  0.00    -0.205 A  
HETATM   25  C   UNL     1      -7.837  16.117  66.679  1.00  0.00    -0.288 A  
HETATM   26  C   UNL     1      -6.675  14.988  68.456  1.00  0.00    -0.098 A  
HETATM   27  F   UNL     1      -5.615  14.892  69.264  1.00  0.00    -0.092 F  
HETATM   28  C   UNL     1      -8.804  14.144  67.708  1.00  0.00    -0.185 A  
HETATM   29  C   UNL     1      -7.698  14.052  68.556  1.00  0.00    -0.139 A  
ENDBRANCH  21  23
ENDBRANCH  20  21
ENDBRANCH  19  20
ENDBRANCH  18  19
ENDBRANCH   4  18
TORSDOF 5
ENDMDL
MODEL      185
REMARK 921   NORMALIZED FREE ENERGY PREDICTED BY IDOCK:   -4.48 KCAL/MOL
REMARK 922        TOTAL FREE ENERGY PREDICTED BY IDOCK:   -6.55 KCAL/MOL
REMARK 923 INTER-LIGAND FREE ENERGY PREDICTED BY IDOCK:   -5.65 KCAL/MOL
REMARK 924 INTRA-LIGAND FREE ENERGY PREDICTED BY IDOCK:   -0.90 KCAL/MOL
REMARK 927      BINDING AFFINITY PREDICTED BY RF-SCORE:    0.00 PKD
ROOT
HETATM    1  C   UNL     1     -11.555   6.449  71.394  1.00  0.00    -0.311 C  
HETATM    2  C   UNL     1     -12.074   7.818  71.758  1.00  0.00    -0.332 C  
HETATM    3  C   UNL     1     -11.044   8.874  71.428  1.00  0.00    -0.306 C  
HETATM    4  N   UNL     1     -10.690   8.864  69.999  1.00  0.00    -0.226 NA 
HETATM    5  C   UNL     1      -8.895   2.743  74.184  1.00  0.00    -0.075 C  
HETATM    6  C   UNL     1     -10.181   7.536  69.559  1.00  0.00    -0.207 C  
HETATM    7  C   UNL     1     -11.072   6.332  69.913  1.00  0.00    -0.469 C  
HETATM    8  N   UNL     1      -9.813   3.527  73.399  1.00  0.00    -0.109 NA 
HETATM    9  C   UNL     1     -10.590   4.606  74.062  1.00  0.00    -0.286 C  
HETATM   10  C   UNL     1     -10.285   5.038  70.060  1.00  0.00    -0.339 A  
HETATM   11  C   UNL     1      -9.907   4.052  69.184  1.00  0.00    -0.072 A  
HETATM   12  C   UNL     1     -10.156   5.979  73.562  1.00  0.00    -0.201 C  
HETATM   13  N   UNL     1     -10.349   6.086  72.132  1.00  0.00    -0.193 NA 
HETATM   14  C   UNL     1     -10.027   4.890  71.427  1.00  0.00    -0.197 A  
HETATM   15  C   UNL     1      -9.340   2.887  69.731  1.00  0.00    -0.207 A  
HETATM   16  C   UNL     1      -9.240   2.690  71.138  1.00  0.00    -0.196 A  
HETATM   17  C   UNL     1      -9.639   3.689  72.019  1.00  0.00    -0.144 A  
ENDROOT
BRANCH   4  18
HETATM   18  C   UNL     1      -9.653   9.902  69.812  1.00  0.00    -0.231 C  
BRANCH  18  19
HETATM   19  C   UNL     1      -8.262   9.338  69.556  1.00  0.00    -0.121 C  
BRANCH  19  20
HETATM   20  C   UNL     1      -7.627   9.971  68.327  1.00  0.00    -0.084 C  
BRANCH  20  21
HETATM   21  C   UNL     1      -7.830   9.116  67.097  1.00  0.00    -0.102 C  
HETATM   22  O   UNL     1      -7.492   7.935  67.052  1.00  0.00    -0.088 OA 
BRANCH  21  23
HETATM   23  C   UNL     1      -8.468   9.741  65.906  1.00  0.00    -0.136 A  
HETATM   24  C   UNL     1     -10.513  10.425  64.799  1.00  0.00    -0.087 A  
HETATM   25  C   UNL     1      -9.866   9.856  65.894  1.00  0.00    -0.342 A  
HETATM   26  C   UNL     1      -9.764  10.875  63.718  1.00  0.00    -0.307 A  
HETATM   27  F   UNL     1     -10.385  11.412  62.665  1.00  0.00    -0.191 F  
HETATM   28  C   UNL     1      -7.724  10.205  64.811  1.00  0.00    -0.141 A  
HETATM   29  C   UNL     1      -8.377  10.773  63.715  1.00  0.00     0.051 A  
ENDBRANCH  21  23
ENDBRANCH  20  21
ENDBRANCH  19  20
ENDBRANCH  18  19
ENDBRANCH   4  18
TORSDOF 5
ENDMDL
MODEL      186
REMARK 921   NORMALIZED FREE ENERGY PREDICTED BY IDOCK:   -4.39 KCAL/MOL
REMARK 922        TOTAL FREE ENERGY PREDICTED BY IDOCK:   -6.43 KCAL/MOL
REMARK 923 INTER-LIGAND FREE ENERGY PREDICTED BY IDOCK:   -6.33 KCAL/MOL
REMARK 924 INTRA-LIGAND FREE ENERGY PREDICTED BY IDOCK:   -0.09 KCAL/MOL
REMARK 927      BINDING AFFINITY PREDICTED BY RF-SCORE:    0.00 PKD
ROOT
HETATM    1  C   UNL     1      -8.470   9.174  67.452  1.00  0.00    -0.115 C  
HETATM    2  C   UNL     1      -7.952  10.589  67.381  1.00  0.00    -0.110 C  
HETATM    3  C   UNL     1      -8.320  11.217  66.056  1.00  0.00    -0.115 C  
HETATM    4  N   UNL     1      -9.776  11.232  65.844  1.00  0.00    -0.215 NA 
HETATM    5  C   UNL     1      -6.274   4.463  66.193  1.00  0.00    -0.032 C  
HETATM    6  C   UNL     1     -10.366   9.867  65.914  1.00  0.00    -0.113 C  
HETATM    7  C   UNL     1     -10.001   9.049  67.166  1.00  0.00    -0.286 C  
HETATM    8  N   UNL     1      -6.891   5.614  66.803  1.00  0.00    -0.062 NA 
HETATM    9  C   UNL     1      -6.068   6.823  67.057  1.00  0.00    -0.032 C  
HETATM   10  C   UNL     1     -10.037   7.548  66.921  1.00  0.00    -0.336 A  
HETATM   11  C   UNL     1     -11.020   6.594  67.016  1.00  0.00    -0.463 A  
HETATM   12  C   UNL     1      -6.514   7.983  66.174  1.00  0.00    -0.046 C  
HETATM   13  N   UNL     1      -7.901   8.310  66.422  1.00  0.00    -0.094 NA 
HETATM   14  C   UNL     1      -8.723   7.166  66.634  1.00  0.00    -0.128 A  
HETATM   15  C   UNL     1     -10.626   5.249  66.894  1.00  0.00    -0.283 A  
HETATM   16  C   UNL     1      -9.257   4.876  66.768  1.00  0.00    -0.122 A  
HETATM   17  C   UNL     1      -8.267   5.849  66.687  1.00  0.00    -0.106 A  
ENDROOT
BRANCH   4  18
HETATM   18  C   UNL     1     -10.003  11.825  64.509  1.00  0.00    -0.242 C  
BRANCH  18  19
HETATM   19  C   UNL     1     -10.379  13.300  64.548  1.00  0.00    -0.394 C  
BRANCH  19  20
HETATM   20  C   UNL     1     -11.740  13.507  65.198  1.00  0.00    -0.341 C  
BRANCH  20  21
HETATM   21  C   UNL     1     -11.635  13.525  66.706  1.00  0.00    -0.363 C  
HETATM   22  O   UNL     1     -12.128  12.648  67.412  1.00  0.00    -0.432 OA 
BRANCH  21  23
HETATM   23  C   UNL     1     -10.902  14.653  67.345  1.00  0.00    -0.298 A  
HETATM   24  C   UNL     1     -10.900  16.415  69.009  1.00  0.00    -0.331 A  
HETATM   25  C   UNL     1     -11.539  15.346  68.384  1.00  0.00    -0.368 A  
HETATM   26  C   UNL     1      -9.629  16.791  68.593  1.00  0.00    -0.255 A  
HETATM   27  F   UNL     1      -9.020  17.822  69.186  1.00  0.00    -0.201 F  
HETATM   28  C   UNL     1      -9.615  15.039  66.939  1.00  0.00    -0.251 A  
HETATM   29  C   UNL     1      -8.980  16.112  67.567  1.00  0.00    -0.197 A  
ENDBRANCH  21  23
ENDBRANCH  20  21
ENDBRANCH  19  20
ENDBRANCH  18  19
ENDBRANCH   4  18
TORSDOF 5
ENDMDL
MODEL      187
REMARK 921   NORMALIZED FREE ENERGY PREDICTED BY IDOCK:   -4.35 KCAL/MOL
REMARK 922        TOTAL FREE ENERGY PREDICTED BY IDOCK:   -6.39 KCAL/MOL
REMARK 923 INTER-LIGAND FREE ENERGY PREDICTED BY IDOCK:   -5.72 KCAL/MOL
REMARK 924 INTRA-LIGAND FREE ENERGY PREDICTED BY IDOCK:   -0.67 KCAL/MOL
REMARK 927      BINDING AFFINITY PREDICTED BY RF-SCORE:    0.00 PKD
ROOT
HETATM    1  C   UNL     1     -10.349   9.746  70.876  1.00  0.00    -0.175 C  
HETATM    2  C   UNL     1     -11.111   8.775  71.743  1.00  0.00    -0.417 C  
HETATM    3  C   UNL     1     -11.559   7.584  70.927  1.00  0.00    -0.286 C  
HETATM    4  N   UNL     1     -10.420   6.882  70.314  1.00  0.00    -0.199 NA 
HETATM    5  C   UNL     1     -11.878  14.019  68.047  1.00  0.00    -0.368 C  
HETATM    6  C   UNL     1      -9.607   7.782  69.451  1.00  0.00    -0.156 C  
HETATM    7  C   UNL     1      -9.154   9.099  70.106  1.00  0.00    -0.229 C  
HETATM    8  N   UNL     1     -11.290  13.061  68.949  1.00  0.00    -0.270 NA 
HETATM    9  C   UNL     1     -12.116  12.513  70.055  1.00  0.00    -0.266 C  
HETATM   10  C   UNL     1      -8.936  10.217  69.097  1.00  0.00    -0.181 A  
HETATM   11  C   UNL     1      -7.860  10.627  68.352  1.00  0.00    -0.113 A  
HETATM   12  C   UNL     1     -12.392  11.028  69.847  1.00  0.00    -0.288 C  
HETATM   13  N   UNL     1     -11.154  10.283  69.783  1.00  0.00    -0.268 NA 
HETATM   14  C   UNL     1     -10.120  10.962  69.078  1.00  0.00    -0.196 A  
HETATM   15  C   UNL     1      -7.983  11.844  67.657  1.00  0.00    -0.146 A  
HETATM   16  C   UNL     1      -9.137  12.668  67.786  1.00  0.00    -0.192 A  
HETATM   17  C   UNL     1     -10.218  12.251  68.554  1.00  0.00    -0.206 A  
ENDROOT
BRANCH   4  18
HETATM   18  C   UNL     1     -10.985   5.774  69.515  1.00  0.00    -0.304 C  
BRANCH  18  19
HETATM   19  C   UNL     1     -10.005   5.178  68.513  1.00  0.00    -0.221 C  
BRANCH  19  20
HETATM   20  C   UNL     1     -10.542   5.271  67.092  1.00  0.00    -0.227 C  
BRANCH  20  21
HETATM   21  C   UNL     1      -9.444   5.596  66.106  1.00  0.00    -0.139 C  
HETATM   22  O   UNL     1      -8.868   6.682  66.094  1.00  0.00    -0.147 OA 
BRANCH  21  23
HETATM   23  C   UNL     1      -9.053   4.550  65.121  1.00  0.00    -0.150 A  
HETATM   24  C   UNL     1      -8.671   2.199  64.671  1.00  0.00    -0.103 A  
HETATM   25  C   UNL     1      -9.038   3.215  65.551  1.00  0.00    -0.151 A  
HETATM   26  C   UNL     1      -8.318   2.519  63.365  1.00  0.00    -0.085 A  
HETATM   27  F   UNL     1      -7.958   1.545  62.524  1.00  0.00    -0.046 F  
HETATM   28  C   UNL     1      -8.702   4.857  63.797  1.00  0.00    -0.108 A  
HETATM   29  C   UNL     1      -8.333   3.836  62.920  1.00  0.00    -0.081 A  
ENDBRANCH  21  23
ENDBRANCH  20  21
ENDBRANCH  19  20
ENDBRANCH  18  19
ENDBRANCH   4  18
TORSDOF 5
ENDMDL
MODEL      188
REMARK 921   NORMALIZED FREE ENERGY PREDICTED BY IDOCK:   -4.33 KCAL/MOL
REMARK 922        TOTAL FREE ENERGY PREDICTED BY IDOCK:   -6.35 KCAL/MOL
REMARK 923 INTER-LIGAND FREE ENERGY PREDICTED BY IDOCK:   -5.91 KCAL/MOL
REMARK 924 INTRA-LIGAND FREE ENERGY PREDICTED BY IDOCK:   -0.44 KCAL/MOL
REMARK 927      BINDING AFFINITY PREDICTED BY RF-SCORE:    0.00 PKD
ROOT
HETATM    1  C   UNL     1     -11.772  12.740  67.788  1.00  0.00    -0.359 C  
HETATM    2  C   UNL     1     -11.080  13.044  66.482  1.00  0.00    -0.315 C  
HETATM    3  C   UNL     1      -9.692  12.447  66.472  1.00  0.00    -0.240 C  
HETATM    4  N   UNL     1      -9.723  10.988  66.665  1.00  0.00    -0.191 NA 
HETATM    5  C   UNL     1     -12.095  15.421  72.404  1.00  0.00    -0.419 C  
HETATM    6  C   UNL     1     -10.405  10.607  67.933  1.00  0.00    -0.199 C  
HETATM    7  C   UNL     1     -11.801  11.220  68.146  1.00  0.00    -0.276 C  
HETATM    8  N   UNL     1     -12.303  14.720  71.163  1.00  0.00    -0.308 NA 
HETATM    9  C   UNL     1     -11.938  15.389  69.888  1.00  0.00    -0.359 C  
HETATM   10  C   UNL     1     -12.163  11.367  69.617  1.00  0.00    -0.316 A  
HETATM   11  C   UNL     1     -12.771  10.545  70.532  1.00  0.00    -0.385 A  
HETATM   12  C   UNL     1     -10.759  14.689  69.222  1.00  0.00    -0.243 C  
HETATM   13  N   UNL     1     -11.078  13.306  68.941  1.00  0.00    -0.258 NA 
HETATM   14  C   UNL     1     -11.841  12.682  69.969  1.00  0.00    -0.285 A  
HETATM   15  C   UNL     1     -13.116  11.107  71.774  1.00  0.00    -0.536 A  
HETATM   16  C   UNL     1     -12.930  12.492  72.049  1.00  0.00    -0.379 A  
HETATM   17  C   UNL     1     -12.324  13.321  71.110  1.00  0.00    -0.232 A  
ENDROOT
BRANCH   4  18
HETATM   18  C   UNL     1      -8.317  10.532  66.680  1.00  0.00    -0.131 C  
BRANCH  18  19
HETATM   19  C   UNL     1      -8.051   9.335  65.777  1.00  0.00    -0.115 C  
BRANCH  19  20
HETATM   20  C   UNL     1      -6.564   9.020  65.699  1.00  0.00    -0.068 C  
BRANCH  20  21
HETATM   21  C   UNL     1      -6.153   8.629  64.298  1.00  0.00    -0.067 C  
HETATM   22  O   UNL     1      -5.989   9.456  63.404  1.00  0.00    -0.087 OA 
BRANCH  21  23
HETATM   23  C   UNL     1      -5.940   7.184  64.008  1.00  0.00    -0.037 A  
HETATM   24  C   UNL     1      -6.049   5.382  62.391  1.00  0.00    -0.018 A  
HETATM   25  C   UNL     1      -6.223   6.726  62.713  1.00  0.00    -0.039 A  
HETATM   26  C   UNL     1      -5.595   4.498  63.364  1.00  0.00    -0.013 A  
HETATM   27  F   UNL     1      -5.437   3.207  63.058  1.00  0.00    -0.007 F  
HETATM   28  C   UNL     1      -5.475   6.283  64.977  1.00  0.00    -0.018 A  
HETATM   29  C   UNL     1      -5.305   4.936  64.651  1.00  0.00    -0.013 A  
ENDBRANCH  21  23
ENDBRANCH  20  21
ENDBRANCH  19  20
ENDBRANCH  18  19
ENDBRANCH   4  18
TORSDOF 5
ENDMDL
MODEL      189
REMARK 921   NORMALIZED FREE ENERGY PREDICTED BY IDOCK:   -4.29 KCAL/MOL
REMARK 922        TOTAL FREE ENERGY PREDICTED BY IDOCK:   -6.31 KCAL/MOL
REMARK 923 INTER-LIGAND FREE ENERGY PREDICTED BY IDOCK:   -5.65 KCAL/MOL
REMARK 924 INTRA-LIGAND FREE ENERGY PREDICTED BY IDOCK:   -0.66 KCAL/MOL
REMARK 927      BINDING AFFINITY PREDICTED BY RF-SCORE:    0.00 PKD
ROOT
HETATM    1  C   UNL     1      -8.964   7.149  67.845  1.00  0.00    -0.122 C  
HETATM    2  C   UNL     1     -10.260   7.864  67.555  1.00  0.00    -0.308 C  
HETATM    3  C   UNL     1     -10.909   8.316  68.843  1.00  0.00     0.034 C  
HETATM    4  N   UNL     1     -10.032   9.214  69.610  1.00  0.00    -0.183 NA 
HETATM    5  C   UNL     1      -7.787   1.990  68.621  1.00  0.00    -0.052 C  
HETATM    6  C   UNL     1      -8.722   8.582  69.925  1.00  0.00    -0.132 C  
HETATM    7  C   UNL     1      -7.972   7.975  68.725  1.00  0.00    -0.119 C  
HETATM    8  N   UNL     1      -7.911   3.359  68.188  1.00  0.00    -0.073 NA 
HETATM    9  C   UNL     1      -9.157   3.788  67.502  1.00  0.00    -0.158 C  
HETATM   10  C   UNL     1      -7.053   6.830  69.121  1.00  0.00    -0.088 A  
HETATM   11  C   UNL     1      -5.743   6.760  69.524  1.00  0.00    -0.015 A  
HETATM   12  C   UNL     1      -9.943   4.772  68.362  1.00  0.00    -0.086 C  
HETATM   13  N   UNL     1      -9.148   5.946  68.651  1.00  0.00    -0.116 NA 
HETATM   14  C   UNL     1      -7.777   5.653  68.903  1.00  0.00    -0.089 A  
HETATM   15  C   UNL     1      -5.167   5.480  69.621  1.00  0.00    -0.004 A  
HETATM   16  C   UNL     1      -5.874   4.307  69.234  1.00  0.00    -0.018 A  
HETATM   17  C   UNL     1      -7.197   4.388  68.813  1.00  0.00    -0.056 A  
ENDROOT
BRANCH   4  18
HETATM   18  C   UNL     1     -10.755   9.549  70.857  1.00  0.00    -0.333 C  
BRANCH  18  19
HETATM   19  C   UNL     1     -12.098  10.229  70.623  1.00  0.00    -0.433 C  
BRANCH  19  20
HETATM   20  C   UNL     1     -11.931  11.730  70.433  1.00  0.00    -0.422 C  
BRANCH  20  21
HETATM   21  C   UNL     1     -11.862  12.098  68.969  1.00  0.00    -0.306 C  
HETATM   22  O   UNL     1     -12.278  11.356  68.081  1.00  0.00    -0.602 OA 
BRANCH  21  23
HETATM   23  C   UNL     1     -11.268  13.414  68.603  1.00  0.00    -0.304 A  
HETATM   24  C   UNL     1     -11.478  15.828  68.604  1.00  0.00    -0.389 A  
HETATM   25  C   UNL     1     -11.986  14.573  68.931  1.00  0.00    -0.326 A  
HETATM   26  C   UNL     1     -10.257  15.923  67.947  1.00  0.00    -0.251 A  
HETATM   27  F   UNL     1      -9.775  17.127  67.624  1.00  0.00    -0.247 F  
HETATM   28  C   UNL     1     -10.033  13.524  67.946  1.00  0.00    -0.245 A  
HETATM   29  C   UNL     1      -9.529  14.785  67.618  1.00  0.00    -0.204 A  
ENDBRANCH  21  23
ENDBRANCH  20  21
ENDBRANCH  19  20
ENDBRANCH  18  19
ENDBRANCH   4  18
TORSDOF 5
ENDMDL
MODEL      190
REMARK 921   NORMALIZED FREE ENERGY PREDICTED BY IDOCK:   -4.29 KCAL/MOL
REMARK 922        TOTAL FREE ENERGY PREDICTED BY IDOCK:   -6.30 KCAL/MOL
REMARK 923 INTER-LIGAND FREE ENERGY PREDICTED BY IDOCK:   -5.81 KCAL/MOL
REMARK 924 INTRA-LIGAND FREE ENERGY PREDICTED BY IDOCK:   -0.49 KCAL/MOL
REMARK 927      BINDING AFFINITY PREDICTED BY RF-SCORE:    0.00 PKD
ROOT
HETATM    1  C   UNL     1     -10.228   9.780  67.302  1.00  0.00    -0.232 C  
HETATM    2  C   UNL     1     -11.267  10.712  67.875  1.00  0.00    -0.376 C  
HETATM    3  C   UNL     1     -10.623  12.003  68.325  1.00  0.00    -0.212 C  
HETATM    4  N   UNL     1      -9.933  12.684  67.218  1.00  0.00    -0.210 NA 
HETATM    5  C   UNL     1      -7.253   5.913  69.492  1.00  0.00    -0.070 C  
HETATM    6  C   UNL     1      -8.897  11.820  66.589  1.00  0.00    -0.189 C  
HETATM    7  C   UNL     1      -9.370  10.418  66.163  1.00  0.00    -0.210 C  
HETATM    8  N   UNL     1      -8.153   6.737  68.726  1.00  0.00    -0.119 NA 
HETATM    9  C   UNL     1      -9.400   7.229  69.365  1.00  0.00    -0.151 C  
HETATM   10  C   UNL     1      -8.247   9.392  66.158  1.00  0.00    -0.111 A  
HETATM   11  C   UNL     1      -7.336   8.986  65.215  1.00  0.00    -0.092 A  
HETATM   12  C   UNL     1      -9.361   8.742  69.549  1.00  0.00    -0.157 C  
HETATM   13  N   UNL     1      -9.204   9.407  68.274  1.00  0.00    -0.131 NA 
HETATM   14  C   UNL     1      -8.314   8.732  67.389  1.00  0.00    -0.109 A  
HETATM   15  C   UNL     1      -6.559   7.853  65.517  1.00  0.00    -0.041 A  
HETATM   16  C   UNL     1      -6.762   7.098  66.707  1.00  0.00    -0.060 A  
HETATM   17  C   UNL     1      -7.697   7.509  67.651  1.00  0.00    -0.115 A  
ENDROOT
BRANCH   4  18
HETATM   18  C   UNL     1      -9.314  13.900  67.788  1.00  0.00    -0.204 C  
BRANCH  18  19
HETATM   19  C   UNL     1      -8.542  14.730  66.771  1.00  0.00    -0.226 C  
BRANCH  19  20
HETATM   20  C   UNL     1      -9.447  15.741  66.082  1.00  0.00    -0.375 C  
BRANCH  20  21
HETATM   21  C   UNL     1      -9.562  17.016  66.885  1.00  0.00    -0.257 C  
HETATM   22  O   UNL     1     -10.463  17.204  67.701  1.00  0.00    -0.335 OA 
BRANCH  21  23
HETATM   23  C   UNL     1      -8.536  18.075  66.673  1.00  0.00    -0.281 A  
HETATM   24  C   UNL     1      -7.741  20.297  67.222  1.00  0.00    -0.357 A  
HETATM   25  C   UNL     1      -8.668  19.272  67.391  1.00  0.00    -0.326 A  
HETATM   26  C   UNL     1      -6.685  20.126  66.333  1.00  0.00    -0.221 A  
HETATM   27  F   UNL     1      -5.801  21.113  66.164  1.00  0.00    -0.241 F  
HETATM   28  C   UNL     1      -7.462  17.913  65.784  1.00  0.00    -0.105 A  
HETATM   29  C   UNL     1      -6.536  18.944  65.616  1.00  0.00    -0.303 A  
ENDBRANCH  21  23
ENDBRANCH  20  21
ENDBRANCH  19  20
ENDBRANCH  18  19
ENDBRANCH   4  18
TORSDOF 5
ENDMDL
MODEL      191
REMARK 921   NORMALIZED FREE ENERGY PREDICTED BY IDOCK:   -4.26 KCAL/MOL
REMARK 922        TOTAL FREE ENERGY PREDICTED BY IDOCK:   -6.27 KCAL/MOL
REMARK 923 INTER-LIGAND FREE ENERGY PREDICTED BY IDOCK:   -5.10 KCAL/MOL
REMARK 924 INTRA-LIGAND FREE ENERGY PREDICTED BY IDOCK:   -1.17 KCAL/MOL
REMARK 927      BINDING AFFINITY PREDICTED BY RF-SCORE:    0.00 PKD
ROOT
HETATM    1  C   UNL     1      -7.719  10.660  69.252  1.00  0.00    -0.142 C  
HETATM    2  C   UNL     1      -6.301  10.358  68.836  1.00  0.00    -0.047 C  
HETATM    3  C   UNL     1      -6.281   9.715  67.468  1.00  0.00    -0.056 C  
HETATM    4  N   UNL     1      -6.902  10.578  66.451  1.00  0.00    -0.111 NA 
HETATM    5  C   UNL     1     -11.328   7.869  72.043  1.00  0.00    -0.292 C  
HETATM    6  C   UNL     1      -8.306  10.933  66.799  1.00  0.00    -0.138 C  
HETATM    7  C   UNL     1      -8.514  11.510  68.211  1.00  0.00    -0.159 C  
HETATM    8  N   UNL     1     -10.391   8.822  71.506  1.00  0.00    -0.274 NA 
HETATM    9  C   UNL     1      -8.938   8.525  71.578  1.00  0.00    -0.213 C  
HETATM   10  C   UNL     1      -9.909  11.245  68.757  1.00  0.00    -0.194 A  
HETATM   11  C   UNL     1     -11.101  11.922  68.687  1.00  0.00    -0.295 A  
HETATM   12  C   UNL     1      -8.357   8.294  70.188  1.00  0.00    -0.124 C  
HETATM   13  N   UNL     1      -8.547   9.461  69.355  1.00  0.00    -0.138 NA 
HETATM   14  C   UNL     1      -9.807  10.096  69.549  1.00  0.00    -0.232 A  
HETATM   15  C   UNL     1     -12.154  11.457  69.495  1.00  0.00    -0.370 A  
HETATM   16  C   UNL     1     -11.977  10.387  70.418  1.00  0.00    -0.409 A  
HETATM   17  C   UNL     1     -10.761   9.715  70.492  1.00  0.00    -0.311 A  
ENDROOT
BRANCH   4  18
HETATM   18  C   UNL     1      -6.862   9.828  65.177  1.00  0.00    -0.109 C  
BRANCH  18  19
HETATM   19  C   UNL     1      -6.802   8.317  65.357  1.00  0.00    -0.062 C  
BRANCH  19  20
HETATM   20  C   UNL     1      -8.008   7.637  64.724  1.00  0.00    -0.137 C  
BRANCH  20  21
HETATM   21  C   UNL     1      -9.033   7.249  65.764  1.00  0.00    -0.015 C  
HETATM   22  O   UNL     1      -9.783   8.069  66.290  1.00  0.00    -0.202 OA 
BRANCH  21  23
HETATM   23  C   UNL     1      -9.130   5.814  66.152  1.00  0.00    -0.161 A  
HETATM   24  C   UNL     1      -9.124   4.168  67.931  1.00  0.00    -0.168 A  
HETATM   25  C   UNL     1      -9.048   5.496  67.516  1.00  0.00    -0.107 A  
HETATM   26  C   UNL     1      -9.278   3.162  66.985  1.00  0.00    -0.172 A  
HETATM   27  F   UNL     1      -9.342   1.888  67.383  1.00  0.00    -0.164 F  
HETATM   28  C   UNL     1      -9.293   4.789  65.208  1.00  0.00    -0.148 A  
HETATM   29  C   UNL     1      -9.366   3.460  65.629  1.00  0.00    -0.147 A  
ENDBRANCH  21  23
ENDBRANCH  20  21
ENDBRANCH  19  20
ENDBRANCH  18  19
ENDBRANCH   4  18
TORSDOF 5
ENDMDL
MODEL      192
REMARK 921   NORMALIZED FREE ENERGY PREDICTED BY IDOCK:   -4.22 KCAL/MOL
REMARK 922        TOTAL FREE ENERGY PREDICTED BY IDOCK:   -6.21 KCAL/MOL
REMARK 923 INTER-LIGAND FREE ENERGY PREDICTED BY IDOCK:   -5.73 KCAL/MOL
REMARK 924 INTRA-LIGAND FREE ENERGY PREDICTED BY IDOCK:   -0.48 KCAL/MOL
REMARK 927      BINDING AFFINITY PREDICTED BY RF-SCORE:    0.00 PKD
ROOT
HETATM    1  C   UNL     1      -9.088   8.059  67.107  1.00  0.00    -0.137 C  
HETATM    2  C   UNL     1      -9.913   9.063  66.341  1.00  0.00    -0.370 C  
HETATM    3  C   UNL     1     -11.021   9.606  67.213  1.00  0.00    -0.037 C  
HETATM    4  N   UNL     1     -10.495  10.250  68.427  1.00  0.00    -0.189 NA 
HETATM    5  C   UNL     1      -9.418   2.743  67.596  1.00  0.00    -0.108 C  
HETATM    6  C   UNL     1      -9.655   9.323  69.233  1.00  0.00    -0.161 C  
HETATM    7  C   UNL     1      -8.533   8.603  68.463  1.00  0.00    -0.131 C  
HETATM    8  N   UNL     1      -9.058   4.118  67.359  1.00  0.00    -0.133 NA 
HETATM    9  C   UNL     1      -9.695   4.846  66.233  1.00  0.00    -0.190 C  
HETATM   10  C   UNL     1      -8.159   7.263  69.079  1.00  0.00    -0.124 A  
HETATM   11  C   UNL     1      -7.262   6.879  70.044  1.00  0.00    -0.080 A  
HETATM   12  C   UNL     1     -10.610   5.954  66.746  1.00  0.00    -0.300 C  
HETATM   13  N   UNL     1      -9.865   6.902  67.544  1.00  0.00    -0.132 NA 
HETATM   14  C   UNL     1      -8.881   6.293  68.375  1.00  0.00    -0.114 A  
HETATM   15  C   UNL     1      -7.055   5.499  70.218  1.00  0.00    -0.062 A  
HETATM   16  C   UNL     1      -7.676   4.534  69.375  1.00  0.00    -0.055 A  
HETATM   17  C   UNL     1      -8.575   4.933  68.391  1.00  0.00    -0.097 A  
ENDROOT
BRANCH   4  18
HETATM   18  C   UNL     1     -11.666  10.698  69.211  1.00  0.00    -0.264 C  
BRANCH  18  19
HETATM   19  C   UNL     1     -11.406  11.948  70.042  1.00  0.00    -0.096 C  
BRANCH  19  20
HETATM   20  C   UNL     1     -12.620  12.866  70.053  1.00  0.00     0.050 C  
BRANCH  20  21
HETATM   21  C   UNL     1     -12.232  14.299  69.766  1.00  0.00    -0.339 C  
HETATM   22  O   UNL     1     -12.366  15.197  70.594  1.00  0.00    -0.316 OA 
BRANCH  21  23
HETATM   23  C   UNL     1     -11.665  14.617  68.426  1.00  0.00    -0.352 A  
HETATM   24  C   UNL     1     -11.472  14.014  66.087  1.00  0.00    -0.350 A  
HETATM   25  C   UNL     1     -11.984  13.766  67.358  1.00  0.00    -0.423 A  
HETATM   26  C   UNL     1     -10.641  15.110  65.885  1.00  0.00    -0.337 A  
HETATM   27  F   UNL     1     -10.143  15.342  64.667  1.00  0.00    -0.293 F  
HETATM   28  C   UNL     1     -10.830  15.723  68.207  1.00  0.00    -0.305 A  
HETATM   29  C   UNL     1     -10.318  15.967  66.931  1.00  0.00    -0.291 A  
ENDBRANCH  21  23
ENDBRANCH  20  21
ENDBRANCH  19  20
ENDBRANCH  18  19
ENDBRANCH   4  18
TORSDOF 5
ENDMDL
MODEL      193
REMARK 921   NORMALIZED FREE ENERGY PREDICTED BY IDOCK:   -4.21 KCAL/MOL
REMARK 922        TOTAL FREE ENERGY PREDICTED BY IDOCK:   -6.21 KCAL/MOL
REMARK 923 INTER-LIGAND FREE ENERGY PREDICTED BY IDOCK:   -5.90 KCAL/MOL
REMARK 924 INTRA-LIGAND FREE ENERGY PREDICTED BY IDOCK:   -0.31 KCAL/MOL
REMARK 927      BINDING AFFINITY PREDICTED BY RF-SCORE:    0.00 PKD
ROOT
HETATM    1  C   UNL     1     -10.839  12.040  67.811  1.00  0.00    -0.215 C  
HETATM    2  C   UNL     1     -11.437  10.675  68.049  1.00  0.00    -0.289 C  
HETATM    3  C   UNL     1     -10.660   9.623  67.293  1.00  0.00    -0.247 C  
HETATM    4  N   UNL     1      -9.244   9.598  67.693  1.00  0.00    -0.130 NA 
HETATM    5  C   UNL     1     -11.878  15.852  64.207  1.00  0.00    -0.071 C  
HETATM    6  C   UNL     1      -8.584  10.918  67.499  1.00  0.00    -0.127 C  
HETATM    7  C   UNL     1      -9.312  12.122  68.127  1.00  0.00    -0.204 C  
HETATM    8  N   UNL     1     -11.665  15.036  65.375  1.00  0.00    -0.235 NA 
HETATM    9  C   UNL     1     -12.646  13.967  65.696  1.00  0.00    -0.512 C  
HETATM   10  C   UNL     1      -9.026  13.428  67.401  1.00  0.00    -0.215 A  
HETATM   11  C   UNL     1      -8.060  14.394  67.529  1.00  0.00    -0.204 A  
HETATM   12  C   UNL     1     -12.021  12.586  65.534  1.00  0.00    -0.442 C  
HETATM   13  N   UNL     1     -10.877  12.438  66.407  1.00  0.00    -0.250 NA 
HETATM   14  C   UNL     1     -10.083  13.617  66.504  1.00  0.00    -0.286 A  
HETATM   15  C   UNL     1      -8.233  15.580  66.793  1.00  0.00    -0.277 A  
HETATM   16  C   UNL     1      -9.402  15.817  66.015  1.00  0.00    -0.384 A  
HETATM   17  C   UNL     1     -10.383  14.838  65.902  1.00  0.00    -0.320 A  
ENDROOT
BRANCH   4  18
HETATM   18  C   UNL     1      -8.586   8.567  66.860  1.00  0.00    -0.117 C  
BRANCH  18  19
HETATM   19  C   UNL     1      -9.464   7.354  66.581  1.00  0.00    -0.240 C  
BRANCH  19  20
HETATM   20  C   UNL     1      -9.026   6.153  67.408  1.00  0.00    -0.112 C  
BRANCH  20  21
HETATM   21  C   UNL     1      -8.038   5.294  66.655  1.00  0.00    -0.105 C  
HETATM   22  O   UNL     1      -6.822   5.410  66.793  1.00  0.00    -0.060 OA 
BRANCH  21  23
HETATM   23  C   UNL     1      -8.572   4.268  65.717  1.00  0.00    -0.114 A  
HETATM   24  C   UNL     1     -10.447   3.470  64.405  1.00  0.00    -0.131 A  
HETATM   25  C   UNL     1      -9.897   4.407  65.276  1.00  0.00    -0.209 A  
HETATM   26  C   UNL     1      -9.676   2.395  63.978  1.00  0.00    -0.140 A  
HETATM   27  F   UNL     1     -10.207   1.491  63.150  1.00  0.00    -0.098 F  
HETATM   28  C   UNL     1      -7.803   3.182  65.272  1.00  0.00    -0.082 A  
HETATM   29  C   UNL     1      -8.360   2.244  64.401  1.00  0.00    -0.083 A  
ENDBRANCH  21  23
ENDBRANCH  20  21
ENDBRANCH  19  20
ENDBRANCH  18  19
ENDBRANCH   4  18
TORSDOF 5
ENDMDL
MODEL      194
REMARK 921   NORMALIZED FREE ENERGY PREDICTED BY IDOCK:   -4.20 KCAL/MOL
REMARK 922        TOTAL FREE ENERGY PREDICTED BY IDOCK:   -6.19 KCAL/MOL
REMARK 923 INTER-LIGAND FREE ENERGY PREDICTED BY IDOCK:   -5.45 KCAL/MOL
REMARK 924 INTRA-LIGAND FREE ENERGY PREDICTED BY IDOCK:   -0.73 KCAL/MOL
REMARK 927      BINDING AFFINITY PREDICTED BY RF-SCORE:    0.00 PKD
ROOT
HETATM    1  C   UNL     1     -11.569  15.709  65.931  1.00  0.00     0.296 C  
HETATM    2  C   UNL     1     -11.754  15.679  64.434  1.00  0.00    -0.218 C  
HETATM    3  C   UNL     1     -11.456  14.299  63.896  1.00  0.00     0.192 C  
HETATM    4  N   UNL     1     -12.324  13.277  64.503  1.00  0.00    -0.538 NA 
HETATM    5  C   UNL     1      -7.378  16.925  69.022  1.00  0.00    -0.231 C  
HETATM    6  C   UNL     1     -12.208  13.254  65.987  1.00  0.00    -0.424 C  
HETATM    7  C   UNL     1     -12.385  14.613  66.688  1.00  0.00    -0.021 C  
HETATM    8  N   UNL     1      -8.640  16.818  68.335  1.00  0.00    -0.226 NA 
HETATM    9  C   UNL     1      -8.730  17.263  66.921  1.00  0.00    -0.240 C  
HETATM   10  C   UNL     1     -11.645  14.693  68.015  1.00  0.00    -0.366 A  
HETATM   11  C   UNL     1     -11.980  14.379  69.309  1.00  0.00    -0.362 A  
HETATM   12  C   UNL     1      -8.973  16.080  65.991  1.00  0.00    -0.310 C  
HETATM   13  N   UNL     1     -10.201  15.400  66.339  1.00  0.00    -0.274 NA 
HETATM   14  C   UNL     1     -10.420  15.310  67.744  1.00  0.00    -0.253 A  
HETATM   15  C   UNL     1     -11.086  14.777  70.319  1.00  0.00    -0.185 A  
HETATM   16  C   UNL     1      -9.926  15.552  70.034  1.00  0.00    -0.178 A  
HETATM   17  C   UNL     1      -9.602  15.877  68.721  1.00  0.00    -0.219 A  
ENDROOT
BRANCH   4  18
HETATM   18  C   UNL     1     -11.911  11.977  63.933  1.00  0.00    -0.448 C  
BRANCH  18  19
HETATM   19  C   UNL     1     -10.987  11.176  64.841  1.00  0.00    -0.191 C  
BRANCH  19  20
HETATM   20  C   UNL     1      -9.613  10.997  64.212  1.00  0.00    -0.303 C  
BRANCH  20  21
HETATM   21  C   UNL     1      -8.690  10.210  65.114  1.00  0.00    -0.173 C  
HETATM   22  O   UNL     1      -8.363  10.606  66.230  1.00  0.00    -0.143 OA 
BRANCH  21  23
HETATM   23  C   UNL     1      -8.168   8.906  64.618  1.00  0.00    -0.163 A  
HETATM   24  C   UNL     1      -7.145   6.774  65.147  1.00  0.00    -0.067 A  
HETATM   25  C   UNL     1      -7.653   8.003  65.560  1.00  0.00    -0.085 A  
HETATM   26  C   UNL     1      -7.149   6.450  63.795  1.00  0.00    -0.050 A  
HETATM   27  F   UNL     1      -6.653   5.274  63.399  1.00  0.00    -0.025 F  
HETATM   28  C   UNL     1      -8.173   8.564  63.257  1.00  0.00    -0.141 A  
HETATM   29  C   UNL     1      -7.660   7.331  62.848  1.00  0.00    -0.105 A  
ENDBRANCH  21  23
ENDBRANCH  20  21
ENDBRANCH  19  20
ENDBRANCH  18  19
ENDBRANCH   4  18
TORSDOF 5
ENDMDL
MODEL      195
REMARK 921   NORMALIZED FREE ENERGY PREDICTED BY IDOCK:   -4.17 KCAL/MOL
REMARK 922        TOTAL FREE ENERGY PREDICTED BY IDOCK:   -6.15 KCAL/MOL
REMARK 923 INTER-LIGAND FREE ENERGY PREDICTED BY IDOCK:   -5.80 KCAL/MOL
REMARK 924 INTRA-LIGAND FREE ENERGY PREDICTED BY IDOCK:   -0.36 KCAL/MOL
REMARK 927      BINDING AFFINITY PREDICTED BY RF-SCORE:    0.00 PKD
ROOT
HETATM    1  C   UNL     1      -7.026  16.069  67.287  1.00  0.00    -0.205 C  
HETATM    2  C   UNL     1      -5.863  15.385  67.962  1.00  0.00    -0.150 C  
HETATM    3  C   UNL     1      -6.356  14.268  68.852  1.00  0.00    -0.089 C  
HETATM    4  N   UNL     1      -7.123  13.265  68.097  1.00  0.00    -0.096 NA 
HETATM    5  C   UNL     1      -9.982  20.319  68.629  1.00  0.00    -0.108 C  
HETATM    6  C   UNL     1      -8.286  13.868  67.388  1.00  0.00    -0.187 C  
HETATM    7  C   UNL     1      -7.966  15.092  66.511  1.00  0.00     0.263 C  
HETATM    8  N   UNL     1      -9.125  19.332  68.024  1.00  0.00    -0.308 NA 
HETATM    9  C   UNL     1      -7.779  19.093  68.605  1.00  0.00    -0.352 C  
HETATM   10  C   UNL     1      -9.152  16.034  66.357  1.00  0.00    -0.354 A  
HETATM   11  C   UNL     1     -10.195  16.110  65.468  1.00  0.00    -0.360 A  
HETATM   12  C   UNL     1      -7.690  17.704  69.227  1.00  0.00     0.095 C  
HETATM   13  N   UNL     1      -7.950  16.683  68.236  1.00  0.00    -0.184 NA 
HETATM   14  C   UNL     1      -8.984  17.034  67.321  1.00  0.00    -0.215 A  
HETATM   15  C   UNL     1     -11.008  17.256  65.527  1.00  0.00     0.100 A  
HETATM   16  C   UNL     1     -10.718  18.339  66.405  1.00  0.00    -0.189 A  
HETATM   17  C   UNL     1      -9.650  18.259  67.293  1.00  0.00    -0.281 A  
ENDROOT
BRANCH   4  18
HETATM   18  C   UNL     1      -7.584  12.257  69.076  1.00  0.00     0.103 C  
BRANCH  18  19
HETATM   19  C   UNL     1      -8.386  11.121  68.456  1.00  0.00    -0.154 C  
BRANCH  19  20
HETATM   20  C   UNL     1      -9.607  11.646  67.716  1.00  0.00    -0.178 C  
BRANCH  20  21
HETATM   21  C   UNL     1     -10.867  11.465  68.530  1.00  0.00    -0.211 C  
HETATM   22  O   UNL     1     -11.371  10.362  68.729  1.00  0.00    -0.250 OA 
BRANCH  21  23
HETATM   23  C   UNL     1     -11.509  12.678  69.109  1.00  0.00    -0.359 A  
HETATM   24  C   UNL     1     -12.784  13.652  70.925  1.00  0.00    -0.382 A  
HETATM   25  C   UNL     1     -12.161  12.550  70.345  1.00  0.00    -0.380 A  
HETATM   26  C   UNL     1     -12.758  14.878  70.270  1.00  0.00    -0.271 A  
HETATM   27  F   UNL     1     -13.364  15.933  70.823  1.00  0.00    -0.503 F  
HETATM   28  C   UNL     1     -11.484  13.923  68.462  1.00  0.00    -0.346 A  
HETATM   29  C   UNL     1     -12.112  15.024  69.048  1.00  0.00    -0.243 A  
ENDBRANCH  21  23
ENDBRANCH  20  21
ENDBRANCH  19  20
ENDBRANCH  18  19
ENDBRANCH   4  18
TORSDOF 5
ENDMDL
MODEL      196
REMARK 921   NORMALIZED FREE ENERGY PREDICTED BY IDOCK:   -4.13 KCAL/MOL
REMARK 922        TOTAL FREE ENERGY PREDICTED BY IDOCK:   -6.09 KCAL/MOL
REMARK 923 INTER-LIGAND FREE ENERGY PREDICTED BY IDOCK:   -5.38 KCAL/MOL
REMARK 924 INTRA-LIGAND FREE ENERGY PREDICTED BY IDOCK:   -0.72 KCAL/MOL
REMARK 927      BINDING AFFINITY PREDICTED BY RF-SCORE:    0.00 PKD
ROOT
HETATM    1  C   UNL     1     -10.981   9.945  67.162  1.00  0.00    -0.076 C  
HETATM    2  C   UNL     1     -10.351   8.612  66.841  1.00  0.00    -0.355 C  
HETATM    3  C   UNL     1      -8.878   8.634  67.180  1.00  0.00    -0.129 C  
HETATM    4  N   UNL     1      -8.648   8.939  68.601  1.00  0.00    -0.132 NA 
HETATM    5  C   UNL     1     -11.797  14.345  64.235  1.00  0.00    -0.364 C  
HETATM    6  C   UNL     1      -9.256  10.238  69.000  1.00  0.00    -0.183 C  
HETATM    7  C   UNL     1     -10.740  10.418  68.631  1.00  0.00    -0.250 C  
HETATM    8  N   UNL     1     -11.872  13.163  65.055  1.00  0.00    -0.336 NA 
HETATM    9  C   UNL     1     -11.628  11.837  64.432  1.00  0.00    -0.245 C  
HETATM   10  C   UNL     1     -11.128  11.877  68.438  1.00  0.00    -0.292 A  
HETATM   11  C   UNL     1     -11.582  12.858  69.283  1.00  0.00    -0.368 A  
HETATM   12  C   UNL     1     -10.339  11.215  64.960  1.00  0.00    -0.301 C  
HETATM   13  N   UNL     1     -10.404  11.044  66.394  1.00  0.00    -0.243 NA 
HETATM   14  C   UNL     1     -11.048  12.125  67.064  1.00  0.00    -0.294 A  
HETATM   15  C   UNL     1     -12.027  14.057  68.697  1.00  0.00    -0.389 A  
HETATM   16  C   UNL     1     -12.092  14.224  67.284  1.00  0.00    -0.390 A  
HETATM   17  C   UNL     1     -11.642  13.219  66.435  1.00  0.00    -0.347 A  
ENDROOT
BRANCH   4  18
HETATM   18  C   UNL     1      -7.183   8.974  68.796  1.00  0.00    -0.075 C  
BRANCH  18  19
HETATM   19  C   UNL     1      -6.629   7.747  69.509  1.00  0.00    -0.039 C  
BRANCH  19  20
HETATM   20  C   UNL     1      -7.419   6.497  69.150  1.00  0.00    -0.095 C  
BRANCH  20  21
HETATM   21  C   UNL     1      -6.584   5.527  68.346  1.00  0.00    -0.049 C  
HETATM   22  O   UNL     1      -5.731   4.806  68.861  1.00  0.00    -0.015 OA 
BRANCH  21  23
HETATM   23  C   UNL     1      -6.817   5.450  66.877  1.00  0.00    -0.063 A  
HETATM   24  C   UNL     1      -6.041   5.998  64.648  1.00  0.00    -0.026 A  
HETATM   25  C   UNL     1      -5.865   6.035  66.029  1.00  0.00    -0.024 A  
HETATM   26  C   UNL     1      -7.167   5.381  64.116  1.00  0.00    -0.051 A  
HETATM   27  F   UNL     1      -7.340   5.354  62.792  1.00  0.00    -0.041 F  
HETATM   28  C   UNL     1      -7.946   4.824  66.327  1.00  0.00    -0.103 A  
HETATM   29  C   UNL     1      -8.119   4.792  64.942  1.00  0.00    -0.105 A  
ENDBRANCH  21  23
ENDBRANCH  20  21
ENDBRANCH  19  20
ENDBRANCH  18  19
ENDBRANCH   4  18
TORSDOF 5
ENDMDL
MODEL      197
REMARK 921   NORMALIZED FREE ENERGY PREDICTED BY IDOCK:   -4.11 KCAL/MOL
REMARK 922        TOTAL FREE ENERGY PREDICTED BY IDOCK:   -6.07 KCAL/MOL
REMARK 923 INTER-LIGAND FREE ENERGY PREDICTED BY IDOCK:   -5.50 KCAL/MOL
REMARK 924 INTRA-LIGAND FREE ENERGY PREDICTED BY IDOCK:   -0.57 KCAL/MOL
REMARK 927      BINDING AFFINITY PREDICTED BY RF-SCORE:    0.00 PKD
ROOT
HETATM    1  C   UNL     1      -9.698  14.003  67.378  1.00  0.00    -0.233 C  
HETATM    2  C   UNL     1      -9.132  13.486  68.677  1.00  0.00    -0.008 C  
HETATM    3  C   UNL     1     -10.242  13.251  69.676  1.00  0.00     0.944 C  
HETATM    4  N   UNL     1     -11.235  12.289  69.173  1.00  0.00    -0.250 NA 
HETATM    5  C   UNL     1     -10.526  18.951  65.523  1.00  0.00     0.047 C  
HETATM    6  C   UNL     1     -11.832  12.725  67.880  1.00  0.00    -0.339 C  
HETATM    7  C   UNL     1     -10.825  13.103  66.779  1.00  0.00    -0.289 C  
HETATM    8  N   UNL     1     -10.132  17.590  65.783  1.00  0.00    -0.583 NA 
HETATM    9  C   UNL     1      -9.183  17.313  66.892  1.00  0.00    -0.254 C  
HETATM   10  C   UNL     1     -11.385  14.113  65.789  1.00  0.00    -0.317 A  
HETATM   11  C   UNL     1     -12.090  14.004  64.617  1.00  0.00    -0.462 A  
HETATM   12  C   UNL     1      -9.867  16.542  68.016  1.00  0.00    -0.240 C  
HETATM   13  N   UNL     1     -10.386  15.283  67.529  1.00  0.00    -0.241 NA 
HETATM   14  C   UNL     1     -10.951  15.370  66.224  1.00  0.00    -0.278 A  
HETATM   15  C   UNL     1     -12.272  15.177  63.863  1.00  0.00     0.090 A  
HETATM   16  C   UNL     1     -11.677  16.414  64.242  1.00  0.00     0.271 A  
HETATM   17  C   UNL     1     -10.953  16.513  65.426  1.00  0.00    -0.131 A  
ENDROOT
BRANCH   4  18
HETATM   18  C   UNL     1     -12.282  12.178  70.212  1.00  0.00    -0.264 C  
BRANCH  18  19
HETATM   19  C   UNL     1     -12.573  10.745  70.638  1.00  0.00    -0.446 C  
BRANCH  19  20
HETATM   20  C   UNL     1     -11.308   9.900  70.637  1.00  0.00    -0.413 C  
BRANCH  20  21
HETATM   21  C   UNL     1     -11.234   9.013  71.858  1.00  0.00    -0.368 C  
HETATM   22  O   UNL     1     -12.208   8.796  72.576  1.00  0.00    -0.364 OA 
BRANCH  21  23
HETATM   23  C   UNL     1      -9.926   8.382  72.189  1.00  0.00    -0.376 A  
HETATM   24  C   UNL     1      -7.553   8.218  71.721  1.00  0.00    -0.119 A  
HETATM   25  C   UNL     1      -8.799   8.784  71.457  1.00  0.00    -0.295 A  
HETATM   26  C   UNL     1      -7.437   7.251  72.713  1.00  0.00    -0.076 A  
HETATM   27  F   UNL     1      -6.244   6.702  72.960  1.00  0.00    -0.054 F  
HETATM   28  C   UNL     1      -9.792   7.410  73.192  1.00  0.00    -0.304 A  
HETATM   29  C   UNL     1      -8.542   6.845  73.452  1.00  0.00    -0.145 A  
ENDBRANCH  21  23
ENDBRANCH  20  21
ENDBRANCH  19  20
ENDBRANCH  18  19
ENDBRANCH   4  18
TORSDOF 5
ENDMDL
MODEL      198
REMARK 921   NORMALIZED FREE ENERGY PREDICTED BY IDOCK:   -4.11 KCAL/MOL
REMARK 922        TOTAL FREE ENERGY PREDICTED BY IDOCK:   -6.07 KCAL/MOL
REMARK 923 INTER-LIGAND FREE ENERGY PREDICTED BY IDOCK:   -4.97 KCAL/MOL
REMARK 924 INTRA-LIGAND FREE ENERGY PREDICTED BY IDOCK:   -1.10 KCAL/MOL
REMARK 927      BINDING AFFINITY PREDICTED BY RF-SCORE:    0.00 PKD
ROOT
HETATM    1  C   UNL     1      -7.090  12.505  67.096  1.00  0.00    -0.053 C  
HETATM    2  C   UNL     1      -6.195  13.011  68.200  1.00  0.00    -0.102 C  
HETATM    3  C   UNL     1      -6.322  12.132  69.422  1.00  0.00    -0.116 C  
HETATM    4  N   UNL     1      -5.971  10.733  69.129  1.00  0.00    -0.041 NA 
HETATM    5  C   UNL     1     -12.117  13.684  65.705  1.00  0.00    -0.425 C  
HETATM    6  C   UNL     1      -6.806  10.165  68.035  1.00  0.00    -0.071 C  
HETATM    7  C   UNL     1      -6.865  11.000  66.743  1.00  0.00    -0.128 C  
HETATM    8  N   UNL     1     -10.698  13.456  65.804  1.00  0.00    -0.271 NA 
HETATM    9  C   UNL     1      -9.879  14.367  66.643  1.00  0.00    -0.278 C  
HETATM   10  C   UNL     1      -8.151  10.783  65.959  1.00  0.00    -0.158 A  
HETATM   11  C   UNL     1      -8.531   9.895  64.984  1.00  0.00    -0.161 A  
HETATM   12  C   UNL     1      -9.326  13.638  67.863  1.00  0.00    -0.206 C  
HETATM   13  N   UNL     1      -8.503  12.520  67.461  1.00  0.00    -0.166 NA 
HETATM   14  C   UNL     1      -9.016  11.817  66.332  1.00  0.00    -0.201 A  
HETATM   15  C   UNL     1      -9.762  10.126  64.346  1.00  0.00    -0.345 A  
HETATM   16  C   UNL     1     -10.548  11.280  64.627  1.00  0.00    -0.392 A  
HETATM   17  C   UNL     1     -10.149  12.183  65.607  1.00  0.00    -0.248 A  
ENDROOT
BRANCH   4  18
HETATM   18  C   UNL     1      -6.176   9.973  70.381  1.00  0.00    -0.103 C  
BRANCH  18  19
HETATM   19  C   UNL     1      -7.099   8.772  70.225  1.00  0.00    -0.045 C  
BRANCH  19  20
HETATM   20  C   UNL     1      -6.347   7.466  70.435  1.00  0.00    -0.038 C  
BRANCH  20  21
HETATM   21  C   UNL     1      -7.231   6.270  70.169  1.00  0.00    -0.080 C  
HETATM   22  O   UNL     1      -6.990   5.156  70.629  1.00  0.00    -0.048 OA 
BRANCH  21  23
HETATM   23  C   UNL     1      -8.439   6.465  69.319  1.00  0.00    -0.126 A  
HETATM   24  C   UNL     1     -10.855   6.395  69.146  1.00  0.00    -0.382 A  
HETATM   25  C   UNL     1      -9.695   6.236  69.900  1.00  0.00    -0.191 A  
HETATM   26  C   UNL     1     -10.759   6.781  67.813  1.00  0.00    -0.268 A  
HETATM   27  F   UNL     1     -11.871   6.925  67.088  1.00  0.00    -0.041 F  
HETATM   28  C   UNL     1      -8.356   6.860  67.975  1.00  0.00    -0.121 A  
HETATM   29  C   UNL     1      -9.522   7.016  67.223  1.00  0.00    -0.165 A  
ENDBRANCH  21  23
ENDBRANCH  20  21
ENDBRANCH  19  20
ENDBRANCH  18  19
ENDBRANCH   4  18
TORSDOF 5
ENDMDL
MODEL      199
REMARK 921   NORMALIZED FREE ENERGY PREDICTED BY IDOCK:   -4.11 KCAL/MOL
REMARK 922        TOTAL FREE ENERGY PREDICTED BY IDOCK:   -6.07 KCAL/MOL
REMARK 923 INTER-LIGAND FREE ENERGY PREDICTED BY IDOCK:   -5.26 KCAL/MOL
REMARK 924 INTRA-LIGAND FREE ENERGY PREDICTED BY IDOCK:   -0.81 KCAL/MOL
REMARK 927      BINDING AFFINITY PREDICTED BY RF-SCORE:    0.00 PKD
ROOT
HETATM    1  C   UNL     1     -11.759  11.830  65.578  1.00  0.00    -0.034 C  
HETATM    2  C   UNL     1     -12.797  12.919  65.470  1.00  0.00    -0.014 C  
HETATM    3  C   UNL     1     -12.143  14.278  65.562  1.00  0.00    -0.394 C  
HETATM    4  N   UNL     1     -11.136  14.473  64.507  1.00  0.00    -0.317 NA 
HETATM    5  C   UNL     1      -9.842   9.080  69.746  1.00  0.00    -0.180 C  
HETATM    6  C   UNL     1     -10.081  13.424  64.540  1.00  0.00    -0.192 C  
HETATM    7  C   UNL     1     -10.589  11.971  64.554  1.00  0.00    -0.356 C  
HETATM    8  N   UNL     1     -10.436   9.554  68.521  1.00  0.00    -0.211 NA 
HETATM    9  C   UNL     1     -11.738  10.265  68.579  1.00  0.00     0.136 C  
HETATM   10  C   UNL     1      -9.617  11.012  65.226  1.00  0.00    -0.270 A  
HETATM   11  C   UNL     1      -8.556  10.266  64.777  1.00  0.00    -0.193 A  
HETATM   12  C   UNL     1     -11.577  11.731  68.193  1.00  0.00    -0.323 C  
HETATM   13  N   UNL     1     -11.047  11.851  66.853  1.00  0.00    -0.289 NA 
HETATM   14  C   UNL     1     -10.051  10.879  66.550  1.00  0.00    -0.222 A  
HETATM   15  C   UNL     1      -8.004   9.330  65.671  1.00  0.00    -0.103 A  
HETATM   16  C   UNL     1      -8.569   9.095  66.956  1.00  0.00    -0.127 A  
HETATM   17  C   UNL     1      -9.652   9.847  67.398  1.00  0.00    -0.155 A  
ENDROOT
BRANCH   4  18
HETATM   18  C   UNL     1     -10.542  15.809  64.729  1.00  0.00    -0.144 C  
BRANCH  18  19
HETATM   19  C   UNL     1     -10.335  16.152  66.199  1.00  0.00    -0.350 C  
BRANCH  19  20
HETATM   20  C   UNL     1      -9.120  17.047  66.392  1.00  0.00    -0.300 C  
BRANCH  20  21
HETATM   21  C   UNL     1      -8.853  17.309  67.856  1.00  0.00    -0.235 C  
HETATM   22  O   UNL     1      -8.026  18.134  68.238  1.00  0.00    -0.276 OA 
BRANCH  21  23
HETATM   23  C   UNL     1      -9.631  16.532  68.861  1.00  0.00    -0.261 A  
HETATM   24  C   UNL     1     -11.378  16.526  70.540  1.00  0.00    -0.075 A  
HETATM   25  C   UNL     1     -10.628  17.205  69.583  1.00  0.00     0.008 A  
HETATM   26  C   UNL     1     -11.129  15.179  70.777  1.00  0.00    -0.255 A  
HETATM   27  F   UNL     1     -11.843  14.531  71.702  1.00  0.00    -0.367 F  
HETATM   28  C   UNL     1      -9.395  15.171  69.104  1.00  0.00    -0.215 A  
HETATM   29  C   UNL     1     -10.148  14.495  70.067  1.00  0.00     0.457 A  
ENDBRANCH  21  23
ENDBRANCH  20  21
ENDBRANCH  19  20
ENDBRANCH  18  19
ENDBRANCH   4  18
TORSDOF 5
ENDMDL
MODEL      200
REMARK 921   NORMALIZED FREE ENERGY PREDICTED BY IDOCK:   -3.97 KCAL/MOL
REMARK 922        TOTAL FREE ENERGY PREDICTED BY IDOCK:   -5.90 KCAL/MOL
REMARK 923 INTER-LIGAND FREE ENERGY PREDICTED BY IDOCK:   -5.20 KCAL/MOL
REMARK 924 INTRA-LIGAND FREE ENERGY PREDICTED BY IDOCK:   -0.69 KCAL/MOL
REMARK 927      BINDING AFFINITY PREDICTED BY RF-SCORE:    0.00 PKD
ROOT
HETATM    1  C   UNL     1      -9.527   9.289  71.037  1.00  0.00    -0.243 C  
HETATM    2  C   UNL     1      -8.176   9.610  70.447  1.00  0.00    -0.194 C  
HETATM    3  C   UNL     1      -8.178   9.344  68.959  1.00  0.00    -0.108 C  
HETATM    4  N   UNL     1      -9.202  10.139  68.263  1.00  0.00    -0.128 NA 
HETATM    5  C   UNL     1     -11.536   4.849  73.240  1.00  0.00    -0.274 C  
HETATM    6  C   UNL     1     -10.567   9.887  68.801  1.00  0.00    -0.222 C  
HETATM    7  C   UNL     1     -10.713  10.017  70.328  1.00  0.00    -0.367 C  
HETATM    8  N   UNL     1     -11.057   6.167  72.909  1.00  0.00    -0.259 NA 
HETATM    9  C   UNL     1      -9.595   6.393  72.787  1.00  0.00    -0.150 C  
HETATM   10  C   UNL     1     -11.839   9.160  70.889  1.00  0.00    -0.327 A  
HETATM   11  C   UNL     1     -13.179   9.370  71.096  1.00  0.00    -0.288 A  
HETATM   12  C   UNL     1      -9.208   6.704  71.345  1.00  0.00    -0.151 C  
HETATM   13  N   UNL     1      -9.897   7.886  70.875  1.00  0.00    -0.178 NA 
HETATM   14  C   UNL     1     -11.245   7.973  71.330  1.00  0.00    -0.256 A  
HETATM   15  C   UNL     1     -13.878   8.393  71.827  1.00  0.00    -0.458 A  
HETATM   16  C   UNL     1     -13.217   7.274  72.409  1.00  0.00     0.258 A  
HETATM   17  C   UNL     1     -11.856   7.076  72.205  1.00  0.00    -0.233 A  
ENDROOT
BRANCH   4  18
HETATM   18  C   UNL     1      -9.133   9.762  66.835  1.00  0.00    -0.142 C  
BRANCH  18  19
HETATM   19  C   UNL     1     -10.064   8.617  66.458  1.00  0.00    -0.339 C  
BRANCH  19  20
HETATM   20  C   UNL     1      -9.355   7.274  66.550  1.00  0.00    -0.216 C  
BRANCH  20  21
HETATM   21  C   UNL     1     -10.340   6.129  66.581  1.00  0.00    -0.187 C  
HETATM   22  O   UNL     1     -11.402   6.188  67.196  1.00  0.00    -0.197 OA 
BRANCH  21  23
HETATM   23  C   UNL     1      -9.998   4.889  65.829  1.00  0.00    -0.191 A  
HETATM   24  C   UNL     1     -10.076   3.679  63.731  1.00  0.00    -0.204 A  
HETATM   25  C   UNL     1     -10.364   4.819  64.476  1.00  0.00     0.398 A  
HETATM   26  C   UNL     1      -9.425   2.610  64.337  1.00  0.00    -0.145 A  
HETATM   27  F   UNL     1      -9.157   1.512  63.624  1.00  0.00    -0.084 F  
HETATM   28  C   UNL     1      -9.336   3.806  66.427  1.00  0.00    -0.197 A  
HETATM   29  C   UNL     1      -9.051   2.664  65.675  1.00  0.00    -0.121 A  
ENDBRANCH  21  23
ENDBRANCH  20  21
ENDBRANCH  19  20
ENDBRANCH  18  19
ENDBRANCH   4  18
TORSDOF 5
ENDMDL
MODEL      201
REMARK 921   NORMALIZED FREE ENERGY PREDICTED BY IDOCK:   -3.96 KCAL/MOL
REMARK 922        TOTAL FREE ENERGY PREDICTED BY IDOCK:   -5.87 KCAL/MOL
REMARK 923 INTER-LIGAND FREE ENERGY PREDICTED BY IDOCK:   -5.17 KCAL/MOL
REMARK 924 INTRA-LIGAND FREE ENERGY PREDICTED BY IDOCK:   -0.71 KCAL/MOL
REMARK 927      BINDING AFFINITY PREDICTED BY RF-SCORE:    0.00 PKD
ROOT
HETATM    1  C   UNL     1     -12.254  14.286  68.983  1.00  0.00    -0.220 C  
HETATM    2  C   UNL     1     -12.244  15.392  70.009  1.00  0.00    -0.392 C  
HETATM    3  C   UNL     1     -10.892  16.068  70.038  1.00  0.00    -0.353 C  
HETATM    4  N   UNL     1     -10.535  16.633  68.727  1.00  0.00    -0.301 NA 
HETATM    5  C   UNL     1     -11.195   9.054  69.310  1.00  0.00     0.176 C  
HETATM    6  C   UNL     1     -10.537  15.600  67.654  1.00  0.00    -0.294 C  
HETATM    7  C   UNL     1     -11.815  14.747  67.557  1.00  0.00    -0.326 C  
HETATM    8  N   UNL     1     -11.746  10.373  69.127  1.00  0.00    -0.173 NA 
HETATM    9  C   UNL     1     -12.088  11.183  70.324  1.00  0.00    -0.377 C  
HETATM   10  C   UNL     1     -11.559  13.367  66.969  1.00  0.00    -0.396 A  
HETATM   11  C   UNL     1     -11.549  12.865  65.692  1.00  0.00    -0.401 A  
HETATM   12  C   UNL     1     -11.171  12.396  70.443  1.00  0.00     0.900 C  
HETATM   13  N   UNL     1     -11.281  13.236  69.271  1.00  0.00    -0.238 NA 
HETATM   14  C   UNL     1     -11.403  12.501  68.058  1.00  0.00    -0.289 A  
HETATM   15  C   UNL     1     -11.459  11.469  65.549  1.00  0.00    -0.074 A  
HETATM   16  C   UNL     1     -11.470  10.596  66.674  1.00  0.00     0.504 A  
HETATM   17  C   UNL     1     -11.494  11.113  67.966  1.00  0.00    -0.293 A  
ENDROOT
BRANCH   4  18
HETATM   18  C   UNL     1      -9.187  17.222  68.872  1.00  0.00    -0.182 C  
BRANCH  18  19
HETATM   19  C   UNL     1      -8.111  16.209  69.242  1.00  0.00    -0.186 C  
BRANCH  19  20
HETATM   20  C   UNL     1      -6.875  16.373  68.370  1.00  0.00    -0.142 C  
BRANCH  20  21
HETATM   21  C   UNL     1      -6.347  17.788  68.419  1.00  0.00    -0.196 C  
HETATM   22  O   UNL     1      -5.829  18.264  69.427  1.00  0.00    -0.217 OA 
BRANCH  21  23
HETATM   23  C   UNL     1      -6.461  18.622  67.191  1.00  0.00    -0.196 A  
HETATM   24  C   UNL     1      -5.809  18.971  64.883  1.00  0.00    -0.306 A  
HETATM   25  C   UNL     1      -5.744  18.221  66.054  1.00  0.00    -0.223 A  
HETATM   26  C   UNL     1      -6.588  20.122  64.849  1.00  0.00    -0.266 A  
HETATM   27  F   UNL     1      -6.644  20.847  63.728  1.00  0.00    -0.325 F  
HETATM   28  C   UNL     1      -7.249  19.782  67.141  1.00  0.00    -0.251 A  
HETATM   29  C   UNL     1      -7.309  20.533  65.965  1.00  0.00    -0.128 A  
ENDBRANCH  21  23
ENDBRANCH  20  21
ENDBRANCH  19  20
ENDBRANCH  18  19
ENDBRANCH   4  18
TORSDOF 5
ENDMDL
MODEL      202
REMARK 921   NORMALIZED FREE ENERGY PREDICTED BY IDOCK:   -3.91 KCAL/MOL
REMARK 922        TOTAL FREE ENERGY PREDICTED BY IDOCK:   -5.81 KCAL/MOL
REMARK 923 INTER-LIGAND FREE ENERGY PREDICTED BY IDOCK:   -5.15 KCAL/MOL
REMARK 924 INTRA-LIGAND FREE ENERGY PREDICTED BY IDOCK:   -0.66 KCAL/MOL
REMARK 927      BINDING AFFINITY PREDICTED BY RF-SCORE:    0.00 PKD
ROOT
HETATM    1  C   UNL     1      -8.107  11.954  67.003  1.00  0.00    -0.167 C  
HETATM    2  C   UNL     1      -7.190  11.725  68.180  1.00  0.00    -0.086 C  
HETATM    3  C   UNL     1      -7.552  10.438  68.884  1.00  0.00    -0.103 C  
HETATM    4  N   UNL     1      -7.466   9.279  67.982  1.00  0.00    -0.083 NA 
HETATM    5  C   UNL     1     -12.725  14.601  66.491  1.00  0.00     0.531 C  
HETATM    6  C   UNL     1      -8.336   9.436  66.784  1.00  0.00    -0.123 C  
HETATM    7  C   UNL     1      -8.162  10.753  66.006  1.00  0.00    -0.164 C  
HETATM    8  N   UNL     1     -11.386  14.075  66.421  1.00  0.00    -0.323 NA 
HETATM    9  C   UNL     1     -10.450  14.334  67.545  1.00  0.00    -0.252 C  
HETATM   10  C   UNL     1      -9.421  11.169  65.260  1.00  0.00    -0.257 A  
HETATM   11  C   UNL     1      -9.915  10.903  64.007  1.00  0.00    -0.403 A  
HETATM   12  C   UNL     1     -10.117  13.045  68.287  1.00  0.00    -0.239 C  
HETATM   13  N   UNL     1      -9.508  12.084  67.393  1.00  0.00    -0.175 NA 
HETATM   14  C   UNL     1     -10.087  12.076  66.091  1.00  0.00    -0.226 A  
HETATM   15  C   UNL     1     -11.041  11.634  63.591  1.00  0.00    -0.506 A  
HETATM   16  C   UNL     1     -11.601  12.672  64.389  1.00  0.00    -0.415 A  
HETATM   17  C   UNL     1     -11.086  12.944  65.652  1.00  0.00    -0.279 A  
ENDROOT
BRANCH   4  18
HETATM   18  C   UNL     1      -7.882   8.098  68.769  1.00  0.00    -0.113 C  
BRANCH  18  19
HETATM   19  C   UNL     1      -6.719   7.339  69.397  1.00  0.00    -0.049 C  
BRANCH  19  20
HETATM   20  C   UNL     1      -7.059   5.869  69.591  1.00  0.00    -0.068 C  
BRANCH  20  21
HETATM   21  C   UNL     1      -7.604   5.604  70.975  1.00  0.00    -0.095 C  
HETATM   22  O   UNL     1      -6.927   5.091  71.864  1.00  0.00    -0.060 OA 
BRANCH  21  23
HETATM   23  C   UNL     1      -9.014   5.990  71.260  1.00  0.00    -0.139 A  
HETATM   24  C   UNL     1     -11.363   5.701  70.736  1.00  0.00     0.036 A  
HETATM   25  C   UNL     1     -10.028   5.369  70.515  1.00  0.00    -0.288 A  
HETATM   26  C   UNL     1     -11.682   6.652  71.698  1.00  0.00    -0.316 A  
HETATM   27  F   UNL     1     -12.962   6.977  71.903  1.00  0.00    -0.356 F  
HETATM   28  C   UNL     1      -9.351   6.943  72.232  1.00  0.00    -0.148 A  
HETATM   29  C   UNL     1     -10.690   7.274  72.448  1.00  0.00    -0.283 A  
ENDBRANCH  21  23
ENDBRANCH  20  21
ENDBRANCH  19  20
ENDBRANCH  18  19
ENDBRANCH   4  18
TORSDOF 5
ENDMDL
MODEL      203
REMARK 921   NORMALIZED FREE ENERGY PREDICTED BY IDOCK:   -3.85 KCAL/MOL
REMARK 922        TOTAL FREE ENERGY PREDICTED BY IDOCK:   -5.73 KCAL/MOL
REMARK 923 INTER-LIGAND FREE ENERGY PREDICTED BY IDOCK:   -5.12 KCAL/MOL
REMARK 924 INTRA-LIGAND FREE ENERGY PREDICTED BY IDOCK:   -0.61 KCAL/MOL
REMARK 927      BINDING AFFINITY PREDICTED BY RF-SCORE:    0.00 PKD
ROOT
HETATM    1  C   UNL     1      -8.255  11.703  66.965  1.00  0.00    -0.170 C  
HETATM    2  C   UNL     1      -8.147  11.916  68.455  1.00  0.00    -0.155 C  
HETATM    3  C   UNL     1      -8.358  10.610  69.187  1.00  0.00    -0.135 C  
HETATM    4  N   UNL     1      -7.378   9.591  68.780  1.00  0.00    -0.073 NA 
HETATM    5  C   UNL     1     -12.363  12.063  63.560  1.00  0.00    -0.551 C  
HETATM    6  C   UNL     1      -7.414   9.334  67.314  1.00  0.00    -0.091 C  
HETATM    7  C   UNL     1      -7.313  10.583  66.419  1.00  0.00    -0.129 C  
HETATM    8  N   UNL     1     -11.134  12.174  64.304  1.00  0.00    -0.322 NA 
HETATM    9  C   UNL     1     -11.155  12.832  65.635  1.00  0.00    -0.279 C  
HETATM   10  C   UNL     1      -7.986  10.396  65.067  1.00  0.00    -0.126 A  
HETATM   11  C   UNL     1      -7.559   9.923  63.851  1.00  0.00    -0.141 A  
HETATM   12  C   UNL     1     -10.865  11.828  66.746  1.00  0.00    -0.270 C  
HETATM   13  N   UNL     1      -9.569  11.216  66.556  1.00  0.00    -0.192 NA 
HETATM   14  C   UNL     1      -9.270  10.936  65.191  1.00  0.00    -0.214 A  
HETATM   15  C   UNL     1      -8.428  10.083  62.757  1.00  0.00    -0.178 A  
HETATM   16  C   UNL     1      -9.662  10.785  62.874  1.00  0.00    -0.337 A  
HETATM   17  C   UNL     1     -10.080  11.274  64.107  1.00  0.00    -0.320 A  
ENDROOT
BRANCH   4  18
HETATM   18  C   UNL     1      -7.714   8.359  69.527  1.00  0.00    -0.096 C  
BRANCH  18  19
HETATM   19  C   UNL     1      -7.650   8.523  71.040  1.00  0.00    -0.093 C  
BRANCH  19  20
HETATM   20  C   UNL     1      -6.868   7.388  71.686  1.00  0.00    -0.054 C  
BRANCH  20  21
HETATM   21  C   UNL     1      -7.788   6.305  72.199  1.00  0.00    -0.104 C  
HETATM   22  O   UNL     1      -8.163   6.256  73.368  1.00  0.00    -0.114 OA 
BRANCH  21  23
HETATM   23  C   UNL     1      -8.252   5.265  71.238  1.00  0.00    -0.119 A  
HETATM   24  C   UNL     1     -10.070   4.368  69.911  1.00  0.00    -0.123 A  
HETATM   25  C   UNL     1      -9.584   5.322  70.802  1.00  0.00    -0.234 A  
HETATM   26  C   UNL     1      -9.226   3.360  69.459  1.00  0.00    -0.155 A  
HETATM   27  F   UNL     1      -9.696   2.440  68.611  1.00  0.00    -0.246 F  
HETATM   28  C   UNL     1      -7.409   4.246  70.769  1.00  0.00    -0.044 A  
HETATM   29  C   UNL     1      -7.902   3.291  69.877  1.00  0.00    -0.050 A  
ENDBRANCH  21  23
ENDBRANCH  20  21
ENDBRANCH  19  20
ENDBRANCH  18  19
ENDBRANCH   4  18
TORSDOF 5
ENDMDL
MODEL      204
REMARK 921   NORMALIZED FREE ENERGY PREDICTED BY IDOCK:   -3.85 KCAL/MOL
REMARK 922        TOTAL FREE ENERGY PREDICTED BY IDOCK:   -5.73 KCAL/MOL
REMARK 923 INTER-LIGAND FREE ENERGY PREDICTED BY IDOCK:   -4.25 KCAL/MOL
REMARK 924 INTRA-LIGAND FREE ENERGY PREDICTED BY IDOCK:   -1.48 KCAL/MOL
REMARK 927      BINDING AFFINITY PREDICTED BY RF-SCORE:    0.00 PKD
ROOT
HETATM    1  C   UNL     1      -8.613  15.710  67.899  1.00  0.00    -0.162 C  
HETATM    2  C   UNL     1      -7.318  16.307  68.391  1.00  0.00    -0.158 C  
HETATM    3  C   UNL     1      -6.365  15.213  68.814  1.00  0.00    -0.082 C  
HETATM    4  N   UNL     1      -6.071  14.286  67.710  1.00  0.00    -0.259 NA 
HETATM    5  C   UNL     1     -13.220  14.563  70.362  1.00  0.00     0.034 C  
HETATM    6  C   UNL     1      -7.307  13.664  67.159  1.00  0.00     0.157 C  
HETATM    7  C   UNL     1      -8.428  14.645  66.771  1.00  0.00    -0.145 C  
HETATM    8  N   UNL     1     -12.148  15.045  69.528  1.00  0.00    -0.296 NA 
HETATM    9  C   UNL     1     -11.171  16.008  70.095  1.00  0.00    -0.373 C  
HETATM   10  C   UNL     1      -9.813  14.022  66.853  1.00  0.00    -0.267 A  
HETATM   11  C   UNL     1     -10.596  13.326  65.966  1.00  0.00    -0.292 A  
HETATM   12  C   UNL     1      -9.789  15.375  70.219  1.00  0.00     0.168 C  
HETATM   13  N   UNL     1      -9.309  14.940  68.926  1.00  0.00    -0.199 NA 
HETATM   14  C   UNL     1     -10.326  14.372  68.107  1.00  0.00    -0.231 A  
HETATM   15  C   UNL     1     -11.926  13.069  66.345  1.00  0.00    -0.466 A  
HETATM   16  C   UNL     1     -12.475  13.581  67.555  1.00  0.00     0.140 A  
HETATM   17  C   UNL     1     -11.678  14.297  68.442  1.00  0.00    -0.338 A  
ENDROOT
BRANCH   4  18
HETATM   18  C   UNL     1      -5.171  13.247  68.257  1.00  0.00    -0.092 C  
BRANCH  18  19
HETATM   19  C   UNL     1      -5.262  11.913  67.528  1.00  0.00    -0.082 C  
BRANCH  19  20
HETATM   20  C   UNL     1      -5.226  10.746  68.505  1.00  0.00    -0.040 C  
BRANCH  20  21
HETATM   21  C   UNL     1      -6.280  10.890  69.578  1.00  0.00    -0.073 C  
HETATM   22  O   UNL     1      -6.073  11.494  70.629  1.00  0.00    -0.319 OA 
BRANCH  21  23
HETATM   23  C   UNL     1      -7.615  10.276  69.337  1.00  0.00    -0.137 A  
HETATM   24  C   UNL     1      -9.002   8.291  69.421  1.00  0.00    -0.147 A  
HETATM   25  C   UNL     1      -7.776   8.915  69.636  1.00  0.00    -0.078 A  
HETATM   26  C   UNL     1     -10.064   9.025  68.905  1.00  0.00    -0.196 A  
HETATM   27  F   UNL     1     -11.237   8.423  68.690  1.00  0.00     0.015 F  
HETATM   28  C   UNL     1      -8.697  11.007  68.823  1.00  0.00    -0.146 A  
HETATM   29  C   UNL     1      -9.923  10.376  68.607  1.00  0.00    -0.186 A  
ENDBRANCH  21  23
ENDBRANCH  20  21
ENDBRANCH  19  20
ENDBRANCH  18  19
ENDBRANCH   4  18
TORSDOF 5
ENDMDL
MODEL      205
REMARK 921   NORMALIZED FREE ENERGY PREDICTED BY IDOCK:   -3.74 KCAL/MOL
REMARK 922        TOTAL FREE ENERGY PREDICTED BY IDOCK:   -5.59 KCAL/MOL
REMARK 923 INTER-LIGAND FREE ENERGY PREDICTED BY IDOCK:   -5.86 KCAL/MOL
REMARK 924 INTRA-LIGAND FREE ENERGY PREDICTED BY IDOCK:    0.26 KCAL/MOL
REMARK 927      BINDING AFFINITY PREDICTED BY RF-SCORE:    0.00 PKD
ROOT
HETATM    1  C   UNL     1      -6.490  16.230  67.331  1.00  0.00    -0.180 C  
HETATM    2  C   UNL     1      -7.160  16.823  66.117  1.00  0.00     0.060 C  
HETATM    3  C   UNL     1      -8.484  17.444  66.499  1.00  0.00    -0.264 C  
HETATM    4  N   UNL     1      -8.320  18.498  67.513  1.00  0.00    -0.255 NA 
HETATM    5  C   UNL     1      -6.589  11.330  69.472  1.00  0.00    -0.129 C  
HETATM    6  C   UNL     1      -7.650  17.991  68.743  1.00  0.00    -0.270 C  
HETATM    7  C   UNL     1      -6.328  17.236  68.515  1.00  0.00    -0.163 C  
HETATM    8  N   UNL     1      -6.270  12.603  68.876  1.00  0.00    -0.075 NA 
HETATM    9  C   UNL     1      -6.652  12.853  67.462  1.00  0.00    -0.157 C  
HETATM   10  C   UNL     1      -6.034  16.217  69.606  1.00  0.00    -0.176 A  
HETATM   11  C   UNL     1      -5.384  16.279  70.813  1.00  0.00    -0.121 A  
HETATM   12  C   UNL     1      -7.735  13.922  67.369  1.00  0.00    -0.148 C  
HETATM   13  N   UNL     1      -7.275  15.165  67.949  1.00  0.00    -0.129 NA 
HETATM   14  C   UNL     1      -6.493  14.986  69.125  1.00  0.00    -0.116 A  
HETATM   15  C   UNL     1      -5.139  15.063  71.475  1.00  0.00    -0.147 A  
HETATM   16  C   UNL     1      -5.466  13.808  70.887  1.00  0.00    -0.174 A  
HETATM   17  C   UNL     1      -6.114  13.754  69.657  1.00  0.00    -0.118 A  
ENDROOT
BRANCH   4  18
HETATM   18  C   UNL     1      -9.677  18.993  67.833  1.00  0.00    -0.326 C  
BRANCH  18  19
HETATM   19  C   UNL     1     -10.794  18.083  67.339  1.00  0.00    -0.236 C  
BRANCH  19  20
HETATM   20  C   UNL     1     -10.742  16.724  68.023  1.00  0.00    -0.355 C  
BRANCH  20  21
HETATM   21  C   UNL     1     -11.010  16.840  69.505  1.00  0.00    -0.158 C  
HETATM   22  O   UNL     1     -10.699  17.835  70.156  1.00  0.00     0.591 OA 
BRANCH  21  23
HETATM   23  C   UNL     1     -11.680  15.699  70.188  1.00  0.00    -0.374 A  
HETATM   24  C   UNL     1     -12.671  14.822  72.219  1.00  0.00    -0.411 A  
HETATM   25  C   UNL     1     -12.050  15.862  71.532  1.00  0.00    -0.533 A  
HETATM   26  C   UNL     1     -12.921  13.622  71.565  1.00  0.00    -0.360 A  
HETATM   27  F   UNL     1     -13.509  12.621  72.227  1.00  0.00    -0.579 F  
HETATM   28  C   UNL     1     -11.945  14.484  69.538  1.00  0.00    -0.363 A  
HETATM   29  C   UNL     1     -12.566  13.444  70.232  1.00  0.00    -0.187 A  
ENDBRANCH  21  23
ENDBRANCH  20  21
ENDBRANCH  19  20
ENDBRANCH  18  19
ENDBRANCH   4  18
TORSDOF 5
ENDMDL
MODEL      206
REMARK 921   NORMALIZED FREE ENERGY PREDICTED BY IDOCK:   -3.73 KCAL/MOL
REMARK 922        TOTAL FREE ENERGY PREDICTED BY IDOCK:   -5.58 KCAL/MOL
REMARK 923 INTER-LIGAND FREE ENERGY PREDICTED BY IDOCK:   -5.08 KCAL/MOL
REMARK 924 INTRA-LIGAND FREE ENERGY PREDICTED BY IDOCK:   -0.50 KCAL/MOL
REMARK 927      BINDING AFFINITY PREDICTED BY RF-SCORE:    0.00 PKD
ROOT
HETATM    1  C   UNL     1      -9.296   4.032  66.986  1.00  0.00    -0.183 C  
HETATM    2  C   UNL     1      -9.672   3.879  68.439  1.00  0.00    -0.115 C  
HETATM    3  C   UNL     1      -8.934   4.895  69.281  1.00  0.00    -0.094 C  
HETATM    4  N   UNL     1      -9.228   6.273  68.856  1.00  0.00    -0.124 NA 
HETATM    5  C   UNL     1      -5.525   1.726  63.976  1.00  0.00    -0.008 C  
HETATM    6  C   UNL     1      -8.895   6.500  67.423  1.00  0.00    -0.115 C  
HETATM    7  C   UNL     1      -9.490   5.481  66.434  1.00  0.00    -0.167 C  
HETATM    8  N   UNL     1      -6.727   2.231  64.588  1.00  0.00    -0.037 NA 
HETATM    9  C   UNL     1      -7.193   1.630  65.863  1.00  0.00    -0.055 C  
HETATM   10  C   UNL     1      -8.657   5.328  65.170  1.00  0.00    -0.151 A  
HETATM   11  C   UNL     1      -8.645   5.969  63.957  1.00  0.00     0.218 A  
HETATM   12  C   UNL     1      -7.081   2.628  67.011  1.00  0.00    -0.049 C  
HETATM   13  N   UNL     1      -7.874   3.807  66.741  1.00  0.00    -0.087 NA 
HETATM   14  C   UNL     1      -7.830   4.219  65.378  1.00  0.00    -0.086 A  
HETATM   15  C   UNL     1      -7.844   5.414  62.943  1.00  0.00    -0.085 A  
HETATM   16  C   UNL     1      -7.141   4.189  63.126  1.00  0.00    -0.044 A  
HETATM   17  C   UNL     1      -7.169   3.539  64.356  1.00  0.00    -0.059 A  
ENDROOT
BRANCH   4  18
HETATM   18  C   UNL     1      -8.421   7.163  69.719  1.00  0.00    -0.137 C  
BRANCH  18  19
HETATM   19  C   UNL     1      -9.242   8.221  70.446  1.00  0.00    -0.153 C  
BRANCH  19  20
HETATM   20  C   UNL     1     -10.508   8.564  69.675  1.00  0.00    -0.221 C  
BRANCH  20  21
HETATM   21  C   UNL     1     -11.629   8.968  70.604  1.00  0.00    -0.224 C  
HETATM   22  O   UNL     1     -12.265   8.151  71.266  1.00  0.00    -0.300 OA 
BRANCH  21  23
HETATM   23  C   UNL     1     -11.962  10.416  70.714  1.00  0.00    -0.462 A  
HETATM   24  C   UNL     1     -13.191  12.154  71.873  1.00  0.00    -0.474 A  
HETATM   25  C   UNL     1     -12.840  10.813  71.733  1.00  0.00    -0.528 A  
HETATM   26  C   UNL     1     -12.665  13.095  70.994  1.00  0.00    -0.277 A  
HETATM   27  F   UNL     1     -13.008  14.379  71.123  1.00  0.00    -0.353 F  
HETATM   28  C   UNL     1     -11.433  11.377  69.838  1.00  0.00    -0.353 A  
HETATM   29  C   UNL     1     -11.789  12.719  69.981  1.00  0.00    -0.352 A  
ENDBRANCH  21  23
ENDBRANCH  20  21
ENDBRANCH  19  20
ENDBRANCH  18  19
ENDBRANCH   4  18
TORSDOF 5
ENDMDL
MODEL      207
REMARK 921   NORMALIZED FREE ENERGY PREDICTED BY IDOCK:   -3.71 KCAL/MOL
REMARK 922        TOTAL FREE ENERGY PREDICTED BY IDOCK:   -5.55 KCAL/MOL
REMARK 923 INTER-LIGAND FREE ENERGY PREDICTED BY IDOCK:   -4.51 KCAL/MOL
REMARK 924 INTRA-LIGAND FREE ENERGY PREDICTED BY IDOCK:   -1.05 KCAL/MOL
REMARK 927      BINDING AFFINITY PREDICTED BY RF-SCORE:    0.00 PKD
ROOT
HETATM    1  C   UNL     1      -6.416  16.364  67.188  1.00  0.00    -0.192 C  
HETATM    2  C   UNL     1      -6.598  17.507  66.219  1.00  0.00    -0.295 C  
HETATM    3  C   UNL     1      -7.386  18.622  66.867  1.00  0.00    -0.208 C  
HETATM    4  N   UNL     1      -6.722  19.127  68.079  1.00  0.00    -0.232 NA 
HETATM    5  C   UNL     1      -9.267  11.935  68.115  1.00  0.00    -0.187 C  
HETATM    6  C   UNL     1      -6.493  18.051  69.082  1.00  0.00    -0.249 C  
HETATM    7  C   UNL     1      -5.787  16.789  68.553  1.00  0.00    -0.130 C  
HETATM    8  N   UNL     1      -8.280  12.938  67.807  1.00  0.00    -0.160 NA 
HETATM    9  C   UNL     1      -8.398  13.699  66.537  1.00  0.00     0.465 C  
HETATM   10  C   UNL     1      -6.146  15.537  69.339  1.00  0.00    -0.123 A  
HETATM   11  C   UNL     1      -5.623  14.934  70.455  1.00  0.00    -0.139 A  
HETATM   12  C   UNL     1      -8.718  15.166  66.806  1.00  0.00    -0.273 C  
HETATM   13  N   UNL     1      -7.682  15.774  67.613  1.00  0.00    -0.143 NA 
HETATM   14  C   UNL     1      -7.179  14.913  68.630  1.00  0.00    -0.117 A  
HETATM   15  C   UNL     1      -6.111  13.657  70.785  1.00  0.00    -0.059 A  
HETATM   16  C   UNL     1      -7.042  12.970  69.954  1.00  0.00     0.659 A  
HETATM   17  C   UNL     1      -7.557  13.585  68.817  1.00  0.00    -0.066 A  
ENDROOT
BRANCH   4  18
HETATM   18  C   UNL     1      -7.602  20.175  68.640  1.00  0.00    -0.039 C  
BRANCH  18  19
HETATM   19  C   UNL     1      -8.958  20.269  67.952  1.00  0.00    -0.274 C  
BRANCH  19  20
HETATM   20  C   UNL     1     -10.014  19.469  68.701  1.00  0.00    -0.538 C  
BRANCH  20  21
HETATM   21  C   UNL     1     -10.575  18.356  67.846  1.00  0.00    -0.353 C  
HETATM   22  O   UNL     1     -10.772  18.486  66.640  1.00  0.00    -0.362 OA 
BRANCH  21  23
HETATM   23  C   UNL     1     -10.893  17.058  68.504  1.00  0.00    -0.310 A  
HETATM   24  C   UNL     1     -12.023  14.918  68.374  1.00  0.00    -0.255 A  
HETATM   25  C   UNL     1     -11.689  16.143  67.800  1.00  0.00     0.208 A  
HETATM   26  C   UNL     1     -11.563  14.611  69.649  1.00  0.00    -0.307 A  
HETATM   27  F   UNL     1     -11.890  13.440  70.203  1.00  0.00    -0.353 F  
HETATM   28  C   UNL     1     -10.429  16.733  69.787  1.00  0.00    -0.134 A  
HETATM   29  C   UNL     1     -10.768  15.505  70.359  1.00  0.00    -0.342 A  
ENDBRANCH  21  23
ENDBRANCH  20  21
ENDBRANCH  19  20
ENDBRANCH  18  19
ENDBRANCH   4  18
TORSDOF 5
ENDMDL
MODEL      208
REMARK 921   NORMALIZED FREE ENERGY PREDICTED BY IDOCK:   -3.70 KCAL/MOL
REMARK 922        TOTAL FREE ENERGY PREDICTED BY IDOCK:   -5.54 KCAL/MOL
REMARK 923 INTER-LIGAND FREE ENERGY PREDICTED BY IDOCK:   -5.37 KCAL/MOL
REMARK 924 INTRA-LIGAND FREE ENERGY PREDICTED BY IDOCK:   -0.17 KCAL/MOL
REMARK 927      BINDING AFFINITY PREDICTED BY RF-SCORE:    0.00 PKD
ROOT
HETATM    1  C   UNL     1     -10.114   7.006  68.268  1.00  0.00    -0.167 C  
HETATM    2  C   UNL     1     -10.643   8.133  69.120  1.00  0.00    -0.179 C  
HETATM    3  C   UNL     1      -9.880   9.407  68.838  1.00  0.00    -0.171 C  
HETATM    4  N   UNL     1      -9.972   9.797  67.423  1.00  0.00    -0.180 NA 
HETATM    5  C   UNL     1      -6.355   3.299  69.123  1.00  0.00    -0.029 C  
HETATM    6  C   UNL     1      -9.479   8.727  66.513  1.00  0.00    -0.219 C  
HETATM    7  C   UNL     1     -10.088   7.331  66.740  1.00  0.00    -0.291 C  
HETATM    8  N   UNL     1      -7.546   4.064  68.855  1.00  0.00    -0.054 NA 
HETATM    9  C   UNL     1      -8.199   4.796  69.970  1.00  0.00    -0.068 C  
HETATM   10  C   UNL     1      -9.159   6.205  66.311  1.00  0.00    -0.165 A  
HETATM   11  C   UNL     1      -8.958   5.538  65.128  1.00  0.00    -0.036 A  
HETATM   12  C   UNL     1      -8.086   6.304  69.775  1.00  0.00    -0.120 C  
HETATM   13  N   UNL     1      -8.710   6.706  68.534  1.00  0.00    -0.124 NA 
HETATM   14  C   UNL     1      -8.488   5.789  67.466  1.00  0.00    -0.103 A  
HETATM   15  C   UNL     1      -8.131   4.401  65.163  1.00  0.00    -0.102 A  
HETATM   16  C   UNL     1      -7.592   3.900  66.382  1.00  0.00    -0.088 A  
HETATM   17  C   UNL     1      -7.813   4.575  67.578  1.00  0.00    -0.089 A  
ENDROOT
BRANCH   4  18
HETATM   18  C   UNL     1      -9.157  11.022  67.266  1.00  0.00    -0.138 C  
BRANCH  18  19
HETATM   19  C   UNL     1      -9.705  11.994  66.230  1.00  0.00    -0.251 C  
BRANCH  19  20
HETATM   20  C   UNL     1     -10.337  13.210  66.893  1.00  0.00    -0.247 C  
BRANCH  20  21
HETATM   21  C   UNL     1      -9.291  14.204  67.339  1.00  0.00    -0.215 C  
HETATM   22  O   UNL     1      -8.185  13.859  67.749  1.00  0.00    -0.145 OA 
BRANCH  21  23
HETATM   23  C   UNL     1      -9.625  15.654  67.268  1.00  0.00    -0.220 A  
HETATM   24  C   UNL     1      -9.982  17.609  65.882  1.00  0.00    -0.139 A  
HETATM   25  C   UNL     1      -9.682  16.254  66.002  1.00  0.00    -0.370 A  
HETATM   26  C   UNL     1     -10.221  18.362  67.026  1.00  0.00    -0.379 A  
HETATM   27  F   UNL     1     -10.500  19.664  66.911  1.00  0.00    -0.463 F  
HETATM   28  C   UNL     1      -9.876  16.424  68.414  1.00  0.00    -0.233 A  
HETATM   29  C   UNL     1     -10.174  17.782  68.289  1.00  0.00    -0.382 A  
ENDBRANCH  21  23
ENDBRANCH  20  21
ENDBRANCH  19  20
ENDBRANCH  18  19
ENDBRANCH   4  18
TORSDOF 5
ENDMDL
MODEL      209
REMARK 921   NORMALIZED FREE ENERGY PREDICTED BY IDOCK:   -3.70 KCAL/MOL
REMARK 922        TOTAL FREE ENERGY PREDICTED BY IDOCK:   -5.54 KCAL/MOL
REMARK 923 INTER-LIGAND FREE ENERGY PREDICTED BY IDOCK:   -4.73 KCAL/MOL
REMARK 924 INTRA-LIGAND FREE ENERGY PREDICTED BY IDOCK:   -0.80 KCAL/MOL
REMARK 927      BINDING AFFINITY PREDICTED BY RF-SCORE:    0.00 PKD
ROOT
HETATM    1  C   UNL     1      -9.698  14.473  67.836  1.00  0.00    -0.218 C  
HETATM    2  C   UNL     1      -9.318  13.959  69.203  1.00  0.00     0.309 C  
HETATM    3  C   UNL     1     -10.558  13.642  70.007  1.00  0.00     0.891 C  
HETATM    4  N   UNL     1     -11.402  12.639  69.339  1.00  0.00    -0.238 NA 
HETATM    5  C   UNL     1     -10.499  19.408  65.937  1.00  0.00    -0.472 C  
HETATM    6  C   UNL     1     -11.808  13.070  67.973  1.00  0.00    -0.347 C  
HETATM    7  C   UNL     1     -10.661  13.526  67.052  1.00  0.00    -0.278 C  
HETATM    8  N   UNL     1     -10.075  18.064  66.238  1.00  0.00    -0.416 NA 
HETATM    9  C   UNL     1      -9.301  17.815  67.481  1.00  0.00    -0.245 C  
HETATM   10  C   UNL     1     -11.113  14.526  65.998  1.00  0.00    -0.329 A  
HETATM   11  C   UNL     1     -11.615  14.404  64.727  1.00  0.00    -0.410 A  
HETATM   12  C   UNL     1     -10.110  16.984  68.471  1.00  0.00    -0.303 C  
HETATM   13  N   UNL     1     -10.473  15.709  67.891  1.00  0.00    -0.260 NA 
HETATM   14  C   UNL     1     -10.826  15.794  66.514  1.00  0.00    -0.230 A  
HETATM   15  C   UNL     1     -11.740  15.582  63.969  1.00  0.00     0.053 A  
HETATM   16  C   UNL     1     -11.285  16.841  64.455  1.00  0.00     0.379 A  
HETATM   17  C   UNL     1     -10.766  16.953  65.740  1.00  0.00    -0.160 A  
ENDROOT
BRANCH   4  18
HETATM   18  C   UNL     1     -12.593  12.449  70.195  1.00  0.00     0.116 C  
BRANCH  18  19
HETATM   19  C   UNL     1     -12.704  11.050  70.788  1.00  0.00    -0.414 C  
BRANCH  19  20
HETATM   20  C   UNL     1     -11.350  10.357  70.828  1.00  0.00    -0.370 C  
BRANCH  20  21
HETATM   21  C   UNL     1     -11.478   8.876  70.558  1.00  0.00    -0.200 C  
HETATM   22  O   UNL     1     -12.106   8.122  71.299  1.00  0.00    -0.294 OA 
BRANCH  21  23
HETATM   23  C   UNL     1     -10.817   8.324  69.343  1.00  0.00    -0.095 A  
HETATM   24  C   UNL     1      -9.977   8.728  67.106  1.00  0.00    -0.295 A  
HETATM   25  C   UNL     1     -10.583   9.196  68.269  1.00  0.00    -0.223 A  
HETATM   26  C   UNL     1      -9.607   7.391  67.016  1.00  0.00    -0.172 A  
HETATM   27  F   UNL     1      -9.033   6.941  65.897  1.00  0.00    -0.162 F  
HETATM   28  C   UNL     1     -10.433   6.979  69.242  1.00  0.00    -0.223 A  
HETATM   29  C   UNL     1      -9.827   6.514  68.073  1.00  0.00    -0.129 A  
ENDBRANCH  21  23
ENDBRANCH  20  21
ENDBRANCH  19  20
ENDBRANCH  18  19
ENDBRANCH   4  18
TORSDOF 5
ENDMDL
MODEL      210
REMARK 921   NORMALIZED FREE ENERGY PREDICTED BY IDOCK:   -3.66 KCAL/MOL
REMARK 922        TOTAL FREE ENERGY PREDICTED BY IDOCK:   -5.48 KCAL/MOL
REMARK 923 INTER-LIGAND FREE ENERGY PREDICTED BY IDOCK:   -4.69 KCAL/MOL
REMARK 924 INTRA-LIGAND FREE ENERGY PREDICTED BY IDOCK:   -0.79 KCAL/MOL
REMARK 927      BINDING AFFINITY PREDICTED BY RF-SCORE:    0.00 PKD
ROOT
HETATM    1  C   UNL     1      -7.899  14.831  67.104  1.00  0.00    -0.148 C  
HETATM    2  C   UNL     1      -7.025  13.863  67.863  1.00  0.00    -0.165 C  
HETATM    3  C   UNL     1      -7.876  12.913  68.673  1.00  0.00    -0.044 C  
HETATM    4  N   UNL     1      -8.803  12.149  67.822  1.00  0.00    -0.164 NA 
HETATM    5  C   UNL     1      -9.756  19.704  68.288  1.00  0.00    -0.402 C  
HETATM    6  C   UNL     1      -9.694  13.038  67.027  1.00  0.00    -0.235 C  
HETATM    7  C   UNL     1      -8.983  14.138  66.218  1.00  0.00     0.026 C  
HETATM    8  N   UNL     1      -9.132  18.528  67.737  1.00  0.00    -0.275 NA 
HETATM    9  C   UNL     1      -7.957  17.943  68.432  1.00  0.00    -0.298 C  
HETATM   10  C   UNL     1      -9.860  15.359  65.982  1.00  0.00    -0.355 A  
HETATM   11  C   UNL     1     -10.757  15.709  65.004  1.00  0.00    -0.458 A  
HETATM   12  C   UNL     1      -8.295  16.577  69.020  1.00  0.00    -0.202 C  
HETATM   13  N   UNL     1      -8.717  15.664  67.981  1.00  0.00    -0.166 NA 
HETATM   14  C   UNL     1      -9.530  16.277  66.985  1.00  0.00    -0.226 A  
HETATM   15  C   UNL     1     -11.244  17.029  65.021  1.00  0.00     0.230 A  
HETATM   16  C   UNL     1     -10.766  17.994  65.952  1.00  0.00    -0.124 A  
HETATM   17  C   UNL     1      -9.847  17.634  66.931  1.00  0.00    -0.306 A  
ENDROOT
BRANCH   4  18
HETATM   18  C   UNL     1      -9.602  11.295  68.727  1.00  0.00    -0.151 C  
BRANCH  18  19
HETATM   19  C   UNL     1     -11.021  11.041  68.235  1.00  0.00    -0.287 C  
BRANCH  19  20
HETATM   20  C   UNL     1     -11.308   9.551  68.119  1.00  0.00     0.244 C  
BRANCH  20  21
HETATM   21  C   UNL     1     -10.395   8.889  67.113  1.00  0.00    -0.281 C  
HETATM   22  O   UNL     1     -10.385   9.201  65.924  1.00  0.00    -0.104 OA 
BRANCH  21  23
HETATM   23  C   UNL     1      -9.474   7.823  67.597  1.00  0.00    -0.168 A  
HETATM   24  C   UNL     1      -9.201   5.759  68.837  1.00  0.00    -0.127 A  
HETATM   25  C   UNL     1     -10.021   6.776  68.353  1.00  0.00    -0.153 A  
HETATM   26  C   UNL     1      -7.838   5.790  68.567  1.00  0.00    -0.097 A  
HETATM   27  F   UNL     1      -7.051   4.819  69.040  1.00  0.00    -0.048 F  
HETATM   28  C   UNL     1      -8.097   7.839  67.326  1.00  0.00    -0.119 A  
HETATM   29  C   UNL     1      -7.280   6.818  67.815  1.00  0.00    -0.091 A  
ENDBRANCH  21  23
ENDBRANCH  20  21
ENDBRANCH  19  20
ENDBRANCH  18  19
ENDBRANCH   4  18
TORSDOF 5
ENDMDL
MODEL      211
REMARK 921   NORMALIZED FREE ENERGY PREDICTED BY IDOCK:   -3.44 KCAL/MOL
REMARK 922        TOTAL FREE ENERGY PREDICTED BY IDOCK:   -5.20 KCAL/MOL
REMARK 923 INTER-LIGAND FREE ENERGY PREDICTED BY IDOCK:   -4.23 KCAL/MOL
REMARK 924 INTRA-LIGAND FREE ENERGY PREDICTED BY IDOCK:   -0.98 KCAL/MOL
REMARK 927      BINDING AFFINITY PREDICTED BY RF-SCORE:    0.00 PKD
ROOT
HETATM    1  C   UNL     1     -10.641  15.175  68.438  1.00  0.00    -0.238 C  
HETATM    2  C   UNL     1     -10.060  15.083  69.827  1.00  0.00    -0.104 C  
HETATM    3  C   UNL     1      -8.552  15.158  69.771  1.00  0.00     0.058 C  
HETATM    4  N   UNL     1      -8.089  16.407  69.144  1.00  0.00    -0.231 NA 
HETATM    5  C   UNL     1     -11.981  11.454  64.838  1.00  0.00     0.498 C  
HETATM    6  C   UNL     1      -8.634  16.577  67.769  1.00  0.00    -0.177 C  
HETATM    7  C   UNL     1     -10.161  16.427  67.636  1.00  0.00    -0.263 C  
HETATM    8  N   UNL     1     -11.905  12.535  65.788  1.00  0.00    -0.430 NA 
HETATM    9  C   UNL     1     -11.756  12.217  67.231  1.00  0.00    -0.299 C  
HETATM   10  C   UNL     1     -10.590  15.956  66.254  1.00  0.00    -0.301 A  
HETATM   11  C   UNL     1     -10.906  16.604  65.086  1.00  0.00    -0.199 A  
HETATM   12  C   UNL     1     -10.391  12.657  67.749  1.00  0.00    -0.220 C  
HETATM   13  N   UNL     1     -10.212  14.081  67.571  1.00  0.00    -0.243 NA 
HETATM   14  C   UNL     1     -10.745  14.569  66.343  1.00  0.00    -0.309 A  
HETATM   15  C   UNL     1     -11.455  15.830  64.048  1.00  0.00     0.116 A  
HETATM   16  C   UNL     1     -11.758  14.449  64.221  1.00  0.00    -0.328 A  
HETATM   17  C   UNL     1     -11.447  13.804  65.413  1.00  0.00    -0.311 A  
ENDROOT
BRANCH   4  18
HETATM   18  C   UNL     1      -6.612  16.342  69.108  1.00  0.00    -0.185 C  
BRANCH  18  19
HETATM   19  C   UNL     1      -5.986  15.901  70.425  1.00  0.00    -0.023 C  
BRANCH  19  20
HETATM   20  C   UNL     1      -5.128  14.658  70.241  1.00  0.00    -0.097 C  
BRANCH  20  21
HETATM   21  C   UNL     1      -5.758  13.449  70.893  1.00  0.00    -0.180 C  
HETATM   22  O   UNL     1      -5.992  13.397  72.098  1.00  0.00    -0.226 OA 
BRANCH  21  23
HETATM   23  C   UNL     1      -6.107  12.288  70.028  1.00  0.00    -0.130 A  
HETATM   24  C   UNL     1      -6.338   9.884  69.821  1.00  0.00    -0.054 A  
HETATM   25  C   UNL     1      -6.032  11.005  70.590  1.00  0.00    -0.079 A  
HETATM   26  C   UNL     1      -6.717  10.047  68.493  1.00  0.00    -0.054 A  
HETATM   27  F   UNL     1      -7.003   8.972  67.754  1.00  0.00    -0.073 F  
HETATM   28  C   UNL     1      -6.497  12.438  68.689  1.00  0.00    -0.077 A  
HETATM   29  C   UNL     1      -6.802  11.312  67.922  1.00  0.00    -0.068 A  
ENDBRANCH  21  23
ENDBRANCH  20  21
ENDBRANCH  19  20
ENDBRANCH  18  19
ENDBRANCH   4  18
TORSDOF 5
ENDMDL
MODEL      212
REMARK 921   NORMALIZED FREE ENERGY PREDICTED BY IDOCK:   -3.42 KCAL/MOL
REMARK 922        TOTAL FREE ENERGY PREDICTED BY IDOCK:   -5.18 KCAL/MOL
REMARK 923 INTER-LIGAND FREE ENERGY PREDICTED BY IDOCK:   -4.61 KCAL/MOL
REMARK 924 INTRA-LIGAND FREE ENERGY PREDICTED BY IDOCK:   -0.57 KCAL/MOL
REMARK 927      BINDING AFFINITY PREDICTED BY RF-SCORE:    0.00 PKD
ROOT
HETATM    1  C   UNL     1      -9.267  11.957  66.718  1.00  0.00    -0.194 C  
HETATM    2  C   UNL     1      -8.306  10.945  67.290  1.00  0.00    -0.123 C  
HETATM    3  C   UNL     1      -9.046   9.953  68.158  1.00  0.00    -0.121 C  
HETATM    4  N   UNL     1     -10.093   9.243  67.406  1.00  0.00    -0.206 NA 
HETATM    5  C   UNL     1     -10.879  16.763  68.423  1.00  0.00    -0.355 C  
HETATM    6  C   UNL     1     -11.076  10.179  66.796  1.00  0.00     0.147 C  
HETATM    7  C   UNL     1     -10.473  11.321  65.956  1.00  0.00    -0.310 C  
HETATM    8  N   UNL     1     -10.353  15.618  67.725  1.00  0.00    -0.260 NA 
HETATM    9  C   UNL     1      -9.100  14.989  68.213  1.00  0.00    -0.182 C  
HETATM   10  C   UNL     1     -11.360  12.556  65.916  1.00  0.00    -0.380 A  
HETATM   11  C   UNL     1     -12.382  12.966  65.096  1.00  0.00    -0.547 A  
HETATM   12  C   UNL     1      -9.367  13.593  68.765  1.00  0.00     0.038 C  
HETATM   13  N   UNL     1      -9.943  12.742  67.747  1.00  0.00    -0.213 NA 
HETATM   14  C   UNL     1     -10.881  13.414  66.912  1.00  0.00    -0.277 A  
HETATM   15  C   UNL     1     -12.846  14.284  65.255  1.00  0.00    -0.300 A  
HETATM   16  C   UNL     1     -12.230  15.193  66.162  1.00  0.00     0.403 A  
HETATM   17  C   UNL     1     -11.186  14.773  66.980  1.00  0.00    -0.345 A  
ENDROOT
BRANCH   4  18
HETATM   18  C   UNL     1     -10.767   8.341  68.365  1.00  0.00    -0.019 C  
BRANCH  18  19
HETATM   19  C   UNL     1     -10.864   6.899  67.886  1.00  0.00    -0.287 C  
BRANCH  19  20
HETATM   20  C   UNL     1      -9.802   6.590  66.840  1.00  0.00    -0.211 C  
BRANCH  20  21
HETATM   21  C   UNL     1      -9.245   5.196  67.011  1.00  0.00    -0.117 C  
HETATM   22  O   UNL     1      -9.024   4.705  68.116  1.00  0.00    -0.107 OA 
BRANCH  21  23
HETATM   23  C   UNL     1      -8.963   4.398  65.786  1.00  0.00    -0.129 A  
HETATM   24  C   UNL     1      -9.203   2.291  64.613  1.00  0.00    -0.133 A  
HETATM   25  C   UNL     1      -9.447   3.083  65.732  1.00  0.00    -0.023 A  
HETATM   26  C   UNL     1      -8.473   2.813  63.551  1.00  0.00    -0.086 A  
HETATM   27  F   UNL     1      -8.231   2.051  62.480  1.00  0.00    -0.059 F  
HETATM   28  C   UNL     1      -8.234   4.915  64.704  1.00  0.00    -0.124 A  
HETATM   29  C   UNL     1      -7.990   4.117  63.585  1.00  0.00    -0.088 A  
ENDBRANCH  21  23
ENDBRANCH  20  21
ENDBRANCH  19  20
ENDBRANCH  18  19
ENDBRANCH   4  18
TORSDOF 5
ENDMDL
MODEL      213
REMARK 921   NORMALIZED FREE ENERGY PREDICTED BY IDOCK:   -3.28 KCAL/MOL
REMARK 922        TOTAL FREE ENERGY PREDICTED BY IDOCK:   -5.00 KCAL/MOL
REMARK 923 INTER-LIGAND FREE ENERGY PREDICTED BY IDOCK:   -4.12 KCAL/MOL
REMARK 924 INTRA-LIGAND FREE ENERGY PREDICTED BY IDOCK:   -0.89 KCAL/MOL
REMARK 927      BINDING AFFINITY PREDICTED BY RF-SCORE:    0.00 PKD
ROOT
HETATM    1  C   UNL     1      -9.278   4.024  67.003  1.00  0.00    -0.168 C  
HETATM    2  C   UNL     1      -9.792   3.737  68.392  1.00  0.00     0.024 C  
HETATM    3  C   UNL     1      -9.173   4.691  69.387  1.00  0.00    -0.119 C  
HETATM    4  N   UNL     1      -9.464   6.095  69.053  1.00  0.00    -0.127 NA 
HETATM    5  C   UNL     1      -5.156   2.071  64.210  1.00  0.00    -0.004 C  
HETATM    6  C   UNL     1      -8.997   6.452  67.686  1.00  0.00    -0.113 C  
HETATM    7  C   UNL     1      -9.460   5.511  66.559  1.00  0.00    -0.161 C  
HETATM    8  N   UNL     1      -6.429   2.494  64.737  1.00  0.00    -0.023 NA 
HETATM    9  C   UNL     1      -7.002   1.775  65.902  1.00  0.00    -0.042 C  
HETATM   10  C   UNL     1      -8.500   5.487  65.378  1.00  0.00    -0.146 A  
HETATM   11  C   UNL     1      -8.387   6.231  64.231  1.00  0.00     0.053 A  
HETATM   12  C   UNL     1      -7.035   2.671  67.136  1.00  0.00    -0.048 C  
HETATM   13  N   UNL     1      -7.832   3.852  66.887  1.00  0.00    -0.088 NA 
HETATM   14  C   UNL     1      -7.665   4.381  65.575  1.00  0.00    -0.086 A  
HETATM   15  C   UNL     1      -7.472   5.784  63.261  1.00  0.00    -0.067 A  
HETATM   16  C   UNL     1      -6.754   4.563  63.411  1.00  0.00    -0.038 A  
HETATM   17  C   UNL     1      -6.885   3.808  64.572  1.00  0.00    -0.045 A  
ENDROOT
BRANCH   4  18
HETATM   18  C   UNL     1      -8.776   6.923  70.066  1.00  0.00    -0.142 C  
BRANCH  18  19
HETATM   19  C   UNL     1      -9.723   7.723  70.951  1.00  0.00    -0.174 C  
BRANCH  19  20
HETATM   20  C   UNL     1     -10.959   8.164  70.181  1.00  0.00    -0.223 C  
BRANCH  20  21
HETATM   21  C   UNL     1     -11.085   9.670  70.153  1.00  0.00    -0.269 C  
HETATM   22  O   UNL     1     -11.452  10.320  71.130  1.00  0.00    -0.341 OA 
BRANCH  21  23
HETATM   23  C   UNL     1     -10.745  10.379  68.888  1.00  0.00    -0.255 A  
HETATM   24  C   UNL     1     -10.314  12.487  67.773  1.00  0.00    -0.224 A  
HETATM   25  C   UNL     1     -10.622  11.775  68.930  1.00  0.00    -0.211 A  
HETATM   26  C   UNL     1     -10.132  11.803  66.577  1.00  0.00    -0.203 A  
HETATM   27  F   UNL     1      -9.846  12.487  65.465  1.00  0.00    -0.252 F  
HETATM   28  C   UNL     1     -10.552   9.701  67.675  1.00  0.00    -0.334 A  
HETATM   29  C   UNL     1     -10.246  10.419  66.518  1.00  0.00    -0.289 A  
ENDBRANCH  21  23
ENDBRANCH  20  21
ENDBRANCH  19  20
ENDBRANCH  18  19
ENDBRANCH   4  18
TORSDOF 5
ENDMDL
MODEL      214
REMARK 921   NORMALIZED FREE ENERGY PREDICTED BY IDOCK:   -3.18 KCAL/MOL
REMARK 922        TOTAL FREE ENERGY PREDICTED BY IDOCK:   -4.87 KCAL/MOL
REMARK 923 INTER-LIGAND FREE ENERGY PREDICTED BY IDOCK:   -5.03 KCAL/MOL
REMARK 924 INTRA-LIGAND FREE ENERGY PREDICTED BY IDOCK:    0.17 KCAL/MOL
REMARK 927      BINDING AFFINITY PREDICTED BY RF-SCORE:    0.00 PKD
ROOT
HETATM    1  C   UNL     1      -7.565   8.462  69.560  1.00  0.00    -0.090 C  
HETATM    2  C   UNL     1      -6.837   9.080  68.392  1.00  0.00    -0.064 C  
HETATM    3  C   UNL     1      -7.801   9.858  67.526  1.00  0.00    -0.098 C  
HETATM    4  N   UNL     1      -8.477  10.924  68.283  1.00  0.00    -0.128 NA 
HETATM    5  C   UNL     1      -9.872   3.687  70.253  1.00  0.00    -0.019 C  
HETATM    6  C   UNL     1      -9.209  10.392  69.465  1.00  0.00    -0.120 C  
HETATM    7  C   UNL     1      -8.390   9.487  70.402  1.00  0.00    -0.226 C  
HETATM    8  N   UNL     1      -9.085   4.893  70.299  1.00  0.00    -0.113 NA 
HETATM    9  C   UNL     1      -8.068   5.130  69.243  1.00  0.00    -0.084 C  
HETATM   10  C   UNL     1      -9.250   8.483  71.155  1.00  0.00    -0.248 A  
HETATM   11  C   UNL     1      -9.922   8.518  72.352  1.00  0.00    -0.365 A  
HETATM   12  C   UNL     1      -8.462   6.309  68.360  1.00  0.00    -0.115 C  
HETATM   13  N   UNL     1      -8.597   7.515  69.148  1.00  0.00    -0.136 NA 
HETATM   14  C   UNL     1      -9.197   7.294  70.421  1.00  0.00    -0.158 A  
HETATM   15  C   UNL     1     -10.463   7.307  72.821  1.00  0.00    -0.302 A  
HETATM   16  C   UNL     1     -10.252   6.075  72.138  1.00  0.00    -0.222 A  
HETATM   17  C   UNL     1      -9.559   6.048  70.933  1.00  0.00    -0.169 A  
ENDROOT
BRANCH   4  18
HETATM   18  C   UNL     1      -9.416  11.578  67.346  1.00  0.00    -0.165 C  
BRANCH  18  19
HETATM   19  C   UNL     1     -10.826  11.732  67.900  1.00  0.00    -0.255 C  
BRANCH  19  20
HETATM   20  C   UNL     1     -11.058  13.135  68.442  1.00  0.00    -0.298 C  
BRANCH  20  21
HETATM   21  C   UNL     1     -11.645  13.100  69.834  1.00  0.00    -0.185 C  
HETATM   22  O   UNL     1     -11.684  14.091  70.559  1.00  0.00    -0.274 OA 
BRANCH  21  23
HETATM   23  C   UNL     1     -12.197  11.809  70.330  1.00  0.00    -0.416 A  
HETATM   24  C   UNL     1     -13.207  10.580  72.159  1.00  0.00    -0.398 A  
HETATM   25  C   UNL     1     -12.688  11.765  71.644  1.00  0.00    -0.357 A  
HETATM   26  C   UNL     1     -13.232   9.440  71.364  1.00  0.00    -0.344 A  
HETATM   27  F   UNL     1     -13.722   8.301  71.861  1.00  0.00    -0.340 F  
HETATM   28  C   UNL     1     -12.236  10.653  69.536  1.00  0.00    -0.230 A  
HETATM   29  C   UNL     1     -12.755   9.466  70.058  1.00  0.00     0.886 A  
ENDBRANCH  21  23
ENDBRANCH  20  21
ENDBRANCH  19  20
ENDBRANCH  18  19
ENDBRANCH   4  18
TORSDOF 5
ENDMDL
MODEL      215
REMARK 921   NORMALIZED FREE ENERGY PREDICTED BY IDOCK:   -2.49 KCAL/MOL
REMARK 922        TOTAL FREE ENERGY PREDICTED BY IDOCK:   -3.97 KCAL/MOL
REMARK 923 INTER-LIGAND FREE ENERGY PREDICTED BY IDOCK:   -4.00 KCAL/MOL
REMARK 924 INTRA-LIGAND FREE ENERGY PREDICTED BY IDOCK:    0.03 KCAL/MOL
REMARK 927      BINDING AFFINITY PREDICTED BY RF-SCORE:    0.00 PKD
ROOT
HETATM    1  C   UNL     1      -8.807   3.925  67.103  1.00  0.00    -0.122 C  
HETATM    2  C   UNL     1      -9.247   3.569  68.502  1.00  0.00    -0.225 C  
HETATM    3  C   UNL     1      -8.414   4.315  69.518  1.00  0.00    -0.071 C  
HETATM    4  N   UNL     1      -8.515   5.773  69.344  1.00  0.00    -0.111 NA 
HETATM    5  C   UNL     1      -5.265   1.709  63.765  1.00  0.00    -0.004 C  
HETATM    6  C   UNL     1      -8.109   6.202  67.977  1.00  0.00    -0.114 C  
HETATM    7  C   UNL     1      -8.797   5.460  66.817  1.00  0.00    -0.112 C  
HETATM    8  N   UNL     1      -6.412   2.251  64.446  1.00  0.00    -0.022 NA 
HETATM    9  C   UNL     1      -6.993   1.502  65.589  1.00  0.00    -0.042 C  
HETATM   10  C   UNL     1      -7.949   5.424  65.554  1.00  0.00    -0.109 A  
HETATM   11  C   UNL     1      -7.817   6.261  64.475  1.00  0.00    -0.115 A  
HETATM   12  C   UNL     1      -6.792   2.259  66.898  1.00  0.00    -0.040 C  
HETATM   13  N   UNL     1      -7.419   3.561  66.835  1.00  0.00    -0.075 NA 
HETATM   14  C   UNL     1      -7.278   4.196  65.568  1.00  0.00    -0.071 A  
HETATM   15  C   UNL     1      -7.060   5.793  63.386  1.00  0.00    -0.047 A  
HETATM   16  C   UNL     1      -6.526   4.473  63.354  1.00  0.00    -0.026 A  
HETATM   17  C   UNL     1      -6.676   3.627  64.447  1.00  0.00    -0.044 A  
ENDROOT
BRANCH   4  18
HETATM   18  C   UNL     1      -7.630   6.383  70.359  1.00  0.00    -0.096 C  
BRANCH  18  19
HETATM   19  C   UNL     1      -7.750   7.900  70.445  1.00  0.00    -0.087 C  
BRANCH  19  20
HETATM   20  C   UNL     1      -8.697   8.440  69.383  1.00  0.00    -0.137 C  
BRANCH  20  21
HETATM   21  C   UNL     1      -9.736   9.357  69.984  1.00  0.00    -0.224 C  
HETATM   22  O   UNL     1      -9.649  10.582  69.924  1.00  0.00    -0.057 OA 
BRANCH  21  23
HETATM   23  C   UNL     1     -10.907   8.740  70.667  1.00  0.00    -0.273 A  
HETATM   24  C   UNL     1     -12.490   6.907  70.765  1.00  0.00    -0.251 A  
HETATM   25  C   UNL     1     -11.392   7.522  70.168  1.00  0.00    -0.170 A  
HETATM   26  C   UNL     1     -13.102   7.510  71.857  1.00  0.00    -0.252 A  
HETATM   27  F   UNL     1     -14.161   6.925  72.424  1.00  0.00    -0.229 F  
HETATM   28  C   UNL     1     -11.530   9.334  71.775  1.00  0.00    -0.448 A  
HETATM   29  C   UNL     1     -12.632   8.715  72.369  1.00  0.00    -0.426 A  
ENDBRANCH  21  23
ENDBRANCH  20  21
ENDBRANCH  19  20
ENDBRANCH  18  19
ENDBRANCH   4  18
TORSDOF 5
ENDMDL
MODEL      216
REMARK 921   NORMALIZED FREE ENERGY PREDICTED BY IDOCK:   -2.37 KCAL/MOL
REMARK 922        TOTAL FREE ENERGY PREDICTED BY IDOCK:   -3.82 KCAL/MOL
REMARK 923 INTER-LIGAND FREE ENERGY PREDICTED BY IDOCK:   -3.83 KCAL/MOL
REMARK 924 INTRA-LIGAND FREE ENERGY PREDICTED BY IDOCK:    0.00 KCAL/MOL
REMARK 927      BINDING AFFINITY PREDICTED BY RF-SCORE:    0.00 PKD
ROOT
HETATM    1  C   UNL     1     -12.148   7.018  71.374  1.00  0.00    -0.355 C  
HETATM    2  C   UNL     1     -12.976   8.194  71.830  1.00  0.00    -0.356 C  
HETATM    3  C   UNL     1     -12.275   9.490  71.493  1.00  0.00    -0.386 C  
HETATM    4  N   UNL     1     -12.025   9.616  70.049  1.00  0.00     0.023 NA 
HETATM    5  C   UNL     1      -8.449   4.042  73.836  1.00  0.00    -0.091 C  
HETATM    6  C   UNL     1     -11.221   8.480  69.519  1.00  0.00     0.154 C  
HETATM    7  C   UNL     1     -11.749   7.076  69.865  1.00  0.00    -0.123 C  
HETATM    8  N   UNL     1      -9.588   4.585  73.141  1.00  0.00    -0.129 NA 
HETATM    9  C   UNL     1     -10.570   5.405  73.896  1.00  0.00    -0.285 C  
HETATM   10  C   UNL     1     -10.649   6.026  69.908  1.00  0.00    -0.345 A  
HETATM   11  C   UNL     1     -10.089   5.199  68.966  1.00  0.00    -0.257 A  
HETATM   12  C   UNL     1     -10.536   6.858  73.437  1.00  0.00    -0.344 C  
HETATM   13  N   UNL     1     -10.843   6.956  72.027  1.00  0.00    -0.221 NA 
HETATM   14  C   UNL     1     -10.272   5.907  71.250  1.00  0.00    -0.210 A  
HETATM   15  C   UNL     1      -9.207   4.204  69.426  1.00  0.00    -0.210 A  
HETATM   16  C   UNL     1      -8.968   3.995  70.815  1.00  0.00    -0.152 A  
HETATM   17  C   UNL     1      -9.551   4.830  71.762  1.00  0.00    -0.155 A  
ENDROOT
BRANCH   4  18
HETATM   18  C   UNL     1     -11.303  10.892  69.854  1.00  0.00    -0.305 C  
BRANCH  18  19
HETATM   19  C   UNL     1      -9.789  10.763  69.958  1.00  0.00     0.497 C  
BRANCH  19  20
HETATM   20  C   UNL     1      -9.087  11.650  68.940  1.00  0.00     0.060 C  
BRANCH  20  21
HETATM   21  C   UNL     1      -7.705  11.131  68.614  1.00  0.00    -0.135 C  
HETATM   22  O   UNL     1      -7.061  11.532  67.647  1.00  0.00    -0.087 OA 
BRANCH  21  23
HETATM   23  C   UNL     1      -7.114  10.098  69.509  1.00  0.00    -0.101 A  
HETATM   24  C   UNL     1      -7.464   8.125  70.873  1.00  0.00    -0.061 A  
HETATM   25  C   UNL     1      -7.965   9.109  70.023  1.00  0.00    -0.113 A  
HETATM   26  C   UNL     1      -6.115   8.133  71.209  1.00  0.00    -0.035 A  
HETATM   27  F   UNL     1      -5.637   7.195  72.031  1.00  0.00    -0.035 F  
HETATM   28  C   UNL     1      -5.753  10.090  69.851  1.00  0.00    -0.043 A  
HETATM   29  C   UNL     1      -5.256   9.103  70.705  1.00  0.00    -0.028 A  
ENDBRANCH  21  23
ENDBRANCH  20  21
ENDBRANCH  19  20
ENDBRANCH  18  19
ENDBRANCH   4  18
TORSDOF 5
ENDMDL
MODEL      217
REMARK 921   NORMALIZED FREE ENERGY PREDICTED BY IDOCK:   -2.15 KCAL/MOL
REMARK 922        TOTAL FREE ENERGY PREDICTED BY IDOCK:   -3.54 KCAL/MOL
REMARK 923 INTER-LIGAND FREE ENERGY PREDICTED BY IDOCK:   -2.60 KCAL/MOL
REMARK 924 INTRA-LIGAND FREE ENERGY PREDICTED BY IDOCK:   -0.94 KCAL/MOL
REMARK 927      BINDING AFFINITY PREDICTED BY RF-SCORE:    0.00 PKD
ROOT
HETATM    1  C   UNL     1     -11.652   7.611  69.048  1.00  0.00     0.889 C  
HETATM    2  C   UNL     1     -12.356   6.920  70.190  1.00  0.00     0.132 C  
HETATM    3  C   UNL     1     -11.509   6.979  71.440  1.00  0.00    -0.276 C  
HETATM    4  N   UNL     1     -11.212   8.366  71.834  1.00  0.00    -0.288 NA 
HETATM    5  C   UNL     1      -8.362   5.822  65.230  1.00  0.00    -0.146 C  
HETATM    6  C   UNL     1     -10.526   9.121  70.749  1.00  0.00    -0.257 C  
HETATM    7  C   UNL     1     -11.213   9.075  69.372  1.00  0.00     0.102 C  
HETATM    8  N   UNL     1      -9.417   6.389  66.031  1.00  0.00    -0.035 NA 
HETATM    9  C   UNL     1     -10.320   5.480  66.781  1.00  0.00    -0.269 C  
HETATM   10  C   UNL     1     -10.236   9.252  68.219  1.00  0.00    -0.236 A  
HETATM   11  C   UNL     1      -9.748  10.344  67.547  1.00  0.00    -0.195 A  
HETATM   12  C   UNL     1     -10.117   5.626  68.285  1.00  0.00    -0.169 C  
HETATM   13  N   UNL     1     -10.378   6.985  68.706  1.00  0.00    -0.180 NA 
HETATM   14  C   UNL     1      -9.907   7.963  67.784  1.00  0.00    -0.163 A  
HETATM   15  C   UNL     1      -8.992  10.101  66.386  1.00  0.00    -0.163 A  
HETATM   16  C   UNL     1      -8.811   8.787  65.869  1.00  0.00    -0.222 A  
HETATM   17  C   UNL     1      -9.321   7.686  66.550  1.00  0.00    -0.189 A  
ENDROOT
BRANCH   4  18
HETATM   18  C   UNL     1     -10.350   8.291  73.033  1.00  0.00    -0.058 C  
BRANCH  18  19
HETATM   19  C   UNL     1      -9.521   7.016  73.113  1.00  0.00    -0.186 C  
BRANCH  19  20
HETATM   20  C   UNL     1      -8.246   7.235  73.914  1.00  0.00    -0.168 C  
BRANCH  20  21
HETATM   21  C   UNL     1      -7.037   6.683  73.194  1.00  0.00    -0.077 C  
HETATM   22  O   UNL     1      -5.946   7.249  73.205  1.00  0.00    -0.055 OA 
BRANCH  21  23
HETATM   23  C   UNL     1      -7.190   5.401  72.450  1.00  0.00    -0.093 A  
HETATM   24  C   UNL     1      -6.924   4.201  70.362  1.00  0.00    -0.034 A  
HETATM   25  C   UNL     1      -6.794   5.372  71.105  1.00  0.00    -0.052 A  
HETATM   26  C   UNL     1      -7.451   3.063  70.963  1.00  0.00    -0.036 A  
HETATM   27  F   UNL     1      -7.584   1.942  70.248  1.00  0.00    -0.039 F  
HETATM   28  C   UNL     1      -7.712   4.244  73.047  1.00  0.00    -0.082 A  
HETATM   29  C   UNL     1      -7.843   3.073  72.297  1.00  0.00    -0.055 A  
ENDBRANCH  21  23
ENDBRANCH  20  21
ENDBRANCH  19  20
ENDBRANCH  18  19
ENDBRANCH   4  18
TORSDOF 5
ENDMDL
MODEL      218
REMARK 921   NORMALIZED FREE ENERGY PREDICTED BY IDOCK:   -1.79 KCAL/MOL
REMARK 922        TOTAL FREE ENERGY PREDICTED BY IDOCK:   -3.07 KCAL/MOL
REMARK 923 INTER-LIGAND FREE ENERGY PREDICTED BY IDOCK:   -2.23 KCAL/MOL
REMARK 924 INTRA-LIGAND FREE ENERGY PREDICTED BY IDOCK:   -0.84 KCAL/MOL
REMARK 927      BINDING AFFINITY PREDICTED BY RF-SCORE:    0.00 PKD
ROOT
HETATM    1  C   UNL     1     -10.962  15.514  68.356  1.00  0.00    -0.297 C  
HETATM    2  C   UNL     1     -10.506  15.144  69.746  1.00  0.00    -0.248 C  
HETATM    3  C   UNL     1      -9.035  14.798  69.741  1.00  0.00     0.345 C  
HETATM    4  N   UNL     1      -8.212  15.915  69.252  1.00  0.00    -0.236 NA 
HETATM    5  C   UNL     1     -13.076  12.640  64.372  1.00  0.00     0.025 C  
HETATM    6  C   UNL     1      -8.612  16.349  67.885  1.00  0.00    -0.175 C  
HETATM    7  C   UNL     1     -10.111  16.644  67.694  1.00  0.00    -0.272 C  
HETATM    8  N   UNL     1     -12.758  13.570  65.425  1.00  0.00    -0.615 NA 
HETATM    9  C   UNL     1     -12.782  13.101  66.834  1.00  0.00     0.759 C  
HETATM   10  C   UNL     1     -10.577  16.433  66.261  1.00  0.00    -0.243 A  
HETATM   11  C   UNL     1     -10.636  17.241  65.153  1.00  0.00     0.114 A  
HETATM   12  C   UNL     1     -11.380  13.095  67.432  1.00  0.00    -0.306 C  
HETATM   13  N   UNL     1     -10.805  14.422  67.399  1.00  0.00    -0.287 NA 
HETATM   14  C   UNL     1     -11.113  15.142  66.210  1.00  0.00    -0.309 A  
HETATM   15  C   UNL     1     -11.319  16.744  64.029  1.00  0.00     1.252 A  
HETATM   16  C   UNL     1     -12.001  15.494  64.057  1.00  0.00     0.040 A  
HETATM   17  C   UNL     1     -11.947  14.687  65.189  1.00  0.00    -0.334 A  
ENDROOT
BRANCH   4  18
HETATM   18  C   UNL     1      -6.811  15.443  69.254  1.00  0.00    -0.157 C  
BRANCH  18  19
HETATM   19  C   UNL     1      -6.639  14.037  69.815  1.00  0.00    -0.081 C  
BRANCH  19  20
HETATM   20  C   UNL     1      -6.467  13.014  68.702  1.00  0.00    -0.087 C  
BRANCH  20  21
HETATM   21  C   UNL     1      -6.310  11.616  69.255  1.00  0.00    -0.098 C  
HETATM   22  O   UNL     1      -5.211  11.091  69.420  1.00  0.00    -0.041 OA 
BRANCH  21  23
HETATM   23  C   UNL     1      -7.543  10.861  69.611  1.00  0.00     0.012 A  
HETATM   24  C   UNL     1      -8.535   9.014  70.827  1.00  0.00    -0.238 A  
HETATM   25  C   UNL     1      -7.414   9.759  70.470  1.00  0.00    -0.119 A  
HETATM   26  C   UNL     1      -9.781   9.367  70.324  1.00  0.00    -0.246 A  
HETATM   27  F   UNL     1     -10.855   8.646  70.660  1.00  0.00    -0.216 F  
HETATM   28  C   UNL     1      -8.808  11.211  69.116  1.00  0.00     0.058 A  
HETATM   29  C   UNL     1      -9.929  10.459  69.475  1.00  0.00    -0.229 A  
ENDBRANCH  21  23
ENDBRANCH  20  21
ENDBRANCH  19  20
ENDBRANCH  18  19
ENDBRANCH   4  18
TORSDOF 5
ENDMDL
MODEL      219
REMARK 921   NORMALIZED FREE ENERGY PREDICTED BY IDOCK:   -1.73 KCAL/MOL
REMARK 922        TOTAL FREE ENERGY PREDICTED BY IDOCK:   -2.99 KCAL/MOL
REMARK 923 INTER-LIGAND FREE ENERGY PREDICTED BY IDOCK:   -2.67 KCAL/MOL
REMARK 924 INTRA-LIGAND FREE ENERGY PREDICTED BY IDOCK:   -0.33 KCAL/MOL
REMARK 927      BINDING AFFINITY PREDICTED BY RF-SCORE:    0.00 PKD
ROOT
HETATM    1  C   UNL     1      -8.054  12.830  66.684  1.00  0.00     0.246 C  
HETATM    2  C   UNL     1      -6.740  12.251  67.147  1.00  0.00    -0.105 C  
HETATM    3  C   UNL     1      -6.825  10.743  67.213  1.00  0.00    -0.081 C  
HETATM    4  N   UNL     1      -7.169  10.158  65.907  1.00  0.00    -0.115 NA 
HETATM    5  C   UNL     1     -12.356  14.579  69.337  1.00  0.00    -0.177 C  
HETATM    6  C   UNL     1      -8.453  10.693  65.375  1.00  0.00    -0.160 C  
HETATM    7  C   UNL     1      -8.568  12.228  65.338  1.00  0.00     1.017 C  
HETATM    8  N   UNL     1     -11.190  14.383  68.513  1.00  0.00    -0.253 NA 
HETATM    9  C   UNL     1      -9.861  14.257  69.164  1.00  0.00     0.017 C  
HETATM   10  C   UNL     1     -10.006  12.714  65.436  1.00  0.00    -0.230 A  
HETATM   11  C   UNL     1     -10.988  12.970  64.512  1.00  0.00    -0.381 A  
HETATM   12  C   UNL     1      -9.299  12.850  68.992  1.00  0.00     0.471 C  
HETATM   13  N   UNL     1      -9.158  12.524  67.590  1.00  0.00    -0.179 NA 
HETATM   14  C   UNL     1     -10.227  13.012  66.785  1.00  0.00    -0.246 A  
HETATM   15  C   UNL     1     -12.156  13.605  64.971  1.00  0.00    -0.418 A  
HETATM   16  C   UNL     1     -12.289  14.049  66.317  1.00  0.00    -0.482 A  
HETATM   17  C   UNL     1     -11.283  13.798  67.245  1.00  0.00    -0.311 A  
ENDROOT
BRANCH   4  18
HETATM   18  C   UNL     1      -7.264   8.696  66.109  1.00  0.00    -0.085 C  
BRANCH  18  19
HETATM   19  C   UNL     1      -8.484   8.267  66.914  1.00  0.00    -0.118 C  
BRANCH  19  20
HETATM   20  C   UNL     1      -8.184   8.249  68.406  1.00  0.00    -0.132 C  
BRANCH  20  21
HETATM   21  C   UNL     1      -9.054   7.250  69.133  1.00  0.00    -0.137 C  
HETATM   22  O   UNL     1     -10.234   7.067  68.841  1.00  0.00    -0.168 OA 
BRANCH  21  23
HETATM   23  C   UNL     1      -8.444   6.463  70.241  1.00  0.00    -0.135 A  
HETATM   24  C   UNL     1      -8.240   4.326  71.366  1.00  0.00    -0.084 A  
HETATM   25  C   UNL     1      -8.777   5.104  70.343  1.00  0.00    -0.130 A  
HETATM   26  C   UNL     1      -7.374   4.907  72.286  1.00  0.00    -0.083 A  
HETATM   27  F   UNL     1      -6.867   4.162  73.272  1.00  0.00    -0.047 F  
HETATM   28  C   UNL     1      -7.563   7.035  71.172  1.00  0.00    -0.086 A  
HETATM   29  C   UNL     1      -7.030   6.251  72.197  1.00  0.00    -0.074 A  
ENDBRANCH  21  23
ENDBRANCH  20  21
ENDBRANCH  19  20
ENDBRANCH  18  19
ENDBRANCH   4  18
TORSDOF 5
ENDMDL
MODEL      220
REMARK 921   NORMALIZED FREE ENERGY PREDICTED BY IDOCK:   -1.67 KCAL/MOL
REMARK 922        TOTAL FREE ENERGY PREDICTED BY IDOCK:   -2.92 KCAL/MOL
REMARK 923 INTER-LIGAND FREE ENERGY PREDICTED BY IDOCK:   -3.13 KCAL/MOL
REMARK 924 INTRA-LIGAND FREE ENERGY PREDICTED BY IDOCK:    0.21 KCAL/MOL
REMARK 927      BINDING AFFINITY PREDICTED BY RF-SCORE:    0.00 PKD
ROOT
HETATM    1  C   UNL     1     -11.129  17.638  67.210  1.00  0.00     0.147 C  
HETATM    2  C   UNL     1     -10.498  18.943  67.628  1.00  0.00    -0.514 C  
HETATM    3  C   UNL     1      -9.049  18.987  67.199  1.00  0.00    -0.283 C  
HETATM    4  N   UNL     1      -8.906  18.834  65.743  1.00  0.00    -0.322 NA 
HETATM    5  C   UNL     1     -11.695  12.944  69.710  1.00  0.00    -0.281 C  
HETATM    6  C   UNL     1      -9.518  17.570  65.250  1.00  0.00     1.443 C  
HETATM    7  C   UNL     1     -10.973  17.322  65.688  1.00  0.00     0.108 C  
HETATM    8  N   UNL     1     -11.838  14.202  69.023  1.00  0.00    -0.329 NA 
HETATM    9  C   UNL     1     -11.574  15.462  69.763  1.00  0.00    -0.323 C  
HETATM   10  C   UNL     1     -11.327  15.844  65.752  1.00  0.00     0.164 A  
HETATM   11  C   UNL     1     -11.820  14.945  64.839  1.00  0.00    -0.337 A  
HETATM   12  C   UNL     1     -10.331  16.162  69.226  1.00  0.00    -0.265 C  
HETATM   13  N   UNL     1     -10.489  16.477  67.823  1.00  0.00    -0.299 NA 
HETATM   14  C   UNL     1     -11.157  15.458  67.086  1.00  0.00    -0.291 A  
HETATM   15  C   UNL     1     -12.210  13.684  65.324  1.00  0.00    -0.466 A  
HETATM   16  C   UNL     1     -12.184  13.372  66.713  1.00  0.00    -0.367 A  
HETATM   17  C   UNL     1     -11.695  14.294  67.633  1.00  0.00    -0.389 A  
ENDROOT
BRANCH   4  18
HETATM   18  C   UNL     1      -7.455  18.849  65.456  1.00  0.00     0.133 C  
BRANCH  18  19
HETATM   19  C   UNL     1      -6.604  18.244  66.566  1.00  0.00    -0.236 C  
BRANCH  19  20
HETATM   20  C   UNL     1      -6.329  16.770  66.310  1.00  0.00     0.275 C  
BRANCH  20  21
HETATM   21  C   UNL     1      -6.577  15.938  67.547  1.00  0.00    -0.182 C  
HETATM   22  O   UNL     1      -7.073  14.814  67.498  1.00  0.00    -0.174 OA 
BRANCH  21  23
HETATM   23  C   UNL     1      -6.197  16.513  68.867  1.00  0.00    -0.149 A  
HETATM   24  C   UNL     1      -5.880  18.497  70.223  1.00  0.00    -0.162 A  
HETATM   25  C   UNL     1      -6.235  17.908  69.011  1.00  0.00    -0.222 A  
HETATM   26  C   UNL     1      -5.487  17.693  71.286  1.00  0.00     0.147 A  
HETATM   27  F   UNL     1      -5.138  18.258  72.445  1.00  0.00     0.073 F  
HETATM   28  C   UNL     1      -5.805  15.713  69.951  1.00  0.00    -0.151 A  
HETATM   29  C   UNL     1      -5.448  16.308  71.162  1.00  0.00     0.119 A  
ENDBRANCH  21  23
ENDBRANCH  20  21
ENDBRANCH  19  20
ENDBRANCH  18  19
ENDBRANCH   4  18
TORSDOF 5
ENDMDL
MODEL      221
REMARK 921   NORMALIZED FREE ENERGY PREDICTED BY IDOCK:   -0.33 KCAL/MOL
REMARK 922        TOTAL FREE ENERGY PREDICTED BY IDOCK:   -1.19 KCAL/MOL
REMARK 923 INTER-LIGAND FREE ENERGY PREDICTED BY IDOCK:   -0.93 KCAL/MOL
REMARK 924 INTRA-LIGAND FREE ENERGY PREDICTED BY IDOCK:   -0.26 KCAL/MOL
REMARK 927      BINDING AFFINITY PREDICTED BY RF-SCORE:    0.00 PKD
ROOT
HETATM    1  C   UNL     1      -9.775  15.099  67.287  1.00  0.00    -0.210 C  
HETATM    2  C   UNL     1      -8.828  14.640  66.206  1.00  0.00    -0.006 C  
HETATM    3  C   UNL     1      -7.778  13.721  66.785  1.00  0.00     0.631 C  
HETATM    4  N   UNL     1      -8.378  12.539  67.424  1.00  0.00    -0.173 NA 
HETATM    5  C   UNL     1      -9.785  19.382  70.490  1.00  0.00     1.409 C  
HETATM    6  C   UNL     1      -9.340  12.912  68.498  1.00  0.00    -0.074 C  
HETATM    7  C   UNL     1     -10.422  13.930  68.095  1.00  0.00    -0.246 C  
HETATM    8  N   UNL     1     -10.045  18.333  69.538  1.00  0.00     0.058 NA 
HETATM    9  C   UNL     1      -9.266  18.296  68.274  1.00  0.00    -0.309 C  
HETATM   10  C   UNL     1     -10.925  14.754  69.271  1.00  0.00    -0.275 A  
HETATM   11  C   UNL     1     -11.929  14.580  70.191  1.00  0.00    -0.377 A  
HETATM   12  C   UNL     1      -8.344  17.083  68.235  1.00  0.00    -0.228 C  
HETATM   13  N   UNL     1      -9.107  15.858  68.340  1.00  0.00    -0.185 NA 
HETATM   14  C   UNL     1     -10.196  15.947  69.254  1.00  0.00    -0.250 A  
HETATM   15  C   UNL     1     -12.227  15.668  71.032  1.00  0.00    -0.462 A  
HETATM   16  C   UNL     1     -11.584  16.930  70.883  1.00  0.00     0.803 A  
HETATM   17  C   UNL     1     -10.577  17.101  69.939  1.00  0.00     0.200 A  
ENDROOT
BRANCH   4  18
HETATM   18  C   UNL     1      -7.262  11.747  67.984  1.00  0.00    -0.084 C  
BRANCH  18  19
HETATM   19  C   UNL     1      -7.063  11.943  69.482  1.00  0.00     0.127 C  
BRANCH  19  20
HETATM   20  C   UNL     1      -6.773  10.621  70.178  1.00  0.00    -0.143 C  
BRANCH  20  21
HETATM   21  C   UNL     1      -8.011   9.759  70.267  1.00  0.00    -0.162 C  
HETATM   22  O   UNL     1      -9.058  10.046  69.690  1.00  0.00    -0.206 OA 
BRANCH  21  23
HETATM   23  C   UNL     1      -7.944   8.517  71.085  1.00  0.00    -0.144 A  
HETATM   24  C   UNL     1      -6.681   7.155  72.642  1.00  0.00    -0.067 A  
HETATM   25  C   UNL     1      -6.798   8.305  71.866  1.00  0.00    -0.084 A  
HETATM   26  C   UNL     1      -7.707   6.216  72.635  1.00  0.00    -0.102 A  
HETATM   27  F   UNL     1      -7.591   5.108  73.373  1.00  0.00    -0.089 F  
HETATM   28  C   UNL     1      -8.974   7.565  71.092  1.00  0.00    -0.144 A  
HETATM   29  C   UNL     1      -8.852   6.412  71.870  1.00  0.00    -0.138 A  
ENDBRANCH  21  23
ENDBRANCH  20  21
ENDBRANCH  19  20
ENDBRANCH  18  19
ENDBRANCH   4  18
TORSDOF 5
ENDMDL
MODEL      222
REMARK 921   NORMALIZED FREE ENERGY PREDICTED BY IDOCK:    1.93 KCAL/MOL
REMARK 922        TOTAL FREE ENERGY PREDICTED BY IDOCK:    1.73 KCAL/MOL
REMARK 923 INTER-LIGAND FREE ENERGY PREDICTED BY IDOCK:    2.05 KCAL/MOL
REMARK 924 INTRA-LIGAND FREE ENERGY PREDICTED BY IDOCK:   -0.32 KCAL/MOL
REMARK 927      BINDING AFFINITY PREDICTED BY RF-SCORE:    0.00 PKD
ROOT
HETATM    1  C   UNL     1     -10.422  16.515  66.418  1.00  0.00    -0.274 C  
HETATM    2  C   UNL     1     -10.656  16.772  64.950  1.00  0.00     0.073 C  
HETATM    3  C   UNL     1     -10.846  15.466  64.213  1.00  0.00     0.356 C  
HETATM    4  N   UNL     1     -11.980  14.697  64.747  1.00  0.00    -0.429 NA 
HETATM    5  C   UNL     1      -5.964  15.847  69.296  1.00  0.00    -0.128 C  
HETATM    6  C   UNL     1     -11.829  14.414  66.201  1.00  0.00    -0.382 C  
HETATM    7  C   UNL     1     -11.527  15.637  67.087  1.00  0.00     0.009 C  
HETATM    8  N   UNL     1      -7.213  16.254  68.704  1.00  0.00    -0.156 NA 
HETATM    9  C   UNL     1      -7.200  16.912  67.373  1.00  0.00    -0.159 C  
HETATM   10  C   UNL     1     -10.758  15.275  68.350  1.00  0.00    -0.250 A  
HETATM   11  C   UNL     1     -11.134  14.894  69.614  1.00  0.00    -0.298 A  
HETATM   12  C   UNL     1      -7.848  16.023  66.317  1.00  0.00     0.083 C  
HETATM   13  N   UNL     1      -9.219  15.727  66.671  1.00  0.00    -0.233 NA 
HETATM   14  C   UNL     1      -9.408  15.502  68.065  1.00  0.00    -0.193 A  
HETATM   15  C   UNL     1     -10.126  14.828  70.592  1.00  0.00     0.836 A  
HETATM   16  C   UNL     1      -8.786  15.224  70.319  1.00  0.00     0.787 A  
HETATM   17  C   UNL     1      -8.417  15.622  69.039  1.00  0.00    -0.231 A  
ENDROOT
BRANCH   4  18
HETATM   18  C   UNL     1     -12.035  13.434  63.980  1.00  0.00    -0.464 C  
BRANCH  18  19
HETATM   19  C   UNL     1     -11.736  12.196  64.815  1.00  0.00    -0.390 C  
BRANCH  19  20
HETATM   20  C   UNL     1     -10.295  12.194  65.305  1.00  0.00    -0.310 C  
BRANCH  20  21
HETATM   21  C   UNL     1      -9.837  10.801  65.670  1.00  0.00    -0.245 C  
HETATM   22  O   UNL     1      -8.886  10.253  65.116  1.00  0.00    -0.164 OA 
BRANCH  21  23
HETATM   23  C   UNL     1     -10.572  10.080  66.746  1.00  0.00    -0.229 A  
HETATM   24  C   UNL     1     -11.377   7.966  67.615  1.00  0.00     0.809 A  
HETATM   25  C   UNL     1     -10.691   8.686  66.640  1.00  0.00     0.033 A  
HETATM   26  C   UNL     1     -11.943   8.638  68.692  1.00  0.00     2.509 A  
HETATM   27  F   UNL     1     -12.608   7.948  69.623  1.00  0.00     1.108 F  
HETATM   28  C   UNL     1     -11.142  10.745  67.842  1.00  0.00    -0.369 A  
HETATM   29  C   UNL     1     -11.830  10.018  68.816  1.00  0.00     0.356 A  
ENDBRANCH  21  23
ENDBRANCH  20  21
ENDBRANCH  19  20
ENDBRANCH  18  19
ENDBRANCH   4  18
TORSDOF 5
ENDMDL
MODEL      223
REMARK 921   NORMALIZED FREE ENERGY PREDICTED BY IDOCK:    4.91 KCAL/MOL
REMARK 922        TOTAL FREE ENERGY PREDICTED BY IDOCK:    5.58 KCAL/MOL
REMARK 923 INTER-LIGAND FREE ENERGY PREDICTED BY IDOCK:   -2.65 KCAL/MOL
REMARK 924 INTRA-LIGAND FREE ENERGY PREDICTED BY IDOCK:    8.24 KCAL/MOL
REMARK 927      BINDING AFFINITY PREDICTED BY RF-SCORE:    0.00 PKD
ROOT
HETATM    1  C   UNL     1     -10.211   8.673  66.589  1.00  0.00    -0.273 C  
HETATM    2  C   UNL     1     -11.485   9.436  66.858  1.00  0.00     1.697 C  
HETATM    3  C   UNL     1     -11.169  10.841  67.314  1.00  0.00    -0.197 C  
HETATM    4  N   UNL     1     -10.377  11.575  66.314  1.00  0.00    -0.231 NA 
HETATM    5  C   UNL     1      -7.190   5.505  69.661  1.00  0.00    -0.065 C  
HETATM    6  C   UNL     1      -9.105  10.876  65.984  1.00  0.00    -0.191 C  
HETATM    7  C   UNL     1      -9.245   9.393  65.595  1.00  0.00    -0.285 C  
HETATM    8  N   UNL     1      -8.027   6.119  68.661  1.00  0.00    -0.100 NA 
HETATM    9  C   UNL     1      -9.444   6.416  68.990  1.00  0.00    -0.129 C  
HETATM   10  C   UNL     1      -7.996   8.581  65.906  1.00  0.00    -0.105 A  
HETATM   11  C   UNL     1      -6.852   8.293  65.205  1.00  0.00    -0.069 A  
HETATM   12  C   UNL     1      -9.688   7.920  69.046  1.00  0.00    -0.162 C  
HETATM   13  N   UNL     1      -9.372   8.536  67.776  1.00  0.00    -0.137 NA 
HETATM   14  C   UNL     1      -8.218   7.983  67.151  1.00  0.00    -0.117 A  
HETATM   15  C   UNL     1      -5.985   7.332  65.754  1.00  0.00    -0.037 A  
HETATM   16  C   UNL     1      -6.313   6.614  66.940  1.00  0.00    -0.042 A  
HETATM   17  C   UNL     1      -7.482   6.903  67.636  1.00  0.00    -0.098 A  
ENDROOT
BRANCH   4  18
HETATM   18  C   UNL     1     -10.098  12.908  66.890  1.00  0.00    -0.241 C  
BRANCH  18  19
HETATM   19  C   UNL     1     -11.229  13.910  66.696  1.00  0.00    -0.328 C  
BRANCH  19  20
HETATM   20  C   UNL     1     -11.685  14.494  68.025  1.00  0.00    -0.373 C  
BRANCH  20  21
HETATM   21  C   UNL     1     -10.511  14.787  68.932  1.00  0.00    -0.249 C  
HETATM   22  O   UNL     1     -10.649  15.263  70.057  1.00  0.00    -0.277 OA 
BRANCH  21  23
HETATM   23  C   UNL     1      -9.143  14.478  68.430  1.00  0.00    -0.191 A  
HETATM   24  C   UNL     1      -6.877  15.249  68.053  1.00  0.00    -0.152 A  
HETATM   25  C   UNL     1      -8.169  15.484  68.516  1.00  0.00    -0.148 A  
HETATM   26  C   UNL     1      -6.560  14.012  67.503  1.00  0.00    -0.081 A  
HETATM   27  F   UNL     1      -5.323  13.791  67.051  1.00  0.00     0.255 F  
HETATM   28  C   UNL     1      -8.808  13.232  67.880  1.00  0.00    -0.192 A  
HETATM   29  C   UNL     1      -7.512  13.002  67.415  1.00  0.00    -0.136 A  
ENDBRANCH  21  23
ENDBRANCH  20  21
ENDBRANCH  19  20
ENDBRANCH  18  19
ENDBRANCH   4  18
TORSDOF 5
ENDMDL
MODEL      224
REMARK 921   NORMALIZED FREE ENERGY PREDICTED BY IDOCK:    5.56 KCAL/MOL
REMARK 922        TOTAL FREE ENERGY PREDICTED BY IDOCK:    6.43 KCAL/MOL
REMARK 923 INTER-LIGAND FREE ENERGY PREDICTED BY IDOCK:    6.87 KCAL/MOL
REMARK 924 INTRA-LIGAND FREE ENERGY PREDICTED BY IDOCK:   -0.45 KCAL/MOL
REMARK 927      BINDING AFFINITY PREDICTED BY RF-SCORE:    0.00 PKD
ROOT
HETATM    1  C   UNL     1      -9.118  15.310  69.441  1.00  0.00    -0.228 C  
HETATM    2  C   UNL     1      -7.686  14.970  69.773  1.00  0.00    -0.038 C  
HETATM    3  C   UNL     1      -7.466  13.478  69.678  1.00  0.00     0.596 C  
HETATM    4  N   UNL     1      -7.778  12.964  68.335  1.00  0.00    -0.131 NA 
HETATM    5  C   UNL     1     -13.483  15.877  72.478  1.00  0.00    -0.406 C  
HETATM    6  C   UNL     1      -9.177  13.273  67.929  1.00  0.00    -0.213 C  
HETATM    7  C   UNL     1      -9.596  14.749  68.064  1.00  0.00    -0.209 C  
HETATM    8  N   UNL     1     -12.363  16.005  71.582  1.00  0.00    -0.457 NA 
HETATM    9  C   UNL     1     -10.993  16.091  72.148  1.00  0.00     0.807 C  
HETATM   10  C   UNL     1     -11.092  14.919  68.286  1.00  0.00    -0.290 A  
HETATM   11  C   UNL     1     -12.167  15.057  67.445  1.00  0.00     0.257 A  
HETATM   12  C   UNL     1     -10.177  14.851  71.796  1.00  0.00     2.249 C  
HETATM   13  N   UNL     1     -10.073  14.699  70.362  1.00  0.00     0.538 NA 
HETATM   14  C   UNL     1     -11.272  15.034  69.669  1.00  0.00    -0.275 A  
HETATM   15  C   UNL     1     -13.402  15.391  68.028  1.00  0.00     4.189 A  
HETATM   16  C   UNL     1     -13.526  15.667  69.420  1.00  0.00     2.072 A  
HETATM   17  C   UNL     1     -12.428  15.538  70.263  1.00  0.00    -0.367 A  
ENDROOT
BRANCH   4  18
HETATM   18  C   UNL     1      -7.567  11.501  68.381  1.00  0.00    -0.125 C  
BRANCH  18  19
HETATM   19  C   UNL     1      -8.197  10.753  67.213  1.00  0.00    -0.121 C  
BRANCH  19  20
HETATM   20  C   UNL     1      -7.137  10.091  66.345  1.00  0.00    -0.102 C  
BRANCH  20  21
HETATM   21  C   UNL     1      -6.394   9.015  67.102  1.00  0.00    -0.060 C  
HETATM   22  O   UNL     1      -5.186   8.832  66.975  1.00  0.00    -0.035 OA 
BRANCH  21  23
HETATM   23  C   UNL     1      -7.170   8.153  68.037  1.00  0.00    -0.094 A  
HETATM   24  C   UNL     1      -8.944   6.529  68.332  1.00  0.00    -0.125 A  
HETATM   25  C   UNL     1      -8.183   7.346  67.500  1.00  0.00    -0.113 A  
HETATM   26  C   UNL     1      -8.693   6.521  69.700  1.00  0.00    -0.139 A  
HETATM   27  F   UNL     1      -9.429   5.743  70.500  1.00  0.00    -0.164 F  
HETATM   28  C   UNL     1      -6.923   8.130  69.418  1.00  0.00    -0.051 A  
HETATM   29  C   UNL     1      -7.689   7.311  70.249  1.00  0.00    -0.094 A  
ENDBRANCH  21  23
ENDBRANCH  20  21
ENDBRANCH  19  20
ENDBRANCH  18  19
ENDBRANCH   4  18
TORSDOF 5
ENDMDL
MODEL      225
REMARK 921   NORMALIZED FREE ENERGY PREDICTED BY IDOCK:    5.70 KCAL/MOL
REMARK 922        TOTAL FREE ENERGY PREDICTED BY IDOCK:    6.60 KCAL/MOL
REMARK 923 INTER-LIGAND FREE ENERGY PREDICTED BY IDOCK:    6.25 KCAL/MOL
REMARK 924 INTRA-LIGAND FREE ENERGY PREDICTED BY IDOCK:    0.36 KCAL/MOL
REMARK 927      BINDING AFFINITY PREDICTED BY RF-SCORE:    0.00 PKD
ROOT
HETATM    1  C   UNL     1      -9.560  19.252  67.367  1.00  0.00    -0.314 C  
HETATM    2  C   UNL     1      -8.368  20.159  67.181  1.00  0.00    -0.391 C  
HETATM    3  C   UNL     1      -7.159  19.357  66.760  1.00  0.00    -0.203 C  
HETATM    4  N   UNL     1      -7.399  18.624  65.506  1.00  0.00    -0.509 NA 
HETATM    5  C   UNL     1     -11.505  16.686  71.637  1.00  0.00     0.126 C  
HETATM    6  C   UNL     1      -8.573  17.714  65.606  1.00  0.00     0.596 C  
HETATM    7  C   UNL     1      -9.871  18.359  66.124  1.00  0.00    -0.279 C  
HETATM    8  N   UNL     1     -11.248  17.506  70.481  1.00  0.00     1.375 NA 
HETATM    9  C   UNL     1     -10.333  18.668  70.610  1.00  0.00     2.126 C  
HETATM   10  C   UNL     1     -10.790  17.364  66.817  1.00  0.00     0.024 A  
HETATM   11  C   UNL     1     -11.793  16.534  66.380  1.00  0.00     1.644 A  
HETATM   12  C   UNL     1      -9.053  18.447  69.811  1.00  0.00     1.078 C  
HETATM   13  N   UNL     1      -9.352  18.251  68.410  1.00  0.00    -0.305 NA 
HETATM   14  C   UNL     1     -10.524  17.472  68.186  1.00  0.00    -0.386 A  
HETATM   15  C   UNL     1     -12.564  15.886  67.361  1.00  0.00     2.150 A  
HETATM   16  C   UNL     1     -12.383  16.141  68.750  1.00  0.00     0.643 A  
HETATM   17  C   UNL     1     -11.373  16.994  69.183  1.00  0.00     0.396 A  
ENDROOT
BRANCH   4  18
HETATM   18  C   UNL     1      -6.170  17.851  65.225  1.00  0.00     0.082 C  
BRANCH  18  19
HETATM   19  C   UNL     1      -5.646  17.075  66.426  1.00  0.00    -0.049 C  
BRANCH  19  20
HETATM   20  C   UNL     1      -6.751  16.807  67.436  1.00  0.00    -0.190 C  
BRANCH  20  21
HETATM   21  C   UNL     1      -6.564  15.473  68.120  1.00  0.00    -0.130 C  
HETATM   22  O   UNL     1      -5.596  15.229  68.838  1.00  0.00    -0.096 OA 
BRANCH  21  23
HETATM   23  C   UNL     1      -7.601  14.425  67.911  1.00  0.00    -0.158 A  
HETATM   24  C   UNL     1      -8.485  12.260  68.548  1.00  0.00    -0.077 A  
HETATM   25  C   UNL     1      -7.544  13.274  68.711  1.00  0.00    -0.043 A  
HETATM   26  C   UNL     1      -9.480  12.396  67.587  1.00  0.00    -0.190 A  
HETATM   27  F   UNL     1     -10.377  11.419  67.425  1.00  0.00    -0.204 F  
HETATM   28  C   UNL     1      -8.615  14.552  66.949  1.00  0.00    -0.207 A  
HETATM   29  C   UNL     1      -9.555  13.532  66.789  1.00  0.00    -0.268 A  
ENDBRANCH  21  23
ENDBRANCH  20  21
ENDBRANCH  19  20
ENDBRANCH  18  19
ENDBRANCH   4  18
TORSDOF 5
ENDMDL
MODEL      226
REMARK 921   NORMALIZED FREE ENERGY PREDICTED BY IDOCK:    8.17 KCAL/MOL
REMARK 922        TOTAL FREE ENERGY PREDICTED BY IDOCK:    9.80 KCAL/MOL
REMARK 923 INTER-LIGAND FREE ENERGY PREDICTED BY IDOCK:    8.05 KCAL/MOL
REMARK 924 INTRA-LIGAND FREE ENERGY PREDICTED BY IDOCK:    1.75 KCAL/MOL
REMARK 927      BINDING AFFINITY PREDICTED BY RF-SCORE:    0.00 PKD
ROOT
HETATM    1  C   UNL     1      -8.278  12.063  68.678  1.00  0.00    -0.052 C  
HETATM    2  C   UNL     1      -8.042  13.467  68.179  1.00  0.00    -0.154 C  
HETATM    3  C   UNL     1      -7.459  14.324  69.279  1.00  0.00    -0.022 C  
HETATM    4  N   UNL     1      -6.188  13.777  69.781  1.00  0.00    -0.125 NA 
HETATM    5  C   UNL     1     -12.535   9.689  70.879  1.00  0.00    -0.238 C  
HETATM    6  C   UNL     1      -6.338  12.383  70.282  1.00  0.00     0.145 C  
HETATM    7  C   UNL     1      -7.014  11.398  69.310  1.00  0.00    -0.115 C  
HETATM    8  N   UNL     1     -11.415  10.117  70.080  1.00  0.00    -0.279 NA 
HETATM    9  C   UNL     1     -11.534  11.363  69.282  1.00  0.00    -0.303 C  
HETATM   10  C   UNL     1      -7.723  10.257  70.025  1.00  0.00    -0.090 A  
HETATM   11  C   UNL     1      -7.329   9.015  70.455  1.00  0.00    -0.084 A  
HETATM   12  C   UNL     1     -10.608  12.448  69.820  1.00  0.00     0.801 C  
HETATM   13  N   UNL     1      -9.230  12.008  69.784  1.00  0.00     1.788 NA 
HETATM   14  C   UNL     1      -9.066  10.636  70.131  1.00  0.00     0.910 A  
HETATM   15  C   UNL     1      -8.333   8.144  70.914  1.00  0.00    -0.124 A  
HETATM   16  C   UNL     1      -9.713   8.491  70.856  1.00  0.00    -0.231 A  
HETATM   17  C   UNL     1     -10.104   9.748  70.407  1.00  0.00    -0.252 A  
ENDROOT
BRANCH   4  18
HETATM   18  C   UNL     1      -5.744  14.671  70.873  1.00  0.00    -0.154 C  
BRANCH  18  19
HETATM   19  C   UNL     1      -6.401  16.045  70.845  1.00  0.00     0.915 C  
BRANCH  19  20
HETATM   20  C   UNL     1      -7.905  15.935  70.640  1.00  0.00     2.203 C  
BRANCH  20  21
HETATM   21  C   UNL     1      -8.493  17.236  70.145  1.00  0.00     2.521 C  
HETATM   22  O   UNL     1      -9.654  17.566  70.376  1.00  0.00     1.838 OA 
BRANCH  21  23
HETATM   23  C   UNL     1      -7.618  18.144  69.352  1.00  0.00     0.190 A  
HETATM   24  C   UNL     1      -6.543  18.619  67.232  1.00  0.00    -0.205 A  
HETATM   25  C   UNL     1      -7.362  17.808  68.014  1.00  0.00    -0.220 A  
HETATM   26  C   UNL     1      -5.980  19.762  67.787  1.00  0.00    -0.198 A  
HETATM   27  F   UNL     1      -5.187  20.535  67.039  1.00  0.00    -0.167 F  
HETATM   28  C   UNL     1      -7.048  19.305  69.897  1.00  0.00     0.109 A  
HETATM   29  C   UNL     1      -6.226  20.113  69.109  1.00  0.00    -0.360 A  
ENDBRANCH  21  23
ENDBRANCH  20  21
ENDBRANCH  19  20
ENDBRANCH  18  19
ENDBRANCH   4  18
TORSDOF 5
ENDMDL
MODEL      227
REMARK 921   NORMALIZED FREE ENERGY PREDICTED BY IDOCK:   14.44 KCAL/MOL
REMARK 922        TOTAL FREE ENERGY PREDICTED BY IDOCK:   17.90 KCAL/MOL
REMARK 923 INTER-LIGAND FREE ENERGY PREDICTED BY IDOCK:   18.82 KCAL/MOL
REMARK 924 INTRA-LIGAND FREE ENERGY PREDICTED BY IDOCK:   -0.93 KCAL/MOL
REMARK 927      BINDING AFFINITY PREDICTED BY RF-SCORE:    0.00 PKD
ROOT
HETATM    1  C   UNL     1     -10.198  15.916  68.434  1.00  0.00    -0.226 C  
HETATM    2  C   UNL     1     -10.056  15.660  66.953  1.00  0.00    -0.265 C  
HETATM    3  C   UNL     1     -10.385  14.219  66.637  1.00  0.00    -0.279 C  
HETATM    4  N   UNL     1     -11.752  13.866  67.052  1.00  0.00    -0.374 NA 
HETATM    5  C   UNL     1      -6.710  15.685  72.481  1.00  0.00     4.135 C  
HETATM    6  C   UNL     1     -11.975  14.105  68.504  1.00  0.00    -0.332 C  
HETATM    7  C   UNL     1     -11.589  15.506  69.013  1.00  0.00    -0.377 C  
HETATM    8  N   UNL     1      -7.681  16.029  71.474  1.00  0.00     5.068 NA 
HETATM    9  C   UNL     1      -7.241  16.157  70.062  1.00  0.00     0.486 C  
HETATM   10  C   UNL     1     -11.204  15.514  70.485  1.00  0.00    -0.365 A  
HETATM   11  C   UNL     1     -11.911  15.671  71.651  1.00  0.00    -0.503 A  
HETATM   12  C   UNL     1      -7.843  15.052  69.200  1.00  0.00    -0.188 C  
HETATM   13  N   UNL     1      -9.288  15.105  69.238  1.00  0.00    -0.221 NA 
HETATM   14  C   UNL     1      -9.808  15.425  70.525  1.00  0.00     0.534 A  
HETATM   15  C   UNL     1     -11.171  15.815  72.838  1.00  0.00     0.408 A  
HETATM   16  C   UNL     1      -9.749  15.888  72.833  1.00  0.00     8.073 A  
HETATM   17  C   UNL     1      -9.041  15.742  71.645  1.00  0.00     5.369 A  
ENDROOT
BRANCH   4  18
HETATM   18  C   UNL     1     -11.936  12.434  66.731  1.00  0.00    -0.212 C  
BRANCH  18  19
HETATM   19  C   UNL     1     -11.515  11.496  67.854  1.00  0.00    -0.372 C  
BRANCH  19  20
HETATM   20  C   UNL     1     -10.123  10.932  67.611  1.00  0.00    -0.206 C  
BRANCH  20  21
HETATM   21  C   UNL     1     -10.004   9.512  68.115  1.00  0.00    -0.165 C  
HETATM   22  O   UNL     1     -10.568   8.568  67.567  1.00  0.00    -0.256 OA 
BRANCH  21  23
HETATM   23  C   UNL     1      -9.167   9.264  69.322  1.00  0.00    -0.152 A  
HETATM   24  C   UNL     1      -8.859   8.027  71.383  1.00  0.00    -0.170 A  
HETATM   25  C   UNL     1      -9.601   8.291  70.234  1.00  0.00    -0.169 A  
HETATM   26  C   UNL     1      -7.687   8.737  71.620  1.00  0.00    -0.074 A  
HETATM   27  F   UNL     1      -6.980   8.490  72.726  1.00  0.00    -0.109 F  
HETATM   28  C   UNL     1      -7.978   9.968  69.569  1.00  0.00    -0.161 A  
HETATM   29  C   UNL     1      -7.239   9.701  70.723  1.00  0.00    -0.072 A  
ENDBRANCH  21  23
ENDBRANCH  20  21
ENDBRANCH  19  20
ENDBRANCH  18  19
ENDBRANCH   4  18
TORSDOF 5
ENDMDL
MODEL      228
REMARK 921   NORMALIZED FREE ENERGY PREDICTED BY IDOCK:   22.77 KCAL/MOL
REMARK 922        TOTAL FREE ENERGY PREDICTED BY IDOCK:   28.67 KCAL/MOL
REMARK 923 INTER-LIGAND FREE ENERGY PREDICTED BY IDOCK:   29.10 KCAL/MOL
REMARK 924 INTRA-LIGAND FREE ENERGY PREDICTED BY IDOCK:   -0.43 KCAL/MOL
REMARK 927      BINDING AFFINITY PREDICTED BY RF-SCORE:    0.00 PKD
ROOT
HETATM    1  C   UNL     1      -9.353  15.663  69.651  1.00  0.00    -0.217 C  
HETATM    2  C   UNL     1      -7.961  15.565  69.077  1.00  0.00    -0.205 C  
HETATM    3  C   UNL     1      -7.970  14.728  67.819  1.00  0.00    -0.157 C  
HETATM    4  N   UNL     1      -8.869  15.287  66.797  1.00  0.00    -0.251 NA 
HETATM    5  C   UNL     1     -11.965  12.735  73.286  1.00  0.00     6.037 C  
HETATM    6  C   UNL     1     -10.265  15.427  67.295  1.00  0.00    -0.254 C  
HETATM    7  C   UNL     1     -10.420  16.174  68.632  1.00  0.00    -0.269 C  
HETATM    8  N   UNL     1     -11.312  13.747  72.495  1.00  0.00     2.732 NA 
HETATM    9  C   UNL     1      -9.831  13.739  72.394  1.00  0.00    10.334 C  
HETATM   10  C   UNL     1     -11.658  15.746  69.407  1.00  0.00    -0.371 A  
HETATM   11  C   UNL     1     -12.963  16.172  69.421  1.00  0.00     1.684 A  
HETATM   12  C   UNL     1      -9.381  13.400  70.977  1.00  0.00     8.540 C  
HETATM   13  N   UNL     1      -9.900  14.364  70.032  1.00  0.00     0.644 NA 
HETATM   14  C   UNL     1     -11.233  14.777  70.321  1.00  0.00    -0.195 A  
HETATM   15  C   UNL     1     -13.798  15.655  70.428  1.00  0.00     0.861 A  
HETATM   16  C   UNL     1     -13.299  14.797  71.450  1.00  0.00    -0.464 A  
HETATM   17  C   UNL     1     -11.972  14.382  71.435  1.00  0.00    -0.267 A  
ENDROOT
BRANCH   4  18
HETATM   18  C   UNL     1      -8.824  14.364  65.642  1.00  0.00     1.147 C  
BRANCH  18  19
HETATM   19  C   UNL     1     -10.178  14.146  64.979  1.00  0.00    -0.399 C  
BRANCH  19  20
HETATM   20  C   UNL     1     -10.514  12.665  64.882  1.00  0.00    -0.331 C  
BRANCH  20  21
HETATM   21  C   UNL     1      -9.996  11.901  66.078  1.00  0.00    -0.232 C  
HETATM   22  O   UNL     1     -10.532  11.962  67.183  1.00  0.00    -0.214 OA 
BRANCH  21  23
HETATM   23  C   UNL     1      -8.793  11.042  65.895  1.00  0.00    -0.204 A  
HETATM   24  C   UNL     1      -6.644  10.729  64.820  1.00  0.00     0.240 A  
HETATM   25  C   UNL     1      -7.785  11.498  65.033  1.00  0.00     1.242 A  
HETATM   26  C   UNL     1      -6.512   9.505  65.467  1.00  0.00    -0.072 A  
HETATM   27  F   UNL     1      -5.421   8.763  65.255  1.00  0.00    -0.037 F  
HETATM   28  C   UNL     1      -8.644   9.808  66.547  1.00  0.00    -0.135 A  
HETATM   29  C   UNL     1      -7.499   9.040  66.329  1.00  0.00    -0.092 A  
ENDBRANCH  21  23
ENDBRANCH  20  21
ENDBRANCH  19  20
ENDBRANCH  18  19
ENDBRANCH   4  18
TORSDOF 5
ENDMDL
MODEL      229
REMARK 921   NORMALIZED FREE ENERGY PREDICTED BY IDOCK:   53.80 KCAL/MOL
REMARK 922        TOTAL FREE ENERGY PREDICTED BY IDOCK:   68.77 KCAL/MOL
REMARK 923 INTER-LIGAND FREE ENERGY PREDICTED BY IDOCK:   67.17 KCAL/MOL
REMARK 924 INTRA-LIGAND FREE ENERGY PREDICTED BY IDOCK:    1.60 KCAL/MOL
REMARK 927      BINDING AFFINITY PREDICTED BY RF-SCORE:    0.00 PKD
ROOT
HETATM    1  C   UNL     1      -8.418  11.188  69.664  1.00  0.00     0.642 C  
HETATM    2  C   UNL     1      -8.242  12.673  69.464  1.00  0.00     1.322 C  
HETATM    3  C   UNL     1      -7.718  13.314  70.729  1.00  0.00     4.571 C  
HETATM    4  N   UNL     1      -6.430  12.734  71.142  1.00  0.00     0.814 NA 
HETATM    5  C   UNL     1     -12.587   8.231  71.235  1.00  0.00    -0.221 C  
HETATM    6  C   UNL     1      -6.519  11.263  71.346  1.00  0.00     1.967 C  
HETATM    7  C   UNL     1      -7.132  10.466  70.180  1.00  0.00    -0.125 C  
HETATM    8  N   UNL     1     -11.477   8.861  70.567  1.00  0.00    -0.238 NA 
HETATM    9  C   UNL     1     -11.644  10.237  70.033  1.00  0.00    -0.276 C  
HETATM   10  C   UNL     1      -7.796   9.174  70.632  1.00  0.00    -0.165 A  
HETATM   11  C   UNL     1      -7.348   7.889  70.812  1.00  0.00    -0.061 A  
HETATM   12  C   UNL     1     -10.780  11.230  70.803  1.00  0.00     1.946 C  
HETATM   13  N   UNL     1      -9.383  10.868  70.712  1.00  0.00     2.472 NA 
HETATM   14  C   UNL     1      -9.157   9.463  70.779  1.00  0.00    -0.204 A  
HETATM   15  C   UNL     1      -8.316   6.899  71.061  1.00  0.00    -0.126 A  
HETATM   16  C   UNL     1      -9.710   7.189  71.040  1.00  0.00    -0.165 A  
HETATM   17  C   UNL     1     -10.155   8.492  70.844  1.00  0.00    -0.201 A  
ENDROOT
BRANCH   4  18
HETATM   18  C   UNL     1      -6.047  13.407  72.402  1.00  0.00     1.420 C  
BRANCH  18  19
HETATM   19  C   UNL     1      -6.798  14.708  72.655  1.00  0.00     2.577 C  
BRANCH  19  20
HETATM   20  C   UNL     1      -8.296  14.528  72.458  1.00  0.00     7.645 C  
BRANCH  20  21
HETATM   21  C   UNL     1      -9.002  15.859  72.334  1.00  0.00     9.765 C  
HETATM   22  O   UNL     1     -10.179  16.013  72.650  1.00  0.00     3.420 OA 
BRANCH  21  23
HETATM   23  C   UNL     1      -8.226  17.018  71.812  1.00  0.00    11.300 A  
HETATM   24  C   UNL     1      -7.249  18.132  69.894  1.00  0.00     0.714 A  
HETATM   25  C   UNL     1      -7.977  17.074  70.433  1.00  0.00     3.107 A  
HETATM   26  C   UNL     1      -6.769  19.131  70.734  1.00  0.00     0.853 A  
HETATM   27  F   UNL     1      -6.062  20.141  70.219  1.00  0.00    -0.323 F  
HETATM   28  C   UNL     1      -7.742  18.036  72.647  1.00  0.00    11.765 A  
HETATM   29  C   UNL     1      -7.010  19.094  72.103  1.00  0.00     2.975 A  
ENDBRANCH  21  23
ENDBRANCH  20  21
ENDBRANCH  19  20
ENDBRANCH  18  19
ENDBRANCH   4  18
TORSDOF 5
ENDMDL
MODEL      230
REMARK 921   NORMALIZED FREE ENERGY PREDICTED BY IDOCK:   70.91 KCAL/MOL
REMARK 922        TOTAL FREE ENERGY PREDICTED BY IDOCK:   90.88 KCAL/MOL
REMARK 923 INTER-LIGAND FREE ENERGY PREDICTED BY IDOCK:   87.90 KCAL/MOL
REMARK 924 INTRA-LIGAND FREE ENERGY PREDICTED BY IDOCK:    2.98 KCAL/MOL
REMARK 927      BINDING AFFINITY PREDICTED BY RF-SCORE:    0.00 PKD
ROOT
HETATM    1  C   UNL     1      -9.343  15.311  69.920  1.00  0.00     0.037 C  
HETATM    2  C   UNL     1      -8.612  15.562  68.624  1.00  0.00    -0.179 C  
HETATM    3  C   UNL     1      -9.379  14.967  67.466  1.00  0.00    -0.195 C  
HETATM    4  N   UNL     1     -10.736  15.528  67.363  1.00  0.00    -0.297 NA 
HETATM    5  C   UNL     1      -9.024  11.383  73.535  1.00  0.00    21.004 C  
HETATM    6  C   UNL     1     -11.519  15.331  68.614  1.00  0.00    -0.337 C  
HETATM    7  C   UNL     1     -10.828  15.795  69.909  1.00  0.00    -0.330 C  
HETATM    8  N   UNL     1      -9.039  12.616  72.790  1.00  0.00    21.484 NA 
HETATM    9  C   UNL     1      -7.945  12.887  71.823  1.00  0.00    12.433 C  
HETATM   10  C   UNL     1     -11.298  15.028  71.137  1.00  0.00    -0.315 A  
HETATM   11  C   UNL     1     -12.321  15.207  72.034  1.00  0.00    -0.429 A  
HETATM   12  C   UNL     1      -8.468  12.884  70.391  1.00  0.00     5.301 C  
HETATM   13  N   UNL     1      -9.493  13.890  70.219  1.00  0.00     2.333 NA 
HETATM   14  C   UNL     1     -10.365  14.005  71.340  1.00  0.00     4.157 A  
HETATM   15  C   UNL     1     -12.327  14.384  73.175  1.00  0.00    -0.196 A  
HETATM   16  C   UNL     1     -11.274  13.464  73.444  1.00  0.00     6.826 A  
HETATM   17  C   UNL     1     -10.235  13.299  72.535  1.00  0.00    12.475 A  
ENDROOT
BRANCH   4  18
HETATM   18  C   UNL     1     -11.394  14.841  66.230  1.00  0.00    -0.334 C  
BRANCH  18  19
HETATM   19  C   UNL     1     -12.891  14.638  66.422  1.00  0.00     0.652 C  
BRANCH  19  20
HETATM   20  C   UNL     1     -13.270  13.170  66.298  1.00  0.00     1.708 C  
BRANCH  20  21
HETATM   21  C   UNL     1     -12.204  12.272  66.882  1.00  0.00     0.307 C  
HETATM   22  O   UNL     1     -12.365  11.651  67.930  1.00  0.00    -0.404 OA 
BRANCH  21  23
HETATM   23  C   UNL     1     -10.916  12.141  66.144  1.00  0.00    -0.335 A  
HETATM   24  C   UNL     1      -8.895  10.860  65.762  1.00  0.00    -0.202 A  
HETATM   25  C   UNL     1     -10.113  11.024  66.417  1.00  0.00    -0.275 A  
HETATM   26  C   UNL     1      -8.481  11.812  64.838  1.00  0.00     0.981 A  
HETATM   27  F   UNL     1      -7.308  11.659  64.216  1.00  0.00     1.261 F  
HETATM   28  C   UNL     1     -10.489  13.091  65.204  1.00  0.00    -0.335 A  
HETATM   29  C   UNL     1      -9.267  12.923  64.551  1.00  0.00     1.103 A  
ENDBRANCH  21  23
ENDBRANCH  20  21
ENDBRANCH  19  20
ENDBRANCH  18  19
ENDBRANCH   4  18
TORSDOF 5
ENDMDL
