MODEL        1
REMARK 921   NORMALIZED FREE ENERGY PREDICTED BY IDOCK:   -7.68 KCAL/MOL
REMARK 922        TOTAL FREE ENERGY PREDICTED BY IDOCK:  -14.26 KCAL/MOL
REMARK 923 INTER-LIGAND FREE ENERGY PREDICTED BY IDOCK:  -12.17 KCAL/MOL
REMARK 924 INTRA-LIGAND FREE ENERGY PREDICTED BY IDOCK:   -2.09 KCAL/MOL
REMARK 927      BINDING AFFINITY PREDICTED BY RF-SCORE:    0.00 PKD
ROOT
HETATM    1  C   UNL     1     -10.446  19.638  66.028  1.00  0.00    -0.622 C  
HETATM    2  C   UNL     1     -10.883  19.172  67.409  1.00  0.00    -0.533 C  
ENDROOT
BRANCH   2   3
HETATM    3  C   UNL     1     -10.289  17.801  67.725  1.00  0.00    -0.382 C  
BRANCH   3   4
HETATM    4  C   UNL     1     -10.302  16.825  66.539  1.00  0.00    -0.301 C  
BRANCH   4   5
HETATM    5  N   UNL     1      -9.070  16.051  66.275  1.00  0.00    -0.315 NA 
BRANCH   5   6
HETATM    6  C   UNL     1      -7.878  16.704  66.861  1.00  0.00    -0.226 C  
BRANCH   6   7
HETATM    7  C   UNL     1      -7.091  17.648  65.926  1.00  0.00    -0.250 C  
BRANCH   7   8
HETATM    8  C   UNL     1      -6.824  19.050  66.481  1.00  0.00    -0.218 C  
HETATM    9  C   UNL     1      -6.885  20.138  65.422  1.00  0.00    -0.338 C  
ENDBRANCH   7   8
ENDBRANCH   6   7
ENDBRANCH   5   6
BRANCH   5  10
HETATM   10  C   UNL     1      -9.235  14.676  66.825  1.00  0.00    -0.264 C  
BRANCH  10  11
HETATM   11  C   UNL     1     -10.561  13.931  66.471  1.00  0.00    -0.279 C  
HETATM   12  O   UNL     1     -10.705  13.692  65.072  1.00  0.00    -0.323 OA 
HETATM   13  H   UNL     1     -11.512  13.239  64.857  1.00  0.00     0.000 HD 
BRANCH  11  14
HETATM   14  C   UNL     1     -10.711  12.641  67.264  1.00  0.00    -0.259 A  
HETATM   15  C   UNL     1     -11.259  12.528  68.554  1.00  0.00    -0.322 A  
HETATM   16 CL   UNL     1     -14.067  15.803  72.680  1.00  0.00    -0.604 Cl 
HETATM   17  C   UNL     1     -13.078  13.535  71.605  1.00  0.00    -0.459 A  
HETATM   18  C   UNL     1     -11.438  11.228  69.122  1.00  0.00    -0.364 A  
HETATM   19  C   UNL     1     -12.056  11.421  70.458  1.00  0.00    -0.487 C  
HETATM   20  C   UNL     1     -11.101  10.072  68.433  1.00  0.00    -0.236 A  
HETATM   21  C   UNL     1     -12.187  10.540  71.469  1.00  0.00    -0.385 C  
HETATM   22  C   UNL     1     -12.377  12.857  70.618  1.00  0.00    -0.385 A  
HETATM   23  C   UNL     1     -10.508  10.192  67.188  1.00  0.00    -0.246 A  
HETATM   24  C   UNL     1     -11.803  13.519  69.503  1.00  0.00    -0.392 A  
HETATM   25  C   UNL     1     -13.169  14.920  71.509  1.00  0.00    -0.368 A  
HETATM   26 CL   UNL     1     -10.048   8.776  66.319  1.00  0.00    -0.331 Cl 
HETATM   27  C   UNL     1     -10.309  11.448  66.613  1.00  0.00    -0.272 A  
HETATM   28  C   UNL     1     -12.535  15.606  70.468  1.00  0.00    -0.440 A  
HETATM   29  C   UNL     1     -11.841  14.906  69.475  1.00  0.00    -0.360 A  
BRANCH  21  30
HETATM   30  C   UNL     1     -11.717   9.155  71.442  1.00  0.00    -0.413 A  
HETATM   31  C   UNL     1     -10.885   6.504  71.682  1.00  0.00    -0.240 A  
HETATM   32 CL   UNL     1     -10.388   4.874  71.919  1.00  0.00    -0.268 Cl 
HETATM   33  C   UNL     1      -9.961   7.538  71.834  1.00  0.00    -0.204 A  
HETATM   34  C   UNL     1     -12.630   8.110  71.240  1.00  0.00    -0.243 A  
HETATM   35  C   UNL     1     -12.212   6.784  71.369  1.00  0.00    -0.413 A  
HETATM   36  C   UNL     1     -10.375   8.867  71.710  1.00  0.00    -0.426 A  
ENDBRANCH  21  30
ENDBRANCH  11  14
ENDBRANCH  10  11
ENDBRANCH   5  10
ENDBRANCH   4   5
ENDBRANCH   3   4
ENDBRANCH   2   3
TORSDOF 10
ENDMDL
MODEL        2
REMARK 921   NORMALIZED FREE ENERGY PREDICTED BY IDOCK:   -7.66 KCAL/MOL
REMARK 922        TOTAL FREE ENERGY PREDICTED BY IDOCK:  -14.22 KCAL/MOL
REMARK 923 INTER-LIGAND FREE ENERGY PREDICTED BY IDOCK:  -11.05 KCAL/MOL
REMARK 924 INTRA-LIGAND FREE ENERGY PREDICTED BY IDOCK:   -3.18 KCAL/MOL
REMARK 927      BINDING AFFINITY PREDICTED BY RF-SCORE:    0.00 PKD
ROOT
HETATM    1  C   UNL     1      -7.662  12.348  68.589  1.00  0.00    -0.067 C  
HETATM    2  C   UNL     1      -7.533  13.356  67.456  1.00  0.00    -0.170 C  
ENDROOT
BRANCH   2   3
HETATM    3  C   UNL     1      -8.213  14.671  67.829  1.00  0.00    -0.169 C  
BRANCH   3   4
HETATM    4  C   UNL     1      -8.434  15.621  66.643  1.00  0.00    -0.288 C  
BRANCH   4   5
HETATM    5  N   UNL     1      -9.791  16.178  66.454  1.00  0.00    -0.266 NA 
BRANCH   5   6
HETATM    6  C   UNL     1      -9.797  17.653  66.567  1.00  0.00    -0.319 C  
BRANCH   6   7
HETATM    7  C   UNL     1     -10.750  18.250  67.626  1.00  0.00    -0.373 C  
BRANCH   7   8
HETATM    8  C   UNL     1     -10.269  19.543  68.290  1.00  0.00    -0.552 C  
HETATM    9  C   UNL     1      -9.593  20.502  67.324  1.00  0.00    -0.580 C  
ENDBRANCH   7   8
ENDBRANCH   6   7
ENDBRANCH   5   6
BRANCH   5  10
HETATM   10  C   UNL     1     -10.306  15.756  65.121  1.00  0.00    -0.299 C  
BRANCH  10  11
HETATM   11  C   UNL     1     -11.521  14.776  65.113  1.00  0.00    -0.371 C  
HETATM   12  O   UNL     1     -12.330  14.906  63.945  1.00  0.00    -0.980 OA 
HETATM   13  H   UNL     1     -13.070  14.309  63.940  1.00  0.00     0.000 HD 
BRANCH  11  14
HETATM   14  C   UNL     1     -11.083  13.334  65.317  1.00  0.00    -0.306 A  
HETATM   15  C   UNL     1     -11.120  12.626  66.532  1.00  0.00    -0.320 A  
HETATM   16 CL   UNL     1     -13.065  13.196  72.147  1.00  0.00    -0.493 Cl 
HETATM   17  C   UNL     1     -11.986  11.894  70.045  1.00  0.00    -0.409 A  
HETATM   18  C   UNL     1     -10.781  11.238  66.539  1.00  0.00    -0.323 A  
HETATM   19  C   UNL     1     -10.939  10.760  67.936  1.00  0.00    -0.344 C  
HETATM   20  C   UNL     1     -10.431  10.560  65.380  1.00  0.00    -0.222 A  
HETATM   21  C   UNL     1     -10.507   9.614  68.496  1.00  0.00    -0.241 C  
HETATM   22  C   UNL     1     -11.520  11.861  68.739  1.00  0.00    -0.347 A  
HETATM   23  C   UNL     1     -10.340  11.274  64.197  1.00  0.00    -0.351 A  
HETATM   24  C   UNL     1     -11.531  13.002  67.899  1.00  0.00    -0.352 A  
HETATM   25  C   UNL     1     -12.431  13.111  70.550  1.00  0.00    -0.248 A  
HETATM   26 CL   UNL     1      -9.877  10.469  62.745  1.00  0.00    -0.270 Cl 
HETATM   27  C   UNL     1     -10.652  12.635  64.161  1.00  0.00    -0.434 A  
HETATM   28  C   UNL     1     -12.369  14.271  69.772  1.00  0.00    -0.342 A  
HETATM   29  C   UNL     1     -11.906  14.218  68.453  1.00  0.00    -0.373 A  
BRANCH  21  30
HETATM   30  C   UNL     1      -9.758   8.568  67.799  1.00  0.00    -0.199 A  
HETATM   31  C   UNL     1      -8.349   6.416  66.722  1.00  0.00    -0.111 A  
HETATM   32 CL   UNL     1      -7.485   5.048  66.139  1.00  0.00    -0.085 Cl 
HETATM   33  C   UNL     1      -7.658   7.462  67.333  1.00  0.00    -0.112 A  
HETATM   34  C   UNL     1     -10.443   7.539  67.139  1.00  0.00    -0.407 A  
HETATM   35  C   UNL     1      -9.735   6.458  66.608  1.00  0.00    -0.197 A  
HETATM   36  C   UNL     1      -8.362   8.543  67.870  1.00  0.00    -0.126 A  
ENDBRANCH  21  30
ENDBRANCH  11  14
ENDBRANCH  10  11
ENDBRANCH   5  10
ENDBRANCH   4   5
ENDBRANCH   3   4
ENDBRANCH   2   3
TORSDOF 10
ENDMDL
MODEL        3
REMARK 921   NORMALIZED FREE ENERGY PREDICTED BY IDOCK:   -7.55 KCAL/MOL
REMARK 922        TOTAL FREE ENERGY PREDICTED BY IDOCK:  -14.05 KCAL/MOL
REMARK 923 INTER-LIGAND FREE ENERGY PREDICTED BY IDOCK:  -11.18 KCAL/MOL
REMARK 924 INTRA-LIGAND FREE ENERGY PREDICTED BY IDOCK:   -2.87 KCAL/MOL
REMARK 927      BINDING AFFINITY PREDICTED BY RF-SCORE:    0.00 PKD
ROOT
HETATM    1  C   UNL     1      -7.484  11.554  68.417  1.00  0.00    -0.109 C  
HETATM    2  C   UNL     1      -7.658  13.039  68.702  1.00  0.00    -0.089 C  
ENDROOT
BRANCH   2   3
HETATM    3  C   UNL     1      -7.345  13.863  67.456  1.00  0.00    -0.181 C  
BRANCH   3   4
HETATM    4  C   UNL     1      -7.792  15.330  67.547  1.00  0.00    -0.176 C  
BRANCH   4   5
HETATM    5  N   UNL     1      -9.202  15.638  67.225  1.00  0.00    -0.201 NA 
BRANCH   5   6
HETATM    6  C   UNL     1      -9.384  17.064  66.872  1.00  0.00    -0.251 C  
BRANCH   6   7
HETATM    7  C   UNL     1     -10.599  17.772  67.510  1.00  0.00    -0.365 C  
BRANCH   7   8
HETATM    8  C   UNL     1     -10.606  19.299  67.394  1.00  0.00    -0.594 C  
HETATM    9  C   UNL     1     -10.240  19.800  66.006  1.00  0.00    -0.600 C  
ENDBRANCH   7   8
ENDBRANCH   6   7
ENDBRANCH   5   6
BRANCH   5  10
HETATM   10  C   UNL     1      -9.644  14.763  66.102  1.00  0.00    -0.309 C  
BRANCH  10  11
HETATM   11  C   UNL     1     -11.065  14.126  66.223  1.00  0.00    -0.318 C  
HETATM   12  O   UNL     1     -11.698  13.943  64.957  1.00  0.00    -0.331 OA 
HETATM   13  H   UNL     1     -12.562  13.555  65.030  1.00  0.00     0.000 HD 
BRANCH  11  14
HETATM   14  C   UNL     1     -11.034  12.827  67.013  1.00  0.00    -0.295 A  
HETATM   15  C   UNL     1     -11.445  12.666  68.348  1.00  0.00    -0.350 A  
HETATM   16 CL   UNL     1     -14.093  15.695  72.758  1.00  0.00    -0.573 Cl 
HETATM   17  C   UNL     1     -13.035  13.516  71.570  1.00  0.00    -0.440 A  
HETATM   18  C   UNL     1     -11.463  11.355  68.917  1.00  0.00    -0.363 A  
HETATM   19  C   UNL     1     -11.963  11.494  70.309  1.00  0.00    -0.455 C  
HETATM   20  C   UNL     1     -11.103  10.232  68.187  1.00  0.00    -0.324 A  
HETATM   21  C   UNL     1     -11.925  10.603  71.318  1.00  0.00    -0.344 C  
HETATM   22  C   UNL     1     -12.381  12.900  70.513  1.00  0.00    -0.362 A  
HETATM   23  C   UNL     1     -10.645  10.402  66.892  1.00  0.00    -0.230 A  
HETATM   24  C   UNL     1     -11.972  13.608  69.356  1.00  0.00    -0.394 A  
HETATM   25  C   UNL     1     -13.245  14.890  71.497  1.00  0.00    -0.368 A  
HETATM   26 CL   UNL     1     -10.160   9.030  65.969  1.00  0.00    -0.279 Cl 
HETATM   27  C   UNL     1     -10.603  11.672  66.313  1.00  0.00    -0.301 A  
HETATM   28  C   UNL     1     -12.771  15.627  70.407  1.00  0.00    -0.325 A  
HETATM   29  C   UNL     1     -12.123  14.988  69.346  1.00  0.00    -0.290 A  
BRANCH  21  30
HETATM   30  C   UNL     1     -11.351   9.260  71.232  1.00  0.00    -0.423 A  
HETATM   31  C   UNL     1     -10.225   6.750  70.777  1.00  0.00    -0.195 A  
HETATM   32 CL   UNL     1      -9.528   5.221  70.408  1.00  0.00    -0.206 Cl 
HETATM   33  C   UNL     1     -11.610   6.907  70.730  1.00  0.00    -0.397 A  
HETATM   34  C   UNL     1      -9.964   9.083  71.328  1.00  0.00    -0.381 A  
HETATM   35  C   UNL     1      -9.403   7.827  71.091  1.00  0.00    -0.164 A  
HETATM   36  C   UNL     1     -12.177   8.164  70.962  1.00  0.00    -0.191 A  
ENDBRANCH  21  30
ENDBRANCH  11  14
ENDBRANCH  10  11
ENDBRANCH   5  10
ENDBRANCH   4   5
ENDBRANCH   3   4
ENDBRANCH   2   3
TORSDOF 10
ENDMDL
MODEL        4
REMARK 921   NORMALIZED FREE ENERGY PREDICTED BY IDOCK:   -7.40 KCAL/MOL
REMARK 922        TOTAL FREE ENERGY PREDICTED BY IDOCK:  -13.82 KCAL/MOL
REMARK 923 INTER-LIGAND FREE ENERGY PREDICTED BY IDOCK:  -11.82 KCAL/MOL
REMARK 924 INTRA-LIGAND FREE ENERGY PREDICTED BY IDOCK:   -2.00 KCAL/MOL
REMARK 927      BINDING AFFINITY PREDICTED BY RF-SCORE:    0.00 PKD
ROOT
HETATM    1  C   UNL     1      -6.314  19.329  67.485  1.00  0.00    -0.215 C  
HETATM    2  C   UNL     1      -6.753  18.447  68.645  1.00  0.00    -0.265 C  
ENDROOT
BRANCH   2   3
HETATM    3  C   UNL     1      -6.930  17.003  68.182  1.00  0.00    -0.173 C  
BRANCH   3   4
HETATM    4  C   UNL     1      -7.953  16.830  67.049  1.00  0.00    -0.197 C  
BRANCH   4   5
HETATM    5  N   UNL     1      -9.230  16.159  67.376  1.00  0.00    -0.206 NA 
BRANCH   5   6
HETATM    6  C   UNL     1     -10.391  16.906  66.843  1.00  0.00    -0.304 C  
BRANCH   6   7
HETATM    7  C   UNL     1     -10.092  18.309  66.270  1.00  0.00    -0.389 C  
BRANCH   7   8
HETATM    8  C   UNL     1     -10.649  19.483  67.080  1.00  0.00    -0.605 C  
HETATM    9  C   UNL     1     -10.049  19.593  68.472  1.00  0.00    -0.557 C  
ENDBRANCH   7   8
ENDBRANCH   6   7
ENDBRANCH   5   6
BRANCH   5  10
HETATM   10  C   UNL     1      -9.204  14.775  66.824  1.00  0.00    -0.260 C  
BRANCH  10  11
HETATM   11  C   UNL     1     -10.585  14.097  66.557  1.00  0.00    -0.282 C  
HETATM   12  O   UNL     1     -10.861  13.933  65.167  1.00  0.00    -0.320 OA 
HETATM   13  H   UNL     1     -11.701  13.520  65.004  1.00  0.00     0.000 HD 
BRANCH  11  14
HETATM   14  C   UNL     1     -10.717  12.776  67.300  1.00  0.00    -0.256 A  
HETATM   15  C   UNL     1     -11.268  12.606  68.583  1.00  0.00    -0.323 A  
HETATM   16 CL   UNL     1     -14.141  15.681  72.817  1.00  0.00    -0.573 Cl 
HETATM   17  C   UNL     1     -13.112  13.470  71.662  1.00  0.00    -0.459 A  
HETATM   18  C   UNL     1     -11.428  11.284  69.101  1.00  0.00    -0.364 A  
HETATM   19  C   UNL     1     -12.053  11.416  70.442  1.00  0.00    -0.473 C  
HETATM   20  C   UNL     1     -11.070  10.159  68.371  1.00  0.00    -0.273 A  
HETATM   21  C   UNL     1     -12.174  10.497  71.418  1.00  0.00    -0.429 C  
HETATM   22  C   UNL     1     -12.398  12.841  70.653  1.00  0.00    -0.381 A  
HETATM   23  C   UNL     1     -10.475  10.335  67.134  1.00  0.00    -0.254 A  
HETATM   24  C   UNL     1     -11.830  13.552  69.567  1.00  0.00    -0.392 A  
HETATM   25  C   UNL     1     -13.225  14.856  71.618  1.00  0.00    -0.359 A  
HETATM   26 CL   UNL     1      -9.990   8.960  66.215  1.00  0.00    -0.363 Cl 
HETATM   27  C   UNL     1     -10.294  11.615  66.607  1.00  0.00    -0.257 A  
HETATM   28  C   UNL     1     -12.599  15.590  70.605  1.00  0.00    -0.493 A  
HETATM   29  C   UNL     1     -11.890  14.939  69.590  1.00  0.00    -0.356 A  
BRANCH  21  30
HETATM   30  C   UNL     1     -11.682   9.121  71.342  1.00  0.00    -0.413 A  
HETATM   31  C   UNL     1     -10.691   6.550  70.908  1.00  0.00    -0.242 A  
HETATM   32 CL   UNL     1     -10.070   4.986  70.553  1.00  0.00    -0.313 Cl 
HETATM   33  C   UNL     1     -12.057   6.798  70.777  1.00  0.00    -0.402 A  
HETATM   34  C   UNL     1     -10.318   8.853  71.522  1.00  0.00    -0.394 A  
HETATM   35  C   UNL     1      -9.824   7.568  71.296  1.00  0.00    -0.188 A  
HETATM   36  C   UNL     1     -12.556   8.085  70.998  1.00  0.00    -0.086 A  
ENDBRANCH  21  30
ENDBRANCH  11  14
ENDBRANCH  10  11
ENDBRANCH   5  10
ENDBRANCH   4   5
ENDBRANCH   3   4
ENDBRANCH   2   3
TORSDOF 10
ENDMDL
MODEL        5
REMARK 921   NORMALIZED FREE ENERGY PREDICTED BY IDOCK:   -7.17 KCAL/MOL
REMARK 922        TOTAL FREE ENERGY PREDICTED BY IDOCK:  -13.45 KCAL/MOL
REMARK 923 INTER-LIGAND FREE ENERGY PREDICTED BY IDOCK:  -11.34 KCAL/MOL
REMARK 924 INTRA-LIGAND FREE ENERGY PREDICTED BY IDOCK:   -2.11 KCAL/MOL
REMARK 927      BINDING AFFINITY PREDICTED BY RF-SCORE:    0.00 PKD
ROOT
HETATM    1  C   UNL     1      -7.089  17.649  68.609  1.00  0.00    -0.245 C  
HETATM    2  C   UNL     1      -6.651  16.767  67.449  1.00  0.00    -0.189 C  
ENDROOT
BRANCH   2   3
HETATM    3  C   UNL     1      -7.702  16.781  66.341  1.00  0.00    -0.345 C  
BRANCH   3   4
HETATM    4  C   UNL     1      -8.767  15.682  66.473  1.00  0.00    -0.307 C  
BRANCH   4   5
HETATM    5  N   UNL     1     -10.175  16.058  66.224  1.00  0.00    -0.299 NA 
BRANCH   5   6
HETATM    6  C   UNL     1     -10.377  17.520  66.328  1.00  0.00    -0.335 C  
BRANCH   6   7
HETATM    7  C   UNL     1     -10.677  18.066  67.741  1.00  0.00    -0.350 C  
BRANCH   7   8
HETATM    8  C   UNL     1     -10.354  19.547  67.956  1.00  0.00    -0.564 C  
HETATM    9  C   UNL     1      -9.910  20.258  66.688  1.00  0.00    -0.562 C  
ENDBRANCH   7   8
ENDBRANCH   6   7
ENDBRANCH   5   6
BRANCH   5  10
HETATM   10  C   UNL     1     -10.574  15.572  64.873  1.00  0.00    -0.342 C  
BRANCH  10  11
HETATM   11  C   UNL     1     -11.690  14.481  64.818  1.00  0.00    -0.422 C  
HETATM   12  O   UNL     1     -12.464  14.541  63.620  1.00  0.00    -1.072 OA 
HETATM   13  H   UNL     1     -13.143  13.878  63.587  1.00  0.00     0.000 HD 
BRANCH  11  14
HETATM   14  C   UNL     1     -11.126  13.086  65.035  1.00  0.00    -0.319 A  
HETATM   15  C   UNL     1     -11.075  12.401  66.262  1.00  0.00    -0.344 A  
HETATM   16 CL   UNL     1     -12.938  12.909  71.911  1.00  0.00    -0.431 Cl 
HETATM   17  C   UNL     1     -11.798  11.663  69.807  1.00  0.00    -0.428 A  
HETATM   18  C   UNL     1     -10.619  11.047  66.285  1.00  0.00    -0.295 A  
HETATM   19  C   UNL     1     -10.705  10.584  67.693  1.00  0.00    -0.324 C  
HETATM   20  C   UNL     1     -10.238  10.380  65.129  1.00  0.00    -0.326 A  
HETATM   21  C   UNL     1     -10.164   9.489  68.263  1.00  0.00    -0.225 C  
HETATM   22  C   UNL     1     -11.359  11.646  68.491  1.00  0.00    -0.332 A  
HETATM   23  C   UNL     1     -10.235  11.077  63.933  1.00  0.00    -0.364 A  
HETATM   24  C   UNL     1     -11.487  12.766  67.633  1.00  0.00    -0.387 A  
HETATM   25  C   UNL     1     -12.335  12.848  70.302  1.00  0.00    -0.223 A  
HETATM   26 CL   UNL     1      -9.737  10.287  62.485  1.00  0.00    -0.217 Cl 
HETATM   27  C   UNL     1     -10.663  12.404  63.882  1.00  0.00    -0.465 A  
HETATM   28  C   UNL     1     -12.389  13.994  69.503  1.00  0.00    -0.275 A  
HETATM   29  C   UNL     1     -11.952  13.956  68.175  1.00  0.00    -0.385 A  
BRANCH  21  30
HETATM   30  C   UNL     1      -9.344   8.498  67.566  1.00  0.00    -0.169 A  
HETATM   31  C   UNL     1      -7.837   6.761  65.989  1.00  0.00    -0.104 A  
HETATM   32 CL   UNL     1      -6.933   5.737  64.943  1.00  0.00    -0.051 Cl 
HETATM   33  C   UNL     1      -9.186   6.492  66.222  1.00  0.00    -0.160 A  
HETATM   34  C   UNL     1      -7.977   8.734  67.369  1.00  0.00    -0.098 A  
HETATM   35  C   UNL     1      -7.227   7.867  66.572  1.00  0.00    -0.083 A  
HETATM   36  C   UNL     1      -9.942   7.360  67.016  1.00  0.00    -0.301 A  
ENDBRANCH  21  30
ENDBRANCH  11  14
ENDBRANCH  10  11
ENDBRANCH   5  10
ENDBRANCH   4   5
ENDBRANCH   3   4
ENDBRANCH   2   3
TORSDOF 10
ENDMDL
MODEL        6
REMARK 921   NORMALIZED FREE ENERGY PREDICTED BY IDOCK:   -7.14 KCAL/MOL
REMARK 922        TOTAL FREE ENERGY PREDICTED BY IDOCK:  -13.40 KCAL/MOL
REMARK 923 INTER-LIGAND FREE ENERGY PREDICTED BY IDOCK:  -10.32 KCAL/MOL
REMARK 924 INTRA-LIGAND FREE ENERGY PREDICTED BY IDOCK:   -3.08 KCAL/MOL
REMARK 927      BINDING AFFINITY PREDICTED BY RF-SCORE:    0.00 PKD
ROOT
HETATM    1  C   UNL     1      -7.158  12.429  67.884  1.00  0.00    -0.109 C  
HETATM    2  C   UNL     1      -7.316  10.928  68.079  1.00  0.00    -0.088 C  
ENDROOT
BRANCH   2   3
HETATM    3  C   UNL     1      -8.151  10.636  69.324  1.00  0.00    -0.133 C  
BRANCH   3   4
HETATM    4  C   UNL     1      -8.559   9.163  69.472  1.00  0.00    -0.138 C  
BRANCH   4   5
HETATM    5  N   UNL     1     -10.002   8.860  69.599  1.00  0.00    -0.186 NA 
BRANCH   5   6
HETATM    6  C   UNL     1     -10.236   7.633  70.391  1.00  0.00    -0.203 C  
BRANCH   6   7
HETATM    7  C   UNL     1     -11.189   6.591  69.766  1.00  0.00    -0.456 C  
BRANCH   7   8
HETATM    8  C   UNL     1     -10.602   5.768  68.616  1.00  0.00    -0.305 C  
HETATM    9  C   UNL     1     -10.976   6.301  67.242  1.00  0.00    -0.455 C  
ENDBRANCH   7   8
ENDBRANCH   6   7
ENDBRANCH   5   6
BRANCH   5  10
HETATM   10  C   UNL     1     -10.686  10.025  70.227  1.00  0.00    -0.309 C  
BRANCH  10  11
HETATM   11  C   UNL     1     -11.901  10.629  69.454  1.00  0.00    -0.253 C  
HETATM   12  O   UNL     1     -13.124  10.537  70.185  1.00  0.00    -0.459 OA 
HETATM   13  H   UNL     1     -13.862  10.905  69.714  1.00  0.00     0.000 HD 
BRANCH  11  14
HETATM   14  C   UNL     1     -11.633  12.061  69.015  1.00  0.00    -0.370 A  
HETATM   15  C   UNL     1     -11.080  12.453  67.783  1.00  0.00    -0.292 A  
HETATM   16 CL   UNL     1      -9.424  10.158  62.527  1.00  0.00    -0.312 Cl 
HETATM   17  C   UNL     1      -9.912  12.136  64.295  1.00  0.00    -0.262 A  
HETATM   18  C   UNL     1     -10.996  13.845  67.470  1.00  0.00    -0.288 A  
HETATM   19  C   UNL     1     -10.406  13.949  66.111  1.00  0.00    -0.303 C  
HETATM   20  C   UNL     1     -11.459  14.823  68.338  1.00  0.00    -0.336 A  
HETATM   21  C   UNL     1      -9.901  15.029  65.485  1.00  0.00    -0.352 C  
HETATM   22  C   UNL     1     -10.272  12.582  65.559  1.00  0.00    -0.295 A  
HETATM   23  C   UNL     1     -11.949  14.434  69.573  1.00  0.00    -0.330 A  
HETATM   24  C   UNL     1     -10.592  11.693  66.615  1.00  0.00    -0.281 A  
HETATM   25  C   UNL     1      -9.819  10.764  64.087  1.00  0.00    -0.326 A  
HETATM   26 CL   UNL     1     -12.503  15.626  70.688  1.00  0.00    -0.464 Cl 
HETATM   27  C   UNL     1     -12.031  13.083  69.912  1.00  0.00    -0.381 A  
HETATM   28  C   UNL     1     -10.042   9.867  65.137  1.00  0.00    -0.177 A  
HETATM   29  C   UNL     1     -10.414  10.333  66.402  1.00  0.00    -0.233 A  
BRANCH  21  30
HETATM   30  C   UNL     1      -9.831  16.375  66.054  1.00  0.00    -0.362 A  
HETATM   31  C   UNL     1      -9.539  19.016  66.899  1.00  0.00    -0.321 A  
HETATM   32 CL   UNL     1      -9.307  20.660  67.347  1.00  0.00    -0.523 Cl 
HETATM   33  C   UNL     1      -8.615  18.052  67.304  1.00  0.00    -0.240 A  
HETATM   34  C   UNL     1     -10.783  17.338  65.693  1.00  0.00    -0.123 A  
HETATM   35  C   UNL     1     -10.629  18.661  66.111  1.00  0.00    -0.409 A  
HETATM   36  C   UNL     1      -8.763  16.727  66.885  1.00  0.00    -0.242 A  
ENDBRANCH  21  30
ENDBRANCH  11  14
ENDBRANCH  10  11
ENDBRANCH   5  10
ENDBRANCH   4   5
ENDBRANCH   3   4
ENDBRANCH   2   3
TORSDOF 10
ENDMDL
MODEL        7
REMARK 921   NORMALIZED FREE ENERGY PREDICTED BY IDOCK:   -7.08 KCAL/MOL
REMARK 922        TOTAL FREE ENERGY PREDICTED BY IDOCK:  -13.30 KCAL/MOL
REMARK 923 INTER-LIGAND FREE ENERGY PREDICTED BY IDOCK:  -10.11 KCAL/MOL
REMARK 924 INTRA-LIGAND FREE ENERGY PREDICTED BY IDOCK:   -3.19 KCAL/MOL
REMARK 927      BINDING AFFINITY PREDICTED BY RF-SCORE:    0.00 PKD
ROOT
HETATM    1  C   UNL     1      -6.953  10.534  68.251  1.00  0.00    -0.073 C  
HETATM    2  C   UNL     1      -7.521  10.463  69.661  1.00  0.00    -0.160 C  
ENDROOT
BRANCH   2   3
HETATM    3  C   UNL     1      -7.939   9.034  69.999  1.00  0.00    -0.113 C  
BRANCH   3   4
HETATM    4  C   UNL     1      -8.876   8.925  71.211  1.00  0.00    -0.231 C  
BRANCH   4   5
HETATM    5  N   UNL     1     -10.249   8.428  70.973  1.00  0.00    -0.193 NA 
BRANCH   5   6
HETATM    6  C   UNL     1     -10.499   7.153  71.682  1.00  0.00    -0.198 C  
BRANCH   6   7
HETATM    7  C   UNL     1     -10.810   5.930  70.791  1.00  0.00    -0.352 C  
BRANCH   7   8
HETATM    8  C   UNL     1     -11.376   6.252  69.405  1.00  0.00    -0.448 C  
HETATM    9  C   UNL     1     -10.472   5.807  68.267  1.00  0.00    -0.281 C  
ENDBRANCH   7   8
ENDBRANCH   6   7
ENDBRANCH   5   6
BRANCH   5  10
HETATM   10  C   UNL     1     -11.222   9.467  71.412  1.00  0.00    -0.382 C  
BRANCH  10  11
HETATM   11  C   UNL     1     -12.216  10.002  70.333  1.00  0.00    -0.170 C  
HETATM   12  O   UNL     1     -13.579   9.922  70.748  1.00  0.00    -0.553 OA 
HETATM   13  H   UNL     1     -14.184  10.247  70.091  1.00  0.00     0.000 HD 
BRANCH  11  14
HETATM   14  C   UNL     1     -11.861  11.413  69.890  1.00  0.00    -0.435 A  
HETATM   15  C   UNL     1     -11.168  11.757  68.715  1.00  0.00    -0.308 A  
HETATM   16 CL   UNL     1      -9.029   9.275  63.725  1.00  0.00    -0.162 Cl 
HETATM   17  C   UNL     1      -9.645  11.314  65.382  1.00  0.00    -0.261 A  
HETATM   18  C   UNL     1     -11.011  13.137  68.380  1.00  0.00    -0.287 A  
HETATM   19  C   UNL     1     -10.276  13.188  67.090  1.00  0.00    -0.244 C  
HETATM   20  C   UNL     1     -11.535  14.150  69.169  1.00  0.00    -0.338 A  
HETATM   21  C   UNL     1      -9.676  14.236  66.495  1.00  0.00    -0.304 C  
HETATM   22  C   UNL     1     -10.124  11.803  66.588  1.00  0.00    -0.231 A  
HETATM   23  C   UNL     1     -12.166  13.808  70.353  1.00  0.00    -0.363 A  
HETATM   24  C   UNL     1     -10.581  10.952  67.626  1.00  0.00    -0.263 A  
HETATM   25  C   UNL     1      -9.570   9.934  65.219  1.00  0.00    -0.295 A  
HETATM   26 CL   UNL     1     -12.800  15.045  71.372  1.00  0.00    -0.392 Cl 
HETATM   27  C   UNL     1     -12.323  12.469  70.714  1.00  0.00    -0.376 A  
HETATM   28  C   UNL     1      -9.930   9.073  66.260  1.00  0.00    -0.352 A  
HETATM   29  C   UNL     1     -10.421   9.583  67.466  1.00  0.00    -0.336 A  
BRANCH  21  30
HETATM   30  C   UNL     1      -9.628  15.595  67.035  1.00  0.00    -0.233 A  
HETATM   31  C   UNL     1      -9.721  18.090  68.278  1.00  0.00    -0.330 A  
HETATM   32 CL   UNL     1      -9.838  19.594  69.104  1.00  0.00    -0.474 Cl 
HETATM   33  C   UNL     1     -10.618  17.792  67.253  1.00  0.00    -0.322 A  
HETATM   34  C   UNL     1      -8.697  15.920  68.031  1.00  0.00    -0.169 A  
HETATM   35  C   UNL     1      -8.751  17.166  68.658  1.00  0.00    -0.266 A  
HETATM   36  C   UNL     1     -10.570  16.544  66.626  1.00  0.00    -0.216 A  
ENDBRANCH  21  30
ENDBRANCH  11  14
ENDBRANCH  10  11
ENDBRANCH   5  10
ENDBRANCH   4   5
ENDBRANCH   3   4
ENDBRANCH   2   3
TORSDOF 10
ENDMDL
MODEL        8
REMARK 921   NORMALIZED FREE ENERGY PREDICTED BY IDOCK:   -7.03 KCAL/MOL
REMARK 922        TOTAL FREE ENERGY PREDICTED BY IDOCK:  -13.22 KCAL/MOL
REMARK 923 INTER-LIGAND FREE ENERGY PREDICTED BY IDOCK:  -11.42 KCAL/MOL
REMARK 924 INTRA-LIGAND FREE ENERGY PREDICTED BY IDOCK:   -1.80 KCAL/MOL
REMARK 927      BINDING AFFINITY PREDICTED BY RF-SCORE:    0.00 PKD
ROOT
HETATM    1  C   UNL     1     -10.601  19.612  67.253  1.00  0.00    -0.598 C  
HETATM    2  C   UNL     1      -9.925  18.607  66.332  1.00  0.00    -0.415 C  
ENDROOT
BRANCH   2   3
HETATM    3  C   UNL     1      -9.496  17.368  67.115  1.00  0.00    -0.257 C  
BRANCH   3   4
HETATM    4  C   UNL     1      -8.481  16.482  66.379  1.00  0.00    -0.321 C  
BRANCH   4   5
HETATM    5  N   UNL     1      -8.569  15.020  66.586  1.00  0.00    -0.250 NA 
BRANCH   5   6
HETATM    6  C   UNL     1      -7.540  14.539  67.534  1.00  0.00    -0.190 C  
BRANCH   6   7
HETATM    7  C   UNL     1      -7.243  13.023  67.504  1.00  0.00    -0.154 C  
BRANCH   7   8
HETATM    8  C   UNL     1      -7.035  12.367  68.872  1.00  0.00    -0.091 C  
HETATM    9  C   UNL     1      -7.383  10.888  68.890  1.00  0.00    -0.111 C  
ENDBRANCH   7   8
ENDBRANCH   6   7
ENDBRANCH   5   6
BRANCH   5  10
HETATM   10  C   UNL     1      -9.933  14.684  67.084  1.00  0.00    -0.240 C  
BRANCH  10  11
HETATM   11  C   UNL     1     -10.688  13.532  66.349  1.00  0.00    -0.287 C  
HETATM   12  O   UNL     1     -10.113  13.214  65.082  1.00  0.00    -0.399 OA 
HETATM   13  H   UNL     1     -10.572  12.513  64.635  1.00  0.00     0.000 HD 
BRANCH  11  14
HETATM   14  C   UNL     1     -10.809  12.292  67.221  1.00  0.00    -0.283 A  
HETATM   15  C   UNL     1     -11.327  12.252  68.528  1.00  0.00    -0.332 A  
HETATM   16 CL   UNL     1     -14.066  15.751  72.514  1.00  0.00    -0.592 Cl 
HETATM   17  C   UNL     1     -13.083  13.429  71.554  1.00  0.00    -0.427 A  
HETATM   18  C   UNL     1     -11.481  10.988  69.177  1.00  0.00    -0.370 A  
HETATM   19  C   UNL     1     -12.071  11.257  70.513  1.00  0.00    -0.481 C  
HETATM   20  C   UNL     1     -11.151   9.795  68.551  1.00  0.00    -0.138 A  
HETATM   21  C   UNL     1     -12.171  10.438  71.578  1.00  0.00    -0.418 C  
HETATM   22  C   UNL     1     -12.400  12.698  70.593  1.00  0.00    -0.375 A  
HETATM   23  C   UNL     1     -10.588   9.844  67.287  1.00  0.00    -0.252 A  
HETATM   24  C   UNL     1     -11.857  13.295  69.428  1.00  0.00    -0.386 A  
HETATM   25  C   UNL     1     -13.188  14.805  71.378  1.00  0.00    -0.371 A  
HETATM   26 CL   UNL     1     -10.136   8.381  66.495  1.00  0.00    -0.349 Cl 
HETATM   27  C   UNL     1     -10.412  11.064  66.633  1.00  0.00    -0.307 A  
HETATM   28  C   UNL     1     -12.584  15.431  70.283  1.00  0.00    -0.377 A  
HETATM   29  C   UNL     1     -11.907  14.678  69.318  1.00  0.00    -0.357 A  
BRANCH  21  30
HETATM   30  C   UNL     1     -11.691   9.056  71.624  1.00  0.00    -0.431 A  
HETATM   31  C   UNL     1     -10.832   6.431  72.003  1.00  0.00    -0.239 A  
HETATM   32 CL   UNL     1     -10.316   4.822  72.326  1.00  0.00    -0.260 Cl 
HETATM   33  C   UNL     1      -9.913   7.478  72.071  1.00  0.00    -0.212 A  
HETATM   34  C   UNL     1     -12.599   7.995  71.506  1.00  0.00    -0.332 A  
HETATM   35  C   UNL     1     -12.167   6.683  71.705  1.00  0.00    -0.401 A  
HETATM   36  C   UNL     1     -10.341   8.794  71.877  1.00  0.00    -0.414 A  
ENDBRANCH  21  30
ENDBRANCH  11  14
ENDBRANCH  10  11
ENDBRANCH   5  10
ENDBRANCH   4   5
ENDBRANCH   3   4
ENDBRANCH   2   3
TORSDOF 10
ENDMDL
MODEL        9
REMARK 921   NORMALIZED FREE ENERGY PREDICTED BY IDOCK:   -6.98 KCAL/MOL
REMARK 922        TOTAL FREE ENERGY PREDICTED BY IDOCK:  -13.15 KCAL/MOL
REMARK 923 INTER-LIGAND FREE ENERGY PREDICTED BY IDOCK:  -11.91 KCAL/MOL
REMARK 924 INTRA-LIGAND FREE ENERGY PREDICTED BY IDOCK:   -1.25 KCAL/MOL
REMARK 927      BINDING AFFINITY PREDICTED BY RF-SCORE:    0.00 PKD
ROOT
HETATM    1  C   UNL     1     -10.364  19.209  67.194  1.00  0.00    -0.511 C  
HETATM    2  C   UNL     1     -10.284  17.704  66.978  1.00  0.00    -0.332 C  
ENDROOT
BRANCH   2   3
HETATM    3  C   UNL     1     -10.752  17.341  65.570  1.00  0.00    -0.105 C  
BRANCH   3   4
HETATM    4  C   UNL     1     -10.546  15.864  65.203  1.00  0.00    -0.397 C  
BRANCH   4   5
HETATM    5  N   UNL     1     -11.740  14.992  65.172  1.00  0.00    -0.290 NA 
BRANCH   5   6
HETATM    6  C   UNL     1     -11.765  14.142  63.962  1.00  0.00    -0.207 C  
BRANCH   6   7
HETATM    7  C   UNL     1     -12.426  12.754  64.119  1.00  0.00    -0.450 C  
BRANCH   7   8
HETATM    8  C   UNL     1     -11.598  11.570  63.613  1.00  0.00    -0.323 C  
HETATM    9  C   UNL     1     -10.111  11.872  63.513  1.00  0.00    -0.464 C  
ENDBRANCH   7   8
ENDBRANCH   6   7
ENDBRANCH   5   6
BRANCH   5  10
HETATM   10  C   UNL     1     -11.754  14.149  66.402  1.00  0.00    -0.390 C  
BRANCH  10  11
HETATM   11  C   UNL     1     -10.418  13.436  66.782  1.00  0.00    -0.275 C  
HETATM   12  O   UNL     1      -9.480  14.313  67.402  1.00  0.00    -0.202 OA 
HETATM   13  H   UNL     1      -8.667  13.879  67.634  1.00  0.00     0.000 HD 
BRANCH  11  14
HETATM   14  C   UNL     1     -10.663  12.203  67.638  1.00  0.00    -0.252 A  
HETATM   15  C   UNL     1     -11.280  12.187  68.901  1.00  0.00    -0.320 A  
HETATM   16 CL   UNL     1     -14.152  15.808  72.679  1.00  0.00    -0.604 Cl 
HETATM   17  C   UNL     1     -13.207  13.444  71.789  1.00  0.00    -0.495 A  
HETATM   18  C   UNL     1     -11.542  10.932  69.532  1.00  0.00    -0.384 A  
HETATM   19  C   UNL     1     -12.219  11.227  70.820  1.00  0.00    -0.479 C  
HETATM   20  C   UNL     1     -11.220   9.724  68.929  1.00  0.00    -0.076 A  
HETATM   21  C   UNL     1     -12.438  10.413  71.871  1.00  0.00    -0.291 C  
HETATM   22  C   UNL     1     -12.486  12.682  70.880  1.00  0.00    -0.368 A  
HETATM   23  C   UNL     1     -10.561   9.747  67.712  1.00  0.00    -0.266 A  
HETATM   24  C   UNL     1     -11.829  13.253  69.762  1.00  0.00    -0.394 A  
HETATM   25  C   UNL     1     -13.234  14.823  71.610  1.00  0.00    -0.349 A  
HETATM   26 CL   UNL     1     -10.118   8.265  66.951  1.00  0.00    -0.340 Cl 
HETATM   27  C   UNL     1     -10.279  10.958  67.078  1.00  0.00    -0.256 A  
HETATM   28  C   UNL     1     -12.520  15.420  70.566  1.00  0.00    -0.468 A  
HETATM   29  C   UNL     1     -11.807  14.637  69.653  1.00  0.00    -0.367 A  
BRANCH  21  30
HETATM   30  C   UNL     1     -12.027   9.011  71.948  1.00  0.00    -0.445 A  
HETATM   31  C   UNL     1     -11.346   6.341  72.375  1.00  0.00    -0.292 A  
HETATM   32 CL   UNL     1     -10.954   4.703  72.724  1.00  0.00    -0.261 Cl 
HETATM   33  C   UNL     1     -10.409   7.344  72.624  1.00  0.00    -0.292 A  
HETATM   34  C   UNL     1     -12.945   7.995  71.651  1.00  0.00    -0.351 A  
HETATM   35  C   UNL     1     -12.604   6.659  71.874  1.00  0.00    -0.303 A  
HETATM   36  C   UNL     1     -10.748   8.683  72.407  1.00  0.00    -0.311 A  
ENDBRANCH  21  30
ENDBRANCH  11  14
ENDBRANCH  10  11
ENDBRANCH   5  10
ENDBRANCH   4   5
ENDBRANCH   3   4
ENDBRANCH   2   3
TORSDOF 10
ENDMDL
MODEL       10
REMARK 921   NORMALIZED FREE ENERGY PREDICTED BY IDOCK:   -6.94 KCAL/MOL
REMARK 922        TOTAL FREE ENERGY PREDICTED BY IDOCK:  -13.08 KCAL/MOL
REMARK 923 INTER-LIGAND FREE ENERGY PREDICTED BY IDOCK:  -10.26 KCAL/MOL
REMARK 924 INTRA-LIGAND FREE ENERGY PREDICTED BY IDOCK:   -2.82 KCAL/MOL
REMARK 927      BINDING AFFINITY PREDICTED BY RF-SCORE:    0.00 PKD
ROOT
HETATM    1  C   UNL     1      -7.395  12.092  68.470  1.00  0.00    -0.111 C  
HETATM    2  C   UNL     1      -7.441  10.575  68.593  1.00  0.00    -0.095 C  
ENDROOT
BRANCH   2   3
HETATM    3  C   UNL     1      -8.275  10.162  69.804  1.00  0.00    -0.161 C  
BRANCH   3   4
HETATM    4  C   UNL     1      -8.905   8.767  69.683  1.00  0.00    -0.141 C  
BRANCH   4   5
HETATM    5  N   UNL     1     -10.336   8.629  70.034  1.00  0.00    -0.201 NA 
BRANCH   5   6
HETATM    6  C   UNL     1     -10.544   7.609  71.086  1.00  0.00    -0.221 C  
BRANCH   6   7
HETATM    7  C   UNL     1     -10.713   8.143  72.526  1.00  0.00    -0.419 C  
BRANCH   7   8
HETATM    8  C   UNL     1      -9.880   7.431  73.594  1.00  0.00    -0.365 C  
HETATM    9  C   UNL     1      -8.513   8.060  73.810  1.00  0.00    -0.317 C  
ENDBRANCH   7   8
ENDBRANCH   6   7
ENDBRANCH   5   6
BRANCH   5  10
HETATM   10  C   UNL     1     -10.854   9.953  70.481  1.00  0.00    -0.326 C  
BRANCH  10  11
HETATM   11  C   UNL     1     -12.066  10.538  69.690  1.00  0.00    -0.170 C  
HETATM   12  O   UNL     1     -13.291  10.460  70.418  1.00  0.00    -0.445 OA 
HETATM   13  H   UNL     1     -14.029  10.816  69.937  1.00  0.00     0.000 HD 
BRANCH  11  14
HETATM   14  C   UNL     1     -11.799  11.959  69.220  1.00  0.00    -0.379 A  
HETATM   15  C   UNL     1     -11.203  12.323  67.999  1.00  0.00    -0.321 A  
HETATM   16 CL   UNL     1      -9.319   9.900  62.879  1.00  0.00    -0.296 Cl 
HETATM   17  C   UNL     1      -9.899  11.922  64.569  1.00  0.00    -0.203 A  
HETATM   18  C   UNL     1     -11.124  13.707  67.649  1.00  0.00    -0.293 A  
HETATM   19  C   UNL     1     -10.483  13.779  66.311  1.00  0.00    -0.291 C  
HETATM   20  C   UNL     1     -11.632  14.703  68.470  1.00  0.00    -0.346 A  
HETATM   21  C   UNL     1      -9.968  14.847  65.673  1.00  0.00    -0.389 C  
HETATM   22  C   UNL     1     -10.312  12.399  65.804  1.00  0.00    -0.289 A  
HETATM   23  C   UNL     1     -12.165  14.343  69.696  1.00  0.00    -0.307 A  
HETATM   24  C   UNL     1     -10.662  11.537  66.873  1.00  0.00    -0.304 A  
HETATM   25  C   UNL     1      -9.781  10.545  64.405  1.00  0.00    -0.328 A  
HETATM   26 CL   UNL     1     -12.775  15.559  70.754  1.00  0.00    -0.499 Cl 
HETATM   27  C   UNL     1     -12.244  13.001  70.071  1.00  0.00    -0.306 A  
HETATM   28  C   UNL     1     -10.033   9.676  65.471  1.00  0.00    -0.279 A  
HETATM   29  C   UNL     1     -10.459  10.173  66.707  1.00  0.00    -0.270 A  
BRANCH  21  30
HETATM   30  C   UNL     1      -9.936  16.210  66.205  1.00  0.00    -0.336 A  
HETATM   31  C   UNL     1      -9.676  18.868  67.007  1.00  0.00    -0.309 A  
HETATM   32 CL   UNL     1      -9.451  20.518  67.439  1.00  0.00    -0.561 Cl 
HETATM   33  C   UNL     1      -8.876  17.885  67.591  1.00  0.00    -0.250 A  
HETATM   34  C   UNL     1     -10.772  17.194  65.660  1.00  0.00    -0.140 A  
HETATM   35  C   UNL     1     -10.633  18.525  66.058  1.00  0.00    -0.368 A  
HETATM   36  C   UNL     1      -9.008  16.552  67.193  1.00  0.00    -0.221 A  
ENDBRANCH  21  30
ENDBRANCH  11  14
ENDBRANCH  10  11
ENDBRANCH   5  10
ENDBRANCH   4   5
ENDBRANCH   3   4
ENDBRANCH   2   3
TORSDOF 10
ENDMDL
MODEL       11
REMARK 921   NORMALIZED FREE ENERGY PREDICTED BY IDOCK:   -6.93 KCAL/MOL
REMARK 922        TOTAL FREE ENERGY PREDICTED BY IDOCK:  -13.08 KCAL/MOL
REMARK 923 INTER-LIGAND FREE ENERGY PREDICTED BY IDOCK:   -9.95 KCAL/MOL
REMARK 924 INTRA-LIGAND FREE ENERGY PREDICTED BY IDOCK:   -3.13 KCAL/MOL
REMARK 927      BINDING AFFINITY PREDICTED BY RF-SCORE:    0.00 PKD
ROOT
HETATM    1  C   UNL     1     -11.973  15.870  72.041  1.00  0.00    -0.602 C  
HETATM    2  C   UNL     1     -12.399  15.370  70.668  1.00  0.00    -0.451 C  
ENDROOT
BRANCH   2   3
HETATM    3  C   UNL     1     -11.499  15.957  69.582  1.00  0.00    -0.346 C  
BRANCH   3   4
HETATM    4  C   UNL     1     -11.652  15.283  68.210  1.00  0.00    -0.341 C  
BRANCH   4   5
HETATM    5  N   UNL     1     -10.858  15.827  67.087  1.00  0.00    -0.315 NA 
BRANCH   5   6
HETATM    6  C   UNL     1      -9.420  15.911  67.425  1.00  0.00    -0.219 C  
BRANCH   6   7
HETATM    7  C   UNL     1      -8.540  14.735  66.946  1.00  0.00    -0.254 C  
BRANCH   7   8
HETATM    8  C   UNL     1      -8.275  13.645  67.987  1.00  0.00    -0.162 C  
HETATM    9  C   UNL     1      -7.498  12.461  67.436  1.00  0.00    -0.157 C  
ENDBRANCH   7   8
ENDBRANCH   6   7
ENDBRANCH   5   6
BRANCH   5  10
HETATM   10  C   UNL     1     -11.063  14.966  65.888  1.00  0.00    -0.338 C  
BRANCH  10  11
HETATM   11  C   UNL     1     -11.923  13.677  66.086  1.00  0.00    -0.416 C  
HETATM   12  O   UNL     1     -13.116  13.681  65.303  1.00  0.00    -0.735 OA 
HETATM   13  H   UNL     1     -13.638  12.897  65.423  1.00  0.00     0.000 HD 
BRANCH  11  14
HETATM   14  C   UNL     1     -11.110  12.415  65.839  1.00  0.00    -0.349 A  
HETATM   15  C   UNL     1     -10.873  11.393  66.774  1.00  0.00    -0.336 A  
HETATM   16 CL   UNL     1     -12.483   9.699  72.268  1.00  0.00    -0.331 Cl 
HETATM   17  C   UNL     1     -11.260   9.431  69.878  1.00  0.00    -0.180 A  
HETATM   18  C   UNL     1     -10.185  10.212  66.355  1.00  0.00    -0.288 A  
HETATM   19  C   UNL     1     -10.111   9.312  67.534  1.00  0.00    -0.273 C  
HETATM   20  C   UNL     1      -9.757  10.036  65.047  1.00  0.00    -0.386 A  
HETATM   21  C   UNL     1      -9.356   8.212  67.717  1.00  0.00    -0.149 C  
HETATM   22  C   UNL     1     -10.897   9.920  68.631  1.00  0.00    -0.244 A  
HETATM   23  C   UNL     1      -9.942  11.069  64.145  1.00  0.00    -0.329 A  
HETATM   24  C   UNL     1     -11.267  11.214  68.186  1.00  0.00    -0.356 A  
HETATM   25  C   UNL     1     -11.968  10.273  70.730  1.00  0.00    -0.360 A  
HETATM   26 CL   UNL     1      -9.393  10.895  62.521  1.00  0.00    -0.315 Cl 
HETATM   27  C   UNL     1     -10.599  12.240  64.529  1.00  0.00    -0.346 A  
HETATM   28  C   UNL     1     -12.267  11.585  70.350  1.00  0.00    -0.442 A  
HETATM   29  C   UNL     1     -11.903  12.058  69.085  1.00  0.00    -0.369 A  
BRANCH  21  30
HETATM   30  C   UNL     1      -8.413   7.667  66.739  1.00  0.00    -0.127 A  
HETATM   31  C   UNL     1      -6.720   6.834  64.686  1.00  0.00    -0.042 A  
HETATM   32 CL   UNL     1      -5.715   6.382  63.366  1.00  0.00    -0.022 Cl 
HETATM   33  C   UNL     1      -7.971   6.235  64.841  1.00  0.00    -0.124 A  
HETATM   34  C   UNL     1      -7.136   8.229  66.610  1.00  0.00    -0.077 A  
HETATM   35  C   UNL     1      -6.294   7.816  65.576  1.00  0.00    -0.042 A  
HETATM   36  C   UNL     1      -8.819   6.649  65.871  1.00  0.00    -0.126 A  
ENDBRANCH  21  30
ENDBRANCH  11  14
ENDBRANCH  10  11
ENDBRANCH   5  10
ENDBRANCH   4   5
ENDBRANCH   3   4
ENDBRANCH   2   3
TORSDOF 10
ENDMDL
MODEL       12
REMARK 921   NORMALIZED FREE ENERGY PREDICTED BY IDOCK:   -6.90 KCAL/MOL
REMARK 922        TOTAL FREE ENERGY PREDICTED BY IDOCK:  -13.02 KCAL/MOL
REMARK 923 INTER-LIGAND FREE ENERGY PREDICTED BY IDOCK:  -11.56 KCAL/MOL
REMARK 924 INTRA-LIGAND FREE ENERGY PREDICTED BY IDOCK:   -1.46 KCAL/MOL
REMARK 927      BINDING AFFINITY PREDICTED BY RF-SCORE:    0.00 PKD
ROOT
HETATM    1  C   UNL     1     -12.896  14.056  65.573  1.00  0.00    -0.453 C  
HETATM    2  C   UNL     1     -12.282  14.822  64.410  1.00  0.00    -0.447 C  
ENDROOT
BRANCH   2   3
HETATM    3  C   UNL     1     -11.152  15.724  64.902  1.00  0.00    -0.411 C  
BRANCH   3   4
HETATM    4  C   UNL     1     -10.727  15.461  66.354  1.00  0.00    -0.311 C  
BRANCH   4   5
HETATM    5  N   UNL     1      -9.295  15.197  66.612  1.00  0.00    -0.249 NA 
BRANCH   5   6
HETATM    6  C   UNL     1      -8.743  16.122  67.627  1.00  0.00    -0.177 C  
BRANCH   6   7
HETATM    7  C   UNL     1      -9.681  17.256  68.095  1.00  0.00    -0.284 C  
BRANCH   7   8
HETATM    8  C   UNL     1      -9.605  18.551  67.280  1.00  0.00    -0.305 C  
HETATM    9  C   UNL     1     -10.900  19.346  67.289  1.00  0.00    -0.561 C  
ENDBRANCH   7   8
ENDBRANCH   6   7
ENDBRANCH   5   6
BRANCH   5  10
HETATM   10  C   UNL     1      -9.136  13.783  67.053  1.00  0.00    -0.246 C  
BRANCH  10  11
HETATM   11  C   UNL     1     -10.111  12.736  66.427  1.00  0.00    -0.259 C  
HETATM   12  O   UNL     1      -9.689  12.288  65.139  1.00  0.00    -0.408 OA 
HETATM   13  H   UNL     1     -10.282  11.651  64.759  1.00  0.00     0.000 HD 
BRANCH  11  14
HETATM   14  C   UNL     1     -10.353  11.562  67.363  1.00  0.00    -0.235 A  
HETATM   15  C   UNL     1     -11.002  11.623  68.609  1.00  0.00    -0.266 A  
HETATM   16 CL   UNL     1     -14.039  15.442  72.048  1.00  0.00    -0.619 Cl 
HETATM   17  C   UNL     1     -13.026  13.041  71.352  1.00  0.00    -0.373 A  
HETATM   18  C   UNL     1     -11.256  10.411  69.321  1.00  0.00    -0.304 A  
HETATM   19  C   UNL     1     -11.971  10.782  70.569  1.00  0.00    -0.456 C  
HETATM   20  C   UNL     1     -10.895   9.170  68.814  1.00  0.00    -0.096 A  
HETATM   21  C   UNL     1     -12.200  10.041  71.670  1.00  0.00    -0.456 C  
HETATM   22  C   UNL     1     -12.267  12.232  70.518  1.00  0.00    -0.387 A  
HETATM   23  C   UNL     1     -10.205   9.121  67.615  1.00  0.00    -0.236 A  
HETATM   24  C   UNL     1     -11.593  12.736  69.378  1.00  0.00    -0.361 A  
HETATM   25  C   UNL     1     -13.075  14.403  71.074  1.00  0.00    -0.353 A  
HETATM   26 CL   UNL     1      -9.714   7.598  66.973  1.00  0.00    -0.232 Cl 
HETATM   27  C   UNL     1      -9.931  10.289  66.903  1.00  0.00    -0.259 A  
HETATM   28  C   UNL     1     -12.346  14.940  70.008  1.00  0.00    -0.358 A  
HETATM   29  C   UNL     1     -11.595  14.109  69.171  1.00  0.00    -0.349 A  
BRANCH  21  30
HETATM   30  C   UNL     1     -11.764   8.657  71.857  1.00  0.00    -0.422 A  
HETATM   31  C   UNL     1     -11.043   6.039  72.490  1.00  0.00    -0.279 A  
HETATM   32 CL   UNL     1     -10.628   4.438  72.964  1.00  0.00    -0.250 Cl 
HETATM   33  C   UNL     1     -10.133   7.077  72.690  1.00  0.00    -0.204 A  
HETATM   34  C   UNL     1     -12.655   7.603  71.611  1.00  0.00    -0.365 A  
HETATM   35  C   UNL     1     -12.294   6.294  71.937  1.00  0.00    -0.186 A  
HETATM   36  C   UNL     1     -10.491   8.389  72.369  1.00  0.00    -0.402 A  
ENDBRANCH  21  30
ENDBRANCH  11  14
ENDBRANCH  10  11
ENDBRANCH   5  10
ENDBRANCH   4   5
ENDBRANCH   3   4
ENDBRANCH   2   3
TORSDOF 10
ENDMDL
MODEL       13
REMARK 921   NORMALIZED FREE ENERGY PREDICTED BY IDOCK:   -6.77 KCAL/MOL
REMARK 922        TOTAL FREE ENERGY PREDICTED BY IDOCK:  -12.81 KCAL/MOL
REMARK 923 INTER-LIGAND FREE ENERGY PREDICTED BY IDOCK:  -10.70 KCAL/MOL
REMARK 924 INTRA-LIGAND FREE ENERGY PREDICTED BY IDOCK:   -2.11 KCAL/MOL
REMARK 927      BINDING AFFINITY PREDICTED BY RF-SCORE:    0.00 PKD
ROOT
HETATM    1  C   UNL     1      -9.574   4.635  69.693  1.00  0.00    -0.262 C  
HETATM    2  C   UNL     1     -10.530   5.470  68.854  1.00  0.00    -0.282 C  
ENDROOT
BRANCH   2   3
HETATM    3  C   UNL     1     -11.405   6.343  69.752  1.00  0.00    -0.494 C  
BRANCH   3   4
HETATM    4  C   UNL     1     -10.625   7.391  70.559  1.00  0.00    -0.224 C  
BRANCH   4   5
HETATM    5  N   UNL     1     -11.321   8.042  71.691  1.00  0.00    -0.253 NA 
BRANCH   5   6
HETATM    6  C   UNL     1     -10.684   7.714  72.985  1.00  0.00    -0.391 C  
BRANCH   6   7
HETATM    7  C   UNL     1      -9.550   6.666  72.939  1.00  0.00    -0.162 C  
BRANCH   7   8
HETATM    8  C   UNL     1      -9.872   5.318  73.588  1.00  0.00    -0.171 C  
HETATM    9  C   UNL     1     -11.264   4.807  73.257  1.00  0.00    -0.421 C  
ENDBRANCH   7   8
ENDBRANCH   6   7
ENDBRANCH   5   6
BRANCH   5  10
HETATM   10  C   UNL     1     -11.327   9.516  71.471  1.00  0.00    -0.385 C  
BRANCH  10  11
HETATM   11  C   UNL     1     -12.276  10.058  70.356  1.00  0.00    -0.170 C  
HETATM   12  O   UNL     1     -13.654   9.995  70.722  1.00  0.00    -0.498 OA 
HETATM   13  H   UNL     1     -14.230  10.325  70.044  1.00  0.00     0.000 HD 
BRANCH  11  14
HETATM   14  C   UNL     1     -11.889  11.463  69.922  1.00  0.00    -0.435 A  
HETATM   15  C   UNL     1     -11.153  11.795  68.770  1.00  0.00    -0.293 A  
HETATM   16 CL   UNL     1      -8.881   9.274  63.859  1.00  0.00    -0.202 Cl 
HETATM   17  C   UNL     1      -9.526  11.324  65.490  1.00  0.00    -0.255 A  
HETATM   18  C   UNL     1     -10.968  13.172  68.436  1.00  0.00    -0.287 A  
HETATM   19  C   UNL     1     -10.190  13.211  67.171  1.00  0.00    -0.244 C  
HETATM   20  C   UNL     1     -11.505  14.194  69.205  1.00  0.00    -0.337 A  
HETATM   21  C   UNL     1      -9.558  14.250  66.594  1.00  0.00    -0.302 C  
HETATM   22  C   UNL     1     -10.039  11.823  66.678  1.00  0.00    -0.231 A  
HETATM   23  C   UNL     1     -12.179  13.863  70.369  1.00  0.00    -0.368 A  
HETATM   24  C   UNL     1     -10.540  10.981  67.702  1.00  0.00    -0.255 A  
HETATM   25  C   UNL     1      -9.463   9.943  65.332  1.00  0.00    -0.257 A  
HETATM   26 CL   UNL     1     -12.831  15.110  71.363  1.00  0.00    -0.412 Cl 
HETATM   27  C   UNL     1     -12.364  12.527  70.728  1.00  0.00    -0.376 A  
HETATM   28  C   UNL     1      -9.868   9.089  66.363  1.00  0.00    -0.356 A  
HETATM   29  C   UNL     1     -10.392   9.609  67.551  1.00  0.00    -0.297 A  
BRANCH  21  30
HETATM   30  C   UNL     1      -9.511  15.610  67.133  1.00  0.00    -0.226 A  
HETATM   31  C   UNL     1      -9.628  18.114  68.354  1.00  0.00    -0.337 A  
HETATM   32 CL   UNL     1      -9.768  19.627  69.160  1.00  0.00    -0.438 Cl 
HETATM   33  C   UNL     1     -10.435  17.842  67.248  1.00  0.00    -0.373 A  
HETATM   34  C   UNL     1      -8.667  15.906  68.212  1.00  0.00    -0.174 A  
HETATM   35  C   UNL     1      -8.734  17.158  68.826  1.00  0.00    -0.235 A  
HETATM   36  C   UNL     1     -10.374  16.589  66.632  1.00  0.00    -0.298 A  
ENDBRANCH  21  30
ENDBRANCH  11  14
ENDBRANCH  10  11
ENDBRANCH   5  10
ENDBRANCH   4   5
ENDBRANCH   3   4
ENDBRANCH   2   3
TORSDOF 10
ENDMDL
MODEL       14
REMARK 921   NORMALIZED FREE ENERGY PREDICTED BY IDOCK:   -6.71 KCAL/MOL
REMARK 922        TOTAL FREE ENERGY PREDICTED BY IDOCK:  -12.72 KCAL/MOL
REMARK 923 INTER-LIGAND FREE ENERGY PREDICTED BY IDOCK:   -9.13 KCAL/MOL
REMARK 924 INTRA-LIGAND FREE ENERGY PREDICTED BY IDOCK:   -3.59 KCAL/MOL
REMARK 927      BINDING AFFINITY PREDICTED BY RF-SCORE:    0.00 PKD
ROOT
HETATM    1  C   UNL     1      -7.162   9.782  68.733  1.00  0.00    -0.072 C  
HETATM    2  C   UNL     1      -7.671   9.794  70.167  1.00  0.00    -0.188 C  
ENDROOT
BRANCH   2   3
HETATM    3  C   UNL     1      -7.414   8.446  70.837  1.00  0.00    -0.066 C  
BRANCH   3   4
HETATM    4  C   UNL     1      -8.015   8.321  72.245  1.00  0.00    -0.139 C  
BRANCH   4   5
HETATM    5  N   UNL     1      -9.106   7.341  72.440  1.00  0.00    -0.130 NA 
BRANCH   5   6
HETATM    6  C   UNL     1      -8.708   6.259  73.368  1.00  0.00    -0.125 C  
BRANCH   6   7
HETATM    7  C   UNL     1      -8.774   4.822  72.804  1.00  0.00    -0.114 C  
BRANCH   7   8
HETATM    8  C   UNL     1     -10.142   4.384  72.276  1.00  0.00    -0.253 C  
HETATM    9  C   UNL     1     -11.251   4.497  73.309  1.00  0.00    -0.388 C  
ENDBRANCH   7   8
ENDBRANCH   6   7
ENDBRANCH   5   6
BRANCH   5  10
HETATM   10  C   UNL     1     -10.309   8.053  72.955  1.00  0.00    -0.327 C  
BRANCH  10  11
HETATM   11  C   UNL     1     -11.578   8.040  72.045  1.00  0.00    -0.316 C  
HETATM   12  O   UNL     1     -12.794   8.092  72.790  1.00  0.00    -0.562 OA 
HETATM   13  H   UNL     1     -13.566   8.084  72.236  1.00  0.00     0.000 HD 
BRANCH  11  14
HETATM   14  C   UNL     1     -11.531   9.143  70.998  1.00  0.00    -0.372 A  
HETATM   15  C   UNL     1     -11.104   8.995  69.666  1.00  0.00    -0.080 A  
HETATM   16 CL   UNL     1      -9.440   4.765  65.796  1.00  0.00    -0.161 Cl 
HETATM   17  C   UNL     1     -10.095   7.267  66.563  1.00  0.00    -0.163 A  
HETATM   18  C   UNL     1     -11.227  10.100  68.769  1.00  0.00    -0.217 A  
HETATM   19  C   UNL     1     -10.731   9.643  67.446  1.00  0.00    -0.308 C  
HETATM   20  C   UNL     1     -11.771  11.313  69.167  1.00  0.00    -0.410 A  
HETATM   21  C   UNL     1     -10.412  10.372  66.360  1.00  0.00    -0.246 C  
HETATM   22  C   UNL     1     -10.443   8.193  67.536  1.00  0.00    -0.326 A  
HETATM   23  C   UNL     1     -12.136  11.472  70.493  1.00  0.00    -0.378 A  
HETATM   24  C   UNL     1     -10.582   7.844  68.902  1.00  0.00    -0.165 A  
HETATM   25  C   UNL     1      -9.828   5.963  66.968  1.00  0.00    -0.149 A  
HETATM   26 CL   UNL     1     -12.785  12.976  71.027  1.00  0.00    -0.390 Cl 
HETATM   27  C   UNL     1     -12.015  10.414  71.396  1.00  0.00    -0.379 A  
HETATM   28  C   UNL     1      -9.870   5.613  68.321  1.00  0.00    -0.177 A  
HETATM   29  C   UNL     1     -10.232   6.557  69.288  1.00  0.00    -0.216 A  
BRANCH  21  30
HETATM   30  C   UNL     1     -10.494  11.830  66.272  1.00  0.00    -0.281 A  
HETATM   31  C   UNL     1     -10.549  14.582  65.827  1.00  0.00    -0.317 A  
HETATM   32 CL   UNL     1     -10.545  16.265  65.471  1.00  0.00    -0.393 Cl 
HETATM   33  C   UNL     1      -9.417  13.993  66.392  1.00  0.00    -0.278 A  
HETATM   34  C   UNL     1     -11.647  12.436  65.753  1.00  0.00    -0.449 A  
HETATM   35  C   UNL     1     -11.667  13.813  65.523  1.00  0.00    -0.356 A  
HETATM   36  C   UNL     1      -9.390  12.614  66.620  1.00  0.00    -0.236 A  
ENDBRANCH  21  30
ENDBRANCH  11  14
ENDBRANCH  10  11
ENDBRANCH   5  10
ENDBRANCH   4   5
ENDBRANCH   3   4
ENDBRANCH   2   3
TORSDOF 10
ENDMDL
MODEL       15
REMARK 921   NORMALIZED FREE ENERGY PREDICTED BY IDOCK:   -6.66 KCAL/MOL
REMARK 922        TOTAL FREE ENERGY PREDICTED BY IDOCK:  -12.64 KCAL/MOL
REMARK 923 INTER-LIGAND FREE ENERGY PREDICTED BY IDOCK:  -10.92 KCAL/MOL
REMARK 924 INTRA-LIGAND FREE ENERGY PREDICTED BY IDOCK:   -1.72 KCAL/MOL
REMARK 927      BINDING AFFINITY PREDICTED BY RF-SCORE:    0.00 PKD
ROOT
HETATM    1  C   UNL     1     -10.369  15.686  66.044  1.00  0.00    -0.351 C  
HETATM    2  C   UNL     1     -11.081  15.537  64.707  1.00  0.00    -0.421 C  
ENDROOT
BRANCH   2   3
HETATM    3  C   UNL     1     -12.115  14.415  64.774  1.00  0.00    -0.462 C  
BRANCH   3   4
HETATM    4  C   UNL     1     -11.943  13.340  63.691  1.00  0.00    -0.486 C  
BRANCH   4   5
HETATM    5  N   UNL     1     -11.278  12.077  64.079  1.00  0.00    -0.365 NA 
BRANCH   5   6
HETATM    6  C   UNL     1      -9.928  11.965  63.485  1.00  0.00    -0.400 C  
BRANCH   6   7
HETATM    7  C   UNL     1      -9.681  10.735  62.584  1.00  0.00    -0.246 C  
BRANCH   7   8
HETATM    8  C   UNL     1      -8.773   9.656  63.178  1.00  0.00    -0.236 C  
HETATM    9  C   UNL     1      -7.451  10.198  63.695  1.00  0.00    -0.129 C  
ENDBRANCH   7   8
ENDBRANCH   6   7
ENDBRANCH   5   6
BRANCH   5  10
HETATM   10  C   UNL     1     -11.201  12.008  65.566  1.00  0.00    -0.321 C  
BRANCH  10  11
HETATM   11  C   UNL     1      -9.875  11.454  66.177  1.00  0.00    -0.222 C  
HETATM   12  O   UNL     1      -8.997  12.487  66.624  1.00  0.00    -0.243 OA 
HETATM   13  H   UNL     1      -8.191  12.149  66.996  1.00  0.00     0.000 HD 
BRANCH  11  14
HETATM   14  C   UNL     1     -10.144  10.447  67.285  1.00  0.00    -0.244 A  
HETATM   15  C   UNL     1     -10.746  10.729  68.525  1.00  0.00    -0.245 A  
HETATM   16 CL   UNL     1     -13.466  15.179  71.429  1.00  0.00    -0.514 Cl 
HETATM   17  C   UNL     1     -12.599  12.648  71.076  1.00  0.00    -0.354 A  
HETATM   18  C   UNL     1     -11.035   9.652  69.418  1.00  0.00    -0.215 A  
HETATM   19  C   UNL     1     -11.687  10.244  70.614  1.00  0.00    -0.438 C  
HETATM   20  C   UNL     1     -10.756   8.332  69.094  1.00  0.00    -0.117 A  
HETATM   21  C   UNL     1     -11.916   9.688  71.819  1.00  0.00    -0.421 C  
HETATM   22  C   UNL     1     -11.912  11.684  70.353  1.00  0.00    -0.448 A  
HETATM   23  C   UNL     1     -10.111   8.066  67.898  1.00  0.00    -0.194 A  
HETATM   24  C   UNL     1     -11.253  11.975  69.133  1.00  0.00    -0.305 A  
HETATM   25  C   UNL     1     -12.589  13.955  70.598  1.00  0.00    -0.335 A  
HETATM   26 CL   UNL     1      -9.720   6.441  67.480  1.00  0.00    -0.127 Cl 
HETATM   27  C   UNL     1      -9.803   9.099  67.011  1.00  0.00    -0.267 A  
HETATM   28  C   UNL     1     -11.871  14.286  69.444  1.00  0.00    -0.372 A  
HETATM   29  C   UNL     1     -11.193  13.299  68.722  1.00  0.00    -0.317 A  
BRANCH  21  30
HETATM   30  C   UNL     1     -11.544   8.325  72.201  1.00  0.00    -0.428 A  
HETATM   31  C   UNL     1     -10.991   5.773  73.178  1.00  0.00    -0.271 A  
HETATM   32 CL   UNL     1     -10.695   4.220  73.856  1.00  0.00    -0.311 Cl 
HETATM   33  C   UNL     1     -10.112   6.823  73.444  1.00  0.00    -0.266 A  
HETATM   34  C   UNL     1     -12.396   7.255  71.895  1.00  0.00    -0.346 A  
HETATM   35  C   UNL     1     -12.121   5.980  72.392  1.00  0.00    -0.169 A  
HETATM   36  C   UNL     1     -10.386   8.102  72.951  1.00  0.00    -0.333 A  
ENDBRANCH  21  30
ENDBRANCH  11  14
ENDBRANCH  10  11
ENDBRANCH   5  10
ENDBRANCH   4   5
ENDBRANCH   3   4
ENDBRANCH   2   3
TORSDOF 10
ENDMDL
MODEL       16
REMARK 921   NORMALIZED FREE ENERGY PREDICTED BY IDOCK:   -6.59 KCAL/MOL
REMARK 922        TOTAL FREE ENERGY PREDICTED BY IDOCK:  -12.53 KCAL/MOL
REMARK 923 INTER-LIGAND FREE ENERGY PREDICTED BY IDOCK:  -10.28 KCAL/MOL
REMARK 924 INTRA-LIGAND FREE ENERGY PREDICTED BY IDOCK:   -2.25 KCAL/MOL
REMARK 927      BINDING AFFINITY PREDICTED BY RF-SCORE:    0.00 PKD
ROOT
HETATM    1  C   UNL     1     -10.070   4.662  72.261  1.00  0.00    -0.250 C  
HETATM    2  C   UNL     1     -11.343   5.366  72.708  1.00  0.00    -0.358 C  
ENDROOT
BRANCH   2   3
HETATM    3  C   UNL     1     -11.022   6.760  73.245  1.00  0.00    -0.249 C  
BRANCH   3   4
HETATM    4  C   UNL     1     -11.759   7.895  72.519  1.00  0.00    -0.367 C  
BRANCH   4   5
HETATM    5  N   UNL     1     -10.955   8.798  71.666  1.00  0.00    -0.295 NA 
BRANCH   5   6
HETATM    6  C   UNL     1     -10.653   8.185  70.354  1.00  0.00    -0.224 C  
BRANCH   6   7
HETATM    7  C   UNL     1      -9.157   8.044  69.997  1.00  0.00    -0.152 C  
BRANCH   7   8
HETATM    8  C   UNL     1      -8.222   9.051  70.673  1.00  0.00    -0.207 C  
HETATM    9  C   UNL     1      -7.799  10.189  69.758  1.00  0.00    -0.175 C  
ENDBRANCH   7   8
ENDBRANCH   6   7
ENDBRANCH   5   6
BRANCH   5  10
HETATM   10  C   UNL     1     -11.697  10.078  71.485  1.00  0.00    -0.280 C  
BRANCH  10  11
HETATM   11  C   UNL     1     -12.255  10.373  70.057  1.00  0.00    -0.189 C  
HETATM   12  O   UNL     1     -13.660  10.148  69.954  1.00  0.00    -0.267 OA 
HETATM   13  H   UNL     1     -14.000  10.328  69.086  1.00  0.00     0.000 HD 
BRANCH  11  14
HETATM   14  C   UNL     1     -11.889  11.773  69.587  1.00  0.00    -0.407 A  
HETATM   15  C   UNL     1     -11.177  12.088  68.417  1.00  0.00    -0.313 A  
HETATM   16 CL   UNL     1      -8.961   9.488  63.521  1.00  0.00    -0.242 Cl 
HETATM   17  C   UNL     1      -9.600  11.565  65.120  1.00  0.00    -0.235 A  
HETATM   18  C   UNL     1     -11.011  13.460  68.052  1.00  0.00    -0.265 A  
HETATM   19  C   UNL     1     -10.255  13.480  66.773  1.00  0.00    -0.264 C  
HETATM   20  C   UNL     1     -11.546  14.492  68.809  1.00  0.00    -0.343 A  
HETATM   21  C   UNL     1      -9.643  14.513  66.164  1.00  0.00    -0.325 C  
HETATM   22  C   UNL     1     -10.098  12.083  66.307  1.00  0.00    -0.247 A  
HETATM   23  C   UNL     1     -12.196  14.179  69.990  1.00  0.00    -0.357 A  
HETATM   24  C   UNL     1     -10.573  11.258  67.356  1.00  0.00    -0.262 A  
HETATM   25  C   UNL     1      -9.525  10.182  64.990  1.00  0.00    -0.271 A  
HETATM   26 CL   UNL     1     -12.844  15.440  70.970  1.00  0.00    -0.485 Cl 
HETATM   27  C   UNL     1     -12.362  12.849  70.380  1.00  0.00    -0.333 A  
HETATM   28  C   UNL     1      -9.904   9.346  66.045  1.00  0.00    -0.366 A  
HETATM   29  C   UNL     1     -10.414   9.884  67.231  1.00  0.00    -0.319 A  
BRANCH  21  30
HETATM   30  C   UNL     1      -9.600  15.884  66.674  1.00  0.00    -0.265 A  
HETATM   31  C   UNL     1      -9.750  18.423  67.818  1.00  0.00    -0.301 A  
HETATM   32 CL   UNL     1      -9.916  19.961  68.570  1.00  0.00    -0.519 Cl 
HETATM   33  C   UNL     1     -10.442  18.151  66.637  1.00  0.00    -0.354 A  
HETATM   34  C   UNL     1      -8.867  16.178  67.832  1.00  0.00    -0.182 A  
HETATM   35  C   UNL     1      -8.951  17.447  68.407  1.00  0.00    -0.277 A  
HETATM   36  C   UNL     1     -10.365  16.881  66.060  1.00  0.00    -0.335 A  
ENDBRANCH  21  30
ENDBRANCH  11  14
ENDBRANCH  10  11
ENDBRANCH   5  10
ENDBRANCH   4   5
ENDBRANCH   3   4
ENDBRANCH   2   3
TORSDOF 10
ENDMDL
MODEL       17
REMARK 921   NORMALIZED FREE ENERGY PREDICTED BY IDOCK:   -6.57 KCAL/MOL
REMARK 922        TOTAL FREE ENERGY PREDICTED BY IDOCK:  -12.49 KCAL/MOL
REMARK 923 INTER-LIGAND FREE ENERGY PREDICTED BY IDOCK:  -10.78 KCAL/MOL
REMARK 924 INTRA-LIGAND FREE ENERGY PREDICTED BY IDOCK:   -1.71 KCAL/MOL
REMARK 927      BINDING AFFINITY PREDICTED BY RF-SCORE:    0.00 PKD
ROOT
HETATM    1  C   UNL     1     -14.232  14.294  71.971  1.00  0.00    -0.631 C  
HETATM    2  C   UNL     1     -13.379  15.361  71.299  1.00  0.00    -0.598 C  
ENDROOT
BRANCH   2   3
HETATM    3  C   UNL     1     -12.436  14.727  70.278  1.00  0.00    -0.393 C  
BRANCH   3   4
HETATM    4  C   UNL     1     -11.616  15.743  69.469  1.00  0.00    -0.363 C  
BRANCH   4   5
HETATM    5  N   UNL     1     -11.496  15.521  68.012  1.00  0.00    -0.335 NA 
BRANCH   5   6
HETATM    6  C   UNL     1     -10.654  16.555  67.369  1.00  0.00    -0.300 C  
BRANCH   6   7
HETATM    7  C   UNL     1     -10.396  17.833  68.198  1.00  0.00    -0.393 C  
BRANCH   7   8
HETATM    8  C   UNL     1     -10.796  19.147  67.522  1.00  0.00    -0.512 C  
HETATM    9  C   UNL     1     -10.369  19.231  66.066  1.00  0.00    -0.556 C  
ENDBRANCH   7   8
ENDBRANCH   6   7
ENDBRANCH   5   6
BRANCH   5  10
HETATM   10  C   UNL     1     -10.928  14.164  67.774  1.00  0.00    -0.262 C  
BRANCH  10  11
HETATM   11  C   UNL     1     -11.826  13.151  66.997  1.00  0.00    -0.379 C  
HETATM   12  O   UNL     1     -12.515  13.749  65.900  1.00  0.00    -0.457 OA 
HETATM   13  H   UNL     1     -13.061  13.132  65.427  1.00  0.00     0.000 HD 
BRANCH  11  14
HETATM   14  C   UNL     1     -11.039  11.929  66.549  1.00  0.00    -0.357 A  
HETATM   15  C   UNL     1     -10.746  10.804  67.340  1.00  0.00    -0.317 A  
HETATM   16 CL   UNL     1     -11.996   8.471  72.691  1.00  0.00    -0.401 Cl 
HETATM   17  C   UNL     1     -10.935   8.490  70.210  1.00  0.00    -0.245 A  
HETATM   18  C   UNL     1     -10.094   9.683  66.740  1.00  0.00    -0.301 A  
HETATM   19  C   UNL     1      -9.945   8.650  67.797  1.00  0.00    -0.240 C  
HETATM   20  C   UNL     1      -9.754   9.663  65.395  1.00  0.00    -0.365 A  
HETATM   21  C   UNL     1      -9.186   7.538  67.798  1.00  0.00    -0.139 C  
HETATM   22  C   UNL     1     -10.654   9.123  69.008  1.00  0.00    -0.219 A  
HETATM   23  C   UNL     1      -9.993  10.795  64.635  1.00  0.00    -0.324 A  
HETATM   24  C   UNL     1     -11.045  10.459  68.744  1.00  0.00    -0.298 A  
HETATM   25  C   UNL     1     -11.581   9.223  71.201  1.00  0.00    -0.327 A  
HETATM   26 CL   UNL     1      -9.554  10.815  62.968  1.00  0.00    -0.346 Cl 
HETATM   27  C   UNL     1     -10.617  11.910  65.196  1.00  0.00    -0.333 A  
HETATM   28  C   UNL     1     -11.897  10.570  70.999  1.00  0.00    -0.438 A  
HETATM   29  C   UNL     1     -11.616  11.190  69.777  1.00  0.00    -0.409 A  
BRANCH  21  30
HETATM   30  C   UNL     1      -8.314   7.115  66.702  1.00  0.00    -0.114 A  
HETATM   31  C   UNL     1      -6.562   6.087  64.791  1.00  0.00    -0.038 A  
HETATM   32 CL   UNL     1      -5.455   5.391  63.674  1.00  0.00    -0.013 Cl 
HETATM   33  C   UNL     1      -6.127   7.081  65.669  1.00  0.00    -0.036 A  
HETATM   34  C   UNL     1      -8.759   6.153  65.785  1.00  0.00    -0.151 A  
HETATM   35  C   UNL     1      -7.877   5.634  64.835  1.00  0.00    -0.110 A  
HETATM   36  C   UNL     1      -7.005   7.600  66.624  1.00  0.00    -0.078 A  
ENDBRANCH  21  30
ENDBRANCH  11  14
ENDBRANCH  10  11
ENDBRANCH   5  10
ENDBRANCH   4   5
ENDBRANCH   3   4
ENDBRANCH   2   3
TORSDOF 10
ENDMDL
MODEL       18
REMARK 921   NORMALIZED FREE ENERGY PREDICTED BY IDOCK:   -6.43 KCAL/MOL
REMARK 922        TOTAL FREE ENERGY PREDICTED BY IDOCK:  -12.27 KCAL/MOL
REMARK 923 INTER-LIGAND FREE ENERGY PREDICTED BY IDOCK:  -10.28 KCAL/MOL
REMARK 924 INTRA-LIGAND FREE ENERGY PREDICTED BY IDOCK:   -1.99 KCAL/MOL
REMARK 927      BINDING AFFINITY PREDICTED BY RF-SCORE:    0.00 PKD
ROOT
HETATM    1  C   UNL     1      -6.490  18.762  67.721  1.00  0.00    -0.217 C  
HETATM    2  C   UNL     1      -6.124  17.779  66.618  1.00  0.00    -0.207 C  
ENDROOT
BRANCH   2   3
HETATM    3  C   UNL     1      -7.381  17.131  66.041  1.00  0.00    -0.170 C  
BRANCH   3   4
HETATM    4  C   UNL     1      -7.910  15.948  66.864  1.00  0.00    -0.247 C  
BRANCH   4   5
HETATM    5  N   UNL     1      -9.365  15.892  67.127  1.00  0.00    -0.209 NA 
BRANCH   5   6
HETATM    6  C   UNL     1      -9.850  17.128  67.779  1.00  0.00    -0.274 C  
BRANCH   6   7
HETATM    7  C   UNL     1     -10.759  18.036  66.923  1.00  0.00    -0.214 C  
BRANCH   7   8
HETATM    8  C   UNL     1     -10.833  19.500  67.366  1.00  0.00    -0.536 C  
HETATM    9  C   UNL     1      -9.681  20.345  66.849  1.00  0.00    -0.567 C  
ENDBRANCH   7   8
ENDBRANCH   6   7
ENDBRANCH   5   6
BRANCH   5  10
HETATM   10  C   UNL     1     -10.080  15.666  65.840  1.00  0.00    -0.353 C  
BRANCH  10  11
HETATM   11  C   UNL     1     -11.357  14.769  65.891  1.00  0.00    -0.331 C  
HETATM   12  O   UNL     1     -12.021  14.678  64.631  1.00  0.00    -0.431 OA 
HETATM   13  H   UNL     1     -12.798  14.132  64.663  1.00  0.00     0.000 HD 
BRANCH  11  14
HETATM   14  C   UNL     1     -11.052  13.387  66.449  1.00  0.00    -0.312 A  
HETATM   15  C   UNL     1     -11.274  12.967  67.773  1.00  0.00    -0.313 A  
HETATM   16 CL   UNL     1     -13.774  14.854  72.855  1.00  0.00    -0.494 Cl 
HETATM   17  C   UNL     1     -12.572  13.069  71.228  1.00  0.00    -0.373 A  
HETATM   18  C   UNL     1     -11.042  11.600  68.117  1.00  0.00    -0.298 A  
HETATM   19  C   UNL     1     -11.387  11.449  69.554  1.00  0.00    -0.357 C  
HETATM   20  C   UNL     1     -10.619  10.667  67.180  1.00  0.00    -0.312 A  
HETATM   21  C   UNL     1     -11.106  10.435  70.394  1.00  0.00    -0.371 C  
HETATM   22  C   UNL     1     -11.969  12.727  70.026  1.00  0.00    -0.371 A  
HETATM   23  C   UNL     1     -10.347  11.098  65.893  1.00  0.00    -0.259 A  
HETATM   24  C   UNL     1     -11.803  13.654  68.968  1.00  0.00    -0.393 A  
HETATM   25  C   UNL     1     -12.978  14.388  71.404  1.00  0.00    -0.335 A  
HETATM   26 CL   UNL     1      -9.789   9.972  64.714  1.00  0.00    -0.379 Cl 
HETATM   27  C   UNL     1     -10.551  12.431  65.531  1.00  0.00    -0.307 A  
HETATM   28  C   UNL     1     -12.744  15.344  70.410  1.00  0.00    -0.407 A  
HETATM   29  C   UNL     1     -12.145  14.980  69.200  1.00  0.00    -0.261 A  
BRANCH  21  30
HETATM   30  C   UNL     1     -10.365   9.226  70.033  1.00  0.00    -0.245 A  
HETATM   31  C   UNL     1      -8.943   7.030  69.068  1.00  0.00    -0.133 A  
HETATM   32 CL   UNL     1      -8.070   5.712  68.390  1.00  0.00    -0.102 Cl 
HETATM   33  C   UNL     1     -10.337   7.000  69.087  1.00  0.00    -0.209 A  
HETATM   34  C   UNL     1      -8.964   9.229  70.058  1.00  0.00    -0.216 A  
HETATM   35  C   UNL     1      -8.255   8.132  69.567  1.00  0.00    -0.121 A  
HETATM   36  C   UNL     1     -11.052   8.097  69.574  1.00  0.00     0.040 A  
ENDBRANCH  21  30
ENDBRANCH  11  14
ENDBRANCH  10  11
ENDBRANCH   5  10
ENDBRANCH   4   5
ENDBRANCH   3   4
ENDBRANCH   2   3
TORSDOF 10
ENDMDL
MODEL       19
REMARK 921   NORMALIZED FREE ENERGY PREDICTED BY IDOCK:   -6.42 KCAL/MOL
REMARK 922        TOTAL FREE ENERGY PREDICTED BY IDOCK:  -12.26 KCAL/MOL
REMARK 923 INTER-LIGAND FREE ENERGY PREDICTED BY IDOCK:   -9.31 KCAL/MOL
REMARK 924 INTRA-LIGAND FREE ENERGY PREDICTED BY IDOCK:   -2.95 KCAL/MOL
REMARK 927      BINDING AFFINITY PREDICTED BY RF-SCORE:    0.00 PKD
ROOT
HETATM    1  C   UNL     1     -11.682  13.231  69.615  1.00  0.00    -0.369 C  
HETATM    2  C   UNL     1     -11.382  14.708  69.829  1.00  0.00    -0.315 C  
ENDROOT
BRANCH   2   3
HETATM    3  C   UNL     1     -11.623  15.494  68.543  1.00  0.00    -0.379 C  
BRANCH   3   4
HETATM    4  C   UNL     1     -10.740  16.742  68.396  1.00  0.00    -0.362 C  
BRANCH   4   5
HETATM    5  N   UNL     1      -9.921  16.862  67.170  1.00  0.00    -0.268 NA 
BRANCH   5   6
HETATM    6  C   UNL     1     -10.202  18.121  66.446  1.00  0.00    -0.399 C  
BRANCH   6   7
HETATM    7  C   UNL     1     -10.710  19.300  67.306  1.00  0.00    -0.594 C  
BRANCH   7   8
HETATM    8  C   UNL     1      -9.689  20.411  67.567  1.00  0.00    -0.571 C  
HETATM    9  C   UNL     1      -8.435  20.289  66.718  1.00  0.00    -0.326 C  
ENDBRANCH   7   8
ENDBRANCH   6   7
ENDBRANCH   5   6
BRANCH   5  10
HETATM   10  C   UNL     1      -8.480  16.784  67.542  1.00  0.00    -0.192 C  
BRANCH  10  11
HETATM   11  C   UNL     1      -7.632  15.672  66.847  1.00  0.00    -0.166 C  
HETATM   12  O   UNL     1      -6.262  16.038  66.690  1.00  0.00    -0.206 OA 
HETATM   13  H   UNL     1      -5.746  15.361  66.268  1.00  0.00     0.000 HD 
BRANCH  11  14
HETATM   14  C   UNL     1      -7.763  14.336  67.562  1.00  0.00    -0.208 A  
HETATM   15  C   UNL     1      -8.682  13.320  67.244  1.00  0.00    -0.214 A  
HETATM   16 CL   UNL     1     -12.774  11.919  63.130  1.00  0.00    -0.522 Cl 
HETATM   17  C   UNL     1     -11.216  11.481  65.288  1.00  0.00    -0.203 A  
HETATM   18  C   UNL     1      -8.605  12.072  67.936  1.00  0.00    -0.165 A  
HETATM   19  C   UNL     1      -9.667  11.198  67.374  1.00  0.00    -0.191 C  
HETATM   20  C   UNL     1      -7.640  11.824  68.902  1.00  0.00    -0.063 A  
HETATM   21  C   UNL     1     -10.157  10.039  67.854  1.00  0.00    -0.203 C  
HETATM   22  C   UNL     1     -10.288  11.903  66.229  1.00  0.00    -0.259 A  
HETATM   23  C   UNL     1      -6.776  12.847  69.251  1.00  0.00    -0.061 A  
HETATM   24  C   UNL     1      -9.748  13.213  66.229  1.00  0.00    -0.269 A  
HETATM   25  C   UNL     1     -11.661  12.404  64.347  1.00  0.00    -0.354 A  
HETATM   26 CL   UNL     1      -5.586  12.583  70.470  1.00  0.00    -0.162 Cl 
HETATM   27  C   UNL     1      -6.835  14.082  68.602  1.00  0.00    -0.103 A  
HETATM   28  C   UNL     1     -11.211  13.728  64.380  1.00  0.00    -0.364 A  
HETATM   29  C   UNL     1     -10.268  14.134  65.329  1.00  0.00    -0.400 A  
BRANCH  21  30
HETATM   30  C   UNL     1      -9.714   9.386  69.086  1.00  0.00    -0.165 A  
HETATM   31  C   UNL     1      -8.714   8.388  71.490  1.00  0.00    -0.176 A  
HETATM   32 CL   UNL     1      -8.046   7.848  72.981  1.00  0.00    -0.179 Cl 
HETATM   33  C   UNL     1      -8.043   8.123  70.296  1.00  0.00    -0.109 A  
HETATM   34  C   UNL     1     -10.410   9.606  70.283  1.00  0.00    -0.336 A  
HETATM   35  C   UNL     1      -9.902   9.112  71.486  1.00  0.00    -0.335 A  
HETATM   36  C   UNL     1      -8.546   8.619  69.090  1.00  0.00    -0.129 A  
ENDBRANCH  21  30
ENDBRANCH  11  14
ENDBRANCH  10  11
ENDBRANCH   5  10
ENDBRANCH   4   5
ENDBRANCH   3   4
ENDBRANCH   2   3
TORSDOF 10
ENDMDL
MODEL       20
REMARK 921   NORMALIZED FREE ENERGY PREDICTED BY IDOCK:   -6.42 KCAL/MOL
REMARK 922        TOTAL FREE ENERGY PREDICTED BY IDOCK:  -12.25 KCAL/MOL
REMARK 923 INTER-LIGAND FREE ENERGY PREDICTED BY IDOCK:  -10.54 KCAL/MOL
REMARK 924 INTRA-LIGAND FREE ENERGY PREDICTED BY IDOCK:   -1.71 KCAL/MOL
REMARK 927      BINDING AFFINITY PREDICTED BY RF-SCORE:    0.00 PKD
ROOT
HETATM    1  C   UNL     1     -12.328  12.222  63.470  1.00  0.00    -0.670 C  
HETATM    2  C   UNL     1     -12.583  13.052  64.720  1.00  0.00    -0.460 C  
ENDROOT
BRANCH   2   3
HETATM    3  C   UNL     1     -11.447  14.048  64.941  1.00  0.00    -0.358 C  
BRANCH   3   4
HETATM    4  C   UNL     1     -10.857  14.020  66.359  1.00  0.00    -0.299 C  
BRANCH   4   5
HETATM    5  N   UNL     1      -9.424  13.679  66.498  1.00  0.00    -0.272 NA 
BRANCH   5   6
HETATM    6  C   UNL     1      -8.677  14.737  67.214  1.00  0.00    -0.210 C  
BRANCH   6   7
HETATM    7  C   UNL     1      -9.492  15.586  68.214  1.00  0.00    -0.200 C  
BRANCH   7   8
HETATM    8  C   UNL     1      -9.294  17.101  68.107  1.00  0.00    -0.264 C  
HETATM    9  C   UNL     1     -10.589  17.864  67.884  1.00  0.00    -0.387 C  
ENDBRANCH   7   8
ENDBRANCH   6   7
ENDBRANCH   5   6
BRANCH   5  10
HETATM   10  C   UNL     1      -9.305  12.379  67.218  1.00  0.00    -0.184 C  
BRANCH  10  11
HETATM   11  C   UNL     1     -10.327  11.264  66.831  1.00  0.00    -0.234 C  
HETATM   12  O   UNL     1     -10.068  10.697  65.548  1.00  0.00    -0.255 OA 
HETATM   13  H   UNL     1     -10.689  10.018  65.312  1.00  0.00     0.000 HD 
BRANCH  11  14
HETATM   14  C   UNL     1     -10.413  10.184  67.899  1.00  0.00    -0.265 A  
HETATM   15  C   UNL     1     -11.016  10.323  69.162  1.00  0.00    -0.280 A  
HETATM   16 CL   UNL     1     -14.283  14.197  72.317  1.00  0.00    -0.621 Cl 
HETATM   17  C   UNL     1     -13.062  11.840  71.834  1.00  0.00    -0.482 A  
HETATM   18  C   UNL     1     -11.118   9.179  70.013  1.00  0.00    -0.208 A  
HETATM   19  C   UNL     1     -11.817   9.619  71.247  1.00  0.00    -0.460 C  
HETATM   20  C   UNL     1     -10.655   7.930  69.625  1.00  0.00    -0.234 A  
HETATM   21  C   UNL     1     -11.928   8.987  72.432  1.00  0.00    -0.255 C  
HETATM   22  C   UNL     1     -12.260  11.019  71.055  1.00  0.00    -0.456 A  
HETATM   23  C   UNL     1     -10.011   7.812  68.405  1.00  0.00    -0.178 A  
HETATM   24  C   UNL     1     -11.685  11.453  69.836  1.00  0.00    -0.424 A  
HETATM   25  C   UNL     1     -13.259  13.152  71.414  1.00  0.00    -0.207 A  
HETATM   26 CL   UNL     1      -9.396   6.281  67.908  1.00  0.00    -0.115 Cl 
HETATM   27  C   UNL     1      -9.884   8.914  67.558  1.00  0.00    -0.237 A  
HETATM   28  C   UNL     1     -12.630  13.632  70.261  1.00  0.00    -0.253 A  
HETATM   29  C   UNL     1     -11.832  12.788  69.482  1.00  0.00    -0.379 A  
BRANCH  21  30
HETATM   30  C   UNL     1     -11.349   7.681  72.745  1.00  0.00    -0.419 A  
HETATM   31  C   UNL     1     -10.115   5.202  73.075  1.00  0.00    -0.169 A  
HETATM   32 CL   UNL     1      -9.322   3.680  73.193  1.00  0.00    -0.117 Cl 
HETATM   33  C   UNL     1     -11.405   5.270  72.547  1.00  0.00    -0.245 A  
HETATM   34  C   UNL     1     -10.073   7.601  73.321  1.00  0.00    -0.393 A  
HETATM   35  C   UNL     1      -9.455   6.359  73.477  1.00  0.00    -0.156 A  
HETATM   36  C   UNL     1     -12.026   6.512  72.386  1.00  0.00    -0.199 A  
ENDBRANCH  21  30
ENDBRANCH  11  14
ENDBRANCH  10  11
ENDBRANCH   5  10
ENDBRANCH   4   5
ENDBRANCH   3   4
ENDBRANCH   2   3
TORSDOF 10
ENDMDL
MODEL       21
REMARK 921   NORMALIZED FREE ENERGY PREDICTED BY IDOCK:   -6.37 KCAL/MOL
REMARK 922        TOTAL FREE ENERGY PREDICTED BY IDOCK:  -12.18 KCAL/MOL
REMARK 923 INTER-LIGAND FREE ENERGY PREDICTED BY IDOCK:   -9.38 KCAL/MOL
REMARK 924 INTRA-LIGAND FREE ENERGY PREDICTED BY IDOCK:   -2.80 KCAL/MOL
REMARK 927      BINDING AFFINITY PREDICTED BY RF-SCORE:    0.00 PKD
ROOT
HETATM    1  C   UNL     1      -7.596   9.910  70.363  1.00  0.00    -0.118 C  
HETATM    2  C   UNL     1      -7.604   8.612  71.158  1.00  0.00    -0.120 C  
ENDROOT
BRANCH   2   3
HETATM    3  C   UNL     1      -8.756   8.606  72.161  1.00  0.00    -0.217 C  
BRANCH   3   4
HETATM    4  C   UNL     1      -9.194   7.202  72.603  1.00  0.00    -0.138 C  
BRANCH   4   5
HETATM    5  N   UNL     1     -10.582   6.790  72.298  1.00  0.00    -0.209 NA 
BRANCH   5   6
HETATM    6  C   UNL     1     -10.937   5.523  72.975  1.00  0.00    -0.290 C  
BRANCH   6   7
HETATM    7  C   UNL     1      -9.792   4.500  73.146  1.00  0.00    -0.168 C  
BRANCH   7   8
HETATM    8  C   UNL     1     -10.153   3.048  72.821  1.00  0.00    -0.226 C  
HETATM    9  C   UNL     1     -11.362   2.541  73.589  1.00  0.00    -0.300 C  
ENDBRANCH   7   8
ENDBRANCH   6   7
ENDBRANCH   5   6
BRANCH   5  10
HETATM   10  C   UNL     1     -11.511   7.880  72.711  1.00  0.00    -0.368 C  
BRANCH  10  11
HETATM   11  C   UNL     1     -12.583   8.325  71.666  1.00  0.00    -0.327 C  
HETATM   12  O   UNL     1     -13.916   8.226  72.163  1.00  0.00    -0.464 OA 
HETATM   13  H   UNL     1     -14.568   8.497  71.527  1.00  0.00     0.000 HD 
BRANCH  11  14
HETATM   14  C   UNL     1     -12.301   9.720  71.131  1.00  0.00    -0.451 A  
HETATM   15  C   UNL     1     -11.546  10.025  69.984  1.00  0.00    -0.279 A  
HETATM   16 CL   UNL     1      -8.842   7.337  65.390  1.00  0.00    -0.000 Cl 
HETATM   17  C   UNL     1      -9.737   9.444  66.818  1.00  0.00    -0.257 A  
HETATM   18  C   UNL     1     -11.467  11.382  69.543  1.00  0.00    -0.381 A  
HETATM   19  C   UNL     1     -10.639  11.390  68.310  1.00  0.00    -0.224 C  
HETATM   20  C   UNL     1     -12.126  12.409  70.204  1.00  0.00    -0.366 A  
HETATM   21  C   UNL     1     -10.075  12.433  67.672  1.00  0.00    -0.199 C  
HETATM   22  C   UNL     1     -10.345   9.987  67.941  1.00  0.00    -0.249 A  
HETATM   23  C   UNL     1     -12.820  12.112  71.364  1.00  0.00    -0.276 A  
HETATM   24  C   UNL     1     -10.817   9.187  69.011  1.00  0.00    -0.115 A  
HETATM   25  C   UNL     1      -9.547   8.066  66.779  1.00  0.00    -0.216 A  
HETATM   26 CL   UNL     1     -13.622  13.370  72.226  1.00  0.00    -0.656 Cl 
HETATM   27  C   UNL     1     -12.904  10.798  71.826  1.00  0.00    -0.528 A  
HETATM   28  C   UNL     1      -9.921   7.264  67.862  1.00  0.00    -0.192 A  
HETATM   29  C   UNL     1     -10.542   7.827  68.982  1.00  0.00    -0.179 A  
BRANCH  21  30
HETATM   30  C   UNL     1     -10.171  13.830  68.097  1.00  0.00    -0.253 A  
HETATM   31  C   UNL     1     -10.195  16.560  68.665  1.00  0.00    -0.264 A  
HETATM   32 CL   UNL     1     -10.156  18.257  68.943  1.00  0.00    -0.402 Cl 
HETATM   33  C   UNL     1      -9.195  15.748  69.202  1.00  0.00    -0.256 A  
HETATM   34  C   UNL     1     -11.201  14.643  67.603  1.00  0.00    -0.332 A  
HETATM   35  C   UNL     1     -11.205  16.011  67.882  1.00  0.00    -0.276 A  
HETATM   36  C   UNL     1      -9.185  14.379  68.922  1.00  0.00    -0.084 A  
ENDBRANCH  21  30
ENDBRANCH  11  14
ENDBRANCH  10  11
ENDBRANCH   5  10
ENDBRANCH   4   5
ENDBRANCH   3   4
ENDBRANCH   2   3
TORSDOF 10
ENDMDL
MODEL       22
REMARK 921   NORMALIZED FREE ENERGY PREDICTED BY IDOCK:   -6.36 KCAL/MOL
REMARK 922        TOTAL FREE ENERGY PREDICTED BY IDOCK:  -12.17 KCAL/MOL
REMARK 923 INTER-LIGAND FREE ENERGY PREDICTED BY IDOCK:   -8.86 KCAL/MOL
REMARK 924 INTRA-LIGAND FREE ENERGY PREDICTED BY IDOCK:   -3.31 KCAL/MOL
REMARK 927      BINDING AFFINITY PREDICTED BY RF-SCORE:    0.00 PKD
ROOT
HETATM    1  C   UNL     1      -6.956   9.523  69.928  1.00  0.00    -0.078 C  
HETATM    2  C   UNL     1      -7.593   8.397  70.729  1.00  0.00    -0.071 C  
ENDROOT
BRANCH   2   3
HETATM    3  C   UNL     1      -8.634   8.953  71.698  1.00  0.00    -0.160 C  
BRANCH   3   4
HETATM    4  C   UNL     1      -9.282   7.891  72.598  1.00  0.00    -0.208 C  
BRANCH   4   5
HETATM    5  N   UNL     1     -10.600   7.357  72.189  1.00  0.00    -0.214 NA 
BRANCH   5   6
HETATM    6  C   UNL     1     -10.910   6.083  72.875  1.00  0.00    -0.258 C  
BRANCH   6   7
HETATM    7  C   UNL     1     -10.403   4.798  72.185  1.00  0.00    -0.256 C  
BRANCH   7   8
HETATM    8  C   UNL     1     -10.205   4.899  70.670  1.00  0.00    -0.282 C  
HETATM    9  C   UNL     1      -8.745   4.880  70.250  1.00  0.00    -0.122 C  
ENDBRANCH   7   8
ENDBRANCH   6   7
ENDBRANCH   5   6
BRANCH   5  10
HETATM   10  C   UNL     1     -11.647   8.376  72.482  1.00  0.00    -0.356 C  
BRANCH  10  11
HETATM   11  C   UNL     1     -12.585   8.782  71.302  1.00  0.00    -0.246 C  
HETATM   12  O   UNL     1     -13.966   8.761  71.659  1.00  0.00    -0.399 OA 
HETATM   13  H   UNL     1     -14.536   9.008  70.941  1.00  0.00     0.000 HD 
BRANCH  11  14
HETATM   14  C   UNL     1     -12.193  10.127  70.709  1.00  0.00    -0.434 A  
HETATM   15  C   UNL     1     -11.374  10.322  69.583  1.00  0.00    -0.315 A  
HETATM   16 CL   UNL     1      -8.658   7.231  65.258  1.00  0.00    -0.060 Cl 
HETATM   17  C   UNL     1      -9.476   9.462  66.535  1.00  0.00    -0.246 A  
HETATM   18  C   UNL     1     -11.191  11.646  69.077  1.00  0.00    -0.323 A  
HETATM   19  C   UNL     1     -10.314  11.538  67.883  1.00  0.00    -0.203 C  
HETATM   20  C   UNL     1     -11.811  12.746  69.654  1.00  0.00    -0.384 A  
HETATM   21  C   UNL     1      -9.659  12.508  67.219  1.00  0.00    -0.205 C  
HETATM   22  C   UNL     1     -10.094  10.101  67.600  1.00  0.00    -0.231 A  
HETATM   23  C   UNL     1     -12.569  12.555  70.796  1.00  0.00    -0.212 A  
HETATM   24  C   UNL     1     -10.659   9.390  68.688  1.00  0.00    -0.230 A  
HETATM   25  C   UNL     1      -9.371   8.075  66.576  1.00  0.00    -0.205 A  
HETATM   26 CL   UNL     1     -13.326  13.904  71.556  1.00  0.00    -0.416 Cl 
HETATM   27  C   UNL     1     -12.755  11.275  71.321  1.00  0.00    -0.510 A  
HETATM   28  C   UNL     1      -9.841   7.357  67.680  1.00  0.00    -0.194 A  
HETATM   29  C   UNL     1     -10.470   8.016  68.741  1.00  0.00    -0.196 A  
BRANCH  21  30
HETATM   30  C   UNL     1      -9.685  13.929  67.567  1.00  0.00    -0.232 A  
HETATM   31  C   UNL     1      -9.930  16.566  68.440  1.00  0.00    -0.250 A  
HETATM   32 CL   UNL     1     -10.145  18.165  69.038  1.00  0.00    -0.359 Cl 
HETATM   33  C   UNL     1     -10.743  16.099  67.408  1.00  0.00    -0.291 A  
HETATM   34  C   UNL     1      -8.836  14.420  68.569  1.00  0.00    -0.182 A  
HETATM   35  C   UNL     1      -8.968  15.738  69.010  1.00  0.00    -0.246 A  
HETATM   36  C   UNL     1     -10.618  14.779  66.966  1.00  0.00    -0.290 A  
ENDBRANCH  21  30
ENDBRANCH  11  14
ENDBRANCH  10  11
ENDBRANCH   5  10
ENDBRANCH   4   5
ENDBRANCH   3   4
ENDBRANCH   2   3
TORSDOF 10
ENDMDL
MODEL       23
REMARK 921   NORMALIZED FREE ENERGY PREDICTED BY IDOCK:   -6.36 KCAL/MOL
REMARK 922        TOTAL FREE ENERGY PREDICTED BY IDOCK:  -12.16 KCAL/MOL
REMARK 923 INTER-LIGAND FREE ENERGY PREDICTED BY IDOCK:  -10.83 KCAL/MOL
REMARK 924 INTRA-LIGAND FREE ENERGY PREDICTED BY IDOCK:   -1.34 KCAL/MOL
REMARK 927      BINDING AFFINITY PREDICTED BY RF-SCORE:    0.00 PKD
ROOT
HETATM    1  C   UNL     1     -11.901  16.224  71.906  1.00  0.00    -0.538 C  
HETATM    2  C   UNL     1     -11.295  15.441  70.750  1.00  0.00    -0.376 C  
ENDROOT
BRANCH   2   3
HETATM    3  C   UNL     1     -11.451  16.213  69.441  1.00  0.00    -0.296 C  
BRANCH   3   4
HETATM    4  C   UNL     1     -10.488  15.766  68.332  1.00  0.00    -0.245 C  
BRANCH   4   5
HETATM    5  N   UNL     1     -10.924  15.950  66.930  1.00  0.00    -0.236 NA 
BRANCH   5   6
HETATM    6  C   UNL     1     -10.038  16.883  66.200  1.00  0.00    -0.333 C  
BRANCH   6   7
HETATM    7  C   UNL     1     -10.476  18.364  66.183  1.00  0.00    -0.422 C  
BRANCH   7   8
HETATM    8  C   UNL     1      -9.374  19.380  66.494  1.00  0.00    -0.414 C  
HETATM    9  C   UNL     1      -9.780  20.407  67.538  1.00  0.00    -0.571 C  
ENDBRANCH   7   8
ENDBRANCH   6   7
ENDBRANCH   5   6
BRANCH   5  10
HETATM   10  C   UNL     1     -10.953  14.621  66.255  1.00  0.00    -0.327 C  
BRANCH  10  11
HETATM   11  C   UNL     1     -12.197  13.718  66.531  1.00  0.00    -0.430 C  
HETATM   12  O   UNL     1     -12.819  13.253  65.334  1.00  0.00    -0.569 OA 
HETATM   13  H   UNL     1     -13.575  12.703  65.502  1.00  0.00     0.000 HD 
BRANCH  11  14
HETATM   14  C   UNL     1     -11.857  12.560  67.456  1.00  0.00    -0.389 A  
HETATM   15  C   UNL     1     -11.119  11.416  67.106  1.00  0.00    -0.366 A  
HETATM   16 CL   UNL     1      -7.927   9.191  62.579  1.00  0.00    -0.122 Cl 
HETATM   17  C   UNL     1      -8.931   9.237  65.082  1.00  0.00    -0.257 A  
HETATM   18  C   UNL     1     -10.784  10.467  68.120  1.00  0.00    -0.277 A  
HETATM   19  C   UNL     1      -9.987   9.397  67.467  1.00  0.00    -0.250 C  
HETATM   20  C   UNL     1     -11.151  10.647  69.446  1.00  0.00    -0.315 A  
HETATM   21  C   UNL     1      -9.658   8.177  67.934  1.00  0.00    -0.179 C  
HETATM   22  C   UNL     1      -9.730   9.802  66.066  1.00  0.00    -0.319 A  
HETATM   23  C   UNL     1     -11.927  11.745  69.775  1.00  0.00    -0.322 A  
HETATM   24  C   UNL     1     -10.499  10.970  65.842  1.00  0.00    -0.300 A  
HETATM   25  C   UNL     1      -8.936   9.822  63.820  1.00  0.00    -0.240 A  
HETATM   26 CL   UNL     1     -12.428  11.981  71.407  1.00  0.00    -0.313 Cl 
HETATM   27  C   UNL     1     -12.281  12.682  68.803  1.00  0.00     0.018 A  
HETATM   28  C   UNL     1      -9.754  10.923  63.548  1.00  0.00    -0.384 A  
HETATM   29  C   UNL     1     -10.546  11.486  64.554  1.00  0.00    -0.387 A  
BRANCH  21  30
HETATM   30  C   UNL     1     -10.046   7.645  69.240  1.00  0.00    -0.190 A  
HETATM   31  C   UNL     1     -10.617   6.391  71.665  1.00  0.00    -0.222 A  
HETATM   32 CL   UNL     1     -10.922   5.547  73.132  1.00  0.00    -0.317 Cl 
HETATM   33  C   UNL     1     -11.462   6.203  70.570  1.00  0.00    -0.330 A  
HETATM   34  C   UNL     1      -9.230   7.870  70.358  1.00  0.00    -0.158 A  
HETATM   35  C   UNL     1      -9.515   7.235  71.568  1.00  0.00    -0.160 A  
HETATM   36  C   UNL     1     -11.179   6.834  69.356  1.00  0.00    -0.288 A  
ENDBRANCH  21  30
ENDBRANCH  11  14
ENDBRANCH  10  11
ENDBRANCH   5  10
ENDBRANCH   4   5
ENDBRANCH   3   4
ENDBRANCH   2   3
TORSDOF 10
ENDMDL
MODEL       24
REMARK 921   NORMALIZED FREE ENERGY PREDICTED BY IDOCK:   -6.33 KCAL/MOL
REMARK 922        TOTAL FREE ENERGY PREDICTED BY IDOCK:  -12.11 KCAL/MOL
REMARK 923 INTER-LIGAND FREE ENERGY PREDICTED BY IDOCK:   -9.14 KCAL/MOL
REMARK 924 INTRA-LIGAND FREE ENERGY PREDICTED BY IDOCK:   -2.97 KCAL/MOL
REMARK 927      BINDING AFFINITY PREDICTED BY RF-SCORE:    0.00 PKD
ROOT
HETATM    1  C   UNL     1     -11.711  14.065  69.364  1.00  0.00    -0.365 C  
HETATM    2  C   UNL     1     -11.734  12.600  69.775  1.00  0.00    -0.354 C  
ENDROOT
BRANCH   2   3
HETATM    3  C   UNL     1     -11.765  11.699  68.543  1.00  0.00    -0.378 C  
BRANCH   3   4
HETATM    4  C   UNL     1     -11.245  10.276  68.794  1.00  0.00    -0.206 C  
BRANCH   4   5
HETATM    5  N   UNL     1      -9.869  10.131  69.316  1.00  0.00    -0.209 NA 
BRANCH   5   6
HETATM    6  C   UNL     1      -9.843   9.373  70.586  1.00  0.00    -0.276 C  
BRANCH   6   7
HETATM    7  C   UNL     1     -11.136   8.609  70.948  1.00  0.00    -0.310 C  
BRANCH   7   8
HETATM    8  C   UNL     1     -11.848   9.086  72.217  1.00  0.00    -0.306 C  
HETATM    9  C   UNL     1     -13.157   9.807  71.938  1.00  0.00    -0.544 C  
ENDBRANCH   7   8
ENDBRANCH   6   7
ENDBRANCH   5   6
BRANCH   5  10
HETATM   10  C   UNL     1      -9.031   9.452  68.287  1.00  0.00    -0.128 C  
BRANCH  10  11
HETATM   11  C   UNL     1      -7.642  10.094  67.975  1.00  0.00    -0.088 C  
HETATM   12  O   UNL     1      -7.096   9.653  66.732  1.00  0.00    -0.084 OA 
HETATM   13  H   UNL     1      -6.251  10.044  66.542  1.00  0.00     0.000 HD 
BRANCH  11  14
HETATM   14  C   UNL     1      -7.695  11.612  68.042  1.00  0.00    -0.121 A  
HETATM   15  C   UNL     1      -8.486  12.444  67.228  1.00  0.00    -0.183 A  
HETATM   16 CL   UNL     1     -12.773  12.125  63.087  1.00  0.00    -0.448 Cl 
HETATM   17  C   UNL     1     -11.116  13.374  64.811  1.00  0.00    -0.363 A  
HETATM   18  C   UNL     1      -8.513  13.849  67.490  1.00  0.00    -0.200 A  
HETATM   19  C   UNL     1      -9.444  14.455  66.504  1.00  0.00    -0.309 C  
HETATM   20  C   UNL     1      -7.796  14.417  68.533  1.00  0.00    -0.138 A  
HETATM   21  C   UNL     1      -9.614  15.751  66.181  1.00  0.00    -0.364 C  
HETATM   22  C   UNL     1     -10.085  13.361  65.739  1.00  0.00    -0.297 A  
HETATM   23  C   UNL     1      -6.975  13.602  69.293  1.00  0.00    -0.025 A  
HETATM   24  C   UNL     1      -9.424  12.167  66.123  1.00  0.00    -0.231 A  
HETATM   25  C   UNL     1     -11.470  12.172  64.208  1.00  0.00    -0.367 A  
HETATM   26 CL   UNL     1      -6.046  14.282  70.576  1.00  0.00    -0.183 Cl 
HETATM   27  C   UNL     1      -6.917  12.228  69.053  1.00  0.00    -0.078 A  
HETATM   28  C   UNL     1     -10.774  10.995  64.503  1.00  0.00    -0.335 A  
HETATM   29  C   UNL     1      -9.743  10.997  65.448  1.00  0.00    -0.279 A  
BRANCH  21  30
HETATM   30  C   UNL     1      -8.873  16.868  66.768  1.00  0.00    -0.262 A  
HETATM   31  C   UNL     1      -7.607  19.172  67.698  1.00  0.00    -0.239 A  
HETATM   32 CL   UNL     1      -6.870  20.640  68.208  1.00  0.00    -0.257 Cl 
HETATM   33  C   UNL     1      -7.022  18.423  66.676  1.00  0.00    -0.233 A  
HETATM   34  C   UNL     1      -9.429  17.596  67.829  1.00  0.00    -0.260 A  
HETATM   35  C   UNL     1      -8.797  18.754  68.286  1.00  0.00    -0.363 A  
HETATM   36  C   UNL     1      -7.653  17.265  66.212  1.00  0.00    -0.360 A  
ENDBRANCH  21  30
ENDBRANCH  11  14
ENDBRANCH  10  11
ENDBRANCH   5  10
ENDBRANCH   4   5
ENDBRANCH   3   4
ENDBRANCH   2   3
TORSDOF 10
ENDMDL
MODEL       25
REMARK 921   NORMALIZED FREE ENERGY PREDICTED BY IDOCK:   -6.27 KCAL/MOL
REMARK 922        TOTAL FREE ENERGY PREDICTED BY IDOCK:  -12.02 KCAL/MOL
REMARK 923 INTER-LIGAND FREE ENERGY PREDICTED BY IDOCK:   -8.46 KCAL/MOL
REMARK 924 INTRA-LIGAND FREE ENERGY PREDICTED BY IDOCK:   -3.56 KCAL/MOL
REMARK 927      BINDING AFFINITY PREDICTED BY RF-SCORE:    0.00 PKD
ROOT
HETATM    1  C   UNL     1      -9.917   9.552  65.797  1.00  0.00    -0.316 C  
HETATM    2  C   UNL     1      -9.004   8.363  66.059  1.00  0.00    -0.228 C  
ENDROOT
BRANCH   2   3
HETATM    3  C   UNL     1      -9.694   7.349  66.969  1.00  0.00    -0.248 C  
BRANCH   3   4
HETATM    4  C   UNL     1      -8.734   6.357  67.642  1.00  0.00    -0.114 C  
BRANCH   4   5
HETATM    5  N   UNL     1      -8.572   6.448  69.110  1.00  0.00    -0.124 NA 
BRANCH   5   6
HETATM    6  C   UNL     1      -8.643   5.116  69.751  1.00  0.00    -0.096 C  
BRANCH   6   7
HETATM    7  C   UNL     1     -10.016   4.714  70.332  1.00  0.00    -0.300 C  
BRANCH   7   8
HETATM    8  C   UNL     1     -10.047   4.479  71.845  1.00  0.00    -0.258 C  
HETATM    9  C   UNL     1      -8.950   5.219  72.592  1.00  0.00    -0.135 C  
ENDBRANCH   7   8
ENDBRANCH   6   7
ENDBRANCH   5   6
BRANCH   5  10
HETATM   10  C   UNL     1      -7.269   7.104  69.413  1.00  0.00    -0.084 C  
BRANCH  10  11
HETATM   11  C   UNL     1      -7.315   8.385  70.304  1.00  0.00    -0.055 C  
HETATM   12  O   UNL     1      -6.039   8.735  70.838  1.00  0.00    -0.034 OA 
HETATM   13  H   UNL     1      -6.068   9.515  71.380  1.00  0.00     0.000 HD 
BRANCH  11  14
HETATM   14  C   UNL     1      -7.940   9.560  69.567  1.00  0.00    -0.110 A  
HETATM   15  C   UNL     1      -9.280   9.976  69.668  1.00  0.00    -0.236 A  
HETATM   16 CL   UNL     1     -14.246   8.832  72.777  1.00  0.00    -0.295 Cl 
HETATM   17  C   UNL     1     -12.714  10.174  71.007  1.00  0.00    -0.481 A  
HETATM   18  C   UNL     1      -9.689  11.171  69.000  1.00  0.00    -0.113 A  
HETATM   19  C   UNL     1     -11.128  11.370  69.309  1.00  0.00    -0.313 C  
HETATM   20  C   UNL     1      -8.801  11.945  68.266  1.00  0.00    -0.174 A  
HETATM   21  C   UNL     1     -12.017  12.195  68.724  1.00  0.00    -0.292 C  
HETATM   22  C   UNL     1     -11.535  10.343  70.296  1.00  0.00    -0.406 A  
HETATM   23  C   UNL     1      -7.498  11.500  68.123  1.00  0.00    -0.101 A  
HETATM   24  C   UNL     1     -10.436   9.458  70.425  1.00  0.00    -0.311 A  
HETATM   25  C   UNL     1     -12.825   9.062  71.836  1.00  0.00    -0.387 A  
HETATM   26 CL   UNL     1      -6.378  12.421  67.191  1.00  0.00    -0.142 Cl 
HETATM   27  C   UNL     1      -7.072  10.330  68.753  1.00  0.00    -0.072 A  
HETATM   28  C   UNL     1     -11.790   8.125  71.913  1.00  0.00    -0.366 A  
HETATM   29  C   UNL     1     -10.604   8.316  71.196  1.00  0.00    -0.258 A  
BRANCH  21  30
HETATM   30  C   UNL     1     -11.720  13.099  67.613  1.00  0.00    -0.414 A  
HETATM   31  C   UNL     1     -11.439  14.903  65.505  1.00  0.00    -0.307 A  
HETATM   32 CL   UNL     1     -11.356  16.031  64.209  1.00  0.00    -0.319 Cl 
HETATM   33  C   UNL     1     -11.738  13.566  65.239  1.00  0.00    -0.341 A  
HETATM   34  C   UNL     1     -11.370  14.432  67.869  1.00  0.00    -0.322 A  
HETATM   35  C   UNL     1     -11.239  15.334  66.812  1.00  0.00    -0.241 A  
HETATM   36  C   UNL     1     -11.874  12.660  66.295  1.00  0.00    -0.471 A  
ENDBRANCH  21  30
ENDBRANCH  11  14
ENDBRANCH  10  11
ENDBRANCH   5  10
ENDBRANCH   4   5
ENDBRANCH   3   4
ENDBRANCH   2   3
TORSDOF 10
ENDMDL
MODEL       26
REMARK 921   NORMALIZED FREE ENERGY PREDICTED BY IDOCK:   -6.16 KCAL/MOL
REMARK 922        TOTAL FREE ENERGY PREDICTED BY IDOCK:  -11.84 KCAL/MOL
REMARK 923 INTER-LIGAND FREE ENERGY PREDICTED BY IDOCK:   -9.26 KCAL/MOL
REMARK 924 INTRA-LIGAND FREE ENERGY PREDICTED BY IDOCK:   -2.59 KCAL/MOL
REMARK 927      BINDING AFFINITY PREDICTED BY RF-SCORE:    0.00 PKD
ROOT
HETATM    1  C   UNL     1      -7.444  11.513  67.886  1.00  0.00    -0.103 C  
HETATM    2  C   UNL     1      -6.696  10.207  67.658  1.00  0.00    -0.075 C  
ENDROOT
BRANCH   2   3
HETATM    3  C   UNL     1      -6.516   9.457  68.976  1.00  0.00    -0.046 C  
BRANCH   3   4
HETATM    4  C   UNL     1      -6.878   7.966  68.902  1.00  0.00    -0.058 C  
BRANCH   4   5
HETATM    5  N   UNL     1      -7.607   7.496  67.704  1.00  0.00    -0.110 NA 
BRANCH   5   6
HETATM    6  C   UNL     1      -6.902   6.378  67.038  1.00  0.00    -0.066 C  
BRANCH   6   7
HETATM    7  C   UNL     1      -6.887   6.407  65.494  1.00  0.00    -0.048 C  
BRANCH   7   8
HETATM    8  C   UNL     1      -6.655   7.782  64.864  1.00  0.00    -0.047 C  
HETATM    9  C   UNL     1      -7.919   8.406  64.294  1.00  0.00    -0.149 C  
ENDBRANCH   7   8
ENDBRANCH   6   7
ENDBRANCH   5   6
BRANCH   5  10
HETATM   10  C   UNL     1      -8.980   7.080  68.106  1.00  0.00    -0.127 C  
BRANCH  10  11
HETATM   11  C   UNL     1     -10.167   7.901  67.509  1.00  0.00    -0.242 C  
HETATM   12  O   UNL     1     -11.281   7.084  67.152  1.00  0.00    -0.590 OA 
HETATM   13  H   UNL     1     -12.004   7.583  66.790  1.00  0.00     0.000 HD 
BRANCH  11  14
HETATM   14  C   UNL     1     -10.592   9.031  68.435  1.00  0.00    -0.200 A  
HETATM   15  C   UNL     1     -10.983  10.321  68.033  1.00  0.00    -0.345 A  
HETATM   16 CL   UNL     1     -12.148  13.460  63.091  1.00  0.00    -0.390 Cl 
HETATM   17  C   UNL     1     -12.020  13.032  65.752  1.00  0.00    -0.482 A  
HETATM   18  C   UNL     1     -11.466  11.239  69.016  1.00  0.00    -0.369 A  
HETATM   19  C   UNL     1     -11.825  12.490  68.301  1.00  0.00    -0.361 C  
HETATM   20  C   UNL     1     -11.577  10.892  70.355  1.00  0.00    -0.418 A  
HETATM   21  C   UNL     1     -12.083  13.712  68.804  1.00  0.00    -0.332 C  
HETATM   22  C   UNL     1     -11.682  12.249  66.847  1.00  0.00    -0.404 A  
HETATM   23  C   UNL     1     -11.137   9.641  70.753  1.00  0.00    -0.334 A  
HETATM   24  C   UNL     1     -11.083  10.972  66.712  1.00  0.00    -0.240 A  
HETATM   25  C   UNL     1     -11.707  12.552  64.484  1.00  0.00    -0.362 A  
HETATM   26 CL   UNL     1     -11.231   9.191  72.414  1.00  0.00    -0.031 Cl 
HETATM   27  C   UNL     1     -10.648   8.728  69.818  1.00  0.00    -0.227 A  
HETATM   28  C   UNL     1     -11.035  11.336  64.327  1.00  0.00    -0.358 A  
HETATM   29  C   UNL     1     -10.711  10.555  65.441  1.00  0.00    -0.038 A  
BRANCH  21  30
HETATM   30  C   UNL     1     -12.054  14.060  70.225  1.00  0.00    -0.425 A  
HETATM   31  C   UNL     1     -12.172  14.952  72.864  1.00  0.00    -0.295 A  
HETATM   32 CL   UNL     1     -12.293  15.574  74.463  1.00  0.00    -0.808 Cl 
HETATM   33  C   UNL     1     -11.138  15.382  72.032  1.00  0.00    -0.199 A  
HETATM   34  C   UNL     1     -13.060  13.592  71.081  1.00  0.00    -0.285 A  
HETATM   35  C   UNL     1     -13.121  14.047  72.399  1.00  0.00    -0.536 A  
HETATM   36  C   UNL     1     -11.075  14.932  70.710  1.00  0.00    -0.157 A  
ENDBRANCH  21  30
ENDBRANCH  11  14
ENDBRANCH  10  11
ENDBRANCH   5  10
ENDBRANCH   4   5
ENDBRANCH   3   4
ENDBRANCH   2   3
TORSDOF 10
ENDMDL
MODEL       27
REMARK 921   NORMALIZED FREE ENERGY PREDICTED BY IDOCK:   -6.09 KCAL/MOL
REMARK 922        TOTAL FREE ENERGY PREDICTED BY IDOCK:  -11.74 KCAL/MOL
REMARK 923 INTER-LIGAND FREE ENERGY PREDICTED BY IDOCK:  -10.28 KCAL/MOL
REMARK 924 INTRA-LIGAND FREE ENERGY PREDICTED BY IDOCK:   -1.45 KCAL/MOL
REMARK 927      BINDING AFFINITY PREDICTED BY RF-SCORE:    0.00 PKD
ROOT
HETATM    1  C   UNL     1      -7.049   5.400  63.350  1.00  0.00    -0.047 C  
HETATM    2  C   UNL     1      -7.166   4.745  64.719  1.00  0.00    -0.063 C  
ENDROOT
BRANCH   2   3
HETATM    3  C   UNL     1      -8.239   5.440  65.554  1.00  0.00    -0.127 C  
BRANCH   3   4
HETATM    4  C   UNL     1      -8.254   5.019  67.031  1.00  0.00    -0.107 C  
BRANCH   4   5
HETATM    5  N   UNL     1      -9.327   5.567  67.889  1.00  0.00    -0.108 NA 
BRANCH   5   6
HETATM    6  C   UNL     1      -9.402   4.862  69.188  1.00  0.00    -0.128 C  
BRANCH   6   7
HETATM    7  C   UNL     1     -10.426   5.415  70.204  1.00  0.00    -0.361 C  
BRANCH   7   8
HETATM    8  C   UNL     1      -9.876   5.696  71.605  1.00  0.00    -0.213 C  
HETATM    9  C   UNL     1     -10.886   5.438  72.711  1.00  0.00    -0.310 C  
ENDBRANCH   7   8
ENDBRANCH   6   7
ENDBRANCH   5   6
BRANCH   5  10
HETATM   10  C   UNL     1      -9.082   7.022  68.100  1.00  0.00    -0.128 C  
BRANCH  10  11
HETATM   11  C   UNL     1     -10.065   8.011  67.395  1.00  0.00    -0.228 C  
HETATM   12  O   UNL     1     -11.163   7.348  66.771  1.00  0.00    -0.448 OA 
HETATM   13  H   UNL     1     -11.761   7.949  66.343  1.00  0.00     0.000 HD 
BRANCH  11  14
HETATM   14  C   UNL     1     -10.549   9.095  68.345  1.00  0.00    -0.217 A  
HETATM   15  C   UNL     1     -10.949  10.392  67.978  1.00  0.00    -0.347 A  
HETATM   16 CL   UNL     1     -11.980  13.699  63.116  1.00  0.00    -0.113 Cl 
HETATM   17  C   UNL     1     -11.950  13.170  65.761  1.00  0.00    -0.473 A  
HETATM   18  C   UNL     1     -11.490  11.262  68.974  1.00  0.00    -0.369 A  
HETATM   19  C   UNL     1     -11.846  12.533  68.293  1.00  0.00    -0.361 C  
HETATM   20  C   UNL     1     -11.647  10.862  70.293  1.00  0.00    -0.426 A  
HETATM   21  C   UNL     1     -12.148  13.730  68.831  1.00  0.00    -0.348 C  
HETATM   22  C   UNL     1     -11.640  12.352  66.838  1.00  0.00    -0.437 A  
HETATM   23  C   UNL     1     -11.198   9.605  70.661  1.00  0.00    -0.320 A  
HETATM   24  C   UNL     1     -11.010  11.093  66.679  1.00  0.00    -0.289 A  
HETATM   25  C   UNL     1     -11.577  12.746  64.489  1.00  0.00    -0.347 A  
HETATM   26 CL   UNL     1     -11.350   9.088  72.298  1.00  0.00    -0.308 Cl 
HETATM   27  C   UNL     1     -10.654   8.738  69.713  1.00  0.00    -0.227 A  
HETATM   28  C   UNL     1     -10.875  11.550  64.314  1.00  0.00    -0.421 A  
HETATM   29  C   UNL     1     -10.579  10.732  65.410  1.00  0.00    -0.224 A  
BRANCH  21  30
HETATM   30  C   UNL     1     -12.182  14.022  70.265  1.00  0.00    -0.430 A  
HETATM   31  C   UNL     1     -12.417  14.814  72.928  1.00  0.00    -0.337 A  
HETATM   32 CL   UNL     1     -12.607  15.376  74.543  1.00  0.00    -0.619 Cl 
HETATM   33  C   UNL     1     -11.340  15.264  72.163  1.00  0.00    -0.414 A  
HETATM   34  C   UNL     1     -13.233  13.534  71.054  1.00  0.00    -0.146 A  
HETATM   35  C   UNL     1     -13.352  13.939  72.385  1.00  0.00    -0.629 A  
HETATM   36  C   UNL     1     -11.219  14.864  70.829  1.00  0.00    -0.215 A  
ENDBRANCH  21  30
ENDBRANCH  11  14
ENDBRANCH  10  11
ENDBRANCH   5  10
ENDBRANCH   4   5
ENDBRANCH   3   4
ENDBRANCH   2   3
TORSDOF 10
ENDMDL
MODEL       28
REMARK 921   NORMALIZED FREE ENERGY PREDICTED BY IDOCK:   -6.07 KCAL/MOL
REMARK 922        TOTAL FREE ENERGY PREDICTED BY IDOCK:  -11.70 KCAL/MOL
REMARK 923 INTER-LIGAND FREE ENERGY PREDICTED BY IDOCK:  -10.12 KCAL/MOL
REMARK 924 INTRA-LIGAND FREE ENERGY PREDICTED BY IDOCK:   -1.58 KCAL/MOL
REMARK 927      BINDING AFFINITY PREDICTED BY RF-SCORE:    0.00 PKD
ROOT
HETATM    1  C   UNL     1      -6.808  17.705  67.832  1.00  0.00    -0.192 C  
HETATM    2  C   UNL     1      -7.009  17.346  66.367  1.00  0.00    -0.314 C  
ENDROOT
BRANCH   2   3
HETATM    3  C   UNL     1      -8.318  16.582  66.177  1.00  0.00    -0.305 C  
BRANCH   3   4
HETATM    4  C   UNL     1      -8.788  15.826  67.429  1.00  0.00    -0.186 C  
BRANCH   4   5
HETATM    5  N   UNL     1     -10.245  15.668  67.626  1.00  0.00    -0.256 NA 
BRANCH   5   6
HETATM    6  C   UNL     1     -10.906  16.965  67.889  1.00  0.00    -0.310 C  
BRANCH   6   7
HETATM    7  C   UNL     1     -10.329  17.797  69.056  1.00  0.00    -0.234 C  
BRANCH   7   8
HETATM    8  C   UNL     1      -9.990  19.252  68.723  1.00  0.00    -0.511 C  
HETATM    9  C   UNL     1     -10.297  19.627  67.282  1.00  0.00    -0.577 C  
ENDBRANCH   7   8
ENDBRANCH   6   7
ENDBRANCH   5   6
BRANCH   5  10
HETATM   10  C   UNL     1     -10.829  15.021  66.417  1.00  0.00    -0.326 C  
BRANCH  10  11
HETATM   11  C   UNL     1     -12.078  14.110  66.639  1.00  0.00    -0.451 C  
HETATM   12  O   UNL     1     -12.701  13.717  65.417  1.00  0.00    -0.547 OA 
HETATM   13  H   UNL     1     -13.460  13.163  65.552  1.00  0.00     0.000 HD 
BRANCH  11  14
HETATM   14  C   UNL     1     -11.746  12.900  67.498  1.00  0.00    -0.422 A  
HETATM   15  C   UNL     1     -11.045  11.757  67.074  1.00  0.00    -0.358 A  
HETATM   16 CL   UNL     1      -8.018   9.684  62.366  1.00  0.00    -0.122 Cl 
HETATM   17  C   UNL     1      -8.962   9.629  64.892  1.00  0.00    -0.260 A  
HETATM   18  C   UNL     1     -10.711  10.751  68.032  1.00  0.00    -0.270 A  
HETATM   19  C   UNL     1      -9.957   9.696  67.308  1.00  0.00    -0.250 C  
HETATM   20  C   UNL     1     -11.042  10.874  69.374  1.00  0.00    -0.317 A  
HETATM   21  C   UNL     1      -9.648   8.447  67.705  1.00  0.00    -0.185 C  
HETATM   22  C   UNL     1      -9.722  10.164  65.922  1.00  0.00    -0.292 A  
HETATM   23  C   UNL     1     -11.782  11.972  69.775  1.00  0.00    -0.319 A  
HETATM   24  C   UNL     1     -10.467  11.360  65.775  1.00  0.00    -0.314 A  
HETATM   25  C   UNL     1      -8.981  10.277  63.661  1.00  0.00    -0.240 A  
HETATM   26 CL   UNL     1     -12.238  12.139  71.429  1.00  0.00    -0.052 Cl 
HETATM   27  C   UNL     1     -12.135  12.965  68.860  1.00  0.00    -0.182 A  
HETATM   28  C   UNL     1      -9.778  11.409  63.463  1.00  0.00    -0.362 A  
HETATM   29  C   UNL     1     -10.531  11.940  64.515  1.00  0.00    -0.341 A  
BRANCH  21  30
HETATM   30  C   UNL     1     -10.018   7.860  68.994  1.00  0.00    -0.188 A  
HETATM   31  C   UNL     1     -10.556   6.506  71.372  1.00  0.00    -0.228 A  
HETATM   32 CL   UNL     1     -10.840   5.601  72.806  1.00  0.00    -0.282 Cl 
HETATM   33  C   UNL     1     -11.411   6.357  70.279  1.00  0.00    -0.468 A  
HETATM   34  C   UNL     1      -9.192   8.045  70.110  1.00  0.00    -0.152 A  
HETATM   35  C   UNL     1      -9.459   7.359  71.297  1.00  0.00    -0.159 A  
HETATM   36  C   UNL     1     -11.145   7.038  69.088  1.00  0.00    -0.143 A  
ENDBRANCH  21  30
ENDBRANCH  11  14
ENDBRANCH  10  11
ENDBRANCH   5  10
ENDBRANCH   4   5
ENDBRANCH   3   4
ENDBRANCH   2   3
TORSDOF 10
ENDMDL
MODEL       29
REMARK 921   NORMALIZED FREE ENERGY PREDICTED BY IDOCK:   -6.02 KCAL/MOL
REMARK 922        TOTAL FREE ENERGY PREDICTED BY IDOCK:  -11.63 KCAL/MOL
REMARK 923 INTER-LIGAND FREE ENERGY PREDICTED BY IDOCK:   -9.63 KCAL/MOL
REMARK 924 INTRA-LIGAND FREE ENERGY PREDICTED BY IDOCK:   -2.00 KCAL/MOL
REMARK 927      BINDING AFFINITY PREDICTED BY RF-SCORE:    0.00 PKD
ROOT
HETATM    1  C   UNL     1     -13.867  13.682  72.336  1.00  0.00    -0.691 C  
HETATM    2  C   UNL     1     -13.328  15.028  71.872  1.00  0.00    -0.475 C  
ENDROOT
BRANCH   2   3
HETATM    3  C   UNL     1     -11.819  14.953  71.652  1.00  0.00    -0.429 C  
BRANCH   3   4
HETATM    4  C   UNL     1     -11.336  15.660  70.377  1.00  0.00    -0.358 C  
BRANCH   4   5
HETATM    5  N   UNL     1     -11.678  15.039  69.078  1.00  0.00    -0.315 NA 
BRANCH   5   6
HETATM    6  C   UNL     1     -11.223  15.867  67.940  1.00  0.00    -0.297 C  
BRANCH   6   7
HETATM    7  C   UNL     1     -10.162  15.229  67.016  1.00  0.00    -0.260 C  
BRANCH   7   8
HETATM    8  C   UNL     1     -10.498  15.238  65.523  1.00  0.00    -0.396 C  
HETATM    9  C   UNL     1     -10.371  13.873  64.868  1.00  0.00    -0.430 C  
ENDBRANCH   7   8
ENDBRANCH   6   7
ENDBRANCH   5   6
BRANCH   5  10
HETATM   10  C   UNL     1     -11.063  13.682  69.015  1.00  0.00    -0.255 C  
BRANCH  10  11
HETATM   11  C   UNL     1     -12.025  12.487  68.724  1.00  0.00    -0.238 C  
HETATM   12  O   UNL     1     -12.172  12.221  67.330  1.00  0.00    -0.478 OA 
HETATM   13  H   UNL     1     -12.757  11.493  67.154  1.00  0.00     0.000 HD 
BRANCH  11  14
HETATM   14  C   UNL     1     -11.608  11.234  69.479  1.00  0.00    -0.398 A  
HETATM   15  C   UNL     1     -10.393  10.543  69.320  1.00  0.00    -0.248 A  
HETATM   16 CL   UNL     1      -5.147  11.021  66.512  1.00  0.00    -0.079 Cl 
HETATM   17  C   UNL     1      -6.928   9.917  68.212  1.00  0.00    -0.072 A  
HETATM   18  C   UNL     1     -10.099   9.445  70.186  1.00  0.00    -0.273 A  
HETATM   19  C   UNL     1      -8.754   8.942  69.806  1.00  0.00    -0.139 C  
HETATM   20  C   UNL     1     -10.968   9.048  71.192  1.00  0.00    -0.371 A  
HETATM   21  C   UNL     1      -8.151   7.787  70.148  1.00  0.00    -0.117 C  
HETATM   22  C   UNL     1      -8.189   9.856  68.788  1.00  0.00    -0.114 A  
HETATM   23  C   UNL     1     -12.188   9.694  71.306  1.00  0.00    -0.363 A  
HETATM   24  C   UNL     1      -9.227  10.755  68.440  1.00  0.00    -0.164 A  
HETATM   25  C   UNL     1      -6.706  10.870  67.223  1.00  0.00    -0.082 A  
HETATM   26 CL   UNL     1     -13.304   9.203  72.524  1.00  0.00    -0.514 Cl 
HETATM   27  C   UNL     1     -12.509  10.761  70.466  1.00  0.00    -0.447 A  
HETATM   28  C   UNL     1      -7.740  11.710  66.798  1.00  0.00    -0.116 A  
HETATM   29  C   UNL     1      -9.002  11.642  67.396  1.00  0.00    -0.166 A  
BRANCH  21  30
HETATM   30  C   UNL     1      -8.738   6.753  71.001  1.00  0.00    -0.137 A  
HETATM   31  C   UNL     1     -10.099   4.953  72.639  1.00  0.00    -0.174 A  
HETATM   32 CL   UNL     1     -11.007   3.903  73.654  1.00  0.00    -0.327 Cl 
HETATM   33  C   UNL     1      -9.282   5.930  73.210  1.00  0.00    -0.132 A  
HETATM   34  C   UNL     1      -9.520   5.738  70.433  1.00  0.00    -0.201 A  
HETATM   35  C   UNL     1     -10.207   4.844  71.256  1.00  0.00    -0.248 A  
HETATM   36  C   UNL     1      -8.596   6.830  72.390  1.00  0.00    -0.126 A  
ENDBRANCH  21  30
ENDBRANCH  11  14
ENDBRANCH  10  11
ENDBRANCH   5  10
ENDBRANCH   4   5
ENDBRANCH   3   4
ENDBRANCH   2   3
TORSDOF 10
ENDMDL
MODEL       30
REMARK 921   NORMALIZED FREE ENERGY PREDICTED BY IDOCK:   -6.02 KCAL/MOL
REMARK 922        TOTAL FREE ENERGY PREDICTED BY IDOCK:  -11.62 KCAL/MOL
REMARK 923 INTER-LIGAND FREE ENERGY PREDICTED BY IDOCK:   -9.69 KCAL/MOL
REMARK 924 INTRA-LIGAND FREE ENERGY PREDICTED BY IDOCK:   -1.94 KCAL/MOL
REMARK 927      BINDING AFFINITY PREDICTED BY RF-SCORE:    0.00 PKD
ROOT
HETATM    1  C   UNL     1      -7.001   9.919  69.135  1.00  0.00    -0.057 C  
HETATM    2  C   UNL     1      -6.212   8.715  68.639  1.00  0.00    -0.046 C  
ENDROOT
BRANCH   2   3
HETATM    3  C   UNL     1      -6.608   7.461  69.415  1.00  0.00    -0.037 C  
BRANCH   3   4
HETATM    4  C   UNL     1      -6.857   6.230  68.531  1.00  0.00    -0.074 C  
BRANCH   4   5
HETATM    5  N   UNL     1      -7.985   6.291  67.575  1.00  0.00    -0.108 NA 
BRANCH   5   6
HETATM    6  C   UNL     1      -8.303   4.956  67.021  1.00  0.00    -0.106 C  
BRANCH   6   7
HETATM    7  C   UNL     1      -9.515   4.232  67.647  1.00  0.00    -0.217 C  
BRANCH   7   8
HETATM    8  C   UNL     1      -9.175   3.136  68.661  1.00  0.00    -0.228 C  
HETATM    9  C   UNL     1      -9.050   3.650  70.086  1.00  0.00    -0.199 C  
ENDBRANCH   7   8
ENDBRANCH   6   7
ENDBRANCH   5   6
BRANCH   5  10
HETATM   10  C   UNL     1      -9.174   6.865  68.266  1.00  0.00    -0.123 C  
BRANCH  10  11
HETATM   11  C   UNL     1      -9.975   7.960  67.494  1.00  0.00    -0.192 C  
HETATM   12  O   UNL     1     -11.050   7.421  66.725  1.00  0.00    -0.507 OA 
HETATM   13  H   UNL     1     -11.538   8.087  66.256  1.00  0.00     0.000 HD 
BRANCH  11  14
HETATM   14  C   UNL     1     -10.466   9.060  68.423  1.00  0.00    -0.234 A  
HETATM   15  C   UNL     1     -10.907  10.335  68.028  1.00  0.00    -0.325 A  
HETATM   16 CL   UNL     1     -12.126  13.475  63.100  1.00  0.00    -0.298 Cl 
HETATM   17  C   UNL     1     -12.025  13.023  65.758  1.00  0.00    -0.482 A  
HETATM   18  C   UNL     1     -11.447  11.220  69.012  1.00  0.00    -0.369 A  
HETATM   19  C   UNL     1     -11.850  12.462  68.304  1.00  0.00    -0.364 C  
HETATM   20  C   UNL     1     -11.566  10.854  70.345  1.00  0.00    -0.418 A  
HETATM   21  C   UNL     1     -12.171  13.665  68.815  1.00  0.00    -0.204 C  
HETATM   22  C   UNL     1     -11.672  12.244  66.850  1.00  0.00    -0.404 A  
HETATM   23  C   UNL     1     -11.077   9.619  70.738  1.00  0.00    -0.334 A  
HETATM   24  C   UNL     1     -11.014  10.997  66.713  1.00  0.00    -0.279 A  
HETATM   25  C   UNL     1     -11.670  12.572  64.490  1.00  0.00    -0.362 A  
HETATM   26 CL   UNL     1     -11.180   9.146  72.392  1.00  0.00    -0.031 Cl 
HETATM   27  C   UNL     1     -10.532   8.739  69.802  1.00  0.00    -0.222 A  
HETATM   28  C   UNL     1     -10.941  11.389  64.333  1.00  0.00    -0.371 A  
HETATM   29  C   UNL     1     -10.602  10.611  65.444  1.00  0.00    -0.185 A  
BRANCH  21  30
HETATM   30  C   UNL     1     -12.181  13.998  70.240  1.00  0.00    -0.430 A  
HETATM   31  C   UNL     1     -12.371  14.864  72.884  1.00  0.00    -0.328 A  
HETATM   32 CL   UNL     1     -12.535  15.471  74.485  1.00  0.00    -0.763 Cl 
HETATM   33  C   UNL     1     -11.307  15.291  72.088  1.00  0.00    -0.414 A  
HETATM   34  C   UNL     1     -13.219  13.533  71.060  1.00  0.00    -0.146 A  
HETATM   35  C   UNL     1     -13.316  13.976  72.380  1.00  0.00    -0.617 A  
HETATM   36  C   UNL     1     -11.208  14.854  70.764  1.00  0.00    -0.215 A  
ENDBRANCH  21  30
ENDBRANCH  11  14
ENDBRANCH  10  11
ENDBRANCH   5  10
ENDBRANCH   4   5
ENDBRANCH   3   4
ENDBRANCH   2   3
TORSDOF 10
ENDMDL
MODEL       31
REMARK 921   NORMALIZED FREE ENERGY PREDICTED BY IDOCK:   -6.01 KCAL/MOL
REMARK 922        TOTAL FREE ENERGY PREDICTED BY IDOCK:  -11.61 KCAL/MOL
REMARK 923 INTER-LIGAND FREE ENERGY PREDICTED BY IDOCK:   -9.49 KCAL/MOL
REMARK 924 INTRA-LIGAND FREE ENERGY PREDICTED BY IDOCK:   -2.13 KCAL/MOL
REMARK 927      BINDING AFFINITY PREDICTED BY RF-SCORE:    0.00 PKD
ROOT
HETATM    1  C   UNL     1      -6.243  16.907  68.273  1.00  0.00    -0.134 C  
HETATM    2  C   UNL     1      -6.620  15.759  69.200  1.00  0.00    -0.148 C  
ENDROOT
BRANCH   2   3
HETATM    3  C   UNL     1      -8.108  15.438  69.075  1.00  0.00    -0.213 C  
BRANCH   3   4
HETATM    4  C   UNL     1      -8.408  14.155  68.287  1.00  0.00    -0.157 C  
BRANCH   4   5
HETATM    5  N   UNL     1      -9.290  14.267  67.105  1.00  0.00    -0.219 NA 
BRANCH   5   6
HETATM    6  C   UNL     1      -8.862  15.361  66.205  1.00  0.00    -0.267 C  
BRANCH   6   7
HETATM    7  C   UNL     1      -9.962  16.355  65.773  1.00  0.00    -0.331 C  
BRANCH   7   8
HETATM    8  C   UNL     1     -10.315  17.434  66.800  1.00  0.00    -0.305 C  
HETATM    9  C   UNL     1      -9.410  18.654  66.727  1.00  0.00    -0.312 C  
ENDBRANCH   7   8
ENDBRANCH   6   7
ENDBRANCH   5   6
BRANCH   5  10
HETATM   10  C   UNL     1      -9.293  12.966  66.379  1.00  0.00    -0.187 C  
BRANCH  10  11
HETATM   11  C   UNL     1     -10.618  12.141  66.416  1.00  0.00    -0.241 C  
HETATM   12  O   UNL     1     -11.033  11.701  65.123  1.00  0.00    -0.294 OA 
HETATM   13  H   UNL     1     -11.839  11.200  65.146  1.00  0.00     0.000 HD 
BRANCH  11  14
HETATM   14  C   UNL     1     -10.529  10.975  67.387  1.00  0.00    -0.255 A  
HETATM   15  C   UNL     1     -11.005  10.968  68.711  1.00  0.00    -0.270 A  
HETATM   16 CL   UNL     1     -14.155  14.338  72.499  1.00  0.00    -0.522 Cl 
HETATM   17  C   UNL     1     -12.851  12.118  71.694  1.00  0.00    -0.390 A  
HETATM   18  C   UNL     1     -10.950   9.754  69.463  1.00  0.00    -0.256 A  
HETATM   19  C   UNL     1     -11.543  10.043  70.794  1.00  0.00    -0.444 C  
HETATM   20  C   UNL     1     -10.456   8.576  68.924  1.00  0.00    -0.207 A  
HETATM   21  C   UNL     1     -11.493   9.310  71.923  1.00  0.00    -0.382 C  
HETATM   22  C   UNL     1     -12.086  11.420  70.771  1.00  0.00    -0.433 A  
HETATM   23  C   UNL     1      -9.936   8.602  67.641  1.00  0.00    -0.194 A  
HETATM   24  C   UNL     1     -11.667  11.991  69.544  1.00  0.00    -0.408 A  
HETATM   25  C   UNL     1     -13.168  13.443  71.412  1.00  0.00    -0.250 A  
HETATM   26 CL   UNL     1      -9.284   7.163  66.953  1.00  0.00    -0.161 Cl 
HETATM   27  C   UNL     1      -9.963   9.776  66.886  1.00  0.00    -0.270 A  
HETATM   28  C   UNL     1     -12.692  14.058  70.250  1.00  0.00    -0.270 A  
HETATM   29  C   UNL     1     -11.930  13.337  69.325  1.00  0.00    -0.354 A  
BRANCH  21  30
HETATM   30  C   UNL     1     -10.807   8.026  72.062  1.00  0.00    -0.333 A  
HETATM   31  C   UNL     1      -9.579   5.583  72.613  1.00  0.00    -0.150 A  
HETATM   32 CL   UNL     1      -8.846   4.087  73.040  1.00  0.00    -0.100 Cl 
HETATM   33  C   UNL     1      -8.846   6.766  72.710  1.00  0.00    -0.132 A  
HETATM   34  C   UNL     1     -11.523   6.830  71.918  1.00  0.00    -0.318 A  
HETATM   35  C   UNL     1     -10.909   5.609  72.202  1.00  0.00    -0.300 A  
HETATM   36  C   UNL     1      -9.458   7.990  72.430  1.00  0.00    -0.279 A  
ENDBRANCH  21  30
ENDBRANCH  11  14
ENDBRANCH  10  11
ENDBRANCH   5  10
ENDBRANCH   4   5
ENDBRANCH   3   4
ENDBRANCH   2   3
TORSDOF 10
ENDMDL
MODEL       32
REMARK 921   NORMALIZED FREE ENERGY PREDICTED BY IDOCK:   -5.97 KCAL/MOL
REMARK 922        TOTAL FREE ENERGY PREDICTED BY IDOCK:  -11.55 KCAL/MOL
REMARK 923 INTER-LIGAND FREE ENERGY PREDICTED BY IDOCK:   -9.61 KCAL/MOL
REMARK 924 INTRA-LIGAND FREE ENERGY PREDICTED BY IDOCK:   -1.94 KCAL/MOL
REMARK 927      BINDING AFFINITY PREDICTED BY RF-SCORE:    0.00 PKD
ROOT
HETATM    1  C   UNL     1      -9.669  17.543  68.484  1.00  0.00    -0.319 C  
HETATM    2  C   UNL     1     -10.154  16.323  69.254  1.00  0.00    -0.267 C  
ENDROOT
BRANCH   2   3
HETATM    3  C   UNL     1     -11.571  15.949  68.826  1.00  0.00    -0.389 C  
BRANCH   3   4
HETATM    4  C   UNL     1     -12.013  14.550  69.277  1.00  0.00    -0.319 C  
BRANCH   4   5
HETATM    5  N   UNL     1     -12.003  13.469  68.266  1.00  0.00    -0.362 NA 
BRANCH   5   6
HETATM    6  C   UNL     1     -11.832  14.003  66.897  1.00  0.00    -0.430 C  
BRANCH   6   7
HETATM    7  C   UNL     1     -12.535  13.217  65.768  1.00  0.00    -0.480 C  
BRANCH   7   8
HETATM    8  C   UNL     1     -11.811  13.215  64.419  1.00  0.00    -0.441 C  
HETATM    9  C   UNL     1     -12.304  12.133  63.472  1.00  0.00    -0.682 C  
ENDBRANCH   7   8
ENDBRANCH   6   7
ENDBRANCH   5   6
BRANCH   5  10
HETATM   10  C   UNL     1     -10.909  12.512  68.593  1.00  0.00    -0.248 C  
BRANCH  10  11
HETATM   11  C   UNL     1     -11.337  11.087  69.065  1.00  0.00    -0.277 C  
HETATM   12  O   UNL     1     -12.754  10.926  69.124  1.00  0.00    -0.605 OA 
HETATM   13  H   UNL     1     -13.014  10.059  69.411  1.00  0.00     0.000 HD 
BRANCH  11  14
HETATM   14  C   UNL     1     -10.697   9.997  68.219  1.00  0.00    -0.280 A  
HETATM   15  C   UNL     1     -10.459   8.672  68.626  1.00  0.00    -0.208 A  
HETATM   16 CL   UNL     1     -11.575   4.971  73.175  1.00  0.00    -0.373 Cl 
HETATM   17  C   UNL     1     -10.679   5.639  70.720  1.00  0.00    -0.320 A  
HETATM   18  C   UNL     1      -9.954   7.733  67.675  1.00  0.00    -0.230 A  
HETATM   19  C   UNL     1      -9.835   6.428  68.376  1.00  0.00    -0.141 C  
HETATM   20  C   UNL     1      -9.705   8.083  66.356  1.00  0.00    -0.255 A  
HETATM   21  C   UNL     1      -9.184   5.314  67.992  1.00  0.00    -0.125 C  
HETATM   22  C   UNL     1     -10.418   6.575  69.729  1.00  0.00    -0.256 A  
HETATM   23  C   UNL     1      -9.886   9.401  65.976  1.00  0.00    -0.296 A  
HETATM   24  C   UNL     1     -10.699   7.954  69.893  1.00  0.00    -0.244 A  
HETATM   25  C   UNL     1     -11.188   6.095  71.932  1.00  0.00    -0.284 A  
HETATM   26 CL   UNL     1      -9.555   9.876  64.352  1.00  0.00    -0.325 Cl 
HETATM   27  C   UNL     1     -10.366  10.345  66.885  1.00  0.00    -0.297 A  
HETATM   28  C   UNL     1     -11.391   7.461  72.152  1.00  0.00    -0.311 A  
HETATM   29  C   UNL     1     -11.132   8.389  71.139  1.00  0.00    -0.301 A  
BRANCH  21  30
HETATM   30  C   UNL     1      -8.427   5.169  66.748  1.00  0.00    -0.106 A  
HETATM   31  C   UNL     1      -7.071   5.170  64.311  1.00  0.00    -0.050 A  
HETATM   32 CL   UNL     1      -6.268   5.253  62.793  1.00  0.00    -0.021 Cl 
HETATM   33  C   UNL     1      -8.380   4.693  64.377  1.00  0.00    -0.118 A  
HETATM   34  C   UNL     1      -7.095   5.598  66.685  1.00  0.00    -0.069 A  
HETATM   35  C   UNL     1      -6.421   5.606  65.462  1.00  0.00    -0.039 A  
HETATM   36  C   UNL     1      -9.060   4.688  65.598  1.00  0.00    -0.142 A  
ENDBRANCH  21  30
ENDBRANCH  11  14
ENDBRANCH  10  11
ENDBRANCH   5  10
ENDBRANCH   4   5
ENDBRANCH   3   4
ENDBRANCH   2   3
TORSDOF 10
ENDMDL
MODEL       33
REMARK 921   NORMALIZED FREE ENERGY PREDICTED BY IDOCK:   -5.90 KCAL/MOL
REMARK 922        TOTAL FREE ENERGY PREDICTED BY IDOCK:  -11.44 KCAL/MOL
REMARK 923 INTER-LIGAND FREE ENERGY PREDICTED BY IDOCK:   -8.21 KCAL/MOL
REMARK 924 INTRA-LIGAND FREE ENERGY PREDICTED BY IDOCK:   -3.24 KCAL/MOL
REMARK 927      BINDING AFFINITY PREDICTED BY RF-SCORE:    0.00 PKD
ROOT
HETATM    1  C   UNL     1      -9.443   4.959  72.498  1.00  0.00    -0.164 C  
HETATM    2  C   UNL     1     -10.251   4.610  71.256  1.00  0.00    -0.205 C  
ENDROOT
BRANCH   2   3
HETATM    3  C   UNL     1      -9.469   4.960  69.992  1.00  0.00    -0.234 C  
BRANCH   3   4
HETATM    4  C   UNL     1      -8.207   5.798  70.249  1.00  0.00    -0.110 C  
BRANCH   4   5
HETATM    5  N   UNL     1      -7.341   6.106  69.090  1.00  0.00    -0.082 NA 
BRANCH   5   6
HETATM    6  C   UNL     1      -8.120   6.198  67.835  1.00  0.00    -0.114 C  
BRANCH   6   7
HETATM    7  C   UNL     1      -7.545   7.128  66.744  1.00  0.00    -0.093 C  
BRANCH   7   8
HETATM    8  C   UNL     1      -8.541   8.112  66.125  1.00  0.00    -0.154 C  
HETATM    9  C   UNL     1      -9.923   8.046  66.754  1.00  0.00    -0.344 C  
ENDBRANCH   7   8
ENDBRANCH   6   7
ENDBRANCH   5   6
BRANCH   5  10
HETATM   10  C   UNL     1      -6.620   7.383  69.351  1.00  0.00    -0.037 C  
BRANCH  10  11
HETATM   11  C   UNL     1      -7.304   8.391  70.329  1.00  0.00    -0.055 C  
HETATM   12  O   UNL     1      -6.430   8.837  71.364  1.00  0.00    -0.059 OA 
HETATM   13  H   UNL     1      -6.846   9.450  71.959  1.00  0.00     0.000 HD 
BRANCH  11  14
HETATM   14  C   UNL     1      -7.918   9.567  69.586  1.00  0.00    -0.120 A  
HETATM   15  C   UNL     1      -9.260   9.981  69.666  1.00  0.00    -0.236 A  
HETATM   16 CL   UNL     1     -14.275   8.819  72.690  1.00  0.00    -0.404 Cl 
HETATM   17  C   UNL     1     -12.716  10.170  70.950  1.00  0.00    -0.448 A  
HETATM   18  C   UNL     1      -9.660  11.178  68.996  1.00  0.00    -0.099 A  
HETATM   19  C   UNL     1     -11.104  11.373  69.282  1.00  0.00    -0.313 C  
HETATM   20  C   UNL     1      -8.761  11.955  68.280  1.00  0.00    -0.170 A  
HETATM   21  C   UNL     1     -11.985  12.199  68.686  1.00  0.00    -0.290 C  
HETATM   22  C   UNL     1     -11.526  10.343  70.259  1.00  0.00    -0.406 A  
HETATM   23  C   UNL     1      -7.455  11.513  68.156  1.00  0.00    -0.101 A  
HETATM   24  C   UNL     1     -10.428   9.458  70.403  1.00  0.00    -0.311 A  
HETATM   25  C   UNL     1     -12.839   9.054  71.773  1.00  0.00    -0.374 A  
HETATM   26 CL   UNL     1      -6.321  12.439  67.247  1.00  0.00    -0.156 Cl 
HETATM   27  C   UNL     1      -7.038  10.341  68.789  1.00  0.00    -0.072 A  
HETATM   28  C   UNL     1     -11.804   8.118  71.863  1.00  0.00    -0.366 A  
HETATM   29  C   UNL     1     -10.607   8.313  71.167  1.00  0.00    -0.258 A  
BRANCH  21  30
HETATM   30  C   UNL     1     -11.670  13.108  67.583  1.00  0.00    -0.414 A  
HETATM   31  C   UNL     1     -11.351  14.938  65.504  1.00  0.00    -0.339 A  
HETATM   32 CL   UNL     1     -11.242  16.089  64.230  1.00  0.00    -0.272 Cl 
HETATM   33  C   UNL     1     -11.749  13.631  65.223  1.00  0.00    -0.349 A  
HETATM   34  C   UNL     1     -11.222  14.408  67.853  1.00  0.00    -0.304 A  
HETATM   35  C   UNL     1     -11.071  15.325  66.811  1.00  0.00    -0.278 A  
HETATM   36  C   UNL     1     -11.905  12.711  66.263  1.00  0.00    -0.471 A  
ENDBRANCH  21  30
ENDBRANCH  11  14
ENDBRANCH  10  11
ENDBRANCH   5  10
ENDBRANCH   4   5
ENDBRANCH   3   4
ENDBRANCH   2   3
TORSDOF 10
ENDMDL
MODEL       34
REMARK 921   NORMALIZED FREE ENERGY PREDICTED BY IDOCK:   -5.88 KCAL/MOL
REMARK 922        TOTAL FREE ENERGY PREDICTED BY IDOCK:  -11.40 KCAL/MOL
REMARK 923 INTER-LIGAND FREE ENERGY PREDICTED BY IDOCK:   -9.75 KCAL/MOL
REMARK 924 INTRA-LIGAND FREE ENERGY PREDICTED BY IDOCK:   -1.65 KCAL/MOL
REMARK 927      BINDING AFFINITY PREDICTED BY RF-SCORE:    0.00 PKD
ROOT
HETATM    1  C   UNL     1     -10.542   5.759  72.127  1.00  0.00    -0.268 C  
HETATM    2  C   UNL     1      -9.133   6.324  72.010  1.00  0.00    -0.142 C  
ENDROOT
BRANCH   2   3
HETATM    3  C   UNL     1      -8.466   5.837  70.726  1.00  0.00    -0.125 C  
BRANCH   3   4
HETATM    4  C   UNL     1      -7.613   6.901  70.020  1.00  0.00    -0.099 C  
BRANCH   4   5
HETATM    5  N   UNL     1      -7.866   7.139  68.582  1.00  0.00    -0.120 NA 
BRANCH   5   6
HETATM    6  C   UNL     1      -7.006   6.290  67.728  1.00  0.00    -0.075 C  
BRANCH   6   7
HETATM    7  C   UNL     1      -7.668   5.022  67.145  1.00  0.00    -0.092 C  
BRANCH   7   8
HETATM    8  C   UNL     1      -7.356   3.718  67.884  1.00  0.00    -0.062 C  
HETATM    9  C   UNL     1      -6.265   2.894  67.219  1.00  0.00    -0.028 C  
ENDBRANCH   7   8
ENDBRANCH   6   7
ENDBRANCH   5   6
BRANCH   5  10
HETATM   10  C   UNL     1      -9.305   6.880  68.295  1.00  0.00    -0.125 C  
BRANCH  10  11
HETATM   11  C   UNL     1     -10.077   7.988  67.511  1.00  0.00    -0.219 C  
HETATM   12  O   UNL     1     -11.155   7.467  66.735  1.00  0.00    -0.469 OA 
HETATM   13  H   UNL     1     -11.625   8.141  66.258  1.00  0.00     0.000 HD 
BRANCH  11  14
HETATM   14  C   UNL     1     -10.553   9.101  68.432  1.00  0.00    -0.217 A  
HETATM   15  C   UNL     1     -10.950  10.389  68.029  1.00  0.00    -0.347 A  
HETATM   16 CL   UNL     1     -11.984  13.562  63.080  1.00  0.00    -0.233 Cl 
HETATM   17  C   UNL     1     -11.947  13.107  65.739  1.00  0.00    -0.473 A  
HETATM   18  C   UNL     1     -11.483  11.288  69.003  1.00  0.00    -0.369 A  
HETATM   19  C   UNL     1     -11.836  12.541  68.288  1.00  0.00    -0.361 C  
HETATM   20  C   UNL     1     -11.637  10.926  70.333  1.00  0.00    -0.418 A  
HETATM   21  C   UNL     1     -12.132  13.754  68.793  1.00  0.00    -0.344 C  
HETATM   22  C   UNL     1     -11.637  12.319  66.838  1.00  0.00    -0.427 A  
HETATM   23  C   UNL     1     -11.192   9.678  70.735  1.00  0.00    -0.336 A  
HETATM   24  C   UNL     1     -11.013  11.053  66.712  1.00  0.00    -0.279 A  
HETATM   25  C   UNL     1     -11.580  12.647  64.479  1.00  0.00    -0.345 A  
HETATM   26 CL   UNL     1     -11.340   9.208  72.386  1.00  0.00    -0.067 Cl 
HETATM   27  C   UNL     1     -10.655   8.782  69.809  1.00  0.00    -0.227 A  
HETATM   28  C   UNL     1     -10.883  11.443  64.335  1.00  0.00    -0.397 A  
HETATM   29  C   UNL     1     -10.588  10.655  65.452  1.00  0.00    -0.185 A  
BRANCH  21  30
HETATM   30  C   UNL     1     -12.160  14.086  70.218  1.00  0.00    -0.425 A  
HETATM   31  C   UNL     1     -12.384  14.952  72.860  1.00  0.00    -0.328 A  
HETATM   32 CL   UNL     1     -12.570  15.557  74.459  1.00  0.00    -0.667 Cl 
HETATM   33  C   UNL     1     -11.317  15.388  72.075  1.00  0.00    -0.466 A  
HETATM   34  C   UNL     1     -13.201  13.612  71.028  1.00  0.00    -0.190 A  
HETATM   35  C   UNL     1     -13.315  14.053  72.347  1.00  0.00    -0.617 A  
HETATM   36  C   UNL     1     -11.200  14.952  70.752  1.00  0.00    -0.215 A  
ENDBRANCH  21  30
ENDBRANCH  11  14
ENDBRANCH  10  11
ENDBRANCH   5  10
ENDBRANCH   4   5
ENDBRANCH   3   4
ENDBRANCH   2   3
TORSDOF 10
ENDMDL
MODEL       35
REMARK 921   NORMALIZED FREE ENERGY PREDICTED BY IDOCK:   -5.82 KCAL/MOL
REMARK 922        TOTAL FREE ENERGY PREDICTED BY IDOCK:  -11.31 KCAL/MOL
REMARK 923 INTER-LIGAND FREE ENERGY PREDICTED BY IDOCK:   -8.82 KCAL/MOL
REMARK 924 INTRA-LIGAND FREE ENERGY PREDICTED BY IDOCK:   -2.49 KCAL/MOL
REMARK 927      BINDING AFFINITY PREDICTED BY RF-SCORE:    0.00 PKD
ROOT
HETATM    1  C   UNL     1     -10.879   5.863  69.552  1.00  0.00    -0.442 C  
HETATM    2  C   UNL     1      -9.981   6.293  70.704  1.00  0.00    -0.221 C  
ENDROOT
BRANCH   2   3
HETATM    3  C   UNL     1      -9.067   7.437  70.271  1.00  0.00    -0.151 C  
BRANCH   3   4
HETATM    4  C   UNL     1      -9.056   7.690  68.756  1.00  0.00    -0.139 C  
BRANCH   4   5
HETATM    5  N   UNL     1      -9.375   9.057  68.287  1.00  0.00    -0.139 NA 
BRANCH   5   6
HETATM    6  C   UNL     1     -10.809   9.375  68.469  1.00  0.00    -0.105 C  
BRANCH   6   7
HETATM    7  C   UNL     1     -11.124  10.625  69.320  1.00  0.00    -0.306 C  
BRANCH   7   8
HETATM    8  C   UNL     1     -11.871  11.746  68.591  1.00  0.00    -0.369 C  
HETATM    9  C   UNL     1     -11.609  13.124  69.176  1.00  0.00    -0.368 C  
ENDBRANCH   7   8
ENDBRANCH   6   7
ENDBRANCH   5   6
BRANCH   5  10
HETATM   10  C   UNL     1      -8.526  10.032  69.027  1.00  0.00    -0.147 C  
BRANCH  10  11
HETATM   11  C   UNL     1      -7.357  10.695  68.231  1.00  0.00    -0.089 C  
HETATM   12  O   UNL     1      -7.183  10.130  66.932  1.00  0.00    -0.089 OA 
HETATM   13  H   UNL     1      -6.472  10.533  66.448  1.00  0.00     0.000 HD 
BRANCH  11  14
HETATM   14  C   UNL     1      -7.513  12.205  68.154  1.00  0.00    -0.114 A  
HETATM   15  C   UNL     1      -8.378  12.901  67.290  1.00  0.00    -0.185 A  
HETATM   16 CL   UNL     1     -12.731  11.898  63.330  1.00  0.00    -0.655 Cl 
HETATM   17  C   UNL     1     -11.123  13.415  64.876  1.00  0.00    -0.348 A  
HETATM   18  C   UNL     1      -8.496  14.319  67.417  1.00  0.00    -0.216 A  
HETATM   19  C   UNL     1      -9.490  14.763  66.406  1.00  0.00    -0.328 C  
HETATM   20  C   UNL     1      -7.795  15.032  68.378  1.00  0.00    -0.125 A  
HETATM   21  C   UNL     1      -9.756  16.008  65.967  1.00  0.00    -0.376 C  
HETATM   22  C   UNL     1     -10.072  13.560  65.769  1.00  0.00    -0.298 A  
HETATM   23  C   UNL     1      -6.902  14.351  69.188  1.00  0.00    -0.120 A  
HETATM   24  C   UNL     1      -9.322  12.456  66.245  1.00  0.00    -0.189 A  
HETATM   25  C   UNL     1     -11.408  12.139  64.401  1.00  0.00    -0.344 A  
HETATM   26 CL   UNL     1      -5.992  15.212  70.371  1.00  0.00    -0.137 Cl 
HETATM   27  C   UNL     1      -6.755  12.967  69.078  1.00  0.00    -0.099 A  
HETATM   28  C   UNL     1     -10.626  11.045  64.786  1.00  0.00    -0.350 A  
HETATM   29  C   UNL     1      -9.575  11.207  65.695  1.00  0.00    -0.259 A  
BRANCH  21  30
HETATM   30  C   UNL     1      -9.079  17.223  66.422  1.00  0.00    -0.281 A  
HETATM   31  C   UNL     1      -7.903  19.672  67.050  1.00  0.00    -0.270 A  
HETATM   32 CL   UNL     1      -7.212  21.216  67.359  1.00  0.00    -0.373 Cl 
HETATM   33  C   UNL     1      -7.197  18.737  66.293  1.00  0.00    -0.279 A  
HETATM   34  C   UNL     1      -9.763  18.146  67.224  1.00  0.00    -0.297 A  
HETATM   35  C   UNL     1      -9.175  19.375  67.530  1.00  0.00    -0.375 A  
HETATM   36  C   UNL     1      -7.783  17.507  65.981  1.00  0.00    -0.237 A  
ENDBRANCH  21  30
ENDBRANCH  11  14
ENDBRANCH  10  11
ENDBRANCH   5  10
ENDBRANCH   4   5
ENDBRANCH   3   4
ENDBRANCH   2   3
TORSDOF 10
ENDMDL
MODEL       36
REMARK 921   NORMALIZED FREE ENERGY PREDICTED BY IDOCK:   -5.73 KCAL/MOL
REMARK 922        TOTAL FREE ENERGY PREDICTED BY IDOCK:  -11.16 KCAL/MOL
REMARK 923 INTER-LIGAND FREE ENERGY PREDICTED BY IDOCK:   -9.46 KCAL/MOL
REMARK 924 INTRA-LIGAND FREE ENERGY PREDICTED BY IDOCK:   -1.70 KCAL/MOL
REMARK 927      BINDING AFFINITY PREDICTED BY RF-SCORE:    0.00 PKD
ROOT
HETATM    1  C   UNL     1      -9.441   2.649  69.297  1.00  0.00    -0.140 C  
HETATM    2  C   UNL     1      -8.881   3.402  68.099  1.00  0.00    -0.157 C  
ENDROOT
BRANCH   2   3
HETATM    3  C   UNL     1      -8.135   4.655  68.555  1.00  0.00    -0.083 C  
BRANCH   3   4
HETATM    4  C   UNL     1      -8.367   5.019  70.029  1.00  0.00    -0.084 C  
BRANCH   4   5
HETATM    5  N   UNL     1      -8.857   6.383  70.328  1.00  0.00    -0.149 NA 
BRANCH   5   6
HETATM    6  C   UNL     1      -7.904   7.131  71.177  1.00  0.00    -0.098 C  
BRANCH   6   7
HETATM    7  C   UNL     1      -8.468   8.376  71.898  1.00  0.00    -0.237 C  
BRANCH   7   8
HETATM    8  C   UNL     1      -8.770   8.193  73.388  1.00  0.00    -0.318 C  
HETATM    9  C   UNL     1      -9.965   7.293  73.655  1.00  0.00    -0.377 C  
ENDBRANCH   7   8
ENDBRANCH   6   7
ENDBRANCH   5   6
BRANCH   5  10
HETATM   10  C   UNL     1      -9.091   7.105  69.046  1.00  0.00    -0.132 C  
BRANCH  10  11
HETATM   11  C   UNL     1     -10.575   7.420  68.676  1.00  0.00    -0.154 C  
HETATM   12  O   UNL     1     -11.468   6.362  69.021  1.00  0.00    -0.580 OA 
HETATM   13  H   UNL     1     -12.371   6.554  68.796  1.00  0.00     0.000 HD 
BRANCH  11  14
HETATM   14  C   UNL     1     -11.035   8.741  69.273  1.00  0.00    -0.006 A  
HETATM   15  C   UNL     1     -11.065   9.979  68.606  1.00  0.00    -0.223 A  
HETATM   16 CL   UNL     1     -10.236  12.318  63.177  1.00  0.00    -0.256 Cl 
HETATM   17  C   UNL     1     -10.933  12.354  65.783  1.00  0.00    -0.333 A  
HETATM   18  C   UNL     1     -11.634  11.111  69.267  1.00  0.00    -0.388 A  
HETATM   19  C   UNL     1     -11.554  12.252  68.319  1.00  0.00    -0.385 C  
HETATM   20  C   UNL     1     -12.173  11.024  70.543  1.00  0.00    -0.472 A  
HETATM   21  C   UNL     1     -11.723  13.567  68.556  1.00  0.00    -0.392 C  
HETATM   22  C   UNL     1     -11.056  11.741  67.021  1.00  0.00    -0.358 A  
HETATM   23  C   UNL     1     -12.089   9.818  71.216  1.00  0.00    -0.382 A  
HETATM   24  C   UNL     1     -10.678  10.394  67.243  1.00  0.00    -0.331 A  
HETATM   25  C   UNL     1     -10.368  11.622  64.744  1.00  0.00    -0.282 A  
HETATM   26 CL   UNL     1     -12.720   9.684  72.814  1.00  0.00     0.078 Cl 
HETATM   27  C   UNL     1     -11.527   8.698  70.601  1.00  0.00    -0.256 A  
HETATM   28  C   UNL     1      -9.904  10.321  64.959  1.00  0.00    -0.397 A  
HETATM   29  C   UNL     1     -10.045   9.714  66.211  1.00  0.00    -0.322 A  
BRANCH  21  30
HETATM   30  C   UNL     1     -12.030  14.153  69.860  1.00  0.00    -0.398 A  
HETATM   31  C   UNL     1     -12.514  15.019  72.467  1.00  0.00    -0.358 A  
HETATM   32 CL   UNL     1     -12.786  15.471  74.104  1.00  0.00    -0.677 Cl 
HETATM   33  C   UNL     1     -13.523  14.373  71.752  1.00  0.00    -0.456 A  
HETATM   34  C   UNL     1     -11.039  14.848  70.566  1.00  0.00    -0.196 A  
HETATM   35  C   UNL     1     -11.281  15.273  71.874  1.00  0.00    -0.350 A  
HETATM   36  C   UNL     1     -13.283  13.942  70.444  1.00  0.00     0.187 A  
ENDBRANCH  21  30
ENDBRANCH  11  14
ENDBRANCH  10  11
ENDBRANCH   5  10
ENDBRANCH   4   5
ENDBRANCH   3   4
ENDBRANCH   2   3
TORSDOF 10
ENDMDL
MODEL       37
REMARK 921   NORMALIZED FREE ENERGY PREDICTED BY IDOCK:   -5.72 KCAL/MOL
REMARK 922        TOTAL FREE ENERGY PREDICTED BY IDOCK:  -11.15 KCAL/MOL
REMARK 923 INTER-LIGAND FREE ENERGY PREDICTED BY IDOCK:   -8.72 KCAL/MOL
REMARK 924 INTRA-LIGAND FREE ENERGY PREDICTED BY IDOCK:   -2.43 KCAL/MOL
REMARK 927      BINDING AFFINITY PREDICTED BY RF-SCORE:    0.00 PKD
ROOT
HETATM    1  C   UNL     1     -11.606  15.962  64.483  1.00  0.00    -0.232 C  
HETATM    2  C   UNL     1     -10.297  15.521  65.123  1.00  0.00    -0.388 C  
ENDROOT
BRANCH   2   3
HETATM    3  C   UNL     1     -10.297  14.011  65.354  1.00  0.00    -0.377 C  
BRANCH   3   4
HETATM    4  C   UNL     1      -9.962  13.599  66.795  1.00  0.00    -0.270 C  
BRANCH   4   5
HETATM    5  N   UNL     1      -8.704  12.852  67.019  1.00  0.00    -0.209 NA 
BRANCH   5   6
HETATM    6  C   UNL     1      -8.299  12.879  68.441  1.00  0.00    -0.116 C  
BRANCH   6   7
HETATM    7  C   UNL     1      -7.046  12.053  68.807  1.00  0.00    -0.111 C  
BRANCH   7   8
HETATM    8  C   UNL     1      -7.315  10.760  69.582  1.00  0.00    -0.107 C  
HETATM    9  C   UNL     1      -6.634   9.543  68.978  1.00  0.00    -0.050 C  
ENDBRANCH   7   8
ENDBRANCH   6   7
ENDBRANCH   5   6
BRANCH   5  10
HETATM   10  C   UNL     1      -8.887  11.448  66.555  1.00  0.00    -0.187 C  
BRANCH  10  11
HETATM   11  C   UNL     1     -10.314  10.834  66.712  1.00  0.00    -0.243 C  
HETATM   12  O   UNL     1     -10.856  10.371  65.476  1.00  0.00    -0.002 OA 
HETATM   13  H   UNL     1     -11.725   9.998  65.572  1.00  0.00     0.000 HD 
BRANCH  11  14
HETATM   14  C   UNL     1     -10.343   9.739  67.767  1.00  0.00    -0.274 A  
HETATM   15  C   UNL     1     -10.891   9.855  69.058  1.00  0.00    -0.242 A  
HETATM   16 CL   UNL     1     -14.048  13.654  72.409  1.00  0.00    -0.642 Cl 
HETATM   17  C   UNL     1     -12.829  11.316  71.839  1.00  0.00    -0.386 A  
HETATM   18  C   UNL     1     -10.945   8.699  69.896  1.00  0.00    -0.169 A  
HETATM   19  C   UNL     1     -11.593   9.114  71.166  1.00  0.00    -0.386 C  
HETATM   20  C   UNL     1     -10.489   7.459  69.470  1.00  0.00    -0.236 A  
HETATM   21  C   UNL     1     -11.646   8.465  72.345  1.00  0.00    -0.450 C  
HETATM   22  C   UNL     1     -12.055  10.513  71.014  1.00  0.00    -0.492 A  
HETATM   23  C   UNL     1      -9.899   7.364  68.222  1.00  0.00    -0.160 A  
HETATM   24  C   UNL     1     -11.539  10.970  69.776  1.00  0.00    -0.401 A  
HETATM   25  C   UNL     1     -13.056  12.631  71.447  1.00  0.00    -0.216 A  
HETATM   26 CL   UNL     1      -9.293   5.846  67.675  1.00  0.00    -0.108 Cl 
HETATM   27  C   UNL     1      -9.819   8.479  67.385  1.00  0.00    -0.244 A  
HETATM   28  C   UNL     1     -12.483  13.134  70.274  1.00  0.00    -0.233 A  
HETATM   29  C   UNL     1     -11.714  12.307  69.449  1.00  0.00    -0.392 A  
BRANCH  21  30
HETATM   30  C   UNL     1     -11.041   7.160  72.614  1.00  0.00    -0.330 A  
HETATM   31  C   UNL     1      -9.984   4.704  73.406  1.00  0.00    -0.150 A  
HETATM   32 CL   UNL     1      -9.359   3.208  73.980  1.00  0.00    -0.096 Cl 
HETATM   33  C   UNL     1      -9.190   5.851  73.457  1.00  0.00    -0.131 A  
HETATM   34  C   UNL     1     -11.817   5.997  72.517  1.00  0.00    -0.236 A  
HETATM   35  C   UNL     1     -11.287   4.770  72.923  1.00  0.00    -0.258 A  
HETATM   36  C   UNL     1      -9.717   7.081  73.056  1.00  0.00    -0.198 A  
ENDBRANCH  21  30
ENDBRANCH  11  14
ENDBRANCH  10  11
ENDBRANCH   5  10
ENDBRANCH   4   5
ENDBRANCH   3   4
ENDBRANCH   2   3
TORSDOF 10
ENDMDL
MODEL       38
REMARK 921   NORMALIZED FREE ENERGY PREDICTED BY IDOCK:   -5.72 KCAL/MOL
REMARK 922        TOTAL FREE ENERGY PREDICTED BY IDOCK:  -11.14 KCAL/MOL
REMARK 923 INTER-LIGAND FREE ENERGY PREDICTED BY IDOCK:   -8.08 KCAL/MOL
REMARK 924 INTRA-LIGAND FREE ENERGY PREDICTED BY IDOCK:   -3.07 KCAL/MOL
REMARK 927      BINDING AFFINITY PREDICTED BY RF-SCORE:    0.00 PKD
ROOT
HETATM    1  C   UNL     1      -6.282   3.515  65.168  1.00  0.00    -0.024 C  
HETATM    2  C   UNL     1      -6.228   3.741  66.672  1.00  0.00    -0.032 C  
ENDROOT
BRANCH   2   3
HETATM    3  C   UNL     1      -7.349   4.680  67.112  1.00  0.00    -0.077 C  
BRANCH   3   4
HETATM    4  C   UNL     1      -6.866   6.072  67.545  1.00  0.00    -0.063 C  
BRANCH   4   5
HETATM    5  N   UNL     1      -7.871   7.003  68.104  1.00  0.00    -0.116 NA 
BRANCH   5   6
HETATM    6  C   UNL     1      -9.247   6.611  67.728  1.00  0.00    -0.111 C  
BRANCH   6   7
HETATM    7  C   UNL     1     -10.051   7.650  66.915  1.00  0.00    -0.348 C  
BRANCH   7   8
HETATM    8  C   UNL     1      -9.214   8.631  66.090  1.00  0.00    -0.271 C  
HETATM    9  C   UNL     1     -10.025   9.780  65.515  1.00  0.00    -0.329 C  
ENDBRANCH   7   8
ENDBRANCH   6   7
ENDBRANCH   5   6
BRANCH   5  10
HETATM   10  C   UNL     1      -7.725   7.037  69.587  1.00  0.00    -0.110 C  
BRANCH  10  11
HETATM   11  C   UNL     1      -7.298   8.398  70.221  1.00  0.00    -0.055 C  
HETATM   12  O   UNL     1      -5.882   8.540  70.325  1.00  0.00    -0.027 OA 
HETATM   13  H   UNL     1      -5.622   9.369  70.711  1.00  0.00     0.000 HD 
BRANCH  11  14
HETATM   14  C   UNL     1      -7.914   9.579  69.487  1.00  0.00    -0.110 A  
HETATM   15  C   UNL     1      -9.255   9.995  69.576  1.00  0.00    -0.238 A  
HETATM   16 CL   UNL     1     -14.255   8.828  72.621  1.00  0.00    -0.404 Cl 
HETATM   17  C   UNL     1     -12.704  10.184  70.880  1.00  0.00    -0.448 A  
HETATM   18  C   UNL     1      -9.656  11.195  68.914  1.00  0.00    -0.154 A  
HETATM   19  C   UNL     1     -11.099  11.392  69.208  1.00  0.00    -0.313 C  
HETATM   20  C   UNL     1      -8.760  11.974  68.196  1.00  0.00    -0.177 A  
HETATM   21  C   UNL     1     -11.981  12.222  68.621  1.00  0.00    -0.276 C  
HETATM   22  C   UNL     1     -11.517  10.358  70.183  1.00  0.00    -0.396 A  
HETATM   23  C   UNL     1      -7.456  11.530  68.064  1.00  0.00    -0.098 A  
HETATM   24  C   UNL     1     -10.420   9.471  70.317  1.00  0.00    -0.319 A  
HETATM   25  C   UNL     1     -12.824   9.065  71.698  1.00  0.00    -0.359 A  
HETATM   26 CL   UNL     1      -6.325  12.458  67.152  1.00  0.00    -0.142 Cl 
HETATM   27  C   UNL     1      -7.037  10.355  68.689  1.00  0.00    -0.076 A  
HETATM   28  C   UNL     1     -11.790   8.127  71.779  1.00  0.00    -0.346 A  
HETATM   29  C   UNL     1     -10.596   8.323  71.077  1.00  0.00    -0.243 A  
BRANCH  21  30
HETATM   30  C   UNL     1     -11.671  13.135  67.520  1.00  0.00    -0.414 A  
HETATM   31  C   UNL     1     -11.351  14.991  65.463  1.00  0.00    -0.312 A  
HETATM   32 CL   UNL     1     -11.238  16.163  64.210  1.00  0.00    -0.258 Cl 
HETATM   33  C   UNL     1     -11.851  13.720  65.180  1.00  0.00    -0.365 A  
HETATM   34  C   UNL     1     -11.121  14.396  67.790  1.00  0.00    -0.299 A  
HETATM   35  C   UNL     1     -10.969  15.326  66.759  1.00  0.00    -0.306 A  
HETATM   36  C   UNL     1     -12.008  12.788  66.208  1.00  0.00    -0.460 A  
ENDBRANCH  21  30
ENDBRANCH  11  14
ENDBRANCH  10  11
ENDBRANCH   5  10
ENDBRANCH   4   5
ENDBRANCH   3   4
ENDBRANCH   2   3
TORSDOF 10
ENDMDL
MODEL       39
REMARK 921   NORMALIZED FREE ENERGY PREDICTED BY IDOCK:   -5.67 KCAL/MOL
REMARK 922        TOTAL FREE ENERGY PREDICTED BY IDOCK:  -11.06 KCAL/MOL
REMARK 923 INTER-LIGAND FREE ENERGY PREDICTED BY IDOCK:   -9.43 KCAL/MOL
REMARK 924 INTRA-LIGAND FREE ENERGY PREDICTED BY IDOCK:   -1.64 KCAL/MOL
REMARK 927      BINDING AFFINITY PREDICTED BY RF-SCORE:    0.00 PKD
ROOT
HETATM    1  C   UNL     1     -13.853  13.748  72.406  1.00  0.00    -0.681 C  
HETATM    2  C   UNL     1     -12.814  13.514  71.318  1.00  0.00    -0.420 C  
ENDROOT
BRANCH   2   3
HETATM    3  C   UNL     1     -12.772  14.700  70.356  1.00  0.00    -0.370 C  
BRANCH   3   4
HETATM    4  C   UNL     1     -11.789  14.525  69.189  1.00  0.00    -0.319 C  
BRANCH   4   5
HETATM    5  N   UNL     1     -12.209  13.663  68.063  1.00  0.00    -0.257 NA 
BRANCH   5   6
HETATM    6  C   UNL     1     -11.882  14.275  66.755  1.00  0.00    -0.426 C  
BRANCH   6   7
HETATM    7  C   UNL     1     -12.673  13.743  65.540  1.00  0.00    -0.530 C  
BRANCH   7   8
HETATM    8  C   UNL     1     -11.836  13.426  64.298  1.00  0.00    -0.470 C  
HETATM    9  C   UNL     1     -12.275  12.158  63.583  1.00  0.00    -0.663 C  
ENDBRANCH   7   8
ENDBRANCH   6   7
ENDBRANCH   5   6
BRANCH   5  10
HETATM   10  C   UNL     1     -11.547  12.335  68.198  1.00  0.00    -0.339 C  
BRANCH  10  11
HETATM   11  C   UNL     1     -10.073  12.229  67.693  1.00  0.00    -0.200 C  
HETATM   12  O   UNL     1      -9.116  12.497  68.718  1.00  0.00    -0.389 OA 
HETATM   13  H   UNL     1      -8.220  12.432  68.411  1.00  0.00     0.000 HD 
BRANCH  11  14
HETATM   14  C   UNL     1      -9.801  10.889  67.027  1.00  0.00    -0.214 A  
HETATM   15  C   UNL     1      -9.876   9.630  67.651  1.00  0.00    -0.202 A  
HETATM   16 CL   UNL     1     -11.531   7.128  72.812  1.00  0.00    -0.270 Cl 
HETATM   17  C   UNL     1     -10.693   7.137  70.247  1.00  0.00    -0.258 A  
HETATM   18  C   UNL     1      -9.704   8.452  66.861  1.00  0.00    -0.292 A  
HETATM   19  C   UNL     1      -9.865   7.291  67.773  1.00  0.00    -0.181 C  
HETATM   20  C   UNL     1      -9.480   8.509  65.493  1.00  0.00     0.051 A  
HETATM   21  C   UNL     1      -9.552   5.998  67.567  1.00  0.00    -0.116 C  
HETATM   22  C   UNL     1     -10.282   7.800  69.100  1.00  0.00    -0.210 A  
HETATM   23  C   UNL     1      -9.349   9.751  64.895  1.00  0.00    -0.265 A  
HETATM   24  C   UNL     1     -10.189   9.212  69.031  1.00  0.00    -0.219 A  
HETATM   25  C   UNL     1     -10.972   7.897  71.379  1.00  0.00    -0.232 A  
HETATM   26 CL   UNL     1      -9.038   9.857  63.203  1.00  0.00    -0.276 Cl 
HETATM   27  C   UNL     1      -9.499  10.920  65.643  1.00  0.00    -0.252 A  
HETATM   28  C   UNL     1     -10.802   9.285  71.364  1.00  0.00    -0.434 A  
HETATM   29  C   UNL     1     -10.397   9.939  70.196  1.00  0.00    -0.336 A  
BRANCH  21  30
HETATM   30  C   UNL     1      -8.958   5.462  66.342  1.00  0.00    -0.131 A  
HETATM   31  C   UNL     1      -7.809   4.180  64.148  1.00  0.00    -0.085 A  
HETATM   32 CL   UNL     1      -7.093   3.315  62.845  1.00  0.00    -0.046 Cl 
HETATM   33  C   UNL     1      -6.996   4.833  65.075  1.00  0.00    -0.061 A  
HETATM   34  C   UNL     1      -9.772   4.849  65.380  1.00  0.00    -0.090 A  
HETATM   35  C   UNL     1      -9.193   4.201  64.287  1.00  0.00    -0.150 A  
HETATM   36  C   UNL     1      -7.570   5.479  66.173  1.00  0.00    -0.091 A  
ENDBRANCH  21  30
ENDBRANCH  11  14
ENDBRANCH  10  11
ENDBRANCH   5  10
ENDBRANCH   4   5
ENDBRANCH   3   4
ENDBRANCH   2   3
TORSDOF 10
ENDMDL
MODEL       40
REMARK 921   NORMALIZED FREE ENERGY PREDICTED BY IDOCK:   -5.66 KCAL/MOL
REMARK 922        TOTAL FREE ENERGY PREDICTED BY IDOCK:  -11.06 KCAL/MOL
REMARK 923 INTER-LIGAND FREE ENERGY PREDICTED BY IDOCK:   -9.16 KCAL/MOL
REMARK 924 INTRA-LIGAND FREE ENERGY PREDICTED BY IDOCK:   -1.90 KCAL/MOL
REMARK 927      BINDING AFFINITY PREDICTED BY RF-SCORE:    0.00 PKD
ROOT
HETATM    1  C   UNL     1      -8.596   4.105  72.021  1.00  0.00    -0.116 C  
HETATM    2  C   UNL     1     -10.060   3.693  72.081  1.00  0.00    -0.212 C  
ENDROOT
BRANCH   2   3
HETATM    3  C   UNL     1     -10.869   4.709  72.885  1.00  0.00    -0.295 C  
BRANCH   3   4
HETATM    4  C   UNL     1     -10.041   5.495  73.913  1.00  0.00    -0.219 C  
BRANCH   4   5
HETATM    5  N   UNL     1     -10.041   6.971  73.808  1.00  0.00    -0.324 NA 
BRANCH   5   6
HETATM    6  C   UNL     1      -8.807   7.559  74.375  1.00  0.00    -0.148 C  
BRANCH   6   7
HETATM    7  C   UNL     1      -7.579   6.625  74.444  1.00  0.00    -0.101 C  
BRANCH   7   8
HETATM    8  C   UNL     1      -6.494   6.887  73.396  1.00  0.00    -0.066 C  
HETATM    9  C   UNL     1      -6.622   8.243  72.722  1.00  0.00    -0.101 C  
ENDBRANCH   7   8
ENDBRANCH   6   7
ENDBRANCH   5   6
BRANCH   5  10
HETATM   10  C   UNL     1     -10.191   7.354  72.376  1.00  0.00    -0.199 C  
BRANCH  10  11
HETATM   11  C   UNL     1     -11.593   7.874  71.929  1.00  0.00    -0.292 C  
HETATM   12  O   UNL     1     -12.416   8.262  73.029  1.00  0.00    -0.673 OA 
HETATM   13  H   UNL     1     -13.269   8.579  72.757  1.00  0.00     0.000 HD 
BRANCH  11  14
HETATM   14  C   UNL     1     -11.478   8.997  70.910  1.00  0.00    -0.347 A  
HETATM   15  C   UNL     1     -11.028   8.863  69.584  1.00  0.00    -0.132 A  
HETATM   16 CL   UNL     1      -9.451   4.658  65.651  1.00  0.00    -0.165 Cl 
HETATM   17  C   UNL     1     -10.021   7.166  66.463  1.00  0.00    -0.173 A  
HETATM   18  C   UNL     1     -11.086   9.993  68.712  1.00  0.00    -0.219 A  
HETATM   19  C   UNL     1     -10.580   9.546  67.389  1.00  0.00    -0.337 C  
HETATM   20  C   UNL     1     -11.589  11.218  69.127  1.00  0.00    -0.387 A  
HETATM   21  C   UNL     1     -10.207  10.285  66.327  1.00  0.00    -0.287 C  
HETATM   22  C   UNL     1     -10.353   8.084  67.450  1.00  0.00    -0.354 A  
HETATM   23  C   UNL     1     -11.976  11.360  70.448  1.00  0.00    -0.374 A  
HETATM   24  C   UNL     1     -10.536   7.709  68.805  1.00  0.00    -0.208 A  
HETATM   25  C   UNL     1      -9.816   5.844  66.842  1.00  0.00    -0.156 A  
HETATM   26 CL   UNL     1     -12.575  12.878  71.004  1.00  0.00    -0.431 Cl 
HETATM   27  C   UNL     1     -11.919  10.278  71.328  1.00  0.00    -0.457 A  
HETATM   28  C   UNL     1      -9.902   5.465  68.186  1.00  0.00    -0.188 A  
HETATM   29  C   UNL     1     -10.247   6.400  69.166  1.00  0.00    -0.217 A  
BRANCH  21  30
HETATM   30  C   UNL     1     -10.229  11.748  66.273  1.00  0.00    -0.255 A  
HETATM   31  C   UNL     1     -10.430  14.525  66.419  1.00  0.00    -0.295 A  
HETATM   32 CL   UNL     1     -10.607  16.228  66.582  1.00  0.00    -0.287 Cl 
HETATM   33  C   UNL     1     -11.372  13.798  65.691  1.00  0.00    -0.311 A  
HETATM   34  C   UNL     1      -9.257  12.488  66.959  1.00  0.00    -0.214 A  
HETATM   35  C   UNL     1      -9.365  13.878  67.038  1.00  0.00    -0.255 A  
HETATM   36  C   UNL     1     -11.270  12.407  65.613  1.00  0.00    -0.360 A  
ENDBRANCH  21  30
ENDBRANCH  11  14
ENDBRANCH  10  11
ENDBRANCH   5  10
ENDBRANCH   4   5
ENDBRANCH   3   4
ENDBRANCH   2   3
TORSDOF 10
ENDMDL
MODEL       41
REMARK 921   NORMALIZED FREE ENERGY PREDICTED BY IDOCK:   -5.63 KCAL/MOL
REMARK 922        TOTAL FREE ENERGY PREDICTED BY IDOCK:  -11.00 KCAL/MOL
REMARK 923 INTER-LIGAND FREE ENERGY PREDICTED BY IDOCK:   -9.34 KCAL/MOL
REMARK 924 INTRA-LIGAND FREE ENERGY PREDICTED BY IDOCK:   -1.66 KCAL/MOL
REMARK 927      BINDING AFFINITY PREDICTED BY RF-SCORE:    0.00 PKD
ROOT
HETATM    1  C   UNL     1     -10.636  19.016  66.980  1.00  0.00    -0.543 C  
HETATM    2  C   UNL     1     -10.172  17.575  67.132  1.00  0.00    -0.323 C  
ENDROOT
BRANCH   2   3
HETATM    3  C   UNL     1     -10.425  16.793  65.845  1.00  0.00    -0.311 C  
BRANCH   3   4
HETATM    4  C   UNL     1     -10.453  15.269  66.033  1.00  0.00    -0.317 C  
BRANCH   4   5
HETATM    5  N   UNL     1     -11.770  14.629  66.245  1.00  0.00    -0.354 NA 
BRANCH   5   6
HETATM    6  C   UNL     1     -12.342  14.123  64.978  1.00  0.00    -0.440 C  
BRANCH   6   7
HETATM    7  C   UNL     1     -12.534  12.593  64.881  1.00  0.00    -0.564 C  
BRANCH   7   8
HETATM    8  C   UNL     1     -11.805  11.911  63.721  1.00  0.00    -0.558 C  
HETATM    9  C   UNL     1     -10.353  12.340  63.586  1.00  0.00    -0.463 C  
ENDBRANCH   7   8
ENDBRANCH   6   7
ENDBRANCH   5   6
BRANCH   5  10
HETATM   10  C   UNL     1     -11.615  13.518  67.227  1.00  0.00    -0.362 C  
BRANCH  10  11
HETATM   11  C   UNL     1     -10.214  13.362  67.898  1.00  0.00    -0.241 C  
HETATM   12  O   UNL     1     -10.209  13.761  69.269  1.00  0.00    -0.432 OA 
HETATM   13  H   UNL     1      -9.357  13.665  69.677  1.00  0.00     0.000 HD 
BRANCH  11  14
HETATM   14  C   UNL     1      -9.665  11.953  67.736  1.00  0.00    -0.189 A  
HETATM   15  C   UNL     1     -10.065  10.825  68.474  1.00  0.00    -0.187 A  
HETATM   16 CL   UNL     1     -14.139   9.154  72.506  1.00  0.00    -0.479 Cl 
HETATM   17  C   UNL     1     -12.121   8.775  70.755  1.00  0.00    -0.110 A  
HETATM   18  C   UNL     1      -9.538   9.543  68.126  1.00  0.00    -0.153 A  
HETATM   19  C   UNL     1     -10.157   8.555  69.046  1.00  0.00    -0.207 C  
HETATM   20  C   UNL     1      -8.653   9.374  67.070  1.00  0.00    -0.131 A  
HETATM   21  C   UNL     1      -9.803   7.277  69.283  1.00  0.00    -0.166 C  
HETATM   22  C   UNL     1     -11.177   9.255  69.859  1.00  0.00    -0.145 A  
HETATM   23  C   UNL     1      -8.218  10.495  66.385  1.00  0.00    -0.140 A  
HETATM   24  C   UNL     1     -11.039  10.635  69.568  1.00  0.00    -0.328 A  
HETATM   25  C   UNL     1     -12.920   9.699  71.421  1.00  0.00    -0.385 A  
HETATM   26 CL   UNL     1      -7.095  10.323  65.089  1.00  0.00    -0.136 Cl 
HETATM   27  C   UNL     1      -8.706  11.762  66.711  1.00  0.00    -0.192 A  
HETATM   28  C   UNL     1     -12.743  11.071  71.219  1.00  0.00    -0.537 A  
HETATM   29  C   UNL     1     -11.794  11.538  70.305  1.00  0.00    -0.431 A  
BRANCH  21  30
HETATM   30  C   UNL     1      -8.681   6.584  68.649  1.00  0.00    -0.123 A  
HETATM   31  C   UNL     1      -6.489   5.516  67.296  1.00  0.00    -0.048 A  
HETATM   32 CL   UNL     1      -5.130   4.937  66.417  1.00  0.00    -0.008 Cl 
HETATM   33  C   UNL     1      -7.769   5.387  66.756  1.00  0.00    -0.100 A  
HETATM   34  C   UNL     1      -7.400   6.666  69.211  1.00  0.00    -0.093 A  
HETATM   35  C   UNL     1      -6.303   6.138  68.527  1.00  0.00    -0.040 A  
HETATM   36  C   UNL     1      -8.869   5.917  67.435  1.00  0.00    -0.106 A  
ENDBRANCH  21  30
ENDBRANCH  11  14
ENDBRANCH  10  11
ENDBRANCH   5  10
ENDBRANCH   4   5
ENDBRANCH   3   4
ENDBRANCH   2   3
TORSDOF 10
ENDMDL
MODEL       42
REMARK 921   NORMALIZED FREE ENERGY PREDICTED BY IDOCK:   -5.60 KCAL/MOL
REMARK 922        TOTAL FREE ENERGY PREDICTED BY IDOCK:  -10.96 KCAL/MOL
REMARK 923 INTER-LIGAND FREE ENERGY PREDICTED BY IDOCK:   -9.52 KCAL/MOL
REMARK 924 INTRA-LIGAND FREE ENERGY PREDICTED BY IDOCK:   -1.43 KCAL/MOL
REMARK 927      BINDING AFFINITY PREDICTED BY RF-SCORE:    0.00 PKD
ROOT
HETATM    1  C   UNL     1      -6.760  11.248  69.850  1.00  0.00    -0.067 C  
HETATM    2  C   UNL     1      -7.690  11.112  68.652  1.00  0.00    -0.135 C  
ENDROOT
BRANCH   2   3
HETATM    3  C   UNL     1      -7.031  11.678  67.396  1.00  0.00    -0.117 C  
BRANCH   3   4
HETATM    4  C   UNL     1      -7.085  13.210  67.296  1.00  0.00    -0.020 C  
BRANCH   4   5
HETATM    5  N   UNL     1      -8.412  13.856  67.390  1.00  0.00    -0.189 NA 
BRANCH   5   6
HETATM    6  C   UNL     1      -8.300  15.331  67.430  1.00  0.00    -0.181 C  
BRANCH   6   7
HETATM    7  C   UNL     1      -6.882  15.910  67.231  1.00  0.00    -0.232 C  
BRANCH   7   8
HETATM    8  C   UNL     1      -5.879  15.591  68.342  1.00  0.00    -0.109 C  
HETATM    9  C   UNL     1      -6.263  16.181  69.689  1.00  0.00    -0.191 C  
ENDBRANCH   7   8
ENDBRANCH   6   7
ENDBRANCH   5   6
BRANCH   5  10
HETATM   10  C   UNL     1      -9.241  13.427  66.229  1.00  0.00    -0.050 C  
BRANCH  10  11
HETATM   11  C   UNL     1     -10.732  13.066  66.523  1.00  0.00    -0.278 C  
HETATM   12  O   UNL     1     -11.494  12.851  65.336  1.00  0.00    -0.306 OA 
HETATM   13  H   UNL     1     -12.401  12.631  65.515  1.00  0.00     0.000 HD 
BRANCH  11  14
HETATM   14  C   UNL     1     -10.848  11.882  67.469  1.00  0.00    -0.283 A  
HETATM   15  C   UNL     1     -11.352  11.923  68.782  1.00  0.00    -0.330 A  
HETATM   16 CL   UNL     1     -14.035  15.668  72.578  1.00  0.00    -0.646 Cl 
HETATM   17  C   UNL     1     -13.071  13.289  71.750  1.00  0.00    -0.472 A  
HETATM   18  C   UNL     1     -11.504  10.702  69.507  1.00  0.00    -0.360 A  
HETATM   19  C   UNL     1     -12.077  11.053  70.832  1.00  0.00    -0.444 C  
HETATM   20  C   UNL     1     -11.184   9.471  68.952  1.00  0.00     0.037 A  
HETATM   21  C   UNL     1     -12.169  10.300  71.945  1.00  0.00    -0.130 C  
HETATM   22  C   UNL     1     -12.400  12.498  70.828  1.00  0.00    -0.376 A  
HETATM   23  C   UNL     1     -10.635   9.441  67.681  1.00  0.00    -0.271 A  
HETATM   24  C   UNL     1     -11.868  13.021  69.623  1.00  0.00    -0.385 A  
HETATM   25  C   UNL     1     -13.173  14.652  71.491  1.00  0.00    -0.355 A  
HETATM   26 CL   UNL     1     -10.197   7.932  66.974  1.00  0.00    -0.354 Cl 
HETATM   27  C   UNL     1     -10.462  10.619  66.953  1.00  0.00    -0.304 A  
HETATM   28  C   UNL     1     -12.578  15.208  70.354  1.00  0.00    -0.405 A  
HETATM   29  C   UNL     1     -11.915  14.395  69.430  1.00  0.00    -0.370 A  
BRANCH  21  30
HETATM   30  C   UNL     1     -11.693   8.922  72.069  1.00  0.00    -0.438 A  
HETATM   31  C   UNL     1     -10.775   6.290  72.008  1.00  0.00    -0.228 A  
HETATM   32 CL   UNL     1     -10.212   4.670  71.880  1.00  0.00    -0.264 Cl 
HETATM   33  C   UNL     1     -12.146   6.546  72.029  1.00  0.00    -0.358 A  
HETATM   34  C   UNL     1     -10.318   8.656  72.099  1.00  0.00    -0.403 A  
HETATM   35  C   UNL     1      -9.861   7.338  72.060  1.00  0.00    -0.183 A  
HETATM   36  C   UNL     1     -12.608   7.864  72.064  1.00  0.00    -0.327 A  
ENDBRANCH  21  30
ENDBRANCH  11  14
ENDBRANCH  10  11
ENDBRANCH   5  10
ENDBRANCH   4   5
ENDBRANCH   3   4
ENDBRANCH   2   3
TORSDOF 10
ENDMDL
MODEL       43
REMARK 921   NORMALIZED FREE ENERGY PREDICTED BY IDOCK:   -5.58 KCAL/MOL
REMARK 922        TOTAL FREE ENERGY PREDICTED BY IDOCK:  -10.93 KCAL/MOL
REMARK 923 INTER-LIGAND FREE ENERGY PREDICTED BY IDOCK:   -8.84 KCAL/MOL
REMARK 924 INTRA-LIGAND FREE ENERGY PREDICTED BY IDOCK:   -2.09 KCAL/MOL
REMARK 927      BINDING AFFINITY PREDICTED BY RF-SCORE:    0.00 PKD
ROOT
HETATM    1  C   UNL     1      -8.826  17.203  66.764  1.00  0.00    -0.270 C  
HETATM    2  C   UNL     1      -7.841  16.048  66.650  1.00  0.00    -0.266 C  
ENDROOT
BRANCH   2   3
HETATM    3  C   UNL     1      -8.335  14.844  67.448  1.00  0.00    -0.213 C  
BRANCH   3   4
HETATM    4  C   UNL     1      -9.262  15.205  68.618  1.00  0.00    -0.196 C  
BRANCH   4   5
HETATM    5  N   UNL     1     -10.575  14.526  68.686  1.00  0.00    -0.248 NA 
BRANCH   5   6
HETATM    6  C   UNL     1     -11.679  15.491  68.882  1.00  0.00    -0.370 C  
BRANCH   6   7
HETATM    7  C   UNL     1     -12.610  15.225  70.086  1.00  0.00    -0.334 C  
BRANCH   7   8
HETATM    8  C   UNL     1     -11.947  14.561  71.295  1.00  0.00    -0.396 C  
HETATM    9  C   UNL     1     -12.935  14.154  72.376  1.00  0.00    -0.478 C  
ENDBRANCH   7   8
ENDBRANCH   6   7
ENDBRANCH   5   6
BRANCH   5  10
HETATM   10  C   UNL     1     -10.781  13.745  67.434  1.00  0.00    -0.275 C  
BRANCH  10  11
HETATM   11  C   UNL     1     -11.884  12.640  67.467  1.00  0.00    -0.334 C  
HETATM   12  O   UNL     1     -12.154  12.089  66.179  1.00  0.00    -0.582 OA 
HETATM   13  H   UNL     1     -12.824  11.416  66.199  1.00  0.00     0.000 HD 
BRANCH  11  14
HETATM   14  C   UNL     1     -11.555  11.547  68.472  1.00  0.00    -0.377 A  
HETATM   15  C   UNL     1     -10.461  10.666  68.402  1.00  0.00    -0.212 A  
HETATM   16 CL   UNL     1      -5.514   9.699  65.204  1.00  0.00    -0.046 Cl 
HETATM   17  C   UNL     1      -7.236   9.294  67.241  1.00  0.00    -0.087 A  
HETATM   18  C   UNL     1     -10.222   9.766  69.485  1.00  0.00    -0.238 A  
HETATM   19  C   UNL     1      -8.999   8.994  69.146  1.00  0.00    -0.140 C  
HETATM   20  C   UNL     1     -11.027   9.744  70.615  1.00  0.00    -0.398 A  
HETATM   21  C   UNL     1      -8.517   7.873  69.715  1.00  0.00    -0.132 C  
HETATM   22  C   UNL     1      -8.429   9.555  67.900  1.00  0.00    -0.119 A  
HETATM   23  C   UNL     1     -12.136  10.572  70.654  1.00  0.00    -0.356 A  
HETATM   24  C   UNL     1      -9.374  10.494  67.418  1.00  0.00    -0.158 A  
HETATM   25  C   UNL     1      -6.997   9.950  66.037  1.00  0.00    -0.104 A  
HETATM   26 CL   UNL     1     -13.175  10.547  72.028  1.00  0.00    -0.554 Cl 
HETATM   27  C   UNL     1     -12.403  11.453  69.604  1.00  0.00    -0.236 A  
HETATM   28  C   UNL     1      -7.954  10.813  65.494  1.00  0.00    -0.064 A  
HETATM   29  C   UNL     1      -9.146  11.073  66.176  1.00  0.00    -0.208 A  
BRANCH  21  30
HETATM   30  C   UNL     1      -9.140   7.162  70.832  1.00  0.00    -0.152 A  
HETATM   31  C   UNL     1     -10.098   5.618  72.947  1.00  0.00    -0.176 A  
HETATM   32 CL   UNL     1     -10.620   4.609  74.238  1.00  0.00    -0.330 Cl 
HETATM   33  C   UNL     1     -10.509   5.340  71.643  1.00  0.00    -0.280 A  
HETATM   34  C   UNL     1      -8.772   7.468  72.149  1.00  0.00    -0.140 A  
HETATM   35  C   UNL     1      -9.246   6.687  73.205  1.00  0.00    -0.145 A  
HETATM   36  C   UNL     1     -10.033   6.116  70.582  1.00  0.00    -0.229 A  
ENDBRANCH  21  30
ENDBRANCH  11  14
ENDBRANCH  10  11
ENDBRANCH   5  10
ENDBRANCH   4   5
ENDBRANCH   3   4
ENDBRANCH   2   3
TORSDOF 10
ENDMDL
MODEL       44
REMARK 921   NORMALIZED FREE ENERGY PREDICTED BY IDOCK:   -5.37 KCAL/MOL
REMARK 922        TOTAL FREE ENERGY PREDICTED BY IDOCK:  -10.60 KCAL/MOL
REMARK 923 INTER-LIGAND FREE ENERGY PREDICTED BY IDOCK:   -8.98 KCAL/MOL
REMARK 924 INTRA-LIGAND FREE ENERGY PREDICTED BY IDOCK:   -1.62 KCAL/MOL
REMARK 927      BINDING AFFINITY PREDICTED BY RF-SCORE:    0.00 PKD
ROOT
HETATM    1  C   UNL     1     -10.639  18.711  66.818  1.00  0.00    -0.422 C  
HETATM    2  C   UNL     1     -10.092  17.308  67.040  1.00  0.00    -0.303 C  
ENDROOT
BRANCH   2   3
HETATM    3  C   UNL     1     -10.557  16.370  65.928  1.00  0.00    -0.294 C  
BRANCH   3   4
HETATM    4  C   UNL     1     -10.478  14.880  66.291  1.00  0.00    -0.302 C  
BRANCH   4   5
HETATM    5  N   UNL     1     -11.742  14.188  66.625  1.00  0.00    -0.384 NA 
BRANCH   5   6
HETATM    6  C   UNL     1     -12.532  13.877  65.413  1.00  0.00    -0.501 C  
BRANCH   6   7
HETATM    7  C   UNL     1     -12.654  12.382  65.046  1.00  0.00    -0.305 C  
BRANCH   7   8
HETATM    8  C   UNL     1     -12.325  12.032  63.592  1.00  0.00    -0.648 C  
HETATM    9  C   UNL     1     -10.845  12.143  63.265  1.00  0.00    -0.381 C  
ENDBRANCH   7   8
ENDBRANCH   6   7
ENDBRANCH   5   6
BRANCH   5  10
HETATM   10  C   UNL     1     -11.426  12.939  67.375  1.00  0.00    -0.336 C  
BRANCH  10  11
HETATM   11  C   UNL     1      -9.921  12.534  67.465  1.00  0.00    -0.201 C  
HETATM   12  O   UNL     1      -9.337  12.848  68.728  1.00  0.00    -0.406 OA 
HETATM   13  H   UNL     1      -8.421  12.601  68.783  1.00  0.00     0.000 HD 
BRANCH  11  14
HETATM   14  C   UNL     1      -9.710  11.069  67.114  1.00  0.00    -0.198 A  
HETATM   15  C   UNL     1     -10.123   9.970  67.889  1.00  0.00    -0.203 A  
HETATM   16 CL   UNL     1     -13.307   8.708  72.779  1.00  0.00    -0.273 Cl 
HETATM   17  C   UNL     1     -11.900   8.129  70.550  1.00  0.00    -0.010 A  
HETATM   18  C   UNL     1      -9.955   8.650  67.369  1.00  0.00    -0.270 A  
HETATM   19  C   UNL     1     -10.502   7.712  68.382  1.00  0.00    -0.208 C  
HETATM   20  C   UNL     1      -9.410   8.418  66.114  1.00  0.00    -0.267 A  
HETATM   21  C   UNL     1     -10.353   6.377  68.473  1.00  0.00    -0.227 C  
HETATM   22  C   UNL     1     -11.135   8.510  69.458  1.00  0.00     0.039 A  
HETATM   23  C   UNL     1      -8.953   9.499  65.381  1.00  0.00    -0.201 A  
HETATM   24  C   UNL     1     -10.811   9.863  69.191  1.00  0.00    -0.248 A  
HETATM   25  C   UNL     1     -12.315   9.119  71.435  1.00  0.00    -0.333 A  
HETATM   26 CL   UNL     1      -8.242   9.242  63.832  1.00  0.00    -0.155 Cl 
HETATM   27  C   UNL     1      -9.092  10.799  65.868  1.00  0.00    -0.208 A  
HETATM   28  C   UNL     1     -11.934  10.451  71.244  1.00  0.00    -0.425 A  
HETATM   29  C   UNL     1     -11.171  10.819  70.131  1.00  0.00    -0.345 A  
BRANCH  21  30
HETATM   30  C   UNL     1      -9.579   5.553  67.544  1.00  0.00    -0.131 A  
HETATM   31  C   UNL     1      -8.051   4.233  65.620  1.00  0.00    -0.105 A  
HETATM   32 CL   UNL     1      -7.101   3.497  64.389  1.00  0.00    -0.056 Cl 
HETATM   33  C   UNL     1      -9.434   4.329  65.462  1.00  0.00    -0.176 A  
HETATM   34  C   UNL     1      -8.196   5.409  67.721  1.00  0.00    -0.100 A  
HETATM   35  C   UNL     1      -7.433   4.754  66.752  1.00  0.00    -0.086 A  
HETATM   36  C   UNL     1     -10.201   4.986  66.427  1.00  0.00    -0.307 A  
ENDBRANCH  21  30
ENDBRANCH  11  14
ENDBRANCH  10  11
ENDBRANCH   5  10
ENDBRANCH   4   5
ENDBRANCH   3   4
ENDBRANCH   2   3
TORSDOF 10
ENDMDL
MODEL       45
REMARK 921   NORMALIZED FREE ENERGY PREDICTED BY IDOCK:   -5.34 KCAL/MOL
REMARK 922        TOTAL FREE ENERGY PREDICTED BY IDOCK:  -10.55 KCAL/MOL
REMARK 923 INTER-LIGAND FREE ENERGY PREDICTED BY IDOCK:   -7.27 KCAL/MOL
REMARK 924 INTRA-LIGAND FREE ENERGY PREDICTED BY IDOCK:   -3.29 KCAL/MOL
REMARK 927      BINDING AFFINITY PREDICTED BY RF-SCORE:    0.00 PKD
ROOT
HETATM    1  C   UNL     1      -7.384  10.050  70.163  1.00  0.00    -0.171 C  
HETATM    2  C   UNL     1      -7.317   8.563  70.481  1.00  0.00    -0.060 C  
ENDROOT
BRANCH   2   3
HETATM    3  C   UNL     1      -6.142   7.913  69.753  1.00  0.00    -0.026 C  
BRANCH   3   4
HETATM    4  C   UNL     1      -6.529   6.691  68.906  1.00  0.00    -0.039 C  
BRANCH   4   5
HETATM    5  N   UNL     1      -6.956   6.932  67.511  1.00  0.00    -0.080 NA 
BRANCH   5   6
HETATM    6  C   UNL     1      -5.821   6.831  66.567  1.00  0.00    -0.025 C  
BRANCH   6   7
HETATM    7  C   UNL     1      -5.356   8.154  65.919  1.00  0.00    -0.028 C  
BRANCH   7   8
HETATM    8  C   UNL     1      -6.058   9.417  66.425  1.00  0.00    -0.060 C  
HETATM    9  C   UNL     1      -5.498  10.698  65.828  1.00  0.00    -0.121 C  
ENDBRANCH   7   8
ENDBRANCH   6   7
ENDBRANCH   5   6
BRANCH   5  10
HETATM   10  C   UNL     1      -8.019   5.950  67.155  1.00  0.00    -0.102 C  
BRANCH  10  11
HETATM   11  C   UNL     1      -9.011   6.366  66.022  1.00  0.00    -0.130 C  
HETATM   12  O   UNL     1     -10.222   5.612  66.043  1.00  0.00    -0.390 OA 
HETATM   13  H   UNL     1     -10.825   5.865  65.354  1.00  0.00     0.000 HD 
BRANCH  11  14
HETATM   14  C   UNL     1      -9.296   7.860  66.044  1.00  0.00    -0.129 A  
HETATM   15  C   UNL     1      -9.875   8.572  67.110  1.00  0.00    -0.269 A  
HETATM   16 CL   UNL     1     -11.616   7.801  72.768  1.00  0.00    -0.400 Cl 
HETATM   17  C   UNL     1     -11.106   9.219  70.530  1.00  0.00    -0.317 A  
HETATM   18  C   UNL     1      -9.973   9.995  67.024  1.00  0.00    -0.257 A  
HETATM   19  C   UNL     1     -10.589  10.464  68.291  1.00  0.00    -0.245 C  
HETATM   20  C   UNL     1      -9.499  10.700  65.927  1.00  0.00    -0.239 A  
HETATM   21  C   UNL     1     -11.113  11.669  68.586  1.00  0.00    -0.287 C  
HETATM   22  C   UNL     1     -10.725   9.301  69.198  1.00  0.00    -0.202 A  
HETATM   23  C   UNL     1      -8.983   9.990  64.856  1.00  0.00    -0.205 A  
HETATM   24  C   UNL     1     -10.380   8.159  68.434  1.00  0.00    -0.236 A  
HETATM   25  C   UNL     1     -11.195   7.956  71.107  1.00  0.00    -0.261 A  
HETATM   26 CL   UNL     1      -8.416  10.833  63.464  1.00  0.00    -0.081 Cl 
HETATM   27  C   UNL     1      -8.887   8.598  64.905  1.00  0.00    -0.076 A  
HETATM   28  C   UNL     1     -10.947   6.807  70.350  1.00  0.00    -0.330 A  
HETATM   29  C   UNL     1     -10.554   6.909  69.012  1.00  0.00    -0.240 A  
BRANCH  21  30
HETATM   30  C   UNL     1     -11.180  12.804  67.666  1.00  0.00    -0.323 A  
HETATM   31  C   UNL     1     -11.165  14.797  65.715  1.00  0.00    -0.337 A  
HETATM   32 CL   UNL     1     -11.107  15.970  64.458  1.00  0.00    -0.399 Cl 
HETATM   33  C   UNL     1     -10.131  14.733  66.650  1.00  0.00    -0.269 A  
HETATM   34  C   UNL     1     -12.241  12.905  66.755  1.00  0.00    -0.204 A  
HETATM   35  C   UNL     1     -12.226  13.899  65.774  1.00  0.00    -0.488 A  
HETATM   36  C   UNL     1     -10.140  13.738  67.631  1.00  0.00    -0.242 A  
ENDBRANCH  21  30
ENDBRANCH  11  14
ENDBRANCH  10  11
ENDBRANCH   5  10
ENDBRANCH   4   5
ENDBRANCH   3   4
ENDBRANCH   2   3
TORSDOF 10
ENDMDL
MODEL       46
REMARK 921   NORMALIZED FREE ENERGY PREDICTED BY IDOCK:   -5.34 KCAL/MOL
REMARK 922        TOTAL FREE ENERGY PREDICTED BY IDOCK:  -10.55 KCAL/MOL
REMARK 923 INTER-LIGAND FREE ENERGY PREDICTED BY IDOCK:   -8.96 KCAL/MOL
REMARK 924 INTRA-LIGAND FREE ENERGY PREDICTED BY IDOCK:   -1.59 KCAL/MOL
REMARK 927      BINDING AFFINITY PREDICTED BY RF-SCORE:    0.00 PKD
ROOT
HETATM    1  C   UNL     1     -12.550  15.430  73.775  1.00  0.00    -0.747 C  
HETATM    2  C   UNL     1     -13.643  15.653  72.740  1.00  0.00    -0.678 C  
ENDROOT
BRANCH   2   3
HETATM    3  C   UNL     1     -13.100  15.423  71.331  1.00  0.00    -0.563 C  
BRANCH   3   4
HETATM    4  C   UNL     1     -12.196  14.189  71.202  1.00  0.00    -0.358 C  
BRANCH   4   5
HETATM    5  N   UNL     1     -12.267  13.415  69.943  1.00  0.00    -0.301 NA 
BRANCH   5   6
HETATM    6  C   UNL     1     -11.724  14.181  68.800  1.00  0.00    -0.345 C  
BRANCH   6   7
HETATM    7  C   UNL     1     -10.288  14.725  68.966  1.00  0.00    -0.243 C  
BRANCH   7   8
HETATM    8  C   UNL     1      -9.308  14.346  67.852  1.00  0.00    -0.203 C  
HETATM    9  C   UNL     1      -8.680  12.974  68.043  1.00  0.00    -0.187 C  
ENDBRANCH   7   8
ENDBRANCH   6   7
ENDBRANCH   5   6
BRANCH   5  10
HETATM   10  C   UNL     1     -11.519  12.138  70.118  1.00  0.00     0.019 C  
BRANCH  10  11
HETATM   11  C   UNL     1     -12.340  10.901  70.600  1.00  0.00    -0.376 C  
HETATM   12  O   UNL     1     -13.525  10.690  69.834  1.00  0.00    -0.237 OA 
HETATM   13  H   UNL     1     -14.025   9.938  70.128  1.00  0.00     0.000 HD 
BRANCH  11  14
HETATM   14  C   UNL     1     -11.487   9.643  70.646  1.00  0.00    -0.376 A  
HETATM   15  C   UNL     1     -10.773   9.093  69.567  1.00  0.00    -0.226 A  
HETATM   16 CL   UNL     1      -9.295  10.311  63.913  1.00  0.00    -0.310 Cl 
HETATM   17  C   UNL     1      -9.235   8.907  66.216  1.00  0.00    -0.261 A  
HETATM   18  C   UNL     1      -9.923   7.967  69.796  1.00  0.00    -0.191 A  
HETATM   19  C   UNL     1      -9.286   7.633  68.497  1.00  0.00    -0.147 C  
HETATM   20  C   UNL     1      -9.767   7.409  71.056  1.00  0.00    -0.164 A  
HETATM   21  C   UNL     1      -8.613   6.522  68.142  1.00  0.00    -0.118 C  
HETATM   22  C   UNL     1      -9.664   8.674  67.514  1.00  0.00    -0.212 A  
HETATM   23  C   UNL     1     -10.516   7.917  72.104  1.00  0.00    -0.249 A  
HETATM   24  C   UNL     1     -10.634   9.488  68.151  1.00  0.00    -0.265 A  
HETATM   25  C   UNL     1      -9.825   9.950  65.509  1.00  0.00    -0.311 A  
HETATM   26 CL   UNL     1     -10.370   7.225  73.675  1.00  0.00    -0.406 Cl 
HETATM   27  C   UNL     1     -11.365   9.007  71.907  1.00  0.00    -0.438 A  
HETATM   28  C   UNL     1     -10.848  10.711  66.082  1.00  0.00    -0.069 A  
HETATM   29  C   UNL     1     -11.261  10.470  67.396  1.00  0.00    -0.249 A  
BRANCH  21  30
HETATM   30  C   UNL     1      -8.369   5.372  69.013  1.00  0.00    -0.100 A  
HETATM   31  C   UNL     1      -8.035   3.337  70.890  1.00  0.00    -0.053 A  
HETATM   32 CL   UNL     1      -7.864   2.137  72.110  1.00  0.00    -0.048 Cl 
HETATM   33  C   UNL     1      -7.023   4.279  70.699  1.00  0.00    -0.037 A  
HETATM   34  C   UNL     1      -9.360   4.394  69.173  1.00  0.00    -0.221 A  
HETATM   35  C   UNL     1      -9.193   3.381  70.120  1.00  0.00    -0.225 A  
HETATM   36  C   UNL     1      -7.187   5.296  69.756  1.00  0.00    -0.063 A  
ENDBRANCH  21  30
ENDBRANCH  11  14
ENDBRANCH  10  11
ENDBRANCH   5  10
ENDBRANCH   4   5
ENDBRANCH   3   4
ENDBRANCH   2   3
TORSDOF 10
ENDMDL
MODEL       47
REMARK 921   NORMALIZED FREE ENERGY PREDICTED BY IDOCK:   -5.33 KCAL/MOL
REMARK 922        TOTAL FREE ENERGY PREDICTED BY IDOCK:  -10.53 KCAL/MOL
REMARK 923 INTER-LIGAND FREE ENERGY PREDICTED BY IDOCK:   -7.83 KCAL/MOL
REMARK 924 INTRA-LIGAND FREE ENERGY PREDICTED BY IDOCK:   -2.70 KCAL/MOL
REMARK 927      BINDING AFFINITY PREDICTED BY RF-SCORE:    0.00 PKD
ROOT
HETATM    1  C   UNL     1     -10.253   4.262  72.290  1.00  0.00    -0.244 C  
HETATM    2  C   UNL     1      -9.212   3.438  71.545  1.00  0.00    -0.192 C  
ENDROOT
BRANCH   2   3
HETATM    3  C   UNL     1      -9.220   3.784  70.058  1.00  0.00    -0.220 C  
BRANCH   3   4
HETATM    4  C   UNL     1      -7.961   4.521  69.580  1.00  0.00    -0.061 C  
BRANCH   4   5
HETATM    5  N   UNL     1      -8.117   5.920  69.122  1.00  0.00    -0.105 NA 
BRANCH   5   6
HETATM    6  C   UNL     1      -7.227   6.840  69.863  1.00  0.00    -0.080 C  
BRANCH   6   7
HETATM    7  C   UNL     1      -7.765   7.367  71.212  1.00  0.00    -0.087 C  
BRANCH   7   8
HETATM    8  C   UNL     1      -8.004   8.878  71.280  1.00  0.00    -0.172 C  
HETATM    9  C   UNL     1      -7.445   9.631  70.084  1.00  0.00    -0.157 C  
ENDBRANCH   7   8
ENDBRANCH   6   7
ENDBRANCH   5   6
BRANCH   5  10
HETATM   10  C   UNL     1      -7.834   5.984  67.660  1.00  0.00    -0.101 C  
BRANCH  10  11
HETATM   11  C   UNL     1      -9.049   6.260  66.719  1.00  0.00    -0.135 C  
HETATM   12  O   UNL     1     -10.247   5.622  67.159  1.00  0.00    -0.167 OA 
HETATM   13  H   UNL     1     -10.986   5.791  66.587  1.00  0.00     0.000 HD 
BRANCH  11  14
HETATM   14  C   UNL     1      -9.269   7.750  66.507  1.00  0.00    -0.229 A  
HETATM   15  C   UNL     1      -9.946   8.615  67.384  1.00  0.00    -0.270 A  
HETATM   16 CL   UNL     1     -12.420   8.667  72.817  1.00  0.00    -0.284 Cl 
HETATM   17  C   UNL     1     -11.571   9.753  70.498  1.00  0.00    -0.365 A  
HETATM   18  C   UNL     1      -9.971  10.015  67.100  1.00  0.00    -0.251 A  
HETATM   19  C   UNL     1     -10.721  10.669  68.202  1.00  0.00    -0.267 C  
HETATM   20  C   UNL     1      -9.332  10.552  65.991  1.00  0.00    -0.215 A  
HETATM   21  C   UNL     1     -11.225  11.916  68.265  1.00  0.00    -0.317 C  
HETATM   22  C   UNL     1     -11.022   9.644  69.229  1.00  0.00    -0.194 A  
HETATM   23  C   UNL     1      -8.716   9.690  65.100  1.00  0.00    -0.166 A  
HETATM   24  C   UNL     1     -10.632   8.400  68.674  1.00  0.00    -0.149 A  
HETATM   25  C   UNL     1     -11.787   8.584  71.220  1.00  0.00    -0.291 A  
HETATM   26 CL   UNL     1      -7.942  10.321  63.696  1.00  0.00    -0.158 Cl 
HETATM   27  C   UNL     1      -8.687   8.316  65.344  1.00  0.00    -0.147 A  
HETATM   28  C   UNL     1     -11.495   7.336  70.660  1.00  0.00    -0.322 A  
HETATM   29  C   UNL     1     -10.932   7.245  69.383  1.00  0.00    -0.157 A  
BRANCH  21  30
HETATM   30  C   UNL     1     -11.126  12.917  67.203  1.00  0.00    -0.309 A  
HETATM   31  C   UNL     1     -11.135  14.985  65.331  1.00  0.00    -0.374 A  
HETATM   32 CL   UNL     1     -11.204  16.301  64.227  1.00  0.00    -0.216 Cl 
HETATM   33  C   UNL     1     -12.006  13.906  65.178  1.00  0.00    -0.394 A  
HETATM   34  C   UNL     1     -10.218  13.978  67.323  1.00  0.00    -0.260 A  
HETATM   35  C   UNL     1     -10.231  15.016  66.389  1.00  0.00    -0.286 A  
HETATM   36  C   UNL     1     -12.000  12.867  66.113  1.00  0.00    -0.491 A  
ENDBRANCH  21  30
ENDBRANCH  11  14
ENDBRANCH  10  11
ENDBRANCH   5  10
ENDBRANCH   4   5
ENDBRANCH   3   4
ENDBRANCH   2   3
TORSDOF 10
ENDMDL
MODEL       48
REMARK 921   NORMALIZED FREE ENERGY PREDICTED BY IDOCK:   -5.32 KCAL/MOL
REMARK 922        TOTAL FREE ENERGY PREDICTED BY IDOCK:  -10.51 KCAL/MOL
REMARK 923 INTER-LIGAND FREE ENERGY PREDICTED BY IDOCK:   -7.41 KCAL/MOL
REMARK 924 INTRA-LIGAND FREE ENERGY PREDICTED BY IDOCK:   -3.10 KCAL/MOL
REMARK 927      BINDING AFFINITY PREDICTED BY RF-SCORE:    0.00 PKD
ROOT
HETATM    1  C   UNL     1     -10.615  12.187  63.616  1.00  0.00    -0.504 C  
HETATM    2  C   UNL     1     -10.836  11.501  64.957  1.00  0.00    -0.336 C  
ENDROOT
BRANCH   2   3
HETATM    3  C   UNL     1      -9.988  10.235  65.056  1.00  0.00    -0.393 C  
BRANCH   3   4
HETATM    4  C   UNL     1      -8.541  10.410  64.572  1.00  0.00    -0.180 C  
BRANCH   4   5
HETATM    5  N   UNL     1      -7.497   9.590  65.223  1.00  0.00    -0.104 NA 
BRANCH   5   6
HETATM    6  C   UNL     1      -7.003   8.521  64.327  1.00  0.00    -0.081 C  
BRANCH   6   7
HETATM    7  C   UNL     1      -6.876   7.114  64.952  1.00  0.00    -0.047 C  
BRANCH   7   8
HETATM    8  C   UNL     1      -8.138   6.249  64.889  1.00  0.00    -0.130 C  
HETATM    9  C   UNL     1      -9.121   6.534  66.012  1.00  0.00    -0.111 C  
ENDBRANCH   7   8
ENDBRANCH   6   7
ENDBRANCH   5   6
BRANCH   5  10
HETATM   10  C   UNL     1      -6.376  10.478  65.641  1.00  0.00    -0.126 C  
BRANCH  10  11
HETATM   11  C   UNL     1      -5.843  10.301  67.098  1.00  0.00    -0.050 C  
HETATM   12  O   UNL     1      -5.413  11.529  67.684  1.00  0.00    -0.046 OA 
HETATM   13  H   UNL     1      -5.089  11.422  68.570  1.00  0.00     0.000 HD 
BRANCH  11  14
HETATM   14  C   UNL     1      -6.857   9.597  67.987  1.00  0.00    -0.073 A  
HETATM   15  C   UNL     1      -8.078  10.136  68.429  1.00  0.00    -0.104 A  
HETATM   16 CL   UNL     1     -11.553  14.929  67.664  1.00  0.00    -0.361 Cl 
HETATM   17  C   UNL     1     -10.924  12.480  68.606  1.00  0.00    -0.291 A  
HETATM   18  C   UNL     1      -8.978   9.306  69.166  1.00  0.00    -0.144 A  
HETATM   19  C   UNL     1     -10.178  10.128  69.467  1.00  0.00    -0.258 C  
HETATM   20  C   UNL     1      -8.692   7.978  69.446  1.00  0.00    -0.137 A  
HETATM   21  C   UNL     1     -11.177   9.887  70.336  1.00  0.00    -0.379 C  
HETATM   22  C   UNL     1     -10.037  11.426  68.767  1.00  0.00    -0.199 A  
HETATM   23  C   UNL     1      -7.464   7.469  69.059  1.00  0.00    -0.096 A  
HETATM   24  C   UNL     1      -8.726  11.447  68.229  1.00  0.00    -0.160 A  
HETATM   25  C   UNL     1     -10.479  13.613  67.933  1.00  0.00    -0.247 A  
HETATM   26 CL   UNL     1      -7.065   5.832  69.419  1.00  0.00    -0.063 Cl 
HETATM   27  C   UNL     1      -6.559   8.259  68.349  1.00  0.00    -0.060 A  
HETATM   28  C   UNL     1      -9.161  13.696  67.470  1.00  0.00    -0.218 A  
HETATM   29  C   UNL     1      -8.283  12.620  67.632  1.00  0.00    -0.174 A  
BRANCH  21  30
HETATM   30  C   UNL     1     -11.276   8.709  71.198  1.00  0.00    -0.329 A  
HETATM   31  C   UNL     1     -11.245   6.344  72.677  1.00  0.00    -0.255 A  
HETATM   32 CL   UNL     1     -11.163   4.854  73.531  1.00  0.00    -0.403 Cl 
HETATM   33  C   UNL     1     -12.107   6.471  71.587  1.00  0.00    -0.381 A  
HETATM   34  C   UNL     1     -10.449   8.594  72.324  1.00  0.00    -0.376 A  
HETATM   35  C   UNL     1     -10.430   7.406  73.057  1.00  0.00    -0.373 A  
HETATM   36  C   UNL     1     -12.127   7.656  70.848  1.00  0.00    -0.226 A  
ENDBRANCH  21  30
ENDBRANCH  11  14
ENDBRANCH  10  11
ENDBRANCH   5  10
ENDBRANCH   4   5
ENDBRANCH   3   4
ENDBRANCH   2   3
TORSDOF 10
ENDMDL
MODEL       49
REMARK 921   NORMALIZED FREE ENERGY PREDICTED BY IDOCK:   -5.30 KCAL/MOL
REMARK 922        TOTAL FREE ENERGY PREDICTED BY IDOCK:  -10.49 KCAL/MOL
REMARK 923 INTER-LIGAND FREE ENERGY PREDICTED BY IDOCK:   -8.76 KCAL/MOL
REMARK 924 INTRA-LIGAND FREE ENERGY PREDICTED BY IDOCK:   -1.73 KCAL/MOL
REMARK 927      BINDING AFFINITY PREDICTED BY RF-SCORE:    0.00 PKD
ROOT
HETATM    1  C   UNL     1     -13.368   9.625  72.315  1.00  0.00    -0.498 C  
HETATM    2  C   UNL     1     -12.461   8.404  72.269  1.00  0.00    -0.417 C  
ENDROOT
BRANCH   2   3
HETATM    3  C   UNL     1     -12.951   7.412  71.216  1.00  0.00    -0.358 C  
BRANCH   3   4
HETATM    4  C   UNL     1     -11.849   6.505  70.649  1.00  0.00    -0.335 C  
BRANCH   4   5
HETATM    5  N   UNL     1     -10.589   6.397  71.415  1.00  0.00    -0.224 NA 
BRANCH   5   6
HETATM    6  C   UNL     1     -10.446   5.067  72.047  1.00  0.00    -0.203 C  
BRANCH   6   7
HETATM    7  C   UNL     1      -9.917   5.057  73.498  1.00  0.00    -0.180 C  
BRANCH   7   8
HETATM    8  C   UNL     1     -10.144   6.347  74.290  1.00  0.00    -0.365 C  
HETATM    9  C   UNL     1      -8.930   7.261  74.315  1.00  0.00    -0.248 C  
ENDBRANCH   7   8
ENDBRANCH   6   7
ENDBRANCH   5   6
BRANCH   5  10
HETATM   10  C   UNL     1      -9.443   6.665  70.501  1.00  0.00    -0.166 C  
BRANCH  10  11
HETATM   11  C   UNL     1      -8.791   8.082  70.586  1.00  0.00    -0.143 C  
HETATM   12  O   UNL     1      -7.369   8.044  70.473  1.00  0.00    -0.058 OA 
HETATM   13  H   UNL     1      -6.972   8.906  70.524  1.00  0.00     0.000 HD 
BRANCH  11  14
HETATM   14  C   UNL     1      -9.395   9.042  69.573  1.00  0.00    -0.160 A  
HETATM   15  C   UNL     1      -9.223   8.982  68.178  1.00  0.00    -0.141 A  
HETATM   16 CL   UNL     1      -6.845   5.480  63.968  1.00  0.00    -0.045 Cl 
HETATM   17  C   UNL     1      -8.264   7.576  64.902  1.00  0.00    -0.086 A  
HETATM   18  C   UNL     1      -9.950   9.889  67.348  1.00  0.00    -0.235 A  
HETATM   19  C   UNL     1      -9.593   9.572  65.942  1.00  0.00    -0.327 C  
HETATM   20  C   UNL     1     -10.836  10.819  67.874  1.00  0.00    -0.313 A  
HETATM   21  C   UNL     1      -9.814  10.292  64.825  1.00  0.00    -0.403 C  
HETATM   22  C   UNL     1      -8.745   8.358  65.942  1.00  0.00    -0.197 A  
HETATM   23  C   UNL     1     -10.958  10.912  69.249  1.00  0.00    -0.244 A  
HETATM   24  C   UNL     1      -8.455   8.076  67.301  1.00  0.00    -0.125 A  
HETATM   25  C   UNL     1      -7.428   6.509  65.217  1.00  0.00    -0.082 A  
HETATM   26 CL   UNL     1     -12.024  12.079  69.936  1.00  0.00    -0.398 Cl 
HETATM   27  C   UNL     1     -10.250  10.048  70.087  1.00  0.00    -0.297 A  
HETATM   28  C   UNL     1      -7.055   6.264  66.542  1.00  0.00    -0.068 A  
HETATM   29  C   UNL     1      -7.556   7.055  67.580  1.00  0.00    -0.109 A  
BRANCH  21  30
HETATM   30  C   UNL     1     -10.481  11.593  64.783  1.00  0.00    -0.346 A  
HETATM   31  C   UNL     1     -11.607  14.122  64.448  1.00  0.00    -0.362 A  
HETATM   32 CL   UNL     1     -12.250  15.692  64.166  1.00  0.00    -0.165 Cl 
HETATM   33  C   UNL     1     -10.430  13.978  65.183  1.00  0.00    -0.415 A  
HETATM   34  C   UNL     1     -11.689  11.739  64.089  1.00  0.00    -0.376 A  
HETATM   35  C   UNL     1     -12.246  13.007  63.915  1.00  0.00    -0.511 A  
HETATM   36  C   UNL     1      -9.867  12.711  65.356  1.00  0.00    -0.157 A  
ENDBRANCH  21  30
ENDBRANCH  11  14
ENDBRANCH  10  11
ENDBRANCH   5  10
ENDBRANCH   4   5
ENDBRANCH   3   4
ENDBRANCH   2   3
TORSDOF 10
ENDMDL
MODEL       50
REMARK 921   NORMALIZED FREE ENERGY PREDICTED BY IDOCK:   -5.30 KCAL/MOL
REMARK 922        TOTAL FREE ENERGY PREDICTED BY IDOCK:  -10.48 KCAL/MOL
REMARK 923 INTER-LIGAND FREE ENERGY PREDICTED BY IDOCK:   -9.13 KCAL/MOL
REMARK 924 INTRA-LIGAND FREE ENERGY PREDICTED BY IDOCK:   -1.35 KCAL/MOL
REMARK 927      BINDING AFFINITY PREDICTED BY RF-SCORE:    0.00 PKD
ROOT
HETATM    1  C   UNL     1     -11.005   3.066  74.058  1.00  0.00    -0.225 C  
HETATM    2  C   UNL     1     -11.330   4.405  73.411  1.00  0.00    -0.353 C  
ENDROOT
BRANCH   2   3
HETATM    3  C   UNL     1     -10.067   5.042  72.836  1.00  0.00    -0.206 C  
BRANCH   3   4
HETATM    4  C   UNL     1     -10.175   6.558  72.613  1.00  0.00    -0.186 C  
BRANCH   4   5
HETATM    5  N   UNL     1     -10.191   7.046  71.217  1.00  0.00    -0.191 NA 
BRANCH   5   6
HETATM    6  C   UNL     1     -11.199   6.334  70.401  1.00  0.00    -0.373 C  
BRANCH   6   7
HETATM    7  C   UNL     1     -10.753   5.916  68.982  1.00  0.00    -0.379 C  
BRANCH   7   8
HETATM    8  C   UNL     1      -9.425   5.158  68.907  1.00  0.00    -0.184 C  
HETATM    9  C   UNL     1      -9.565   3.668  69.174  1.00  0.00    -0.172 C  
ENDBRANCH   7   8
ENDBRANCH   6   7
ENDBRANCH   5   6
BRANCH   5  10
HETATM   10  C   UNL     1     -10.463   8.511  71.221  1.00  0.00    -0.225 C  
BRANCH  10  11
HETATM   11  C   UNL     1     -11.649   9.009  70.336  1.00  0.00    -0.117 C  
HETATM   12  O   UNL     1     -12.911   8.916  70.997  1.00  0.00    -0.491 OA 
HETATM   13  H   UNL     1     -13.632   9.219  70.459  1.00  0.00     0.000 HD 
BRANCH  11  14
HETATM   14  C   UNL     1     -11.409  10.417  69.813  1.00  0.00    -0.353 A  
HETATM   15  C   UNL     1     -10.719  10.750  68.634  1.00  0.00    -0.242 A  
HETATM   16 CL   UNL     1      -8.237   8.173  63.855  1.00  0.00    -0.112 Cl 
HETATM   17  C   UNL     1      -9.074  10.245  65.367  1.00  0.00    -0.221 A  
HETATM   18  C   UNL     1     -10.675  12.116  68.215  1.00  0.00    -0.248 A  
HETATM   19  C   UNL     1      -9.914  12.155  66.940  1.00  0.00    -0.217 C  
HETATM   20  C   UNL     1     -11.308  13.124  68.928  1.00  0.00    -0.335 A  
HETATM   21  C   UNL     1      -9.394  13.215  66.294  1.00  0.00    -0.138 C  
HETATM   22  C   UNL     1      -9.627  10.761  66.530  1.00  0.00    -0.217 A  
HETATM   23  C   UNL     1     -11.937  12.799  70.118  1.00  0.00    -0.296 A  
HETATM   24  C   UNL     1     -10.034   9.937  67.609  1.00  0.00    -0.212 A  
HETATM   25  C   UNL     1      -8.873   8.870  65.293  1.00  0.00    -0.184 A  
HETATM   26 CL   UNL     1     -12.704  14.033  71.044  1.00  0.00    -0.416 Cl 
HETATM   27  C   UNL     1     -11.984  11.476  70.559  1.00  0.00    -0.439 A  
HETATM   28  C   UNL     1      -9.183   8.045  66.378  1.00  0.00    -0.245 A  
HETATM   29  C   UNL     1      -9.749   8.580  67.539  1.00  0.00    -0.209 A  
BRANCH  21  30
HETATM   30  C   UNL     1      -9.480  14.603  66.749  1.00  0.00    -0.275 A  
HETATM   31  C   UNL     1      -9.874  17.161  67.786  1.00  0.00    -0.274 A  
HETATM   32 CL   UNL     1     -10.188  18.707  68.471  1.00  0.00    -0.418 Cl 
HETATM   33  C   UNL     1     -10.508  16.788  66.601  1.00  0.00    -0.258 A  
HETATM   34  C   UNL     1      -8.806  15.002  67.911  1.00  0.00    -0.171 A  
HETATM   35  C   UNL     1      -9.012  16.280  68.432  1.00  0.00    -0.203 A  
HETATM   36  C   UNL     1     -10.309  15.507  66.077  1.00  0.00    -0.342 A  
ENDBRANCH  21  30
ENDBRANCH  11  14
ENDBRANCH  10  11
ENDBRANCH   5  10
ENDBRANCH   4   5
ENDBRANCH   3   4
ENDBRANCH   2   3
TORSDOF 10
ENDMDL
MODEL       51
REMARK 921   NORMALIZED FREE ENERGY PREDICTED BY IDOCK:   -5.29 KCAL/MOL
REMARK 922        TOTAL FREE ENERGY PREDICTED BY IDOCK:  -10.47 KCAL/MOL
REMARK 923 INTER-LIGAND FREE ENERGY PREDICTED BY IDOCK:   -8.97 KCAL/MOL
REMARK 924 INTRA-LIGAND FREE ENERGY PREDICTED BY IDOCK:   -1.50 KCAL/MOL
REMARK 927      BINDING AFFINITY PREDICTED BY RF-SCORE:    0.00 PKD
ROOT
HETATM    1  C   UNL     1      -9.962  18.924  67.459  1.00  0.00    -0.399 C  
HETATM    2  C   UNL     1     -10.166  18.207  68.786  1.00  0.00    -0.353 C  
ENDROOT
BRANCH   2   3
HETATM    3  C   UNL     1      -9.621  16.782  68.713  1.00  0.00    -0.260 C  
BRANCH   3   4
HETATM    4  C   UNL     1     -10.596  15.711  69.225  1.00  0.00    -0.238 C  
BRANCH   4   5
HETATM    5  N   UNL     1     -11.279  14.869  68.218  1.00  0.00    -0.280 NA 
BRANCH   5   6
HETATM    6  C   UNL     1     -11.020  15.345  66.841  1.00  0.00    -0.294 C  
BRANCH   6   7
HETATM    7  C   UNL     1     -10.038  14.497  66.002  1.00  0.00    -0.336 C  
BRANCH   7   8
HETATM    8  C   UNL     1     -10.581  13.998  64.661  1.00  0.00    -0.416 C  
HETATM    9  C   UNL     1     -12.011  14.434  64.389  1.00  0.00    -0.471 C  
ENDBRANCH   7   8
ENDBRANCH   6   7
ENDBRANCH   5   6
BRANCH   5  10
HETATM   10  C   UNL     1     -10.822  13.460  68.377  1.00  0.00    -0.264 C  
BRANCH  10  11
HETATM   11  C   UNL     1     -11.910  12.347  68.247  1.00  0.00    -0.309 C  
HETATM   12  O   UNL     1     -12.127  11.941  66.897  1.00  0.00    -0.599 OA 
HETATM   13  H   UNL     1     -12.789  11.264  66.818  1.00  0.00     0.000 HD 
BRANCH  11  14
HETATM   14  C   UNL     1     -11.602  11.152  69.136  1.00  0.00    -0.393 A  
HETATM   15  C   UNL     1     -10.464  10.330  69.044  1.00  0.00    -0.238 A  
HETATM   16 CL   UNL     1      -5.260   9.960  66.144  1.00  0.00    -0.038 Cl 
HETATM   17  C   UNL     1      -7.102   9.239  67.978  1.00  0.00    -0.078 A  
HETATM   18  C   UNL     1     -10.260   9.313  70.027  1.00  0.00    -0.244 A  
HETATM   19  C   UNL     1      -8.980   8.638  69.693  1.00  0.00    -0.145 C  
HETATM   20  C   UNL     1     -11.142   9.120  71.080  1.00  0.00    -0.393 A  
HETATM   21  C   UNL     1      -8.487   7.474  70.158  1.00  0.00    -0.136 C  
HETATM   22  C   UNL     1      -8.350   9.370  68.570  1.00  0.00    -0.118 A  
HETATM   23  C   UNL     1     -12.290   9.893  71.133  1.00  0.00    -0.370 A  
HETATM   24  C   UNL     1      -9.303  10.323  68.133  1.00  0.00    -0.144 A  
HETATM   25  C   UNL     1      -6.810  10.047  66.884  1.00  0.00    -0.087 A  
HETATM   26 CL   UNL     1     -13.422   9.658  72.410  1.00  0.00    -0.479 Cl 
HETATM   27  C   UNL     1     -12.523  10.886  70.180  1.00  0.00    -0.356 A  
HETATM   28  C   UNL     1      -7.765  10.933  66.377  1.00  0.00    -0.154 A  
HETATM   29  C   UNL     1      -9.015  11.060  66.992  1.00  0.00    -0.151 A  
BRANCH  21  30
HETATM   30  C   UNL     1      -9.153   6.607  71.130  1.00  0.00    -0.152 A  
HETATM   31  C   UNL     1     -10.200   4.762  72.940  1.00  0.00    -0.174 A  
HETATM   32 CL   UNL     1     -10.777   3.569  74.036  1.00  0.00    -0.270 Cl 
HETATM   33  C   UNL     1     -10.591   4.719  71.602  1.00  0.00    -0.092 A  
HETATM   34  C   UNL     1      -8.804   6.676  72.485  1.00  0.00    -0.131 A  
HETATM   35  C   UNL     1      -9.323   5.746  73.388  1.00  0.00    -0.134 A  
HETATM   36  C   UNL     1     -10.070   5.646  70.694  1.00  0.00    -0.274 A  
ENDBRANCH  21  30
ENDBRANCH  11  14
ENDBRANCH  10  11
ENDBRANCH   5  10
ENDBRANCH   4   5
ENDBRANCH   3   4
ENDBRANCH   2   3
TORSDOF 10
ENDMDL
MODEL       52
REMARK 921   NORMALIZED FREE ENERGY PREDICTED BY IDOCK:   -5.25 KCAL/MOL
REMARK 922        TOTAL FREE ENERGY PREDICTED BY IDOCK:  -10.41 KCAL/MOL
REMARK 923 INTER-LIGAND FREE ENERGY PREDICTED BY IDOCK:   -8.93 KCAL/MOL
REMARK 924 INTRA-LIGAND FREE ENERGY PREDICTED BY IDOCK:   -1.47 KCAL/MOL
REMARK 927      BINDING AFFINITY PREDICTED BY RF-SCORE:    0.00 PKD
ROOT
HETATM    1  C   UNL     1     -11.110   2.998  73.593  1.00  0.00    -0.323 C  
HETATM    2  C   UNL     1     -10.159   4.130  73.229  1.00  0.00    -0.200 C  
ENDROOT
BRANCH   2   3
HETATM    3  C   UNL     1     -10.682   5.461  73.764  1.00  0.00    -0.324 C  
BRANCH   3   4
HETATM    4  C   UNL     1     -10.795   6.563  72.700  1.00  0.00    -0.247 C  
BRANCH   4   5
HETATM    5  N   UNL     1     -11.033   6.143  71.302  1.00  0.00    -0.271 NA 
BRANCH   5   6
HETATM    6  C   UNL     1     -12.271   6.741  70.756  1.00  0.00    -0.297 C  
BRANCH   6   7
HETATM    7  C   UNL     1     -13.442   6.908  71.750  1.00  0.00    -0.250 C  
BRANCH   7   8
HETATM    8  C   UNL     1     -14.254   8.197  71.600  1.00  0.00    -0.536 C  
HETATM    9  C   UNL     1     -13.543   9.425  72.145  1.00  0.00    -0.528 C  
ENDBRANCH   7   8
ENDBRANCH   6   7
ENDBRANCH   5   6
BRANCH   5  10
HETATM   10  C   UNL     1      -9.857   6.533  70.474  1.00  0.00    -0.179 C  
BRANCH  10  11
HETATM   11  C   UNL     1      -9.271   7.961  70.710  1.00  0.00    -0.157 C  
HETATM   12  O   UNL     1      -7.845   7.973  70.764  1.00  0.00    -0.086 OA 
HETATM   13  H   UNL     1      -7.489   8.841  70.907  1.00  0.00     0.000 HD 
BRANCH  11  14
HETATM   14  C   UNL     1      -9.788   8.958  69.684  1.00  0.00    -0.182 A  
HETATM   15  C   UNL     1      -9.578   8.893  68.295  1.00  0.00    -0.159 A  
HETATM   16 CL   UNL     1      -7.284   5.274  64.139  1.00  0.00    -0.049 Cl 
HETATM   17  C   UNL     1      -8.606   7.446  65.041  1.00  0.00     0.086 A  
HETATM   18  C   UNL     1     -10.227   9.844  67.449  1.00  0.00    -0.275 A  
HETATM   19  C   UNL     1      -9.846   9.512  66.052  1.00  0.00    -0.353 C  
HETATM   20  C   UNL     1     -11.072  10.822  67.953  1.00  0.00    -0.369 A  
HETATM   21  C   UNL     1      -9.992  10.248  64.934  1.00  0.00    -0.393 C  
HETATM   22  C   UNL     1      -9.071   8.251  66.071  1.00  0.00    -0.228 A  
HETATM   23  C   UNL     1     -11.229  10.918  69.325  1.00  0.00    -0.265 A  
HETATM   24  C   UNL     1      -8.839   7.947  67.436  1.00  0.00    -0.129 A  
HETATM   25  C   UNL     1      -7.843   6.331  65.375  1.00  0.00    -0.104 A  
HETATM   26 CL   UNL     1     -12.246  12.142  69.987  1.00  0.00    -0.311 Cl 
HETATM   27  C   UNL     1     -10.598  10.011  70.179  1.00  0.00    -0.350 A  
HETATM   28  C   UNL     1      -7.524   6.059  66.709  1.00  0.00    -0.087 A  
HETATM   29  C   UNL     1      -8.010   6.875  67.736  1.00  0.00    -0.114 A  
BRANCH  21  30
HETATM   30  C   UNL     1     -10.580  11.586  64.879  1.00  0.00    -0.360 A  
HETATM   31  C   UNL     1     -11.569  14.168  64.510  1.00  0.00    -0.389 A  
HETATM   32 CL   UNL     1     -12.131  15.764  64.205  1.00  0.00    -0.181 Cl 
HETATM   33  C   UNL     1     -10.363  13.976  65.186  1.00  0.00    -0.422 A  
HETATM   34  C   UNL     1     -11.816  11.783  64.246  1.00  0.00    -0.307 A  
HETATM   35  C   UNL     1     -12.304  13.077  64.056  1.00  0.00    -0.437 A  
HETATM   36  C   UNL     1      -9.869  12.683  65.375  1.00  0.00    -0.157 A  
ENDBRANCH  21  30
ENDBRANCH  11  14
ENDBRANCH  10  11
ENDBRANCH   5  10
ENDBRANCH   4   5
ENDBRANCH   3   4
ENDBRANCH   2   3
TORSDOF 10
ENDMDL
MODEL       53
REMARK 921   NORMALIZED FREE ENERGY PREDICTED BY IDOCK:   -5.23 KCAL/MOL
REMARK 922        TOTAL FREE ENERGY PREDICTED BY IDOCK:  -10.37 KCAL/MOL
REMARK 923 INTER-LIGAND FREE ENERGY PREDICTED BY IDOCK:   -9.03 KCAL/MOL
REMARK 924 INTRA-LIGAND FREE ENERGY PREDICTED BY IDOCK:   -1.34 KCAL/MOL
REMARK 927      BINDING AFFINITY PREDICTED BY RF-SCORE:    0.00 PKD
ROOT
HETATM    1  C   UNL     1     -14.384   7.602  71.602  1.00  0.00    -0.613 C  
HETATM    2  C   UNL     1     -13.928   8.934  72.180  1.00  0.00    -0.520 C  
ENDROOT
BRANCH   2   3
HETATM    3  C   UNL     1     -13.147   9.730  71.136  1.00  0.00    -0.424 C  
BRANCH   3   4
HETATM    4  C   UNL     1     -12.552  11.043  71.667  1.00  0.00    -0.297 C  
BRANCH   4   5
HETATM    5  N   UNL     1     -13.158  12.309  71.200  1.00  0.00    -0.133 NA 
BRANCH   5   6
HETATM    6  C   UNL     1     -13.651  13.128  72.329  1.00  0.00    -0.581 C  
BRANCH   6   7
HETATM    7  C   UNL     1     -13.945  14.611  72.015  1.00  0.00    -0.581 C  
BRANCH   7   8
HETATM    8  C   UNL     1     -13.315  15.625  72.974  1.00  0.00    -0.668 C  
HETATM    9  C   UNL     1     -12.007  16.207  72.462  1.00  0.00    -0.660 C  
ENDBRANCH   7   8
ENDBRANCH   6   7
ENDBRANCH   5   6
BRANCH   5  10
HETATM   10  C   UNL     1     -12.148  13.066  70.408  1.00  0.00    -0.314 C  
BRANCH  10  11
HETATM   11  C   UNL     1     -12.209  12.911  68.856  1.00  0.00    -0.006 C  
HETATM   12  O   UNL     1     -12.281  14.164  68.177  1.00  0.00    -0.539 OA 
HETATM   13  H   UNL     1     -12.318  14.070  67.232  1.00  0.00     0.000 HD 
BRANCH  11  14
HETATM   14  C   UNL     1     -11.059  12.068  68.328  1.00  0.00    -0.290 A  
HETATM   15  C   UNL     1      -9.726  12.493  68.183  1.00  0.00    -0.222 A  
HETATM   16 CL   UNL     1      -6.201  17.140  69.454  1.00  0.00    -0.223 Cl 
HETATM   17  C   UNL     1      -6.755  14.649  68.579  1.00  0.00    -0.098 A  
HETATM   18  C   UNL     1      -8.734  11.547  67.781  1.00  0.00    -0.142 A  
HETATM   19  C   UNL     1      -7.436  12.268  67.744  1.00  0.00    -0.126 C  
HETATM   20  C   UNL     1      -9.041  10.215  67.543  1.00  0.00    -0.143 A  
HETATM   21  C   UNL     1      -6.267  11.888  67.194  1.00  0.00    -0.154 C  
HETATM   22  C   UNL     1      -7.651  13.634  68.275  1.00  0.00    -0.130 A  
HETATM   23  C   UNL     1     -10.363   9.815  67.631  1.00  0.00    -0.230 A  
HETATM   24  C   UNL     1      -9.050  13.780  68.442  1.00  0.00    -0.175 A  
HETATM   25  C   UNL     1      -7.270  15.866  69.017  1.00  0.00    -0.177 A  
HETATM   26 CL   UNL     1     -10.784   8.174  67.310  1.00  0.00    -0.334 Cl 
HETATM   27  C   UNL     1     -11.357  10.719  68.009  1.00  0.00    -0.378 A  
HETATM   28  C   UNL     1      -8.651  16.065  69.105  1.00  0.00    -0.247 A  
HETATM   29  C   UNL     1      -9.539  15.028  68.804  1.00  0.00    -0.220 A  
BRANCH  21  30
HETATM   30  C   UNL     1      -6.042  10.627  66.487  1.00  0.00    -0.088 A  
HETATM   31  C   UNL     1      -5.881   8.138  65.239  1.00  0.00    -0.044 A  
HETATM   32 CL   UNL     1      -5.860   6.582  64.508  1.00  0.00    -0.029 Cl 
HETATM   33  C   UNL     1      -5.364   8.305  66.524  1.00  0.00    -0.028 A  
HETATM   34  C   UNL     1      -6.513  10.465  65.177  1.00  0.00    -0.096 A  
HETATM   35  C   UNL     1      -6.438   9.216  64.558  1.00  0.00    -0.075 A  
HETATM   36  C   UNL     1      -5.440   9.553  67.149  1.00  0.00    -0.040 A  
ENDBRANCH  21  30
ENDBRANCH  11  14
ENDBRANCH  10  11
ENDBRANCH   5  10
ENDBRANCH   4   5
ENDBRANCH   3   4
ENDBRANCH   2   3
TORSDOF 10
ENDMDL
MODEL       54
REMARK 921   NORMALIZED FREE ENERGY PREDICTED BY IDOCK:   -5.19 KCAL/MOL
REMARK 922        TOTAL FREE ENERGY PREDICTED BY IDOCK:  -10.30 KCAL/MOL
REMARK 923 INTER-LIGAND FREE ENERGY PREDICTED BY IDOCK:   -9.52 KCAL/MOL
REMARK 924 INTRA-LIGAND FREE ENERGY PREDICTED BY IDOCK:   -0.79 KCAL/MOL
REMARK 927      BINDING AFFINITY PREDICTED BY RF-SCORE:    0.00 PKD
ROOT
HETATM    1  C   UNL     1      -6.863  15.460  67.606  1.00  0.00    -0.208 C  
HETATM    2  C   UNL     1      -7.691  14.906  68.756  1.00  0.00    -0.139 C  
ENDROOT
BRANCH   2   3
HETATM    3  C   UNL     1      -8.749  13.936  68.234  1.00  0.00    -0.183 C  
BRANCH   3   4
HETATM    4  C   UNL     1      -9.362  14.344  66.887  1.00  0.00    -0.256 C  
BRANCH   4   5
HETATM    5  N   UNL     1     -10.567  15.203  66.913  1.00  0.00    -0.291 NA 
BRANCH   5   6
HETATM    6  C   UNL     1     -10.875  15.753  65.575  1.00  0.00    -0.332 C  
BRANCH   6   7
HETATM    7  C   UNL     1     -10.647  17.270  65.394  1.00  0.00    -0.083 C  
BRANCH   7   8
HETATM    8  C   UNL     1      -9.806  17.943  66.482  1.00  0.00    -0.343 C  
HETATM    9  C   UNL     1     -10.577  18.977  67.287  1.00  0.00    -0.554 C  
ENDBRANCH   7   8
ENDBRANCH   6   7
ENDBRANCH   5   6
BRANCH   5  10
HETATM   10  C   UNL     1     -11.717  14.407  67.428  1.00  0.00    -0.397 C  
BRANCH  10  11
HETATM   11  C   UNL     1     -12.371  13.394  66.436  1.00  0.00    -0.321 C  
HETATM   12  O   UNL     1     -12.896  14.023  65.267  1.00  0.00    -0.686 OA 
HETATM   13  H   UNL     1     -13.294  13.407  64.664  1.00  0.00     0.000 HD 
BRANCH  11  14
HETATM   14  C   UNL     1     -11.416  12.268  66.069  1.00  0.00    -0.434 A  
HETATM   15  C   UNL     1     -11.005  11.227  66.921  1.00  0.00    -0.348 A  
HETATM   16 CL   UNL     1     -12.122   8.986  72.339  1.00  0.00    -0.356 Cl 
HETATM   17  C   UNL     1     -10.989   9.036  69.892  1.00  0.00    -0.204 A  
HETATM   18  C   UNL     1     -10.192  10.177  66.393  1.00  0.00    -0.288 A  
HETATM   19  C   UNL     1      -9.947   9.220  67.502  1.00  0.00    -0.254 C  
HETATM   20  C   UNL     1      -9.807  10.143  65.061  1.00  0.00    -0.392 A  
HETATM   21  C   UNL     1      -9.049   8.220  67.578  1.00  0.00    -0.148 C  
HETATM   22  C   UNL     1     -10.752   9.648  68.669  1.00  0.00    -0.233 A  
HETATM   23  C   UNL     1     -10.166  11.200  64.241  1.00  0.00    -0.340 A  
HETATM   24  C   UNL     1     -11.305  10.908  68.330  1.00  0.00    -0.370 A  
HETATM   25  C   UNL     1     -11.759   9.720  70.827  1.00  0.00    -0.328 A  
HETATM   26 CL   UNL     1      -9.677  11.205  62.589  1.00  0.00    -0.277 Cl 
HETATM   27  C   UNL     1     -10.949  12.247  64.731  1.00  0.00    -0.346 A  
HETATM   28  C   UNL     1     -12.241  11.003  70.552  1.00  0.00    -0.472 A  
HETATM   29  C   UNL     1     -12.002  11.601  69.311  1.00  0.00    -0.382 A  
BRANCH  21  30
HETATM   30  C   UNL     1      -8.092   7.868  66.529  1.00  0.00    -0.107 A  
HETATM   31  C   UNL     1      -6.410   7.393  64.356  1.00  0.00    -0.041 A  
HETATM   32 CL   UNL     1      -5.423   7.158  62.967  1.00  0.00    -0.033 Cl 
HETATM   33  C   UNL     1      -7.549   6.608  64.537  1.00  0.00    -0.103 A  
HETATM   34  C   UNL     1      -6.920   8.619  66.370  1.00  0.00    -0.078 A  
HETATM   35  C   UNL     1      -6.084   8.385  65.276  1.00  0.00    -0.045 A  
HETATM   36  C   UNL     1      -8.391   6.841  65.627  1.00  0.00    -0.147 A  
ENDBRANCH  21  30
ENDBRANCH  11  14
ENDBRANCH  10  11
ENDBRANCH   5  10
ENDBRANCH   4   5
ENDBRANCH   3   4
ENDBRANCH   2   3
TORSDOF 10
ENDMDL
MODEL       55
REMARK 921   NORMALIZED FREE ENERGY PREDICTED BY IDOCK:   -5.16 KCAL/MOL
REMARK 922        TOTAL FREE ENERGY PREDICTED BY IDOCK:  -10.27 KCAL/MOL
REMARK 923 INTER-LIGAND FREE ENERGY PREDICTED BY IDOCK:   -8.60 KCAL/MOL
REMARK 924 INTRA-LIGAND FREE ENERGY PREDICTED BY IDOCK:   -1.66 KCAL/MOL
REMARK 927      BINDING AFFINITY PREDICTED BY RF-SCORE:    0.00 PKD
ROOT
HETATM    1  C   UNL     1     -11.749  15.338  72.498  1.00  0.00    -0.535 C  
HETATM    2  C   UNL     1     -12.475  15.598  71.186  1.00  0.00    -0.505 C  
ENDROOT
BRANCH   2   3
HETATM    3  C   UNL     1     -11.566  15.280  70.000  1.00  0.00    -0.331 C  
BRANCH   3   4
HETATM    4  C   UNL     1     -10.280  16.118  69.955  1.00  0.00    -0.146 C  
BRANCH   4   5
HETATM    5  N   UNL     1      -9.347  15.881  68.831  1.00  0.00    -0.218 NA 
BRANCH   5   6
HETATM    6  C   UNL     1      -9.026  17.134  68.114  1.00  0.00    -0.240 C  
BRANCH   6   7
HETATM    7  C   UNL     1     -10.175  18.159  67.988  1.00  0.00    -0.392 C  
BRANCH   7   8
HETATM    8  C   UNL     1     -10.097  19.090  66.776  1.00  0.00    -0.442 C  
HETATM    9  C   UNL     1      -9.998  20.560  67.150  1.00  0.00    -0.512 C  
ENDBRANCH   7   8
ENDBRANCH   6   7
ENDBRANCH   5   6
BRANCH   5  10
HETATM   10  C   UNL     1      -8.104  15.250  69.360  1.00  0.00    -0.230 C  
BRANCH  10  11
HETATM   11  C   UNL     1      -7.221  14.468  68.337  1.00  0.00    -0.116 C  
HETATM   12  O   UNL     1      -5.828  14.730  68.494  1.00  0.00    -0.087 OA 
HETATM   13  H   UNL     1      -5.291  14.253  67.872  1.00  0.00     0.000 HD 
BRANCH  11  14
HETATM   14  C   UNL     1      -7.505  12.974  68.376  1.00  0.00    -0.128 A  
HETATM   15  C   UNL     1      -8.497  12.305  67.637  1.00  0.00    -0.166 A  
HETATM   16 CL   UNL     1     -12.508  13.310  63.332  1.00  0.00    -0.409 Cl 
HETATM   17  C   UNL     1     -11.096  11.799  65.064  1.00  0.00    -0.343 A  
HETATM   18  C   UNL     1      -8.565  10.879  67.695  1.00  0.00    -0.124 A  
HETATM   19  C   UNL     1      -9.675  10.461  66.801  1.00  0.00    -0.224 C  
HETATM   20  C   UNL     1      -7.671  10.130  68.447  1.00  0.00    -0.089 A  
HETATM   21  C   UNL     1     -10.288   9.266  66.710  1.00  0.00    -0.296 C  
HETATM   22  C   UNL     1     -10.177  11.661  66.094  1.00  0.00    -0.263 A  
HETATM   23  C   UNL     1      -6.734  10.796  69.218  1.00  0.00    -0.081 A  
HETATM   24  C   UNL     1      -9.521  12.772  66.682  1.00  0.00    -0.249 A  
HETATM   25  C   UNL     1     -11.412  13.085  64.638  1.00  0.00    -0.336 A  
HETATM   26 CL   UNL     1      -5.629   9.897  70.188  1.00  0.00    -0.041 Cl 
HETATM   27  C   UNL     1      -6.652  12.190  69.192  1.00  0.00    -0.106 A  
HETATM   28  C   UNL     1     -10.847  14.202  65.261  1.00  0.00    -0.356 A  
HETATM   29  C   UNL     1      -9.914  14.045  66.291  1.00  0.00    -0.317 A  
BRANCH  21  30
HETATM   30  C   UNL     1      -9.963   8.090  67.519  1.00  0.00    -0.253 A  
HETATM   31  C   UNL     1      -9.580   5.720  68.937  1.00  0.00    -0.131 A  
HETATM   32 CL   UNL     1      -9.421   4.226  69.774  1.00  0.00    -0.242 Cl 
HETATM   33  C   UNL     1     -10.336   6.750  69.498  1.00  0.00    -0.225 A  
HETATM   34  C   UNL     1      -9.163   7.072  66.984  1.00  0.00    -0.167 A  
HETATM   35  C   UNL     1      -8.980   5.883  67.692  1.00  0.00    -0.107 A  
HETATM   36  C   UNL     1     -10.526   7.940  68.790  1.00  0.00    -0.198 A  
ENDBRANCH  21  30
ENDBRANCH  11  14
ENDBRANCH  10  11
ENDBRANCH   5  10
ENDBRANCH   4   5
ENDBRANCH   3   4
ENDBRANCH   2   3
TORSDOF 10
ENDMDL
MODEL       56
REMARK 921   NORMALIZED FREE ENERGY PREDICTED BY IDOCK:   -5.15 KCAL/MOL
REMARK 922        TOTAL FREE ENERGY PREDICTED BY IDOCK:  -10.25 KCAL/MOL
REMARK 923 INTER-LIGAND FREE ENERGY PREDICTED BY IDOCK:   -8.24 KCAL/MOL
REMARK 924 INTRA-LIGAND FREE ENERGY PREDICTED BY IDOCK:   -2.02 KCAL/MOL
REMARK 927      BINDING AFFINITY PREDICTED BY RF-SCORE:    0.00 PKD
ROOT
HETATM    1  C   UNL     1     -13.805  15.684  72.745  1.00  0.00    -0.628 C  
HETATM    2  C   UNL     1     -13.106  14.338  72.870  1.00  0.00    -0.589 C  
ENDROOT
BRANCH   2   3
HETATM    3  C   UNL     1     -13.123  13.601  71.533  1.00  0.00    -0.431 C  
BRANCH   3   4
HETATM    4  C   UNL     1     -12.215  14.223  70.463  1.00  0.00    -0.356 C  
BRANCH   4   5
HETATM    5  N   UNL     1     -11.967  13.439  69.233  1.00  0.00    -0.325 NA 
BRANCH   5   6
HETATM    6  C   UNL     1     -11.334  14.261  68.178  1.00  0.00    -0.288 C  
BRANCH   6   7
HETATM    7  C   UNL     1      -9.814  14.493  68.318  1.00  0.00    -0.229 C  
BRANCH   7   8
HETATM    8  C   UNL     1      -8.975  14.106  67.097  1.00  0.00    -0.236 C  
HETATM    9  C   UNL     1      -8.039  12.937  67.355  1.00  0.00    -0.181 C  
ENDBRANCH   7   8
ENDBRANCH   6   7
ENDBRANCH   5   6
BRANCH   5  10
HETATM   10  C   UNL     1     -11.105  12.271  69.571  1.00  0.00    -0.033 C  
BRANCH  10  11
HETATM   11  C   UNL     1     -11.830  10.914  69.835  1.00  0.00    -0.349 C  
HETATM   12  O   UNL     1     -13.033  10.772  69.081  1.00  0.00    -0.460 OA 
HETATM   13  H   UNL     1     -13.474   9.946  69.241  1.00  0.00     0.000 HD 
BRANCH  11  14
HETATM   14  C   UNL     1     -10.903   9.728  69.614  1.00  0.00    -0.274 A  
HETATM   15  C   UNL     1     -10.285   9.382  68.399  1.00  0.00    -0.224 A  
HETATM   16 CL   UNL     1      -9.535  11.452  62.850  1.00  0.00    -0.395 Cl 
HETATM   17  C   UNL     1      -9.129   9.762  64.913  1.00  0.00    -0.278 A  
HETATM   18  C   UNL     1      -9.348   8.304  68.378  1.00  0.00    -0.136 A  
HETATM   19  C   UNL     1      -8.844   8.195  66.985  1.00  0.00    -0.143 C  
HETATM   20  C   UNL     1      -9.016   7.595  69.524  1.00  0.00    -0.139 A  
HETATM   21  C   UNL     1      -8.149   7.195  66.409  1.00  0.00    -0.116 C  
HETATM   22  C   UNL     1      -9.393   9.326  66.204  1.00  0.00    -0.270 A  
HETATM   23  C   UNL     1      -9.670   7.902  70.705  1.00  0.00    -0.173 A  
HETATM   24  C   UNL     1     -10.332   9.972  67.047  1.00  0.00    -0.305 A  
HETATM   25  C   UNL     1      -9.857  10.842  64.426  1.00  0.00    -0.309 A  
HETATM   26 CL   UNL     1      -9.304   7.019  72.139  1.00  0.00    -0.144 Cl 
HETATM   27  C   UNL     1     -10.600   8.941  70.754  1.00  0.00    -0.281 A  
HETATM   28  C   UNL     1     -10.853  11.441  65.205  1.00  0.00    -0.302 A  
HETATM   29  C   UNL     1     -11.099  10.996  66.507  1.00  0.00    -0.174 A  
BRANCH  21  30
HETATM   30  C   UNL     1      -7.739   5.961  67.079  1.00  0.00    -0.101 A  
HETATM   31  C   UNL     1      -7.084   3.719  68.602  1.00  0.00    -0.051 A  
HETATM   32 CL   UNL     1      -6.715   2.378  69.614  1.00  0.00    -0.033 Cl 
HETATM   33  C   UNL     1      -6.177   4.773  68.493  1.00  0.00    -0.032 A  
HETATM   34  C   UNL     1      -8.625   4.877  67.151  1.00  0.00    -0.104 A  
HETATM   35  C   UNL     1      -8.297   3.759  67.922  1.00  0.00    -0.100 A  
HETATM   36  C   UNL     1      -6.502   5.896  67.727  1.00  0.00    -0.047 A  
ENDBRANCH  21  30
ENDBRANCH  11  14
ENDBRANCH  10  11
ENDBRANCH   5  10
ENDBRANCH   4   5
ENDBRANCH   3   4
ENDBRANCH   2   3
TORSDOF 10
ENDMDL
MODEL       57
REMARK 921   NORMALIZED FREE ENERGY PREDICTED BY IDOCK:   -5.14 KCAL/MOL
REMARK 922        TOTAL FREE ENERGY PREDICTED BY IDOCK:  -10.24 KCAL/MOL
REMARK 923 INTER-LIGAND FREE ENERGY PREDICTED BY IDOCK:   -8.56 KCAL/MOL
REMARK 924 INTRA-LIGAND FREE ENERGY PREDICTED BY IDOCK:   -1.67 KCAL/MOL
REMARK 927      BINDING AFFINITY PREDICTED BY RF-SCORE:    0.00 PKD
ROOT
HETATM    1  C   UNL     1     -10.246  19.010  67.563  1.00  0.00    -0.472 C  
HETATM    2  C   UNL     1     -10.871  17.629  67.428  1.00  0.00    -0.178 C  
ENDROOT
BRANCH   2   3
HETATM    3  C   UNL     1      -9.801  16.544  67.542  1.00  0.00    -0.248 C  
BRANCH   3   4
HETATM    4  C   UNL     1     -10.280  15.264  68.243  1.00  0.00    -0.226 C  
BRANCH   4   5
HETATM    5  N   UNL     1     -10.554  14.082  67.397  1.00  0.00    -0.277 NA 
BRANCH   5   6
HETATM    6  C   UNL     1      -9.863  14.172  66.091  1.00  0.00    -0.308 C  
BRANCH   6   7
HETATM    7  C   UNL     1     -10.769  14.360  64.855  1.00  0.00    -0.444 C  
BRANCH   7   8
HETATM    8  C   UNL     1     -12.106  13.615  64.899  1.00  0.00    -0.426 C  
HETATM    9  C   UNL     1     -12.349  12.740  63.680  1.00  0.00    -0.553 C  
ENDBRANCH   7   8
ENDBRANCH   6   7
ENDBRANCH   5   6
BRANCH   5  10
HETATM   10  C   UNL     1     -10.128  12.855  68.128  1.00  0.00    -0.240 C  
BRANCH  10  11
HETATM   11  C   UNL     1     -11.251  11.847  68.527  1.00  0.00    -0.256 C  
HETATM   12  O   UNL     1     -12.262  11.721  67.528  1.00  0.00    -0.526 OA 
HETATM   13  H   UNL     1     -12.945  11.107  67.771  1.00  0.00     0.000 HD 
BRANCH  11  14
HETATM   14  C   UNL     1     -10.681  10.488  68.903  1.00  0.00    -0.253 A  
HETATM   15  C   UNL     1      -9.996   9.616  68.039  1.00  0.00    -0.190 A  
HETATM   16 CL   UNL     1      -7.775   9.407  62.502  1.00  0.00    -0.113 Cl 
HETATM   17  C   UNL     1      -8.220   8.497  65.002  1.00  0.00    -0.160 A  
HETATM   18  C   UNL     1      -9.418   8.422  68.571  1.00  0.00    -0.149 A  
HETATM   19  C   UNL     1      -8.743   7.728  67.444  1.00  0.00    -0.128 C  
HETATM   20  C   UNL     1      -9.498   8.103  69.919  1.00  0.00    -0.160 A  
HETATM   21  C   UNL     1      -8.280   6.465  67.379  1.00  0.00    -0.116 C  
HETATM   22  C   UNL     1      -8.807   8.607  66.254  1.00  0.00    -0.187 A  
HETATM   23  C   UNL     1     -10.223   8.936  70.754  1.00  0.00    -0.226 A  
HETATM   24  C   UNL     1      -9.647   9.693  66.607  1.00  0.00    -0.241 A  
HETATM   25  C   UNL     1      -8.515   9.470  64.053  1.00  0.00    -0.185 A  
HETATM   26 CL   UNL     1     -10.369   8.551  72.428  1.00  0.00    -0.394 Cl 
HETATM   27  C   UNL     1     -10.810  10.102  70.261  1.00  0.00    -0.370 A  
HETATM   28  C   UNL     1      -9.411  10.503  64.346  1.00  0.00    -0.333 A  
HETATM   29  C   UNL     1      -9.987  10.604  65.617  1.00  0.00    -0.327 A  
BRANCH  21  30
HETATM   30  C   UNL     1      -8.359   5.484  68.462  1.00  0.00    -0.101 A  
HETATM   31  C   UNL     1      -8.647   3.825  70.685  1.00  0.00    -0.071 A  
HETATM   32 CL   UNL     1      -8.861   2.872  72.100  1.00  0.00    -0.107 Cl 
HETATM   33  C   UNL     1      -7.487   4.586  70.532  1.00  0.00    -0.050 A  
HETATM   34  C   UNL     1      -9.498   4.679  68.596  1.00  0.00    -0.213 A  
HETATM   35  C   UNL     1      -9.643   3.856  69.714  1.00  0.00    -0.271 A  
HETATM   36  C   UNL     1      -7.339   5.414  69.417  1.00  0.00    -0.065 A  
ENDBRANCH  21  30
ENDBRANCH  11  14
ENDBRANCH  10  11
ENDBRANCH   5  10
ENDBRANCH   4   5
ENDBRANCH   3   4
ENDBRANCH   2   3
TORSDOF 10
ENDMDL
MODEL       58
REMARK 921   NORMALIZED FREE ENERGY PREDICTED BY IDOCK:   -5.13 KCAL/MOL
REMARK 922        TOTAL FREE ENERGY PREDICTED BY IDOCK:  -10.21 KCAL/MOL
REMARK 923 INTER-LIGAND FREE ENERGY PREDICTED BY IDOCK:   -7.76 KCAL/MOL
REMARK 924 INTRA-LIGAND FREE ENERGY PREDICTED BY IDOCK:   -2.45 KCAL/MOL
REMARK 927      BINDING AFFINITY PREDICTED BY RF-SCORE:    0.00 PKD
ROOT
HETATM    1  C   UNL     1      -9.943  10.946  64.884  1.00  0.00    -0.361 C  
HETATM    2  C   UNL     1      -8.732  10.029  64.990  1.00  0.00    -0.192 C  
ENDROOT
BRANCH   2   3
HETATM    3  C   UNL     1      -9.152   8.642  65.469  1.00  0.00    -0.190 C  
BRANCH   3   4
HETATM    4  C   UNL     1      -7.986   7.765  65.949  1.00  0.00    -0.107 C  
BRANCH   4   5
HETATM    5  N   UNL     1      -8.181   6.982  67.189  1.00  0.00    -0.117 NA 
BRANCH   5   6
HETATM    6  C   UNL     1      -8.093   5.527  66.936  1.00  0.00    -0.101 C  
BRANCH   6   7
HETATM    7  C   UNL     1      -8.240   5.083  65.464  1.00  0.00    -0.118 C  
BRANCH   7   8
HETATM    8  C   UNL     1      -8.121   3.576  65.217  1.00  0.00    -0.097 C  
HETATM    9  C   UNL     1      -8.720   2.734  66.331  1.00  0.00    -0.129 C  
ENDBRANCH   7   8
ENDBRANCH   6   7
ENDBRANCH   5   6
BRANCH   5  10
HETATM   10  C   UNL     1      -7.160   7.401  68.190  1.00  0.00    -0.085 C  
BRANCH  10  11
HETATM   11  C   UNL     1      -7.676   8.192  69.433  1.00  0.00    -0.103 C  
HETATM   12  O   UNL     1      -6.689   8.321  70.456  1.00  0.00    -0.036 OA 
HETATM   13  H   UNL     1      -7.003   8.803  71.212  1.00  0.00     0.000 HD 
BRANCH  11  14
HETATM   14  C   UNL     1      -8.238   9.550  69.042  1.00  0.00    -0.113 A  
HETATM   15  C   UNL     1      -9.524  10.028  69.351  1.00  0.00    -0.237 A  
HETATM   16 CL   UNL     1     -14.355   8.552  72.531  1.00  0.00    -0.407 Cl 
HETATM   17  C   UNL     1     -12.829  10.158  70.991  1.00  0.00    -0.474 A  
HETATM   18  C   UNL     1      -9.866  11.374  69.012  1.00  0.00    -0.056 A  
HETATM   19  C   UNL     1     -11.257  11.599  69.482  1.00  0.00    -0.282 C  
HETATM   20  C   UNL     1      -8.962  12.231  68.402  1.00  0.00    -0.141 A  
HETATM   21  C   UNL     1     -12.103  12.602  69.181  1.00  0.00    -0.191 C  
HETATM   22  C   UNL     1     -11.689  10.402  70.239  1.00  0.00    -0.406 A  
HETATM   23  C   UNL     1      -7.717  11.738  68.048  1.00  0.00    -0.123 A  
HETATM   24  C   UNL     1     -10.670   9.433  70.066  1.00  0.00    -0.270 A  
HETATM   25  C   UNL     1     -12.985   8.893  71.549  1.00  0.00    -0.332 A  
HETATM   26 CL   UNL     1      -6.582  12.768  67.260  1.00  0.00    -0.139 Cl 
HETATM   27  C   UNL     1      -7.359  10.424  68.354  1.00  0.00    -0.085 A  
HETATM   28  C   UNL     1     -12.038   7.890  71.319  1.00  0.00    -0.317 A  
HETATM   29  C   UNL     1     -10.890   8.157  70.566  1.00  0.00    -0.247 A  
BRANCH  21  30
HETATM   30  C   UNL     1     -11.799  13.718  68.285  1.00  0.00    -0.413 A  
HETATM   31  C   UNL     1     -10.932  15.779  66.618  1.00  0.00    -0.179 A  
HETATM   32 CL   UNL     1     -10.312  17.028  65.611  1.00  0.00    -0.285 Cl 
HETATM   33  C   UNL     1     -11.151  16.028  67.973  1.00  0.00    -0.334 A  
HETATM   34  C   UNL     1     -11.626  13.488  66.913  1.00  0.00    -0.398 A  
HETATM   35  C   UNL     1     -11.184  14.520  66.083  1.00  0.00    -0.339 A  
HETATM   36  C   UNL     1     -11.589  14.998  68.809  1.00  0.00    -0.357 A  
ENDBRANCH  21  30
ENDBRANCH  11  14
ENDBRANCH  10  11
ENDBRANCH   5  10
ENDBRANCH   4   5
ENDBRANCH   3   4
ENDBRANCH   2   3
TORSDOF 10
ENDMDL
MODEL       59
REMARK 921   NORMALIZED FREE ENERGY PREDICTED BY IDOCK:   -5.12 KCAL/MOL
REMARK 922        TOTAL FREE ENERGY PREDICTED BY IDOCK:  -10.20 KCAL/MOL
REMARK 923 INTER-LIGAND FREE ENERGY PREDICTED BY IDOCK:   -8.06 KCAL/MOL
REMARK 924 INTRA-LIGAND FREE ENERGY PREDICTED BY IDOCK:   -2.14 KCAL/MOL
REMARK 927      BINDING AFFINITY PREDICTED BY RF-SCORE:    0.00 PKD
ROOT
HETATM    1  C   UNL     1     -12.026   6.637  70.243  1.00  0.00    -0.302 C  
HETATM    2  C   UNL     1     -10.916   5.896  69.511  1.00  0.00    -0.438 C  
ENDROOT
BRANCH   2   3
HETATM    3  C   UNL     1     -10.881   6.304  68.039  1.00  0.00    -0.409 C  
BRANCH   3   4
HETATM    4  C   UNL     1      -9.684   5.739  67.261  1.00  0.00    -0.129 C  
BRANCH   4   5
HETATM    5  N   UNL     1      -8.458   5.421  68.026  1.00  0.00    -0.098 NA 
BRANCH   5   6
HETATM    6  C   UNL     1      -8.156   3.973  67.997  1.00  0.00    -0.088 C  
BRANCH   6   7
HETATM    7  C   UNL     1      -8.281   3.226  69.343  1.00  0.00    -0.074 C  
BRANCH   7   8
HETATM    8  C   UNL     1      -8.006   4.068  70.592  1.00  0.00    -0.055 C  
HETATM    9  C   UNL     1      -8.958   3.773  71.739  1.00  0.00    -0.151 C  
ENDBRANCH   7   8
ENDBRANCH   6   7
ENDBRANCH   5   6
BRANCH   5  10
HETATM   10  C   UNL     1      -7.321   6.202  67.462  1.00  0.00    -0.077 C  
BRANCH  10  11
HETATM   11  C   UNL     1      -6.718   7.322  68.368  1.00  0.00    -0.054 C  
HETATM   12  O   UNL     1      -5.676   8.055  67.724  1.00  0.00    -0.036 OA 
HETATM   13  H   UNL     1      -5.310   8.736  68.275  1.00  0.00     0.000 HD 
BRANCH  11  14
HETATM   14  C   UNL     1      -7.795   8.256  68.900  1.00  0.00    -0.111 A  
HETATM   15  C   UNL     1      -8.593   9.117  68.127  1.00  0.00    -0.129 A  
HETATM   16 CL   UNL     1      -9.775  10.433  62.425  1.00  0.00    -0.176 Cl 
HETATM   17  C   UNL     1     -10.116  10.578  65.097  1.00  0.00    -0.383 A  
HETATM   18  C   UNL     1      -9.643   9.850  68.761  1.00  0.00    -0.160 A  
HETATM   19  C   UNL     1     -10.323  10.638  67.702  1.00  0.00    -0.246 C  
HETATM   20  C   UNL     1      -9.911   9.726  70.117  1.00  0.00    -0.315 A  
HETATM   21  C   UNL     1     -11.193  11.658  67.828  1.00  0.00    -0.333 C  
HETATM   22  C   UNL     1      -9.747  10.249  66.394  1.00  0.00    -0.252 A  
HETATM   23  C   UNL     1      -9.086   8.922  70.884  1.00  0.00    -0.230 A  
HETATM   24  C   UNL     1      -8.645   9.406  66.680  1.00  0.00    -0.138 A  
HETATM   25  C   UNL     1      -9.334  10.095  64.053  1.00  0.00    -0.287 A  
HETATM   26 CL   UNL     1      -9.371   8.772  72.577  1.00  0.00    -0.221 Cl 
HETATM   27  C   UNL     1      -8.044   8.204  70.295  1.00  0.00    -0.109 A  
HETATM   28  C   UNL     1      -8.189   9.336  64.311  1.00  0.00    -0.153 A  
HETATM   29  C   UNL     1      -7.838   9.005  65.624  1.00  0.00    -0.102 A  
BRANCH  21  30
HETATM   30  C   UNL     1     -11.656  12.215  69.099  1.00  0.00    -0.374 A  
HETATM   31  C   UNL     1     -12.803  13.314  71.391  1.00  0.00    -0.322 A  
HETATM   32 CL   UNL     1     -13.587  14.006  72.757  1.00  0.00    -0.596 Cl 
HETATM   33  C   UNL     1     -12.145  14.141  70.480  1.00  0.00    -0.420 A  
HETATM   34  C   UNL     1     -12.274  11.385  70.044  1.00  0.00    -0.377 A  
HETATM   35  C   UNL     1     -12.855  11.939  71.186  1.00  0.00    -0.346 A  
HETATM   36  C   UNL     1     -11.566  13.591  69.333  1.00  0.00    -0.369 A  
ENDBRANCH  21  30
ENDBRANCH  11  14
ENDBRANCH  10  11
ENDBRANCH   5  10
ENDBRANCH   4   5
ENDBRANCH   3   4
ENDBRANCH   2   3
TORSDOF 10
ENDMDL
MODEL       60
REMARK 921   NORMALIZED FREE ENERGY PREDICTED BY IDOCK:   -5.10 KCAL/MOL
REMARK 922        TOTAL FREE ENERGY PREDICTED BY IDOCK:  -10.16 KCAL/MOL
REMARK 923 INTER-LIGAND FREE ENERGY PREDICTED BY IDOCK:   -7.92 KCAL/MOL
REMARK 924 INTRA-LIGAND FREE ENERGY PREDICTED BY IDOCK:   -2.24 KCAL/MOL
REMARK 927      BINDING AFFINITY PREDICTED BY RF-SCORE:    0.00 PKD
ROOT
HETATM    1  C   UNL     1     -10.782   5.931  66.970  1.00  0.00    -0.396 C  
HETATM    2  C   UNL     1     -10.326   7.383  67.010  1.00  0.00    -0.384 C  
ENDROOT
BRANCH   2   3
HETATM    3  C   UNL     1      -8.846   7.469  67.379  1.00  0.00    -0.127 C  
BRANCH   3   4
HETATM    4  C   UNL     1      -8.312   8.904  67.494  1.00  0.00    -0.109 C  
BRANCH   4   5
HETATM    5  N   UNL     1      -6.849   9.100  67.397  1.00  0.00    -0.076 NA 
BRANCH   5   6
HETATM    6  C   UNL     1      -6.363   8.909  66.012  1.00  0.00    -0.057 C  
BRANCH   6   7
HETATM    7  C   UNL     1      -6.748  10.009  64.999  1.00  0.00    -0.128 C  
BRANCH   7   8
HETATM    8  C   UNL     1      -7.810   9.613  63.970  1.00  0.00    -0.137 C  
HETATM    9  C   UNL     1      -7.816   8.127  63.651  1.00  0.00    -0.151 C  
ENDBRANCH   7   8
ENDBRANCH   6   7
ENDBRANCH   5   6
BRANCH   5  10
HETATM   10  C   UNL     1      -6.512  10.468  67.884  1.00  0.00    -0.060 C  
BRANCH  10  11
HETATM   11  C   UNL     1      -7.563  11.167  68.802  1.00  0.00    -0.129 C  
HETATM   12  O   UNL     1      -7.396  10.842  70.182  1.00  0.00    -0.429 OA 
HETATM   13  H   UNL     1      -8.035  11.268  70.741  1.00  0.00     0.000 HD 
BRANCH  11  14
HETATM   14  C   UNL     1      -7.579  12.673  68.593  1.00  0.00    -0.083 A  
HETATM   15  C   UNL     1      -8.360  13.365  67.649  1.00  0.00    -0.179 A  
HETATM   16 CL   UNL     1     -12.705  12.411  63.668  1.00  0.00    -0.512 Cl 
HETATM   17  C   UNL     1     -10.997  13.909  65.124  1.00  0.00    -0.352 A  
HETATM   18  C   UNL     1      -8.351  14.793  67.652  1.00  0.00    -0.180 A  
HETATM   19  C   UNL     1      -9.279  15.235  66.580  1.00  0.00    -0.321 C  
HETATM   20  C   UNL     1      -7.608  15.523  68.568  1.00  0.00    -0.127 A  
HETATM   21  C   UNL     1      -9.422  16.455  66.028  1.00  0.00    -0.345 C  
HETATM   22  C   UNL     1      -9.955  14.037  66.031  1.00  0.00    -0.331 A  
HETATM   23  C   UNL     1      -6.797  14.838  69.457  1.00  0.00    -0.169 A  
HETATM   24  C   UNL     1      -9.318  12.916  66.620  1.00  0.00    -0.240 A  
HETATM   25  C   UNL     1     -11.387  12.626  64.752  1.00  0.00    -0.312 A  
HETATM   26 CL   UNL     1      -5.836  15.715  70.588  1.00  0.00    -0.043 Cl 
HETATM   27  C   UNL     1      -6.774  13.443  69.470  1.00  0.00     0.003 A  
HETATM   28  C   UNL     1     -10.715  11.505  65.249  1.00  0.00    -0.337 A  
HETATM   29  C   UNL     1      -9.673  11.652  66.171  1.00  0.00    -0.253 A  
BRANCH  21  30
HETATM   30  C   UNL     1      -8.648  17.640  66.397  1.00  0.00    -0.269 A  
HETATM   31  C   UNL     1      -7.055  19.735  67.320  1.00  0.00    -0.219 A  
HETATM   32 CL   UNL     1      -6.045  20.973  67.957  1.00  0.00    -0.388 Cl 
HETATM   33  C   UNL     1      -8.359  19.593  67.795  1.00  0.00    -0.346 A  
HETATM   34  C   UNL     1      -7.354  17.818  65.887  1.00  0.00    -0.234 A  
HETATM   35  C   UNL     1      -6.557  18.863  66.357  1.00  0.00    -0.220 A  
HETATM   36  C   UNL     1      -9.160  18.547  67.330  1.00  0.00    -0.283 A  
ENDBRANCH  21  30
ENDBRANCH  11  14
ENDBRANCH  10  11
ENDBRANCH   5  10
ENDBRANCH   4   5
ENDBRANCH   3   4
ENDBRANCH   2   3
TORSDOF 10
ENDMDL
MODEL       61
REMARK 921   NORMALIZED FREE ENERGY PREDICTED BY IDOCK:   -5.09 KCAL/MOL
REMARK 922        TOTAL FREE ENERGY PREDICTED BY IDOCK:  -10.15 KCAL/MOL
REMARK 923 INTER-LIGAND FREE ENERGY PREDICTED BY IDOCK:   -8.84 KCAL/MOL
REMARK 924 INTRA-LIGAND FREE ENERGY PREDICTED BY IDOCK:   -1.31 KCAL/MOL
REMARK 927      BINDING AFFINITY PREDICTED BY RF-SCORE:    0.00 PKD
ROOT
HETATM    1  C   UNL     1     -10.791  14.737  64.998  1.00  0.00    -0.440 C  
HETATM    2  C   UNL     1     -12.198  14.235  65.286  1.00  0.00    -0.414 C  
ENDROOT
BRANCH   2   3
HETATM    3  C   UNL     1     -12.376  13.971  66.780  1.00  0.00    -0.368 C  
BRANCH   3   4
HETATM    4  C   UNL     1     -11.308  14.631  67.664  1.00  0.00    -0.336 C  
BRANCH   4   5
HETATM    5  N   UNL     1     -10.984  13.977  68.952  1.00  0.00    -0.254 NA 
BRANCH   5   6
HETATM    6  C   UNL     1     -12.134  14.006  69.882  1.00  0.00    -0.345 C  
BRANCH   6   7
HETATM    7  C   UNL     1     -12.561  15.399  70.394  1.00  0.00    -0.433 C  
BRANCH   7   8
HETATM    8  C   UNL     1     -11.584  16.071  71.363  1.00  0.00    -0.520 C  
HETATM    9  C   UNL     1     -11.896  15.790  72.824  1.00  0.00    -0.584 C  
ENDBRANCH   7   8
ENDBRANCH   6   7
ENDBRANCH   5   6
BRANCH   5  10
HETATM   10  C   UNL     1     -10.561  12.573  68.688  1.00  0.00    -0.216 C  
BRANCH  10  11
HETATM   11  C   UNL     1     -11.436  11.444  69.318  1.00  0.00    -0.303 C  
HETATM   12  O   UNL     1     -12.645  11.212  68.596  1.00  0.00    -0.527 OA 
HETATM   13  H   UNL     1     -13.177  10.525  68.979  1.00  0.00     0.000 HD 
BRANCH  11  14
HETATM   14  C   UNL     1     -10.649  10.155  69.496  1.00  0.00    -0.269 A  
HETATM   15  C   UNL     1      -9.999   9.440  68.474  1.00  0.00    -0.190 A  
HETATM   16 CL   UNL     1      -8.637   9.884  62.679  1.00  0.00    -0.170 Cl 
HETATM   17  C   UNL     1      -8.578   8.767  65.134  1.00  0.00    -0.209 A  
HETATM   18  C   UNL     1      -9.202   8.305  68.818  1.00  0.00    -0.143 A  
HETATM   19  C   UNL     1      -8.624   7.782  67.554  1.00  0.00    -0.122 C  
HETATM   20  C   UNL     1      -9.035   7.894  70.133  1.00  0.00    -0.151 A  
HETATM   21  C   UNL     1      -8.021   6.601  67.320  1.00  0.00    -0.117 C  
HETATM   22  C   UNL     1      -8.978   8.717  66.462  1.00  0.00    -0.187 A  
HETATM   23  C   UNL     1      -9.724   8.566  71.129  1.00  0.00    -0.201 A  
HETATM   24  C   UNL     1      -9.884   9.653  67.018  1.00  0.00    -0.249 A  
HETATM   25  C   UNL     1      -9.135   9.748  64.320  1.00  0.00    -0.246 A  
HETATM   26 CL   UNL     1      -9.565   8.061  72.769  1.00  0.00    -0.314 Cl 
HETATM   27  C   UNL     1     -10.521   9.670  70.822  1.00  0.00    -0.375 A  
HETATM   28  C   UNL     1     -10.098  10.628  64.821  1.00  0.00    -0.412 A  
HETATM   29  C   UNL     1     -10.483  10.571  66.165  1.00  0.00    -0.237 A  
BRANCH  21  30
HETATM   30  C   UNL     1      -7.810   5.552  68.319  1.00  0.00    -0.089 A  
HETATM   31  C   UNL     1      -7.541   3.736  70.418  1.00  0.00    -0.044 A  
HETATM   32 CL   UNL     1      -7.411   2.678  71.767  1.00  0.00    -0.039 Cl 
HETATM   33  C   UNL     1      -6.513   4.638  70.144  1.00  0.00    -0.035 A  
HETATM   34  C   UNL     1      -8.817   4.609  68.567  1.00  0.00    -0.123 A  
HETATM   35  C   UNL     1      -8.683   3.707  69.623  1.00  0.00    -0.127 A  
HETATM   36  C   UNL     1      -6.644   5.546  69.090  1.00  0.00    -0.047 A  
ENDBRANCH  21  30
ENDBRANCH  11  14
ENDBRANCH  10  11
ENDBRANCH   5  10
ENDBRANCH   4   5
ENDBRANCH   3   4
ENDBRANCH   2   3
TORSDOF 10
ENDMDL
MODEL       62
REMARK 921   NORMALIZED FREE ENERGY PREDICTED BY IDOCK:   -5.08 KCAL/MOL
REMARK 922        TOTAL FREE ENERGY PREDICTED BY IDOCK:  -10.13 KCAL/MOL
REMARK 923 INTER-LIGAND FREE ENERGY PREDICTED BY IDOCK:   -7.34 KCAL/MOL
REMARK 924 INTRA-LIGAND FREE ENERGY PREDICTED BY IDOCK:   -2.79 KCAL/MOL
REMARK 927      BINDING AFFINITY PREDICTED BY RF-SCORE:    0.00 PKD
ROOT
HETATM    1  C   UNL     1      -7.184  11.325  68.871  1.00  0.00    -0.112 C  
HETATM    2  C   UNL     1      -7.204   9.885  69.363  1.00  0.00    -0.083 C  
ENDROOT
BRANCH   2   3
HETATM    3  C   UNL     1      -6.526   8.965  68.350  1.00  0.00    -0.055 C  
BRANCH   3   4
HETATM    4  C   UNL     1      -6.724   7.469  68.632  1.00  0.00    -0.054 C  
BRANCH   4   5
HETATM    5  N   UNL     1      -6.736   6.548  67.474  1.00  0.00    -0.064 NA 
BRANCH   5   6
HETATM    6  C   UNL     1      -5.700   5.499  67.599  1.00  0.00    -0.013 C  
BRANCH   6   7
HETATM    7  C   UNL     1      -6.194   4.104  68.040  1.00  0.00    -0.036 C  
BRANCH   7   8
HETATM    8  C   UNL     1      -5.812   3.691  69.464  1.00  0.00    -0.022 C  
HETATM    9  C   UNL     1      -6.237   2.274  69.815  1.00  0.00    -0.025 C  
ENDBRANCH   7   8
ENDBRANCH   6   7
ENDBRANCH   5   6
BRANCH   5  10
HETATM   10  C   UNL     1      -8.089   5.934  67.359  1.00  0.00    -0.102 C  
BRANCH  10  11
HETATM   11  C   UNL     1      -8.909   6.272  66.074  1.00  0.00    -0.151 C  
HETATM   12  O   UNL     1     -10.116   5.518  65.973  1.00  0.00    -0.340 OA 
HETATM   13  H   UNL     1     -10.615   5.724  65.192  1.00  0.00     0.000 HD 
BRANCH  11  14
HETATM   14  C   UNL     1      -9.184   7.763  65.958  1.00  0.00    -0.139 A  
HETATM   15  C   UNL     1      -9.815   8.561  66.929  1.00  0.00    -0.310 A  
HETATM   16 CL   UNL     1     -11.865   8.261  72.528  1.00  0.00    -0.460 Cl 
HETATM   17  C   UNL     1     -11.225   9.489  70.213  1.00  0.00    -0.307 A  
HETATM   18  C   UNL     1      -9.899   9.973  66.722  1.00  0.00    -0.251 A  
HETATM   19  C   UNL     1     -10.580  10.546  67.911  1.00  0.00    -0.271 C  
HETATM   20  C   UNL     1      -9.362  10.584  65.599  1.00  0.00    -0.242 A  
HETATM   21  C   UNL     1     -11.110  11.772  68.078  1.00  0.00    -0.297 C  
HETATM   22  C   UNL     1     -10.773   9.462  68.901  1.00  0.00    -0.203 A  
HETATM   23  C   UNL     1      -8.793   9.788  64.619  1.00  0.00    -0.212 A  
HETATM   24  C   UNL     1     -10.394   8.260  68.253  1.00  0.00    -0.242 A  
HETATM   25  C   UNL     1     -11.354   8.278  70.886  1.00  0.00    -0.268 A  
HETATM   26 CL   UNL     1      -8.146  10.513  63.196  1.00  0.00    -0.137 Cl 
HETATM   27  C   UNL     1      -8.709   8.405  64.787  1.00  0.00    -0.013 A  
HETATM   28  C   UNL     1     -11.073   7.070  70.240  1.00  0.00    -0.323 A  
HETATM   29  C   UNL     1     -10.608   7.061  68.921  1.00  0.00    -0.233 A  
BRANCH  21  30
HETATM   30  C   UNL     1     -11.119  12.828  67.066  1.00  0.00    -0.316 A  
HETATM   31  C   UNL     1     -11.273  15.012  65.338  1.00  0.00    -0.356 A  
HETATM   32 CL   UNL     1     -11.414  16.403  64.337  1.00  0.00    -0.251 Cl 
HETATM   33  C   UNL     1     -12.290  14.056  65.341  1.00  0.00    -0.495 A  
HETATM   34  C   UNL     1     -10.078  13.765  67.021  1.00  0.00    -0.256 A  
HETATM   35  C   UNL     1     -10.162  14.862  66.161  1.00  0.00    -0.314 A  
HETATM   36  C   UNL     1     -12.212  12.959  66.203  1.00  0.00    -0.385 A  
ENDBRANCH  21  30
ENDBRANCH  11  14
ENDBRANCH  10  11
ENDBRANCH   5  10
ENDBRANCH   4   5
ENDBRANCH   3   4
ENDBRANCH   2   3
TORSDOF 10
ENDMDL
MODEL       63
REMARK 921   NORMALIZED FREE ENERGY PREDICTED BY IDOCK:   -5.07 KCAL/MOL
REMARK 922        TOTAL FREE ENERGY PREDICTED BY IDOCK:  -10.12 KCAL/MOL
REMARK 923 INTER-LIGAND FREE ENERGY PREDICTED BY IDOCK:   -8.41 KCAL/MOL
REMARK 924 INTRA-LIGAND FREE ENERGY PREDICTED BY IDOCK:   -1.72 KCAL/MOL
REMARK 927      BINDING AFFINITY PREDICTED BY RF-SCORE:    0.00 PKD
ROOT
HETATM    1  C   UNL     1      -5.865  18.833  69.503  1.00  0.00    -0.260 C  
HETATM    2  C   UNL     1      -7.249  19.424  69.274  1.00  0.00    -0.336 C  
ENDROOT
BRANCH   2   3
HETATM    3  C   UNL     1      -7.339  20.056  67.887  1.00  0.00    -0.332 C  
BRANCH   3   4
HETATM    4  C   UNL     1      -8.497  19.523  67.030  1.00  0.00    -0.296 C  
BRANCH   4   5
HETATM    5  N   UNL     1      -8.167  18.572  65.946  1.00  0.00    -0.489 NA 
BRANCH   5   6
HETATM    6  C   UNL     1      -6.731  18.217  65.949  1.00  0.00    -0.280 C  
BRANCH   6   7
HETATM    7  C   UNL     1      -5.900  18.735  64.754  1.00  0.00    -0.290 C  
BRANCH   7   8
HETATM    8  C   UNL     1      -5.529  20.220  64.806  1.00  0.00    -0.217 C  
HETATM    9  C   UNL     1      -6.131  21.031  63.670  1.00  0.00    -0.351 C  
ENDBRANCH   7   8
ENDBRANCH   6   7
ENDBRANCH   5   6
BRANCH   5  10
HETATM   10  C   UNL     1      -9.006  17.351  66.103  1.00  0.00    -0.139 C  
BRANCH  10  11
HETATM   11  C   UNL     1      -9.446  16.980  67.555  1.00  0.00    -0.246 C  
HETATM   12  O   UNL     1     -10.861  17.032  67.735  1.00  0.00    -0.340 OA 
HETATM   13  H   UNL     1     -11.128  16.806  68.618  1.00  0.00     0.000 HD 
BRANCH  11  14
HETATM   14  C   UNL     1      -8.889  15.632  67.985  1.00  0.00    -0.169 A  
HETATM   15  C   UNL     1      -9.291  14.379  67.488  1.00  0.00    -0.198 A  
HETATM   16 CL   UNL     1     -12.772  11.990  63.268  1.00  0.00    -0.603 Cl 
HETATM   17  C   UNL     1     -10.949  11.951  65.256  1.00  0.00    -0.354 A  
HETATM   18  C   UNL     1      -8.591  13.207  67.909  1.00  0.00    -0.185 A  
HETATM   19  C   UNL     1      -9.211  12.055  67.205  1.00  0.00    -0.190 C  
HETATM   20  C   UNL     1      -7.514  13.266  68.781  1.00  0.00    -0.053 A  
HETATM   21  C   UNL     1      -9.078  10.738  67.449  1.00  0.00    -0.148 C  
HETATM   22  C   UNL     1     -10.205  12.583  66.242  1.00  0.00    -0.265 A  
HETATM   23  C   UNL     1      -7.160  14.495  69.312  1.00  0.00    -0.140 A  
HETATM   24  C   UNL     1     -10.306  13.973  66.496  1.00  0.00    -0.285 A  
HETATM   25  C   UNL     1     -11.860  12.714  64.533  1.00  0.00    -0.379 A  
HETATM   26 CL   UNL     1      -5.847  14.599  70.424  1.00  0.00    -0.146 Cl 
HETATM   27  C   UNL     1      -7.833  15.656  68.930  1.00  0.00    -0.186 A  
HETATM   28  C   UNL     1     -12.044  14.069  64.825  1.00  0.00    -0.455 A  
HETATM   29  C   UNL     1     -11.279  14.693  65.815  1.00  0.00    -0.336 A  
BRANCH  21  30
HETATM   30  C   UNL     1      -8.256  10.159  68.512  1.00  0.00    -0.111 A  
HETATM   31  C   UNL     1      -6.778   8.790  70.440  1.00  0.00    -0.043 A  
HETATM   32 CL   UNL     1      -5.901   7.868  71.598  1.00  0.00    -0.035 Cl 
HETATM   33  C   UNL     1      -8.078   9.206  70.728  1.00  0.00    -0.207 A  
HETATM   34  C   UNL     1      -6.932   9.784  68.248  1.00  0.00    -0.073 A  
HETATM   35  C   UNL     1      -6.198   9.091  69.212  1.00  0.00    -0.041 A  
HETATM   36  C   UNL     1      -8.819   9.896  69.765  1.00  0.00    -0.229 A  
ENDBRANCH  21  30
ENDBRANCH  11  14
ENDBRANCH  10  11
ENDBRANCH   5  10
ENDBRANCH   4   5
ENDBRANCH   3   4
ENDBRANCH   2   3
TORSDOF 10
ENDMDL
MODEL       64
REMARK 921   NORMALIZED FREE ENERGY PREDICTED BY IDOCK:   -5.05 KCAL/MOL
REMARK 922        TOTAL FREE ENERGY PREDICTED BY IDOCK:  -10.09 KCAL/MOL
REMARK 923 INTER-LIGAND FREE ENERGY PREDICTED BY IDOCK:   -8.76 KCAL/MOL
REMARK 924 INTRA-LIGAND FREE ENERGY PREDICTED BY IDOCK:   -1.33 KCAL/MOL
REMARK 927      BINDING AFFINITY PREDICTED BY RF-SCORE:    0.00 PKD
ROOT
HETATM    1  C   UNL     1      -6.577  11.604  69.888  1.00  0.00    -0.030 C  
HETATM    2  C   UNL     1      -6.486  11.115  68.449  1.00  0.00    -0.057 C  
ENDROOT
BRANCH   2   3
HETATM    3  C   UNL     1      -6.393  12.298  67.488  1.00  0.00    -0.139 C  
BRANCH   3   4
HETATM    4  C   UNL     1      -7.489  13.355  67.686  1.00  0.00    -0.178 C  
BRANCH   4   5
HETATM    5  N   UNL     1      -8.896  12.903  67.622  1.00  0.00    -0.175 NA 
BRANCH   5   6
HETATM    6  C   UNL     1      -9.793  13.975  67.137  1.00  0.00    -0.240 C  
BRANCH   6   7
HETATM    7  C   UNL     1      -9.454  14.571  65.753  1.00  0.00    -0.158 C  
BRANCH   7   8
HETATM    8  C   UNL     1     -10.653  14.833  64.838  1.00  0.00    -0.431 C  
HETATM    9  C   UNL     1     -11.102  16.285  64.834  1.00  0.00    -0.301 C  
ENDBRANCH   7   8
ENDBRANCH   6   7
ENDBRANCH   5   6
BRANCH   5  10
HETATM   10  C   UNL     1      -8.980  11.710  66.732  1.00  0.00    -0.189 C  
BRANCH  10  11
HETATM   11  C   UNL     1     -10.337  10.937  66.717  1.00  0.00    -0.241 C  
HETATM   12  O   UNL     1     -10.626  10.350  65.449  1.00  0.00    -0.178 OA 
HETATM   13  H   UNL     1     -11.451   9.879  65.440  1.00  0.00     0.000 HD 
BRANCH  11  14
HETATM   14  C   UNL     1     -10.407   9.901  67.828  1.00  0.00    -0.268 A  
HETATM   15  C   UNL     1     -10.974  10.096  69.100  1.00  0.00    -0.270 A  
HETATM   16 CL   UNL     1     -14.113  14.130  72.184  1.00  0.00    -0.604 Cl 
HETATM   17  C   UNL     1     -12.932  11.742  71.763  1.00  0.00    -0.466 A  
HETATM   18  C   UNL     1     -11.067   8.988  69.998  1.00  0.00    -0.197 A  
HETATM   19  C   UNL     1     -11.728   9.484  71.232  1.00  0.00    -0.444 C  
HETATM   20  C   UNL     1     -10.628   7.719  69.648  1.00  0.00    -0.242 A  
HETATM   21  C   UNL     1     -11.815   8.901  72.442  1.00  0.00    -0.292 C  
HETATM   22  C   UNL     1     -12.160  10.881  70.996  1.00  0.00    -0.425 A  
HETATM   23  C   UNL     1     -10.018   7.546  68.417  1.00  0.00    -0.170 A  
HETATM   24  C   UNL     1     -11.612  11.261  69.746  1.00  0.00    -0.408 A  
HETATM   25  C   UNL     1     -13.125  13.038  71.296  1.00  0.00    -0.179 A  
HETATM   26 CL   UNL     1      -9.434   5.989  67.964  1.00  0.00    -0.113 Cl 
HETATM   27  C   UNL     1      -9.902   8.613  67.524  1.00  0.00    -0.234 A  
HETATM   28  C   UNL     1     -12.521  13.466  70.109  1.00  0.00    -0.243 A  
HETATM   29  C   UNL     1     -11.755  12.582  69.344  1.00  0.00    -0.383 A  
BRANCH  21  30
HETATM   30  C   UNL     1     -11.241   7.601  72.792  1.00  0.00    -0.431 A  
HETATM   31  C   UNL     1     -10.071   5.098  73.172  1.00  0.00    -0.165 A  
HETATM   32 CL   UNL     1      -9.334   3.551  73.317  1.00  0.00    -0.114 Cl 
HETATM   33  C   UNL     1     -11.432   5.191  72.879  1.00  0.00    -0.329 A  
HETATM   34  C   UNL     1      -9.886   7.503  73.136  1.00  0.00    -0.316 A  
HETATM   35  C   UNL     1      -9.302   6.248  73.318  1.00  0.00    -0.136 A  
HETATM   36  C   UNL     1     -12.021   6.444  72.693  1.00  0.00    -0.016 A  
ENDBRANCH  21  30
ENDBRANCH  11  14
ENDBRANCH  10  11
ENDBRANCH   5  10
ENDBRANCH   4   5
ENDBRANCH   3   4
ENDBRANCH   2   3
TORSDOF 10
ENDMDL
MODEL       65
REMARK 921   NORMALIZED FREE ENERGY PREDICTED BY IDOCK:   -5.02 KCAL/MOL
REMARK 922        TOTAL FREE ENERGY PREDICTED BY IDOCK:  -10.04 KCAL/MOL
REMARK 923 INTER-LIGAND FREE ENERGY PREDICTED BY IDOCK:   -7.85 KCAL/MOL
REMARK 924 INTRA-LIGAND FREE ENERGY PREDICTED BY IDOCK:   -2.19 KCAL/MOL
REMARK 927      BINDING AFFINITY PREDICTED BY RF-SCORE:    0.00 PKD
ROOT
HETATM    1  C   UNL     1     -11.272   3.499  73.347  1.00  0.00    -0.258 C  
HETATM    2  C   UNL     1     -10.950   4.968  73.580  1.00  0.00    -0.393 C  
ENDROOT
BRANCH   2   3
HETATM    3  C   UNL     1     -11.276   5.791  72.335  1.00  0.00    -0.343 C  
BRANCH   3   4
HETATM    4  C   UNL     1     -10.045   6.404  71.651  1.00  0.00    -0.186 C  
BRANCH   4   5
HETATM    5  N   UNL     1      -9.447   5.661  70.520  1.00  0.00    -0.160 NA 
BRANCH   5   6
HETATM    6  C   UNL     1     -10.477   5.203  69.562  1.00  0.00    -0.163 C  
BRANCH   6   7
HETATM    7  C   UNL     1     -11.139   6.300  68.700  1.00  0.00    -0.409 C  
BRANCH   7   8
HETATM    8  C   UNL     1     -11.004   6.119  67.186  1.00  0.00    -0.420 C  
HETATM    9  C   UNL     1      -9.987   5.059  66.794  1.00  0.00    -0.242 C  
ENDBRANCH   7   8
ENDBRANCH   6   7
ENDBRANCH   5   6
BRANCH   5  10
HETATM   10  C   UNL     1      -8.452   6.536  69.839  1.00  0.00    -0.135 C  
BRANCH  10  11
HETATM   11  C   UNL     1      -8.372   8.019  70.321  1.00  0.00    -0.125 C  
HETATM   12  O   UNL     1      -7.035   8.445  70.580  1.00  0.00    -0.037 OA 
HETATM   13  H   UNL     1      -6.986   9.348  70.873  1.00  0.00     0.000 HD 
BRANCH  11  14
HETATM   14  C   UNL     1      -9.069   8.964  69.354  1.00  0.00    -0.145 A  
HETATM   15  C   UNL     1      -8.918   8.969  67.956  1.00  0.00    -0.133 A  
HETATM   16 CL   UNL     1      -6.348   5.826  63.580  1.00  0.00    -0.025 Cl 
HETATM   17  C   UNL     1      -7.912   7.766  64.614  1.00  0.00    -0.136 A  
HETATM   18  C   UNL     1      -9.731   9.845  67.172  1.00  0.00    -0.224 A  
HETATM   19  C   UNL     1      -9.375   9.609  65.749  1.00  0.00    -0.286 C  
HETATM   20  C   UNL     1     -10.678  10.681  67.747  1.00  0.00    -0.302 A  
HETATM   21  C   UNL     1      -9.674  10.350  64.665  1.00  0.00    -0.392 C  
HETATM   22  C   UNL     1      -8.433   8.468  65.691  1.00  0.00    -0.170 A  
HETATM   23  C   UNL     1     -10.781  10.714  69.127  1.00  0.00    -0.228 A  
HETATM   24  C   UNL     1      -8.098   8.161  67.033  1.00  0.00    -0.108 A  
HETATM   25  C   UNL     1      -6.988   6.759  64.875  1.00  0.00    -0.055 A  
HETATM   26 CL   UNL     1     -11.925  11.765  69.874  1.00  0.00    -0.400 Cl 
HETATM   27  C   UNL     1      -9.992   9.879  69.920  1.00  0.00    -0.292 A  
HETATM   28  C   UNL     1      -6.572   6.496  66.184  1.00  0.00    -0.048 A  
HETATM   29  C   UNL     1      -7.115   7.206  67.259  1.00  0.00    -0.084 A  
BRANCH  21  30
HETATM   30  C   UNL     1     -10.443  11.594  64.683  1.00  0.00    -0.354 A  
HETATM   31  C   UNL     1     -11.831  14.000  64.431  1.00  0.00    -0.431 A  
HETATM   32 CL   UNL     1     -12.656  15.490  64.191  1.00  0.00     0.030 Cl 
HETATM   33  C   UNL     1     -10.508  14.005  64.874  1.00  0.00    -0.453 A  
HETATM   34  C   UNL     1     -11.787  11.592  64.288  1.00  0.00    -0.219 A  
HETATM   35  C   UNL     1     -12.477  12.799  64.155  1.00  0.00    -0.450 A  
HETATM   36  C   UNL     1      -9.812  12.800  65.004  1.00  0.00    -0.077 A  
ENDBRANCH  21  30
ENDBRANCH  11  14
ENDBRANCH  10  11
ENDBRANCH   5  10
ENDBRANCH   4   5
ENDBRANCH   3   4
ENDBRANCH   2   3
TORSDOF 10
ENDMDL
MODEL       66
REMARK 921   NORMALIZED FREE ENERGY PREDICTED BY IDOCK:   -5.01 KCAL/MOL
REMARK 922        TOTAL FREE ENERGY PREDICTED BY IDOCK:  -10.02 KCAL/MOL
REMARK 923 INTER-LIGAND FREE ENERGY PREDICTED BY IDOCK:   -8.53 KCAL/MOL
REMARK 924 INTRA-LIGAND FREE ENERGY PREDICTED BY IDOCK:   -1.49 KCAL/MOL
REMARK 927      BINDING AFFINITY PREDICTED BY RF-SCORE:    0.00 PKD
ROOT
HETATM    1  C   UNL     1     -11.222  15.713  64.883  1.00  0.00    -0.376 C  
HETATM    2  C   UNL     1     -12.379  14.817  64.465  1.00  0.00    -0.384 C  
ENDROOT
BRANCH   2   3
HETATM    3  C   UNL     1     -12.331  13.493  65.225  1.00  0.00    -0.506 C  
BRANCH   3   4
HETATM    4  C   UNL     1     -10.921  13.075  65.666  1.00  0.00    -0.273 C  
BRANCH   4   5
HETATM    5  N   UNL     1     -10.673  12.924  67.117  1.00  0.00    -0.251 NA 
BRANCH   5   6
HETATM    6  C   UNL     1     -11.805  13.435  67.921  1.00  0.00    -0.357 C  
BRANCH   6   7
HETATM    7  C   UNL     1     -11.538  14.722  68.731  1.00  0.00    -0.347 C  
BRANCH   7   8
HETATM    8  C   UNL     1     -12.424  14.920  69.964  1.00  0.00    -0.320 C  
HETATM    9  C   UNL     1     -12.378  13.750  70.933  1.00  0.00    -0.456 C  
ENDBRANCH   7   8
ENDBRANCH   6   7
ENDBRANCH   5   6
BRANCH   5  10
HETATM   10  C   UNL     1     -10.426  11.486  67.418  1.00  0.00    -0.209 C  
BRANCH  10  11
HETATM   11  C   UNL     1      -8.984  11.099  67.874  1.00  0.00    -0.143 C  
HETATM   12  O   UNL     1      -8.590  11.753  69.080  1.00  0.00    -0.369 OA 
HETATM   13  H   UNL     1      -7.712  11.518  69.357  1.00  0.00     0.000 HD 
BRANCH  11  14
HETATM   14  C   UNL     1      -8.815   9.592  67.989  1.00  0.00    -0.123 A  
HETATM   15  C   UNL     1      -9.558   8.742  68.828  1.00  0.00    -0.160 A  
HETATM   16 CL   UNL     1     -14.247   8.853  72.522  1.00  0.00    -0.485 Cl 
HETATM   17  C   UNL     1     -12.263   7.691  71.110  1.00  0.00    -0.310 A  
HETATM   18  C   UNL     1      -9.360   7.330  68.740  1.00  0.00    -0.143 A  
HETATM   19  C   UNL     1     -10.291   6.700  69.710  1.00  0.00    -0.226 C  
HETATM   20  C   UNL     1      -8.467   6.767  67.839  1.00  0.00    -0.119 A  
HETATM   21  C   UNL     1     -10.308   5.436  70.174  1.00  0.00    -0.361 C  
HETATM   22  C   UNL     1     -11.155   7.760  70.278  1.00  0.00    -0.242 A  
HETATM   23  C   UNL     1      -7.697   7.611  67.056  1.00  0.00    -0.108 A  
HETATM   24  C   UNL     1     -10.634   8.991  69.808  1.00  0.00    -0.236 A  
HETATM   25  C   UNL     1     -12.842   8.884  71.530  1.00  0.00    -0.334 A  
HETATM   26 CL   UNL     1      -6.555   6.945  65.950  1.00  0.00    -0.050 Cl 
HETATM   27  C   UNL     1      -7.858   8.995  67.130  1.00  0.00    -0.099 A  
HETATM   28  C   UNL     1     -12.293  10.114  71.153  1.00  0.00    -0.488 A  
HETATM   29  C   UNL     1     -11.182  10.166  70.305  1.00  0.00    -0.387 A  
BRANCH  21  30
HETATM   30  C   UNL     1      -9.361   4.388  69.793  1.00  0.00    -0.224 A  
HETATM   31  C   UNL     1      -7.431   2.591  68.884  1.00  0.00    -0.047 A  
HETATM   32 CL   UNL     1      -6.212   1.547  68.266  1.00  0.00    -0.024 Cl 
HETATM   33  C   UNL     1      -8.673   2.656  68.250  1.00  0.00    -0.136 A  
HETATM   34  C   UNL     1      -8.131   4.281  70.456  1.00  0.00    -0.066 A  
HETATM   35  C   UNL     1      -7.164   3.387  69.993  1.00  0.00    -0.041 A  
HETATM   36  C   UNL     1      -9.642   3.553  68.707  1.00  0.00    -0.137 A  
ENDBRANCH  21  30
ENDBRANCH  11  14
ENDBRANCH  10  11
ENDBRANCH   5  10
ENDBRANCH   4   5
ENDBRANCH   3   4
ENDBRANCH   2   3
TORSDOF 10
ENDMDL
MODEL       67
REMARK 921   NORMALIZED FREE ENERGY PREDICTED BY IDOCK:   -4.96 KCAL/MOL
REMARK 922        TOTAL FREE ENERGY PREDICTED BY IDOCK:   -9.95 KCAL/MOL
REMARK 923 INTER-LIGAND FREE ENERGY PREDICTED BY IDOCK:   -8.04 KCAL/MOL
REMARK 924 INTRA-LIGAND FREE ENERGY PREDICTED BY IDOCK:   -1.91 KCAL/MOL
REMARK 927      BINDING AFFINITY PREDICTED BY RF-SCORE:    0.00 PKD
ROOT
HETATM    1  C   UNL     1      -6.530  21.084  67.588  1.00  0.00    -0.417 C  
HETATM    2  C   UNL     1      -5.773  20.250  68.612  1.00  0.00    -0.303 C  
ENDROOT
BRANCH   2   3
HETATM    3  C   UNL     1      -6.715  19.266  69.301  1.00  0.00    -0.356 C  
BRANCH   3   4
HETATM    4  C   UNL     1      -6.413  17.791  68.997  1.00  0.00    -0.233 C  
BRANCH   4   5
HETATM    5  N   UNL     1      -7.399  17.042  68.188  1.00  0.00    -0.186 NA 
BRANCH   5   6
HETATM    6  C   UNL     1      -7.600  17.662  66.860  1.00  0.00    -0.214 C  
BRANCH   6   7
HETATM    7  C   UNL     1      -8.969  18.337  66.625  1.00  0.00    -0.296 C  
BRANCH   7   8
HETATM    8  C   UNL     1      -9.894  18.390  67.844  1.00  0.00    -0.348 C  
HETATM    9  C   UNL     1     -10.257  19.804  68.265  1.00  0.00    -0.569 C  
ENDBRANCH   7   8
ENDBRANCH   6   7
ENDBRANCH   5   6
BRANCH   5  10
HETATM   10  C   UNL     1      -6.933  15.634  68.041  1.00  0.00    -0.129 C  
BRANCH  10  11
HETATM   11  C   UNL     1      -7.398  14.620  69.134  1.00  0.00    -0.143 C  
HETATM   12  O   UNL     1      -8.590  15.033  69.800  1.00  0.00    -0.447 OA 
HETATM   13  H   UNL     1      -8.873  14.416  70.465  1.00  0.00     0.000 HD 
BRANCH  11  14
HETATM   14  C   UNL     1      -7.543  13.214  68.573  1.00  0.00    -0.122 A  
HETATM   15  C   UNL     1      -8.473  12.809  67.599  1.00  0.00    -0.178 A  
HETATM   16 CL   UNL     1     -12.581  15.084  63.912  1.00  0.00     0.083 Cl 
HETATM   17  C   UNL     1     -11.028  13.140  64.954  1.00  0.00    -0.337 A  
HETATM   18  C   UNL     1      -8.410  11.476  67.088  1.00  0.00    -0.160 A  
HETATM   19  C   UNL     1      -9.481  11.351  66.067  1.00  0.00    -0.245 C  
HETATM   20  C   UNL     1      -7.448  10.571  67.513  1.00  0.00    -0.093 A  
HETATM   21  C   UNL     1      -9.983  10.242  65.494  1.00  0.00    -0.364 C  
HETATM   22  C   UNL     1     -10.095  12.686  65.875  1.00  0.00    -0.276 A  
HETATM   23  C   UNL     1      -6.572  10.956  68.513  1.00  0.00    -0.055 A  
HETATM   24  C   UNL     1      -9.541  13.526  66.872  1.00  0.00    -0.258 A  
HETATM   25  C   UNL     1     -11.462  14.457  65.058  1.00  0.00    -0.372 A  
HETATM   26 CL   UNL     1      -5.385   9.845  69.085  1.00  0.00    -0.036 Cl 
HETATM   27  C   UNL     1      -6.618  12.248  69.040  1.00  0.00    -0.100 A  
HETATM   28  C   UNL     1     -10.998  15.281  66.088  1.00  0.00    -0.307 A  
HETATM   29  C   UNL     1     -10.050  14.810  67.002  1.00  0.00    -0.245 A  
BRANCH  21  30
HETATM   30  C   UNL     1      -9.548   8.875  65.784  1.00  0.00    -0.245 A  
HETATM   31  C   UNL     1      -8.543   6.388  66.546  1.00  0.00    -0.125 A  
HETATM   32 CL   UNL     1      -7.868   4.897  67.075  1.00  0.00    -0.095 Cl 
HETATM   33  C   UNL     1      -7.930   7.098  65.514  1.00  0.00    -0.122 A  
HETATM   34  C   UNL     1     -10.190   8.134  66.786  1.00  0.00    -0.372 A  
HETATM   35  C   UNL     1      -9.679   6.893  67.171  1.00  0.00    -0.197 A  
HETATM   36  C   UNL     1      -8.435   8.342  65.127  1.00  0.00    -0.179 A  
ENDBRANCH  21  30
ENDBRANCH  11  14
ENDBRANCH  10  11
ENDBRANCH   5  10
ENDBRANCH   4   5
ENDBRANCH   3   4
ENDBRANCH   2   3
TORSDOF 10
ENDMDL
MODEL       68
REMARK 921   NORMALIZED FREE ENERGY PREDICTED BY IDOCK:   -4.95 KCAL/MOL
REMARK 922        TOTAL FREE ENERGY PREDICTED BY IDOCK:   -9.93 KCAL/MOL
REMARK 923 INTER-LIGAND FREE ENERGY PREDICTED BY IDOCK:   -8.21 KCAL/MOL
REMARK 924 INTRA-LIGAND FREE ENERGY PREDICTED BY IDOCK:   -1.72 KCAL/MOL
REMARK 927      BINDING AFFINITY PREDICTED BY RF-SCORE:    0.00 PKD
ROOT
HETATM    1  C   UNL     1      -6.086   5.448  73.044  1.00  0.00    -0.039 C  
HETATM    2  C   UNL     1      -6.683   4.494  72.020  1.00  0.00    -0.034 C  
ENDROOT
BRANCH   2   3
HETATM    3  C   UNL     1      -7.846   5.158  71.286  1.00  0.00    -0.106 C  
BRANCH   3   4
HETATM    4  C   UNL     1      -9.050   5.481  72.182  1.00  0.00    -0.143 C  
BRANCH   4   5
HETATM    5  N   UNL     1     -10.208   6.157  71.557  1.00  0.00    -0.199 NA 
BRANCH   5   6
HETATM    6  C   UNL     1     -11.189   6.608  72.569  1.00  0.00    -0.266 C  
BRANCH   6   7
HETATM    7  C   UNL     1     -11.440   8.130  72.642  1.00  0.00    -0.454 C  
BRANCH   7   8
HETATM    8  C   UNL     1     -12.888   8.571  72.410  1.00  0.00    -0.373 C  
HETATM    9  C   UNL     1     -13.711   7.552  71.639  1.00  0.00    -0.465 C  
ENDBRANCH   7   8
ENDBRANCH   6   7
ENDBRANCH   5   6
BRANCH   5  10
HETATM   10  C   UNL     1      -9.718   7.313  70.755  1.00  0.00    -0.171 C  
BRANCH  10  11
HETATM   11  C   UNL     1     -10.246   7.428  69.290  1.00  0.00    -0.199 C  
HETATM   12  O   UNL     1     -11.446   6.687  69.074  1.00  0.00    -0.582 OA 
HETATM   13  H   UNL     1     -11.767   6.758  68.183  1.00  0.00     0.000 HD 
BRANCH  11  14
HETATM   14  C   UNL     1     -10.415   8.879  68.865  1.00  0.00    -0.225 A  
HETATM   15  C   UNL     1      -9.999   9.431  67.640  1.00  0.00    -0.238 A  
HETATM   16 CL   UNL     1      -7.718   7.786  62.374  1.00  0.00    -0.108 Cl 
HETATM   17  C   UNL     1      -8.779   9.512  64.157  1.00  0.00    -0.239 A  
HETATM   18  C   UNL     1     -10.333  10.788  67.340  1.00  0.00    -0.251 A  
HETATM   19  C   UNL     1      -9.796  11.077  65.986  1.00  0.00    -0.273 C  
HETATM   20  C   UNL     1     -11.069  11.575  68.214  1.00  0.00    -0.295 A  
HETATM   21  C   UNL     1      -9.633  12.264  65.372  1.00  0.00    -0.079 C  
HETATM   22  C   UNL     1      -9.259   9.817  65.422  1.00  0.00    -0.282 A  
HETATM   23  C   UNL     1     -11.425  11.045  69.442  1.00  0.00    -0.294 A  
HETATM   24  C   UNL     1      -9.304   8.863  66.468  1.00  0.00    -0.252 A  
HETATM   25  C   UNL     1      -8.280   8.231  63.937  1.00  0.00    -0.086 A  
HETATM   26 CL   UNL     1     -12.312  12.007  70.564  1.00  0.00    -0.402 Cl 
HETATM   27  C   UNL     1     -11.102   9.727  69.769  1.00  0.00    -0.272 A  
HETATM   28  C   UNL     1      -8.230   7.298  64.978  1.00  0.00    -0.100 A  
HETATM   29  C   UNL     1      -8.728   7.619  66.245  1.00  0.00    -0.170 A  
BRANCH  21  30
HETATM   30  C   UNL     1      -9.969  13.564  65.953  1.00  0.00    -0.295 A  
HETATM   31  C   UNL     1     -10.502  16.163  66.812  1.00  0.00    -0.294 A  
HETATM   32 CL   UNL     1     -10.791  17.796  67.266  1.00  0.00    -0.239 Cl 
HETATM   33  C   UNL     1      -9.287  15.559  67.139  1.00  0.00    -0.227 A  
HETATM   34  C   UNL     1     -11.207  14.158  65.672  1.00  0.00    -0.308 A  
HETATM   35  C   UNL     1     -11.468  15.462  66.097  1.00  0.00     0.001 A  
HETATM   36  C   UNL     1      -9.020  14.255  66.713  1.00  0.00    -0.249 A  
ENDBRANCH  21  30
ENDBRANCH  11  14
ENDBRANCH  10  11
ENDBRANCH   5  10
ENDBRANCH   4   5
ENDBRANCH   3   4
ENDBRANCH   2   3
TORSDOF 10
ENDMDL
MODEL       69
REMARK 921   NORMALIZED FREE ENERGY PREDICTED BY IDOCK:   -4.95 KCAL/MOL
REMARK 922        TOTAL FREE ENERGY PREDICTED BY IDOCK:   -9.93 KCAL/MOL
REMARK 923 INTER-LIGAND FREE ENERGY PREDICTED BY IDOCK:   -8.94 KCAL/MOL
REMARK 924 INTRA-LIGAND FREE ENERGY PREDICTED BY IDOCK:   -0.99 KCAL/MOL
REMARK 927      BINDING AFFINITY PREDICTED BY RF-SCORE:    0.00 PKD
ROOT
HETATM    1  C   UNL     1      -8.302   5.219  71.898  1.00  0.00    -0.122 C  
HETATM    2  C   UNL     1      -9.660   4.580  71.643  1.00  0.00    -0.222 C  
ENDROOT
BRANCH   2   3
HETATM    3  C   UNL     1     -10.743   5.284  72.458  1.00  0.00    -0.290 C  
BRANCH   3   4
HETATM    4  C   UNL     1     -10.200   6.283  73.490  1.00  0.00    -0.239 C  
BRANCH   4   5
HETATM    5  N   UNL     1     -10.531   7.713  73.300  1.00  0.00    -0.364 NA 
BRANCH   5   6
HETATM    6  C   UNL     1      -9.340   8.576  73.466  1.00  0.00     0.360 C  
BRANCH   6   7
HETATM    7  C   UNL     1      -8.018   7.852  73.802  1.00  0.00    -0.240 C  
BRANCH   7   8
HETATM    8  C   UNL     1      -6.885   8.048  72.791  1.00  0.00    -0.095 C  
HETATM    9  C   UNL     1      -7.356   8.607  71.459  1.00  0.00    -0.118 C  
ENDBRANCH   7   8
ENDBRANCH   6   7
ENDBRANCH   5   6
BRANCH   5  10
HETATM   10  C   UNL     1     -11.122   7.895  71.944  1.00  0.00    -0.267 C  
BRANCH  10  11
HETATM   11  C   UNL     1     -12.438   8.730  71.857  1.00  0.00    -0.372 C  
HETATM   12  O   UNL     1     -13.072   8.899  73.124  1.00  0.00    -0.788 OA 
HETATM   13  H   UNL     1     -13.873   9.407  73.071  1.00  0.00     0.000 HD 
BRANCH  11  14
HETATM   14  C   UNL     1     -12.210  10.072  71.177  1.00  0.00    -0.477 A  
HETATM   15  C   UNL     1     -11.433  10.289  70.025  1.00  0.00    -0.367 A  
HETATM   16 CL   UNL     1      -8.441   7.262  65.839  1.00  0.00    -0.141 Cl 
HETATM   17  C   UNL     1      -9.491   9.461  66.996  1.00  0.00    -0.200 A  
HETATM   18  C   UNL     1     -11.409  11.591  69.438  1.00  0.00    -0.355 A  
HETATM   19  C   UNL     1     -10.541  11.508  68.235  1.00  0.00    -0.228 C  
HETATM   20  C   UNL     1     -12.141  12.647  69.960  1.00  0.00    -0.339 A  
HETATM   21  C   UNL     1     -10.009  12.504  67.501  1.00  0.00    -0.201 C  
HETATM   22  C   UNL     1     -10.163  10.091  68.034  1.00  0.00    -0.216 A  
HETATM   23  C   UNL     1     -12.858  12.443  71.126  1.00  0.00    -0.205 A  
HETATM   24  C   UNL     1     -10.629   9.389  69.173  1.00  0.00    -0.234 A  
HETATM   25  C   UNL     1      -9.228   8.100  67.118  1.00  0.00    -0.145 A  
HETATM   26 CL   UNL     1     -13.753  13.743  71.819  1.00  0.00    -0.444 Cl 
HETATM   27  C   UNL     1     -12.891  11.185  71.730  1.00  0.00    -0.479 A  
HETATM   28  C   UNL     1      -9.598   7.403  68.272  1.00  0.00    -0.153 A  
HETATM   29  C   UNL     1     -10.285   8.051  69.304  1.00  0.00    -0.214 A  
BRANCH  21  30
HETATM   30  C   UNL     1     -10.191  13.932  67.763  1.00  0.00    -0.237 A  
HETATM   31  C   UNL     1     -10.330  16.701  68.057  1.00  0.00    -0.303 A  
HETATM   32 CL   UNL     1     -10.348  18.417  68.178  1.00  0.00    -0.395 Cl 
HETATM   33  C   UNL     1      -9.470  15.960  68.868  1.00  0.00    -0.234 A  
HETATM   34  C   UNL     1     -11.090  14.677  66.988  1.00  0.00    -0.333 A  
HETATM   35  C   UNL     1     -11.151  16.064  67.131  1.00  0.00    -0.104 A  
HETATM   36  C   UNL     1      -9.403  14.571  68.725  1.00  0.00    -0.177 A  
ENDBRANCH  21  30
ENDBRANCH  11  14
ENDBRANCH  10  11
ENDBRANCH   5  10
ENDBRANCH   4   5
ENDBRANCH   3   4
ENDBRANCH   2   3
TORSDOF 10
ENDMDL
MODEL       70
REMARK 921   NORMALIZED FREE ENERGY PREDICTED BY IDOCK:   -4.94 KCAL/MOL
REMARK 922        TOTAL FREE ENERGY PREDICTED BY IDOCK:   -9.92 KCAL/MOL
REMARK 923 INTER-LIGAND FREE ENERGY PREDICTED BY IDOCK:   -8.34 KCAL/MOL
REMARK 924 INTRA-LIGAND FREE ENERGY PREDICTED BY IDOCK:   -1.58 KCAL/MOL
REMARK 927      BINDING AFFINITY PREDICTED BY RF-SCORE:    0.00 PKD
ROOT
HETATM    1  C   UNL     1     -13.637  12.785  72.266  1.00  0.00    -0.563 C  
HETATM    2  C   UNL     1     -12.824  14.017  71.895  1.00  0.00    -0.421 C  
ENDROOT
BRANCH   2   3
HETATM    3  C   UNL     1     -11.951  13.734  70.674  1.00  0.00    -0.340 C  
BRANCH   3   4
HETATM    4  C   UNL     1     -12.356  14.522  69.419  1.00  0.00    -0.177 C  
BRANCH   4   5
HETATM    5  N   UNL     1     -12.071  13.908  68.104  1.00  0.00    -0.342 NA 
BRANCH   5   6
HETATM    6  C   UNL     1     -11.216  14.780  67.268  1.00  0.00    -0.346 C  
BRANCH   6   7
HETATM    7  C   UNL     1     -10.668  16.052  67.952  1.00  0.00    -0.316 C  
BRANCH   7   8
HETATM    8  C   UNL     1      -9.158  16.064  68.203  1.00  0.00    -0.187 C  
HETATM    9  C   UNL     1      -8.344  15.590  67.009  1.00  0.00    -0.265 C  
ENDBRANCH   7   8
ENDBRANCH   6   7
ENDBRANCH   5   6
BRANCH   5  10
HETATM   10  C   UNL     1     -11.417  12.587  68.318  1.00  0.00    -0.308 C  
BRANCH  10  11
HETATM   11  C   UNL     1      -9.965  12.423  67.767  1.00  0.00    -0.205 C  
HETATM   12  O   UNL     1      -8.966  12.688  68.752  1.00  0.00    -0.387 OA 
HETATM   13  H   UNL     1      -8.083  12.587  68.417  1.00  0.00     0.000 HD 
BRANCH  11  14
HETATM   14  C   UNL     1      -9.756  11.058  67.130  1.00  0.00    -0.198 A  
HETATM   15  C   UNL     1      -9.966   9.816  67.755  1.00  0.00    -0.206 A  
HETATM   16 CL   UNL     1     -12.126   7.508  72.819  1.00  0.00    -0.070 Cl 
HETATM   17  C   UNL     1     -11.131   7.422  70.313  1.00  0.00    -0.278 A  
HETATM   18  C   UNL     1      -9.836   8.619  66.986  1.00  0.00    -0.284 A  
HETATM   19  C   UNL     1     -10.142   7.485  67.895  1.00  0.00    -0.226 C  
HETATM   20  C   UNL     1      -9.523   8.643  65.635  1.00  0.00    -0.114 A  
HETATM   21  C   UNL     1      -9.917   6.169  67.718  1.00  0.00    -0.143 C  
HETATM   22  C   UNL     1     -10.600   8.039  69.189  1.00  0.00    -0.181 A  
HETATM   23  C   UNL     1      -9.261   9.864  65.038  1.00  0.00    -0.240 A  
HETATM   24  C   UNL     1     -10.395   9.439  69.117  1.00  0.00    -0.221 A  
HETATM   25  C   UNL     1     -11.421   8.215  71.419  1.00  0.00    -0.263 A  
HETATM   26 CL   UNL     1      -8.838   9.927  63.368  1.00  0.00    -0.227 Cl 
HETATM   27  C   UNL     1      -9.367  11.050  65.767  1.00  0.00    -0.236 A  
HETATM   28  C   UNL     1     -11.144   9.585  71.406  1.00  0.00    -0.438 A  
HETATM   29  C   UNL     1     -10.618  10.193  70.261  1.00  0.00    -0.324 A  
BRANCH  21  30
HETATM   30  C   UNL     1      -9.291   5.575  66.536  1.00  0.00    -0.154 A  
HETATM   31  C   UNL     1      -8.058   4.199  64.447  1.00  0.00    -0.091 A  
HETATM   32 CL   UNL     1      -7.284   3.281  63.216  1.00  0.00    -0.048 Cl 
HETATM   33  C   UNL     1      -7.293   4.995  65.300  1.00  0.00    -0.072 A  
HETATM   34  C   UNL     1     -10.060   4.815  65.644  1.00  0.00    -0.198 A  
HETATM   35  C   UNL     1      -9.438   4.120  64.604  1.00  0.00    -0.168 A  
HETATM   36  C   UNL     1      -7.910   5.689  66.345  1.00  0.00    -0.101 A  
ENDBRANCH  21  30
ENDBRANCH  11  14
ENDBRANCH  10  11
ENDBRANCH   5  10
ENDBRANCH   4   5
ENDBRANCH   3   4
ENDBRANCH   2   3
TORSDOF 10
ENDMDL
MODEL       71
REMARK 921   NORMALIZED FREE ENERGY PREDICTED BY IDOCK:   -4.84 KCAL/MOL
REMARK 922        TOTAL FREE ENERGY PREDICTED BY IDOCK:   -9.75 KCAL/MOL
REMARK 923 INTER-LIGAND FREE ENERGY PREDICTED BY IDOCK:   -9.34 KCAL/MOL
REMARK 924 INTRA-LIGAND FREE ENERGY PREDICTED BY IDOCK:   -0.41 KCAL/MOL
REMARK 927      BINDING AFFINITY PREDICTED BY RF-SCORE:    0.00 PKD
ROOT
HETATM    1  C   UNL     1      -7.243  11.888  68.764  1.00  0.00    -0.112 C  
HETATM    2  C   UNL     1      -6.963  11.929  67.269  1.00  0.00    -0.145 C  
ENDROOT
BRANCH   2   3
HETATM    3  C   UNL     1      -6.864  10.514  66.704  1.00  0.00    -0.108 C  
BRANCH   3   4
HETATM    4  C   UNL     1      -6.247  10.442  65.299  1.00  0.00    -0.122 C  
BRANCH   4   5
HETATM    5  N   UNL     1      -7.170  10.301  64.152  1.00  0.00    -0.102 NA 
BRANCH   5   6
HETATM    6  C   UNL     1      -6.728   9.239  63.222  1.00  0.00    -0.091 C  
BRANCH   6   7
HETATM    7  C   UNL     1      -7.415   7.865  63.384  1.00  0.00    -0.122 C  
BRANCH   7   8
HETATM    8  C   UNL     1      -6.573   6.785  64.068  1.00  0.00    -0.041 C  
HETATM    9  C   UNL     1      -6.812   6.692  65.566  1.00  0.00    -0.052 C  
ENDBRANCH   7   8
ENDBRANCH   6   7
ENDBRANCH   5   6
BRANCH   5  10
HETATM   10  C   UNL     1      -8.539  10.009  64.665  1.00  0.00    -0.181 C  
BRANCH  10  11
HETATM   11  C   UNL     1      -9.636  11.087  64.395  1.00  0.00    -0.259 C  
HETATM   12  O   UNL     1     -10.703  10.599  63.581  1.00  0.00    -0.472 OA 
HETATM   13  H   UNL     1     -11.370  11.254  63.418  1.00  0.00     0.000 HD 
BRANCH  11  14
HETATM   14  C   UNL     1     -10.166  11.686  65.689  1.00  0.00    -0.284 A  
HETATM   15  C   UNL     1     -10.457  10.975  66.867  1.00  0.00    -0.293 A  
HETATM   16 CL   UNL     1      -9.938   5.507  69.204  1.00  0.00    -0.232 Cl 
HETATM   17  C   UNL     1     -10.513   8.142  69.233  1.00  0.00    -0.221 A  
HETATM   18  C   UNL     1     -10.839  11.698  68.039  1.00  0.00    -0.259 A  
HETATM   19  C   UNL     1     -11.050  10.697  69.116  1.00  0.00    -0.309 C  
HETATM   20  C   UNL     1     -10.918  13.083  68.056  1.00  0.00    -0.274 A  
HETATM   21  C   UNL     1     -11.650  10.849  70.312  1.00  0.00    -0.426 C  
HETATM   22  C   UNL     1     -10.644   9.370  68.600  1.00  0.00    -0.230 A  
HETATM   23  C   UNL     1     -10.687  13.774  66.879  1.00  0.00    -0.280 A  
HETATM   24  C   UNL     1     -10.382   9.543  67.218  1.00  0.00    -0.319 A  
HETATM   25  C   UNL     1     -10.161   7.041  68.460  1.00  0.00    -0.165 A  
HETATM   26 CL   UNL     1     -10.807  15.493  66.858  1.00  0.00    -0.315 Cl 
HETATM   27  C   UNL     1     -10.324  13.095  65.714  1.00  0.00    -0.294 A  
HETATM   28  C   UNL     1      -9.985   7.168  67.078  1.00  0.00    -0.283 A  
HETATM   29  C   UNL     1     -10.110   8.415  66.457  1.00  0.00    -0.317 A  
BRANCH  21  30
HETATM   30  C   UNL     1     -12.242  12.094  70.802  1.00  0.00    -0.367 A  
HETATM   31  C   UNL     1     -13.166  14.460  71.953  1.00  0.00    -0.365 A  
HETATM   32 CL   UNL     1     -13.674  15.909  72.728  1.00  0.00    -0.632 Cl 
HETATM   33  C   UNL     1     -13.720  13.239  72.338  1.00  0.00    -0.678 A  
HETATM   34  C   UNL     1     -11.727  13.328  70.383  1.00  0.00    -0.161 A  
HETATM   35  C   UNL     1     -12.186  14.510  70.967  1.00  0.00    -0.407 A  
HETATM   36  C   UNL     1     -13.261  12.053  71.760  1.00  0.00    -0.421 A  
ENDBRANCH  21  30
ENDBRANCH  11  14
ENDBRANCH  10  11
ENDBRANCH   5  10
ENDBRANCH   4   5
ENDBRANCH   3   4
ENDBRANCH   2   3
TORSDOF 10
ENDMDL
MODEL       72
REMARK 921   NORMALIZED FREE ENERGY PREDICTED BY IDOCK:   -4.80 KCAL/MOL
REMARK 922        TOTAL FREE ENERGY PREDICTED BY IDOCK:   -9.70 KCAL/MOL
REMARK 923 INTER-LIGAND FREE ENERGY PREDICTED BY IDOCK:   -8.46 KCAL/MOL
REMARK 924 INTRA-LIGAND FREE ENERGY PREDICTED BY IDOCK:   -1.24 KCAL/MOL
REMARK 927      BINDING AFFINITY PREDICTED BY RF-SCORE:    0.00 PKD
ROOT
HETATM    1  C   UNL     1      -7.795  14.178  68.476  1.00  0.00    -0.140 C  
HETATM    2  C   UNL     1      -6.818  13.014  68.386  1.00  0.00    -0.097 C  
ENDROOT
BRANCH   2   3
HETATM    3  C   UNL     1      -7.540  11.690  68.622  1.00  0.00    -0.133 C  
BRANCH   3   4
HETATM    4  C   UNL     1      -7.352  10.664  67.494  1.00  0.00    -0.091 C  
BRANCH   4   5
HETATM    5  N   UNL     1      -7.639  11.106  66.112  1.00  0.00    -0.086 NA 
BRANCH   5   6
HETATM    6  C   UNL     1      -7.445  10.009  65.137  1.00  0.00    -0.139 C  
BRANCH   6   7
HETATM    7  C   UNL     1      -6.353   8.975  65.487  1.00  0.00    -0.067 C  
BRANCH   7   8
HETATM    8  C   UNL     1      -6.818   7.517  65.531  1.00  0.00    -0.052 C  
HETATM    9  C   UNL     1      -7.639   7.109  64.318  1.00  0.00    -0.112 C  
ENDBRANCH   7   8
ENDBRANCH   6   7
ENDBRANCH   5   6
BRANCH   5  10
HETATM   10  C   UNL     1      -9.037  11.618  66.048  1.00  0.00    -0.182 C  
BRANCH  10  11
HETATM   11  C   UNL     1     -10.168  10.558  65.864  1.00  0.00    -0.245 C  
HETATM   12  O   UNL     1      -9.997   9.764  64.690  1.00  0.00    -0.409 OA 
HETATM   13  H   UNL     1     -10.685   9.119  64.578  1.00  0.00     0.000 HD 
BRANCH  11  14
HETATM   14  C   UNL     1     -10.326   9.683  67.098  1.00  0.00    -0.319 A  
HETATM   15  C   UNL     1     -10.791  10.110  68.355  1.00  0.00    -0.284 A  
HETATM   16 CL   UNL     1     -13.149  14.903  71.020  1.00  0.00    -0.429 Cl 
HETATM   17  C   UNL     1     -12.346  12.332  70.859  1.00  0.00    -0.363 A  
HETATM   18  C   UNL     1     -10.993   9.142  69.386  1.00  0.00    -0.108 A  
HETATM   19  C   UNL     1     -11.509   9.873  70.572  1.00  0.00    -0.391 C  
HETATM   20  C   UNL     1     -10.761   7.789  69.182  1.00  0.00    -0.139 A  
HETATM   21  C   UNL     1     -11.614   9.457  71.848  1.00  0.00    -0.348 C  
HETATM   22  C   UNL     1     -11.748  11.281  70.179  1.00  0.00    -0.429 A  
HETATM   23  C   UNL     1     -10.249   7.383  67.962  1.00  0.00    -0.191 A  
HETATM   24  C   UNL     1     -11.220  11.424  68.872  1.00  0.00    -0.310 A  
HETATM   25  C   UNL     1     -12.376  13.578  70.241  1.00  0.00    -0.300 A  
HETATM   26 CL   UNL     1      -9.918   5.714  67.687  1.00  0.00    -0.156 Cl 
HETATM   27  C   UNL     1     -10.028   8.307  66.939  1.00  0.00    -0.343 A  
HETATM   28  C   UNL     1     -11.782  13.767  68.989  1.00  0.00    -0.372 A  
HETATM   29  C   UNL     1     -11.192  12.695  68.313  1.00  0.00    -0.312 A  
BRANCH  21  30
HETATM   30  C   UNL     1     -11.215   8.136  72.337  1.00  0.00    -0.452 A  
HETATM   31  C   UNL     1     -10.339   5.573  72.998  1.00  0.00    -0.202 A  
HETATM   32 CL   UNL     1      -9.770   3.982  73.321  1.00  0.00    -0.139 Cl 
HETATM   33  C   UNL     1     -11.629   5.759  72.499  1.00  0.00    -0.321 A  
HETATM   34  C   UNL     1      -9.939   7.949  72.886  1.00  0.00    -0.360 A  
HETATM   35  C   UNL     1      -9.501   6.664  73.208  1.00  0.00    -0.160 A  
HETATM   36  C   UNL     1     -12.071   7.043  72.171  1.00  0.00    -0.281 A  
ENDBRANCH  21  30
ENDBRANCH  11  14
ENDBRANCH  10  11
ENDBRANCH   5  10
ENDBRANCH   4   5
ENDBRANCH   3   4
ENDBRANCH   2   3
TORSDOF 10
ENDMDL
MODEL       73
REMARK 921   NORMALIZED FREE ENERGY PREDICTED BY IDOCK:   -4.77 KCAL/MOL
REMARK 922        TOTAL FREE ENERGY PREDICTED BY IDOCK:   -9.64 KCAL/MOL
REMARK 923 INTER-LIGAND FREE ENERGY PREDICTED BY IDOCK:   -7.29 KCAL/MOL
REMARK 924 INTRA-LIGAND FREE ENERGY PREDICTED BY IDOCK:   -2.35 KCAL/MOL
REMARK 927      BINDING AFFINITY PREDICTED BY RF-SCORE:    0.00 PKD
ROOT
HETATM    1  C   UNL     1      -6.259  10.095  67.736  1.00  0.00    -0.057 C  
HETATM    2  C   UNL     1      -6.558  11.516  68.191  1.00  0.00    -0.057 C  
ENDROOT
BRANCH   2   3
HETATM    3  C   UNL     1      -7.197  12.317  67.059  1.00  0.00    -0.039 C  
BRANCH   3   4
HETATM    4  C   UNL     1      -8.269  13.314  67.524  1.00  0.00    -0.184 C  
BRANCH   4   5
HETATM    5  N   UNL     1      -9.588  13.263  66.856  1.00  0.00    -0.242 NA 
BRANCH   5   6
HETATM    6  C   UNL     1     -10.024  14.603  66.404  1.00  0.00    -0.283 C  
BRANCH   6   7
HETATM    7  C   UNL     1     -11.547  14.861  66.412  1.00  0.00    -0.238 C  
BRANCH   7   8
HETATM    8  C   UNL     1     -12.167  15.181  65.049  1.00  0.00     0.025 C  
HETATM    9  C   UNL     1     -11.904  14.112  64.001  1.00  0.00    -0.301 C  
ENDBRANCH   7   8
ENDBRANCH   6   7
ENDBRANCH   5   6
BRANCH   5  10
HETATM   10  C   UNL     1      -9.510  12.324  65.702  1.00  0.00    -0.068 C  
BRANCH  10  11
HETATM   11  C   UNL     1     -10.606  11.215  65.621  1.00  0.00    -0.223 C  
HETATM   12  O   UNL     1     -10.885  10.809  64.282  1.00  0.00    -0.359 OA 
HETATM   13  H   UNL     1     -11.552  10.134  64.232  1.00  0.00     0.000 HD 
BRANCH  11  14
HETATM   14  C   UNL     1     -10.262  10.018  66.495  1.00  0.00    -0.291 A  
HETATM   15  C   UNL     1     -10.595   9.868  67.853  1.00  0.00    -0.303 A  
HETATM   16 CL   UNL     1     -13.764  12.538  72.149  1.00  0.00    -0.463 Cl 
HETATM   17  C   UNL     1     -12.264  10.573  71.069  1.00  0.00    -0.505 A  
HETATM   18  C   UNL     1     -10.302   8.633  68.508  1.00  0.00    -0.228 A  
HETATM   19  C   UNL     1     -10.789   8.757  69.906  1.00  0.00    -0.211 C  
HETATM   20  C   UNL     1      -9.712   7.568  67.842  1.00  0.00    -0.170 A  
HETATM   21  C   UNL     1     -10.526   7.975  70.970  1.00  0.00    -0.229 C  
HETATM   22  C   UNL     1     -11.511  10.044  70.032  1.00  0.00    -0.310 A  
HETATM   23  C   UNL     1      -9.334   7.742  66.522  1.00  0.00    -0.189 A  
HETATM   24  C   UNL     1     -11.300  10.739  68.814  1.00  0.00    -0.352 A  
HETATM   25  C   UNL     1     -12.783  11.855  70.913  1.00  0.00    -0.209 A  
HETATM   26 CL   UNL     1      -8.569   6.450  65.674  1.00  0.00    -0.151 Cl 
HETATM   27  C   UNL     1      -9.595   8.942  65.858  1.00  0.00    -0.293 A  
HETATM   28  C   UNL     1     -12.515  12.597  69.759  1.00  0.00     0.062 A  
HETATM   29  C   UNL     1     -11.762  12.044  68.718  1.00  0.00    -0.377 A  
BRANCH  21  30
HETATM   30  C   UNL     1      -9.663   6.794  70.952  1.00  0.00    -0.186 A  
HETATM   31  C   UNL     1      -8.044   4.539  71.215  1.00  0.00    -0.087 A  
HETATM   32 CL   UNL     1      -7.052   3.156  71.466  1.00  0.00    -0.031 Cl 
HETATM   33  C   UNL     1      -7.467   5.809  71.193  1.00  0.00    -0.091 A  
HETATM   34  C   UNL     1     -10.231   5.513  70.924  1.00  0.00    -0.293 A  
HETATM   35  C   UNL     1      -9.419   4.386  71.064  1.00  0.00    -0.232 A  
HETATM   36  C   UNL     1      -8.277   6.940  71.057  1.00  0.00    -0.118 A  
ENDBRANCH  21  30
ENDBRANCH  11  14
ENDBRANCH  10  11
ENDBRANCH   5  10
ENDBRANCH   4   5
ENDBRANCH   3   4
ENDBRANCH   2   3
TORSDOF 10
ENDMDL
MODEL       74
REMARK 921   NORMALIZED FREE ENERGY PREDICTED BY IDOCK:   -4.76 KCAL/MOL
REMARK 922        TOTAL FREE ENERGY PREDICTED BY IDOCK:   -9.63 KCAL/MOL
REMARK 923 INTER-LIGAND FREE ENERGY PREDICTED BY IDOCK:   -8.32 KCAL/MOL
REMARK 924 INTRA-LIGAND FREE ENERGY PREDICTED BY IDOCK:   -1.31 KCAL/MOL
REMARK 927      BINDING AFFINITY PREDICTED BY RF-SCORE:    0.00 PKD
ROOT
HETATM    1  C   UNL     1     -11.960  16.089  71.938  1.00  0.00    -0.606 C  
HETATM    2  C   UNL     1     -12.474  14.772  72.501  1.00  0.00    -0.414 C  
ENDROOT
BRANCH   2   3
HETATM    3  C   UNL     1     -12.651  13.745  71.385  1.00  0.00    -0.433 C  
BRANCH   3   4
HETATM    4  C   UNL     1     -12.060  14.179  70.036  1.00  0.00    -0.346 C  
BRANCH   4   5
HETATM    5  N   UNL     1     -12.255  13.276  68.880  1.00  0.00    -0.203 NA 
BRANCH   5   6
HETATM    6  C   UNL     1     -11.593  13.796  67.663  1.00  0.00    -0.347 C  
BRANCH   6   7
HETATM    7  C   UNL     1     -12.200  13.348  66.315  1.00  0.00    -0.456 C  
BRANCH   7   8
HETATM    8  C   UNL     1     -11.189  13.056  65.203  1.00  0.00    -0.321 C  
HETATM    9  C   UNL     1     -11.806  13.048  63.814  1.00  0.00    -0.566 C  
ENDBRANCH   7   8
ENDBRANCH   6   7
ENDBRANCH   5   6
BRANCH   5  10
HETATM   10  C   UNL     1     -11.726  11.927  69.226  1.00  0.00    -0.328 C  
BRANCH  10  11
HETATM   11  C   UNL     1     -10.324  11.551  68.650  1.00  0.00    -0.210 C  
HETATM   12  O   UNL     1      -9.313  12.497  68.994  1.00  0.00    -0.373 OA 
HETATM   13  H   UNL     1      -8.460  12.269  68.644  1.00  0.00     0.000 HD 
BRANCH  11  14
HETATM   14  C   UNL     1      -9.912  10.142  69.046  1.00  0.00    -0.216 A  
HETATM   15  C   UNL     1      -9.449   9.143  68.170  1.00  0.00    -0.155 A  
HETATM   16 CL   UNL     1      -7.871   8.379  62.464  1.00  0.00    -0.133 Cl 
HETATM   17  C   UNL     1      -8.173   7.651  65.044  1.00  0.00    -0.116 A  
HETATM   18  C   UNL     1      -8.990   7.903  68.711  1.00  0.00    -0.141 A  
HETATM   19  C   UNL     1      -8.541   7.071  67.565  1.00  0.00    -0.121 C  
HETATM   20  C   UNL     1      -8.972   7.657  70.076  1.00  0.00    -0.143 A  
HETATM   21  C   UNL     1      -8.266   5.753  67.528  1.00  0.00    -0.101 C  
HETATM   22  C   UNL     1      -8.606   7.898  66.339  1.00  0.00    -0.156 A  
HETATM   23  C   UNL     1      -9.483   8.620  70.929  1.00  0.00    -0.194 A  
HETATM   24  C   UNL     1      -9.245   9.107  66.709  1.00  0.00    -0.195 A  
HETATM   25  C   UNL     1      -8.428   8.615  64.074  1.00  0.00    -0.066 A  
HETATM   26 CL   UNL     1      -9.506   8.333  72.628  1.00  0.00    -0.344 Cl 
HETATM   27  C   UNL     1      -9.951   9.837  70.429  1.00  0.00    -0.294 A  
HETATM   28  C   UNL     1      -9.137   9.777  64.393  1.00  0.00    -0.296 A  
HETATM   29  C   UNL     1      -9.556  10.016  65.706  1.00  0.00    -0.291 A  
BRANCH  21  30
HETATM   30  C   UNL     1      -8.367   4.841  68.668  1.00  0.00    -0.083 A  
HETATM   31  C   UNL     1      -8.611   3.344  71.008  1.00  0.00    -0.072 A  
HETATM   32 CL   UNL     1      -8.771   2.498  72.497  1.00  0.00    -0.077 Cl 
HETATM   33  C   UNL     1      -7.356   3.796  70.601  1.00  0.00    -0.041 A  
HETATM   34  C   UNL     1      -9.617   4.340  69.056  1.00  0.00    -0.240 A  
HETATM   35  C   UNL     1      -9.738   3.598  70.232  1.00  0.00    -0.193 A  
HETATM   36  C   UNL     1      -7.231   4.543  69.427  1.00  0.00    -0.051 A  
ENDBRANCH  21  30
ENDBRANCH  11  14
ENDBRANCH  10  11
ENDBRANCH   5  10
ENDBRANCH   4   5
ENDBRANCH   3   4
ENDBRANCH   2   3
TORSDOF 10
ENDMDL
MODEL       75
REMARK 921   NORMALIZED FREE ENERGY PREDICTED BY IDOCK:   -4.75 KCAL/MOL
REMARK 922        TOTAL FREE ENERGY PREDICTED BY IDOCK:   -9.62 KCAL/MOL
REMARK 923 INTER-LIGAND FREE ENERGY PREDICTED BY IDOCK:   -7.95 KCAL/MOL
REMARK 924 INTRA-LIGAND FREE ENERGY PREDICTED BY IDOCK:   -1.67 KCAL/MOL
REMARK 927      BINDING AFFINITY PREDICTED BY RF-SCORE:    0.00 PKD
ROOT
HETATM    1  C   UNL     1     -10.795   7.995  72.724  1.00  0.00    -0.438 C  
HETATM    2  C   UNL     1     -10.244   8.797  71.553  1.00  0.00    -0.371 C  
ENDROOT
BRANCH   2   3
HETATM    3  C   UNL     1      -8.719   8.719  71.523  1.00  0.00    -0.274 C  
BRANCH   3   4
HETATM    4  C   UNL     1      -8.155   7.956  70.316  1.00  0.00    -0.115 C  
BRANCH   4   5
HETATM    5  N   UNL     1      -7.087   8.610  69.529  1.00  0.00    -0.054 NA 
BRANCH   5   6
HETATM    6  C   UNL     1      -7.106   8.176  68.114  1.00  0.00    -0.082 C  
BRANCH   6   7
HETATM    7  C   UNL     1      -8.172   7.122  67.741  1.00  0.00    -0.115 C  
BRANCH   7   8
HETATM    8  C   UNL     1      -9.079   7.492  66.565  1.00  0.00    -0.201 C  
HETATM    9  C   UNL     1     -10.520   7.754  66.974  1.00  0.00    -0.419 C  
ENDBRANCH   7   8
ENDBRANCH   6   7
ENDBRANCH   5   6
BRANCH   5  10
HETATM   10  C   UNL     1      -7.255  10.088  69.622  1.00  0.00    -0.119 C  
BRANCH  10  11
HETATM   11  C   UNL     1      -8.103  10.773  68.504  1.00  0.00    -0.133 C  
HETATM   12  O   UNL     1      -9.498  10.499  68.621  1.00  0.00    -0.156 OA 
HETATM   13  H   UNL     1     -10.014  10.916  67.941  1.00  0.00     0.000 HD 
BRANCH  11  14
HETATM   14  C   UNL     1      -7.843  12.270  68.437  1.00  0.00    -0.151 A  
HETATM   15  C   UNL     1      -8.408  13.163  67.509  1.00  0.00    -0.185 A  
HETATM   16 CL   UNL     1     -12.491  13.322  63.157  1.00  0.00    -0.303 Cl 
HETATM   17  C   UNL     1     -10.685  14.370  64.866  1.00  0.00    -0.444 A  
HETATM   18  C   UNL     1      -8.155  14.562  67.648  1.00  0.00    -0.190 A  
HETATM   19  C   UNL     1      -8.898  15.247  66.559  1.00  0.00    -0.335 C  
HETATM   20  C   UNL     1      -7.381  15.071  68.680  1.00  0.00    -0.118 A  
HETATM   21  C   UNL     1      -8.782  16.513  66.117  1.00  0.00    -0.335 C  
HETATM   22  C   UNL     1      -9.719  14.237  65.852  1.00  0.00    -0.289 A  
HETATM   23  C   UNL     1      -6.779  14.184  69.556  1.00  0.00    -0.112 A  
HETATM   24  C   UNL     1      -9.337  12.977  66.377  1.00  0.00    -0.189 A  
HETATM   25  C   UNL     1     -11.254  13.211  64.347  1.00  0.00    -0.371 A  
HETATM   26 CL   UNL     1      -5.784  14.781  70.830  1.00  0.00    -0.152 Cl 
HETATM   27  C   UNL     1      -6.997  12.810  69.438  1.00  0.00     0.110 A  
HETATM   28  C   UNL     1     -10.831  11.952  64.783  1.00  0.00    -0.359 A  
HETATM   29  C   UNL     1      -9.863  11.836  65.786  1.00  0.00    -0.267 A  
BRANCH  21  30
HETATM   30  C   UNL     1      -7.851  17.508  66.650  1.00  0.00    -0.285 A  
HETATM   31  C   UNL     1      -6.190  19.593  67.470  1.00  0.00    -0.194 A  
HETATM   32 CL   UNL     1      -5.202  20.930  67.909  1.00  0.00    -0.267 Cl 
HETATM   33  C   UNL     1      -5.755  18.705  66.486  1.00  0.00    -0.175 A  
HETATM   34  C   UNL     1      -8.261  18.373  67.674  1.00  0.00    -0.262 A  
HETATM   35  C   UNL     1      -7.431  19.421  68.076  1.00  0.00    -0.316 A  
HETATM   36  C   UNL     1      -6.584  17.657  66.077  1.00  0.00    -0.280 A  
ENDBRANCH  21  30
ENDBRANCH  11  14
ENDBRANCH  10  11
ENDBRANCH   5  10
ENDBRANCH   4   5
ENDBRANCH   3   4
ENDBRANCH   2   3
TORSDOF 10
ENDMDL
MODEL       76
REMARK 921   NORMALIZED FREE ENERGY PREDICTED BY IDOCK:   -4.71 KCAL/MOL
REMARK 922        TOTAL FREE ENERGY PREDICTED BY IDOCK:   -9.54 KCAL/MOL
REMARK 923 INTER-LIGAND FREE ENERGY PREDICTED BY IDOCK:   -8.18 KCAL/MOL
REMARK 924 INTRA-LIGAND FREE ENERGY PREDICTED BY IDOCK:   -1.36 KCAL/MOL
REMARK 927      BINDING AFFINITY PREDICTED BY RF-SCORE:    0.00 PKD
ROOT
HETATM    1  C   UNL     1     -11.111  15.886  64.493  1.00  0.00    -0.285 C  
HETATM    2  C   UNL     1     -10.305  16.142  65.759  1.00  0.00    -0.398 C  
ENDROOT
BRANCH   2   3
HETATM    3  C   UNL     1      -9.613  14.862  66.220  1.00  0.00    -0.334 C  
BRANCH   3   4
HETATM    4  C   UNL     1     -10.508  13.930  67.051  1.00  0.00    -0.278 C  
BRANCH   4   5
HETATM    5  N   UNL     1     -10.891  12.633  66.451  1.00  0.00    -0.264 NA 
BRANCH   5   6
HETATM    6  C   UNL     1     -10.066  12.315  65.265  1.00  0.00    -0.271 C  
BRANCH   6   7
HETATM    7  C   UNL     1     -10.682  11.322  64.255  1.00  0.00    -0.416 C  
BRANCH   7   8
HETATM    8  C   UNL     1     -12.104  11.653  63.791  1.00  0.00    -0.339 C  
HETATM    9  C   UNL     1     -12.252  13.072  63.269  1.00  0.00    -0.464 C  
ENDBRANCH   7   8
ENDBRANCH   6   7
ENDBRANCH   5   6
BRANCH   5  10
HETATM   10  C   UNL     1     -10.756  11.566  67.482  1.00  0.00    -0.223 C  
BRANCH  10  11
HETATM   11  C   UNL     1      -9.307  11.214  67.946  1.00  0.00    -0.161 C  
HETATM   12  O   UNL     1      -8.964  11.817  69.193  1.00  0.00    -0.362 OA 
HETATM   13  H   UNL     1      -8.083  11.603  69.476  1.00  0.00     0.000 HD 
BRANCH  11  14
HETATM   14  C   UNL     1      -9.077   9.711  67.983  1.00  0.00    -0.128 A  
HETATM   15  C   UNL     1      -9.764   8.793  68.798  1.00  0.00    -0.171 A  
HETATM   16 CL   UNL     1     -14.353   8.538  72.607  1.00  0.00    -0.317 Cl 
HETATM   17  C   UNL     1     -12.364   7.526  71.092  1.00  0.00    -0.321 A  
HETATM   18  C   UNL     1      -9.514   7.396  68.635  1.00  0.00    -0.139 A  
HETATM   19  C   UNL     1     -10.394   6.683  69.596  1.00  0.00    -0.226 C  
HETATM   20  C   UNL     1      -8.625   6.914  67.685  1.00  0.00    -0.121 A  
HETATM   21  C   UNL     1     -10.349   5.399  69.997  1.00  0.00    -0.366 C  
HETATM   22  C   UNL     1     -11.282   7.680  70.237  1.00  0.00    -0.230 A  
HETATM   23  C   UNL     1      -7.908   7.824  66.927  1.00  0.00    -0.107 A  
HETATM   24  C   UNL     1     -10.822   8.952  69.815  1.00  0.00    -0.207 A  
HETATM   25  C   UNL     1     -12.978   8.673  71.583  1.00  0.00    -0.344 A  
HETATM   26 CL   UNL     1      -6.772   7.258  65.761  1.00  0.00    -0.051 Cl 
HETATM   27  C   UNL     1      -8.121   9.196  67.072  1.00  0.00    -0.109 A  
HETATM   28  C   UNL     1     -12.488   9.941  71.254  1.00  0.00    -0.479 A  
HETATM   29  C   UNL     1     -11.402  10.078  70.383  1.00  0.00    -0.392 A  
BRANCH  21  30
HETATM   30  C   UNL     1      -9.372   4.409  69.542  1.00  0.00    -0.226 A  
HETATM   31  C   UNL     1      -7.399   2.737  68.499  1.00  0.00    -0.048 A  
HETATM   32 CL   UNL     1      -6.156   1.774  67.801  1.00  0.00    -0.023 Cl 
HETATM   33  C   UNL     1      -8.657   2.786  67.897  1.00  0.00    -0.116 A  
HETATM   34  C   UNL     1      -8.123   4.317  70.171  1.00  0.00    -0.060 A  
HETATM   35  C   UNL     1      -7.135   3.486  69.642  1.00  0.00    -0.042 A  
HETATM   36  C   UNL     1      -9.648   3.620  68.421  1.00  0.00    -0.164 A  
ENDBRANCH  21  30
ENDBRANCH  11  14
ENDBRANCH  10  11
ENDBRANCH   5  10
ENDBRANCH   4   5
ENDBRANCH   3   4
ENDBRANCH   2   3
TORSDOF 10
ENDMDL
MODEL       77
REMARK 921   NORMALIZED FREE ENERGY PREDICTED BY IDOCK:   -4.69 KCAL/MOL
REMARK 922        TOTAL FREE ENERGY PREDICTED BY IDOCK:   -9.52 KCAL/MOL
REMARK 923 INTER-LIGAND FREE ENERGY PREDICTED BY IDOCK:   -7.23 KCAL/MOL
REMARK 924 INTRA-LIGAND FREE ENERGY PREDICTED BY IDOCK:   -2.29 KCAL/MOL
REMARK 927      BINDING AFFINITY PREDICTED BY RF-SCORE:    0.00 PKD
ROOT
HETATM    1  C   UNL     1     -13.178   7.222  71.499  1.00  0.00    -0.434 C  
HETATM    2  C   UNL     1     -11.827   6.525  71.576  1.00  0.00    -0.386 C  
ENDROOT
BRANCH   2   3
HETATM    3  C   UNL     1     -10.921   6.987  70.437  1.00  0.00    -0.301 C  
BRANCH   3   4
HETATM    4  C   UNL     1     -11.251   6.352  69.078  1.00  0.00    -0.331 C  
BRANCH   4   5
HETATM    5  N   UNL     1     -10.158   6.249  68.086  1.00  0.00    -0.141 NA 
BRANCH   5   6
HETATM    6  C   UNL     1     -10.028   4.873  67.557  1.00  0.00    -0.156 C  
BRANCH   6   7
HETATM    7  C   UNL     1      -8.709   4.140  67.886  1.00  0.00    -0.118 C  
BRANCH   7   8
HETATM    8  C   UNL     1      -7.649   4.982  68.600  1.00  0.00    -0.078 C  
HETATM    9  C   UNL     1      -6.588   5.537  67.663  1.00  0.00    -0.053 C  
ENDBRANCH   7   8
ENDBRANCH   6   7
ENDBRANCH   5   6
BRANCH   5  10
HETATM   10  C   UNL     1     -10.419   7.211  66.979  1.00  0.00    -0.322 C  
BRANCH  10  11
HETATM   11  C   UNL     1      -9.170   7.818  66.265  1.00  0.00    -0.166 C  
HETATM   12  O   UNL     1      -8.960   7.277  64.961  1.00  0.00    -0.341 OA 
HETATM   13  H   UNL     1      -8.201   7.647  64.527  1.00  0.00     0.000 HD 
BRANCH  11  14
HETATM   14  C   UNL     1      -9.228   9.337  66.224  1.00  0.00    -0.236 A  
HETATM   15  C   UNL     1      -8.667  10.208  67.175  1.00  0.00    -0.131 A  
HETATM   16 CL   UNL     1      -5.182  10.121  72.021  1.00  0.00    -0.041 Cl 
HETATM   17  C   UNL     1      -6.597  11.280  70.038  1.00  0.00    -0.068 A  
HETATM   18  C   UNL     1      -8.706  11.616  66.937  1.00  0.00    -0.185 A  
HETATM   19  C   UNL     1      -8.019  12.269  68.081  1.00  0.00    -0.155 C  
HETATM   20  C   UNL     1      -9.267  12.153  65.787  1.00  0.00    -0.019 A  
HETATM   21  C   UNL     1      -8.015  13.566  68.443  1.00  0.00    -0.142 C  
HETATM   22  C   UNL     1      -7.440  11.209  68.939  1.00  0.00    -0.125 A  
HETATM   23  C   UNL     1      -9.870  11.296  64.883  1.00  0.00    -0.264 A  
HETATM   24  C   UNL     1      -7.923   9.978  68.429  1.00  0.00    -0.097 A  
HETATM   25  C   UNL     1      -6.262  10.094  70.683  1.00  0.00    -0.103 A  
HETATM   26 CL   UNL     1     -10.605  11.932  63.460  1.00  0.00    -0.469 Cl 
HETATM   27  C   UNL     1      -9.859   9.916  65.094  1.00  0.00    -0.348 A  
HETATM   28  C   UNL     1      -6.796   8.874  70.256  1.00  0.00    -0.045 A  
HETATM   29  C   UNL     1      -7.637   8.820  69.139  1.00  0.00    -0.088 A  
BRANCH  21  30
HETATM   30  C   UNL     1      -8.727  14.636  67.742  1.00  0.00    -0.172 A  
HETATM   31  C   UNL     1      -9.988  16.857  66.622  1.00  0.00    -0.296 A  
HETATM   32 CL   UNL     1     -10.737  18.275  66.003  1.00  0.00    -0.302 Cl 
HETATM   33  C   UNL     1     -10.685  16.037  67.511  1.00  0.00    -0.314 A  
HETATM   34  C   UNL     1      -8.049  15.433  66.810  1.00  0.00    -0.212 A  
HETATM   35  C   UNL     1      -8.680  16.549  66.258  1.00  0.00    -0.369 A  
HETATM   36  C   UNL     1     -10.056  14.922  68.070  1.00  0.00    -0.221 A  
ENDBRANCH  21  30
ENDBRANCH  11  14
ENDBRANCH  10  11
ENDBRANCH   5  10
ENDBRANCH   4   5
ENDBRANCH   3   4
ENDBRANCH   2   3
TORSDOF 10
ENDMDL
MODEL       78
REMARK 921   NORMALIZED FREE ENERGY PREDICTED BY IDOCK:   -4.66 KCAL/MOL
REMARK 922        TOTAL FREE ENERGY PREDICTED BY IDOCK:   -9.47 KCAL/MOL
REMARK 923 INTER-LIGAND FREE ENERGY PREDICTED BY IDOCK:   -8.20 KCAL/MOL
REMARK 924 INTRA-LIGAND FREE ENERGY PREDICTED BY IDOCK:   -1.27 KCAL/MOL
REMARK 927      BINDING AFFINITY PREDICTED BY RF-SCORE:    0.00 PKD
ROOT
HETATM    1  C   UNL     1      -9.355  15.937  66.001  1.00  0.00    -0.385 C  
HETATM    2  C   UNL     1     -10.587  15.583  65.180  1.00  0.00    -0.455 C  
ENDROOT
BRANCH   2   3
HETATM    3  C   UNL     1     -11.282  14.354  65.763  1.00  0.00    -0.326 C  
BRANCH   3   4
HETATM    4  C   UNL     1     -10.344  13.407  66.526  1.00  0.00    -0.284 C  
BRANCH   4   5
HETATM    5  N   UNL     1     -10.548  13.270  67.985  1.00  0.00    -0.234 NA 
BRANCH   5   6
HETATM    6  C   UNL     1     -11.865  13.799  68.405  1.00  0.00    -0.376 C  
BRANCH   6   7
HETATM    7  C   UNL     1     -11.843  15.122  69.201  1.00  0.00    -0.340 C  
BRANCH   7   8
HETATM    8  C   UNL     1     -12.398  15.042  70.626  1.00  0.00    -0.404 C  
HETATM    9  C   UNL     1     -12.543  13.618  71.137  1.00  0.00    -0.452 C  
ENDBRANCH   7   8
ENDBRANCH   6   7
ENDBRANCH   5   6
BRANCH   5  10
HETATM   10  C   UNL     1     -10.421  11.833  68.357  1.00  0.00    -0.215 C  
BRANCH  10  11
HETATM   11  C   UNL     1      -8.989  11.213  68.295  1.00  0.00    -0.166 C  
HETATM   12  O   UNL     1      -8.409  11.029  69.586  1.00  0.00    -0.356 OA 
HETATM   13  H   UNL     1      -7.538  10.652  69.548  1.00  0.00     0.000 HD 
BRANCH  11  14
HETATM   14  C   UNL     1      -8.969   9.919  67.497  1.00  0.00    -0.141 A  
HETATM   15  C   UNL     1      -9.519   8.691  67.907  1.00  0.00    -0.157 A  
HETATM   16 CL   UNL     1     -12.831   6.351  72.287  1.00  0.00    -0.069 Cl 
HETATM   17  C   UNL     1     -11.514   6.336  69.933  1.00  0.00    -0.459 A  
HETATM   18  C   UNL     1      -9.522   7.591  66.995  1.00  0.00    -0.206 A  
HETATM   19  C   UNL     1     -10.185   6.456  67.686  1.00  0.00    -0.206 C  
HETATM   20  C   UNL     1      -9.014   7.701  65.708  1.00  0.00    -0.095 A  
HETATM   21  C   UNL     1     -10.208   5.153  67.350  1.00  0.00    -0.224 C  
HETATM   22  C   UNL     1     -10.707   6.946  68.983  1.00  0.00    -0.259 A  
HETATM   23  C   UNL     1      -8.422   8.894  65.330  1.00  0.00    -0.160 A  
HETATM   24  C   UNL     1     -10.213   8.264  69.138  1.00  0.00    -0.223 A  
HETATM   25  C   UNL     1     -11.797   7.041  71.099  1.00  0.00    -0.338 A  
HETATM   26 CL   UNL     1      -7.753   9.053  63.750  1.00  0.00    -0.119 Cl 
HETATM   27  C   UNL     1      -8.392   9.982  66.204  1.00  0.00    -0.121 A  
HETATM   28  C   UNL     1     -11.248   8.308  71.317  1.00  0.00    -0.302 A  
HETATM   29  C   UNL     1     -10.446   8.912  70.344  1.00  0.00    -0.245 A  
BRANCH  21  30
HETATM   30  C   UNL     1      -9.548   4.575  66.178  1.00  0.00    -0.191 A  
HETATM   31  C   UNL     1      -8.357   3.208  64.059  1.00  0.00    -0.090 A  
HETATM   32 CL   UNL     1      -7.642   2.288  62.795  1.00  0.00    -0.052 Cl 
HETATM   33  C   UNL     1      -7.592   3.573  65.167  1.00  0.00    -0.077 A  
HETATM   34  C   UNL     1     -10.299   4.251  65.040  1.00  0.00    -0.203 A  
HETATM   35  C   UNL     1      -9.702   3.559  63.985  1.00  0.00    -0.165 A  
HETATM   36  C   UNL     1      -8.186   4.262  66.228  1.00  0.00    -0.102 A  
ENDBRANCH  21  30
ENDBRANCH  11  14
ENDBRANCH  10  11
ENDBRANCH   5  10
ENDBRANCH   4   5
ENDBRANCH   3   4
ENDBRANCH   2   3
TORSDOF 10
ENDMDL
MODEL       79
REMARK 921   NORMALIZED FREE ENERGY PREDICTED BY IDOCK:   -4.66 KCAL/MOL
REMARK 922        TOTAL FREE ENERGY PREDICTED BY IDOCK:   -9.46 KCAL/MOL
REMARK 923 INTER-LIGAND FREE ENERGY PREDICTED BY IDOCK:   -6.68 KCAL/MOL
REMARK 924 INTRA-LIGAND FREE ENERGY PREDICTED BY IDOCK:   -2.78 KCAL/MOL
REMARK 927      BINDING AFFINITY PREDICTED BY RF-SCORE:    0.00 PKD
ROOT
HETATM    1  C   UNL     1      -7.941   6.006  63.780  1.00  0.00    -0.112 C  
HETATM    2  C   UNL     1      -6.728   6.924  63.725  1.00  0.00    -0.043 C  
ENDROOT
BRANCH   2   3
HETATM    3  C   UNL     1      -7.151   8.349  63.373  1.00  0.00    -0.090 C  
BRANCH   3   4
HETATM    4  C   UNL     1      -6.436   9.434  64.190  1.00  0.00    -0.094 C  
BRANCH   4   5
HETATM    5  N   UNL     1      -7.169  10.031  65.329  1.00  0.00    -0.131 NA 
BRANCH   5   6
HETATM    6  C   UNL     1      -8.329   9.202  65.726  1.00  0.00    -0.126 C  
BRANCH   6   7
HETATM    7  C   UNL     1      -9.720   9.750  65.339  1.00  0.00    -0.383 C  
BRANCH   7   8
HETATM    8  C   UNL     1      -9.751  11.216  64.901  1.00  0.00    -0.297 C  
HETATM    9  C   UNL     1     -11.121  11.859  65.044  1.00  0.00    -0.360 C  
ENDBRANCH   7   8
ENDBRANCH   6   7
ENDBRANCH   5   6
BRANCH   5  10
HETATM   10  C   UNL     1      -6.230  10.197  66.474  1.00  0.00    -0.069 C  
BRANCH  10  11
HETATM   11  C   UNL     1      -6.862  10.559  67.855  1.00  0.00    -0.069 C  
HETATM   12  O   UNL     1      -5.970  10.337  68.947  1.00  0.00    -0.041 OA 
HETATM   13  H   UNL     1      -6.355  10.557  69.787  1.00  0.00     0.000 HD 
BRANCH  11  14
HETATM   14  C   UNL     1      -7.404  11.980  67.872  1.00  0.00    -0.104 A  
HETATM   15  C   UNL     1      -8.692  12.365  68.283  1.00  0.00    -0.175 A  
HETATM   16 CL   UNL     1     -13.607  10.089  70.794  1.00  0.00    -0.150 Cl 
HETATM   17  C   UNL     1     -12.032  12.053  69.825  1.00  0.00    -0.370 A  
HETATM   18  C   UNL     1      -9.015  13.755  68.350  1.00  0.00    -0.166 A  
HETATM   19  C   UNL     1     -10.414  13.853  68.838  1.00  0.00    -0.199 C  
HETATM   20  C   UNL     1      -8.090  14.741  68.037  1.00  0.00    -0.140 A  
HETATM   21  C   UNL     1     -11.245  14.912  68.830  1.00  0.00    -0.282 C  
HETATM   22  C   UNL     1     -10.874  12.492  69.200  1.00  0.00    -0.134 A  
HETATM   23  C   UNL     1      -6.842  14.355  67.577  1.00  0.00    -0.139 A  
HETATM   24  C   UNL     1      -9.859  11.602  68.769  1.00  0.00    -0.129 A  
HETATM   25  C   UNL     1     -12.212  10.683  69.982  1.00  0.00    -0.298 A  
HETATM   26 CL   UNL     1      -5.681  15.555  67.149  1.00  0.00     0.207 Cl 
HETATM   27  C   UNL     1      -6.502  13.004  67.489  1.00  0.00    -0.159 A  
HETATM   28  C   UNL     1     -11.268   9.779  69.485  1.00  0.00    -0.181 A  
HETATM   29  C   UNL     1     -10.101  10.238  68.866  1.00  0.00    -0.216 A  
BRANCH  21  30
HETATM   30  C   UNL     1     -10.911  16.238  68.309  1.00  0.00    -0.348 A  
HETATM   31  C   UNL     1      -9.993  18.671  67.301  1.00  0.00    -0.329 A  
HETATM   32 CL   UNL     1      -9.343  20.138  66.683  1.00  0.00    -0.484 Cl 
HETATM   33  C   UNL     1     -10.071  18.476  68.681  1.00  0.00    -0.406 A  
HETATM   34  C   UNL     1     -10.880  16.459  66.926  1.00  0.00    -0.118 A  
HETATM   35  C   UNL     1     -10.412  17.675  66.424  1.00  0.00    -0.286 A  
HETATM   36  C   UNL     1     -10.534  17.259  69.187  1.00  0.00    -0.263 A  
ENDBRANCH  21  30
ENDBRANCH  11  14
ENDBRANCH  10  11
ENDBRANCH   5  10
ENDBRANCH   4   5
ENDBRANCH   3   4
ENDBRANCH   2   3
TORSDOF 10
ENDMDL
MODEL       80
REMARK 921   NORMALIZED FREE ENERGY PREDICTED BY IDOCK:   -4.59 KCAL/MOL
REMARK 922        TOTAL FREE ENERGY PREDICTED BY IDOCK:   -9.36 KCAL/MOL
REMARK 923 INTER-LIGAND FREE ENERGY PREDICTED BY IDOCK:   -7.17 KCAL/MOL
REMARK 924 INTRA-LIGAND FREE ENERGY PREDICTED BY IDOCK:   -2.20 KCAL/MOL
REMARK 927      BINDING AFFINITY PREDICTED BY RF-SCORE:    0.00 PKD
ROOT
HETATM    1  C   UNL     1      -9.199   5.840  66.169  1.00  0.00    -0.169 C  
HETATM    2  C   UNL     1      -8.345   6.627  65.186  1.00  0.00    -0.090 C  
ENDROOT
BRANCH   2   3
HETATM    3  C   UNL     1      -8.437   8.123  65.477  1.00  0.00    -0.174 C  
BRANCH   3   4
HETATM    4  C   UNL     1      -7.165   8.720  66.096  1.00  0.00    -0.085 C  
BRANCH   4   5
HETATM    5  N   UNL     1      -7.109   8.835  67.570  1.00  0.00    -0.079 NA 
BRANCH   5   6
HETATM    6  C   UNL     1      -6.218   7.813  68.164  1.00  0.00    -0.045 C  
BRANCH   6   7
HETATM    7  C   UNL     1      -6.915   6.656  68.912  1.00  0.00    -0.079 C  
BRANCH   7   8
HETATM    8  C   UNL     1      -7.825   7.074  70.070  1.00  0.00    -0.113 C  
HETATM    9  C   UNL     1      -9.304   7.024  69.723  1.00  0.00    -0.146 C  
ENDBRANCH   7   8
ENDBRANCH   6   7
ENDBRANCH   5   6
BRANCH   5  10
HETATM   10  C   UNL     1      -6.645  10.204  67.930  1.00  0.00    -0.066 C  
BRANCH  10  11
HETATM   11  C   UNL     1      -7.481  10.971  69.003  1.00  0.00    -0.129 C  
HETATM   12  O   UNL     1      -7.113  10.633  70.339  1.00  0.00    -0.449 OA 
HETATM   13  H   UNL     1      -7.621  11.100  70.991  1.00  0.00     0.000 HD 
BRANCH  11  14
HETATM   14  C   UNL     1      -7.431  12.476  68.786  1.00  0.00    -0.049 A  
HETATM   15  C   UNL     1      -8.249  13.209  67.909  1.00  0.00    -0.162 A  
HETATM   16 CL   UNL     1     -12.971  12.499  64.326  1.00  0.00    -0.354 Cl 
HETATM   17  C   UNL     1     -11.061  13.899  65.618  1.00  0.00    -0.298 A  
HETATM   18  C   UNL     1      -8.159  14.635  67.901  1.00  0.00    -0.149 A  
HETATM   19  C   UNL     1      -9.151  15.127  66.911  1.00  0.00    -0.270 C  
HETATM   20  C   UNL     1      -7.299  15.322  68.745  1.00  0.00    -0.131 A  
HETATM   21  C   UNL     1      -9.272  16.352  66.366  1.00  0.00    -0.335 C  
HETATM   22  C   UNL     1      -9.939  13.969  66.430  1.00  0.00    -0.301 A  
HETATM   23  C   UNL     1      -6.454  14.594  69.565  1.00  0.00    -0.138 A  
HETATM   24  C   UNL     1      -9.318  12.815  66.969  1.00  0.00    -0.229 A  
HETATM   25  C   UNL     1     -11.554  12.640  65.289  1.00  0.00    -0.351 A  
HETATM   26 CL   UNL     1      -5.351  15.416  70.603  1.00  0.00    -0.138 Cl 
HETATM   27  C   UNL     1      -6.510  13.199  69.585  1.00  0.00    -0.047 A  
HETATM   28  C   UNL     1     -10.907  11.483  65.734  1.00  0.00    -0.319 A  
HETATM   29  C   UNL     1      -9.782  11.571  66.561  1.00  0.00    -0.226 A  
BRANCH  21  30
HETATM   30  C   UNL     1      -8.402  17.492  66.659  1.00  0.00    -0.291 A  
HETATM   31  C   UNL     1      -6.889  19.809  67.002  1.00  0.00    -0.205 A  
HETATM   32 CL   UNL     1      -6.000  21.275  67.144  1.00  0.00    -0.381 Cl 
HETATM   33  C   UNL     1      -6.442  18.811  66.136  1.00  0.00    -0.241 A  
HETATM   34  C   UNL     1      -8.818  18.476  67.566  1.00  0.00    -0.276 A  
HETATM   35  C   UNL     1      -8.063  19.639  67.729  1.00  0.00    -0.336 A  
HETATM   36  C   UNL     1      -7.197  17.647  65.966  1.00  0.00    -0.316 A  
ENDBRANCH  21  30
ENDBRANCH  11  14
ENDBRANCH  10  11
ENDBRANCH   5  10
ENDBRANCH   4   5
ENDBRANCH   3   4
ENDBRANCH   2   3
TORSDOF 10
ENDMDL
MODEL       81
REMARK 921   NORMALIZED FREE ENERGY PREDICTED BY IDOCK:   -4.56 KCAL/MOL
REMARK 922        TOTAL FREE ENERGY PREDICTED BY IDOCK:   -9.31 KCAL/MOL
REMARK 923 INTER-LIGAND FREE ENERGY PREDICTED BY IDOCK:   -6.43 KCAL/MOL
REMARK 924 INTRA-LIGAND FREE ENERGY PREDICTED BY IDOCK:   -2.88 KCAL/MOL
REMARK 927      BINDING AFFINITY PREDICTED BY RF-SCORE:    0.00 PKD
ROOT
HETATM    1  C   UNL     1     -10.921   9.405  69.871  1.00  0.00    -0.251 C  
HETATM    2  C   UNL     1     -10.527   9.892  68.484  1.00  0.00    -0.232 C  
ENDROOT
BRANCH   2   3
HETATM    3  C   UNL     1      -9.882  11.273  68.565  1.00  0.00    -0.198 C  
BRANCH   3   4
HETATM    4  C   UNL     1      -9.179  11.713  67.273  1.00  0.00    -0.170 C  
BRANCH   4   5
HETATM    5  N   UNL     1      -8.838  10.664  66.287  1.00  0.00    -0.156 NA 
BRANCH   5   6
HETATM    6  C   UNL     1      -9.710  10.732  65.093  1.00  0.00    -0.265 C  
BRANCH   6   7
HETATM    7  C   UNL     1     -10.567  12.009  64.949  1.00  0.00    -0.334 C  
BRANCH   7   8
HETATM    8  C   UNL     1     -11.088  12.296  63.538  1.00  0.00    -0.533 C  
HETATM    9  C   UNL     1     -12.567  11.991  63.368  1.00  0.00    -0.592 C  
ENDBRANCH   7   8
ENDBRANCH   6   7
ENDBRANCH   5   6
BRANCH   5  10
HETATM   10  C   UNL     1      -7.408  10.814  65.897  1.00  0.00    -0.094 C  
BRANCH  10  11
HETATM   11  C   UNL     1      -6.428   9.694  66.370  1.00  0.00    -0.070 C  
HETATM   12  O   UNL     1      -5.170  10.207  66.808  1.00  0.00    -0.039 OA 
HETATM   13  H   UNL     1      -4.575   9.525  67.096  1.00  0.00     0.000 HD 
BRANCH  11  14
HETATM   14  C   UNL     1      -7.058   8.808  67.434  1.00  0.00    -0.079 A  
HETATM   15  C   UNL     1      -7.736   7.598  67.201  1.00  0.00    -0.112 A  
HETATM   16 CL   UNL     1      -8.963   3.770  62.788  1.00  0.00    -0.096 Cl 
HETATM   17  C   UNL     1      -8.915   4.634  65.343  1.00  0.00    -0.145 A  
HETATM   18  C   UNL     1      -8.173   6.820  68.317  1.00  0.00    -0.115 A  
HETATM   19  C   UNL     1      -8.820   5.600  67.769  1.00  0.00    -0.105 C  
HETATM   20  C   UNL     1      -7.935   7.213  69.627  1.00  0.00    -0.124 A  
HETATM   21  C   UNL     1      -9.599   4.697  68.394  1.00  0.00    -0.212 C  
HETATM   22  C   UNL     1      -8.631   5.597  66.300  1.00  0.00    -0.127 A  
HETATM   23  C   UNL     1      -7.319   8.432  69.850  1.00  0.00    -0.060 A  
HETATM   24  C   UNL     1      -8.063   6.852  65.970  1.00  0.00    -0.119 A  
HETATM   25  C   UNL     1      -8.674   4.946  64.009  1.00  0.00    -0.119 A  
HETATM   26 CL   UNL     1      -7.037   8.965  71.464  1.00  0.00    -0.098 Cl 
HETATM   27  C   UNL     1      -6.892   9.221  68.780  1.00  0.00    -0.060 A  
HETATM   28  C   UNL     1      -8.198   6.210  63.648  1.00  0.00    -0.003 A  
HETATM   29  C   UNL     1      -7.907   7.166  64.626  1.00  0.00    -0.123 A  
BRANCH  21  30
HETATM   30  C   UNL     1      -9.979   4.750  69.807  1.00  0.00    -0.308 A  
HETATM   31  C   UNL     1     -10.493   5.057  72.530  1.00  0.00    -0.215 A  
HETATM   32 CL   UNL     1     -10.741   5.306  74.214  1.00  0.00    -0.259 Cl 
HETATM   33  C   UNL     1      -9.585   4.089  72.100  1.00  0.00    -0.210 A  
HETATM   34  C   UNL     1     -10.927   5.685  70.242  1.00  0.00    -0.287 A  
HETATM   35  C   UNL     1     -11.176   5.843  71.607  1.00  0.00    -0.300 A  
HETATM   36  C   UNL     1      -9.330   3.931  70.735  1.00  0.00    -0.214 A  
ENDBRANCH  21  30
ENDBRANCH  11  14
ENDBRANCH  10  11
ENDBRANCH   5  10
ENDBRANCH   4   5
ENDBRANCH   3   4
ENDBRANCH   2   3
TORSDOF 10
ENDMDL
MODEL       82
REMARK 921   NORMALIZED FREE ENERGY PREDICTED BY IDOCK:   -4.51 KCAL/MOL
REMARK 922        TOTAL FREE ENERGY PREDICTED BY IDOCK:   -9.24 KCAL/MOL
REMARK 923 INTER-LIGAND FREE ENERGY PREDICTED BY IDOCK:   -8.38 KCAL/MOL
REMARK 924 INTRA-LIGAND FREE ENERGY PREDICTED BY IDOCK:   -0.86 KCAL/MOL
REMARK 927      BINDING AFFINITY PREDICTED BY RF-SCORE:    0.00 PKD
ROOT
HETATM    1  C   UNL     1      -7.035   6.227  63.587  1.00  0.00    -0.043 C  
HETATM    2  C   UNL     1      -6.164   7.470  63.694  1.00  0.00    -0.053 C  
ENDROOT
BRANCH   2   3
HETATM    3  C   UNL     1      -6.672   8.561  62.753  1.00  0.00    -0.091 C  
BRANCH   3   4
HETATM    4  C   UNL     1      -6.506   9.987  63.301  1.00  0.00    -0.134 C  
BRANCH   4   5
HETATM    5  N   UNL     1      -7.603  10.535  64.128  1.00  0.00     0.002 NA 
BRANCH   5   6
HETATM    6  C   UNL     1      -8.881   9.834  63.875  1.00  0.00    -0.233 C  
BRANCH   6   7
HETATM    7  C   UNL     1      -9.838  10.507  62.867  1.00  0.00    -0.224 C  
BRANCH   7   8
HETATM    8  C   UNL     1     -10.293  11.922  63.235  1.00  0.00    -0.432 C  
HETATM    9  C   UNL     1     -11.798  12.046  63.408  1.00  0.00    -0.542 C  
ENDBRANCH   7   8
ENDBRANCH   6   7
ENDBRANCH   5   6
BRANCH   5  10
HETATM   10  C   UNL     1      -7.225  10.428  65.565  1.00  0.00    -0.138 C  
BRANCH  10  11
HETATM   11  C   UNL     1      -8.100  11.223  66.585  1.00  0.00    -0.160 C  
HETATM   12  O   UNL     1      -9.061  12.066  65.950  1.00  0.00    -0.383 OA 
HETATM   13  H   UNL     1      -9.594  12.549  66.571  1.00  0.00     0.000 HD 
BRANCH  11  14
HETATM   14  C   UNL     1      -8.763  10.301  67.596  1.00  0.00    -0.121 A  
HETATM   15  C   UNL     1      -9.700  10.688  68.572  1.00  0.00    -0.177 A  
HETATM   16 CL   UNL     1     -12.887  15.437  70.283  1.00  0.00    -0.347 Cl 
HETATM   17  C   UNL     1     -12.121  12.850  70.329  1.00  0.00    -0.377 A  
HETATM   18  C   UNL     1     -10.321   9.684  69.376  1.00  0.00    -0.226 A  
HETATM   19  C   UNL     1     -11.271  10.380  70.281  1.00  0.00    -0.395 C  
HETATM   20  C   UNL     1     -10.042   8.335  69.214  1.00  0.00    -0.199 A  
HETATM   21  C   UNL     1     -11.898   9.912  71.378  1.00  0.00    -0.476 C  
HETATM   22  C   UNL     1     -11.309  11.810  69.901  1.00  0.00    -0.201 A  
HETATM   23  C   UNL     1      -9.078   7.964  68.292  1.00  0.00    -0.134 A  
HETATM   24  C   UNL     1     -10.287  11.993  68.936  1.00  0.00    -0.117 A  
HETATM   25  C   UNL     1     -11.878  14.122  69.821  1.00  0.00    -0.322 A  
HETATM   26 CL   UNL     1      -8.684   6.299  68.089  1.00  0.00    -0.116 Cl 
HETATM   27  C   UNL     1      -8.444   8.924  67.501  1.00  0.00    -0.116 A  
HETATM   28  C   UNL     1     -10.819  14.346  68.936  1.00  0.00    -0.266 A  
HETATM   29  C   UNL     1     -10.016  13.285  68.507  1.00  0.00    -0.189 A  
BRANCH  21  30
HETATM   30  C   UNL     1     -11.752   8.559  71.916  1.00  0.00    -0.409 A  
HETATM   31  C   UNL     1     -11.292   5.927  72.714  1.00  0.00    -0.263 A  
HETATM   32 CL   UNL     1     -10.958   4.292  73.131  1.00  0.00    -0.300 Cl 
HETATM   33  C   UNL     1     -12.374   6.222  71.883  1.00  0.00    -0.186 A  
HETATM   34  C   UNL     1     -10.698   8.264  72.791  1.00  0.00    -0.313 A  
HETATM   35  C   UNL     1     -10.466   6.944  73.182  1.00  0.00    -0.313 A  
HETATM   36  C   UNL     1     -12.608   7.541  71.485  1.00  0.00    -0.385 A  
ENDBRANCH  21  30
ENDBRANCH  11  14
ENDBRANCH  10  11
ENDBRANCH   5  10
ENDBRANCH   4   5
ENDBRANCH   3   4
ENDBRANCH   2   3
TORSDOF 10
ENDMDL
MODEL       83
REMARK 921   NORMALIZED FREE ENERGY PREDICTED BY IDOCK:   -4.45 KCAL/MOL
REMARK 922        TOTAL FREE ENERGY PREDICTED BY IDOCK:   -9.14 KCAL/MOL
REMARK 923 INTER-LIGAND FREE ENERGY PREDICTED BY IDOCK:   -7.29 KCAL/MOL
REMARK 924 INTRA-LIGAND FREE ENERGY PREDICTED BY IDOCK:   -1.86 KCAL/MOL
REMARK 927      BINDING AFFINITY PREDICTED BY RF-SCORE:    0.00 PKD
ROOT
HETATM    1  C   UNL     1      -7.172   4.149  69.857  1.00  0.00    -0.046 C  
HETATM    2  C   UNL     1      -8.266   3.109  69.663  1.00  0.00    -0.072 C  
ENDROOT
BRANCH   2   3
HETATM    3  C   UNL     1      -9.595   3.622  70.215  1.00  0.00    -0.246 C  
BRANCH   3   4
HETATM    4  C   UNL     1      -9.465   4.413  71.525  1.00  0.00    -0.152 C  
BRANCH   4   5
HETATM    5  N   UNL     1     -10.584   5.304  71.901  1.00  0.00    -0.222 NA 
BRANCH   5   6
HETATM    6  C   UNL     1     -10.667   5.489  73.366  1.00  0.00    -0.278 C  
BRANCH   6   7
HETATM    7  C   UNL     1     -10.279   6.887  73.898  1.00  0.00    -0.401 C  
BRANCH   7   8
HETATM    8  C   UNL     1      -8.895   6.983  74.546  1.00  0.00    -0.227 C  
HETATM    9  C   UNL     1      -7.796   6.334  73.720  1.00  0.00    -0.092 C  
ENDBRANCH   7   8
ENDBRANCH   6   7
ENDBRANCH   5   6
BRANCH   5  10
HETATM   10  C   UNL     1     -10.407   6.618  71.219  1.00  0.00    -0.205 C  
BRANCH  10  11
HETATM   11  C   UNL     1     -11.644   7.187  70.454  1.00  0.00    -0.258 C  
HETATM   12  O   UNL     1     -12.833   7.182  71.244  1.00  0.00    -0.380 OA 
HETATM   13  H   UNL     1     -13.585   7.529  70.779  1.00  0.00     0.000 HD 
BRANCH  11  14
HETATM   14  C   UNL     1     -11.368   8.572  69.889  1.00  0.00     0.051 A  
HETATM   15  C   UNL     1     -10.617   8.854  68.734  1.00  0.00    -0.185 A  
HETATM   16 CL   UNL     1      -7.918   6.077  64.191  1.00  0.00    -0.120 Cl 
HETATM   17  C   UNL     1      -8.815   8.211  65.576  1.00  0.00    -0.130 A  
HETATM   18  C   UNL     1     -10.543  10.202  68.265  1.00  0.00    -0.262 A  
HETATM   19  C   UNL     1      -9.719  10.186  67.029  1.00  0.00    -0.224 C  
HETATM   20  C   UNL     1     -11.203  11.241  68.905  1.00  0.00    -0.315 A  
HETATM   21  C   UNL     1      -9.159  11.217  66.368  1.00  0.00    -0.201 C  
HETATM   22  C   UNL     1      -9.422   8.776  66.689  1.00  0.00    -0.263 A  
HETATM   23  C   UNL     1     -11.893  10.966  70.073  1.00  0.00    -0.347 A  
HETATM   24  C   UNL     1      -9.888   7.998  67.778  1.00  0.00    -0.207 A  
HETATM   25  C   UNL     1      -8.620   6.833  65.566  1.00  0.00    -0.086 A  
HETATM   26 CL   UNL     1     -12.697  12.240  70.911  1.00  0.00    -0.334 Cl 
HETATM   27  C   UNL     1     -11.972   9.662  70.564  1.00  0.00    -0.241 A  
HETATM   28  C   UNL     1      -8.990   6.053  66.667  1.00  0.00    -0.129 A  
HETATM   29  C   UNL     1      -9.609   6.638  67.776  1.00  0.00    -0.129 A  
BRANCH  21  30
HETATM   30  C   UNL     1      -9.259  12.622  66.763  1.00  0.00    -0.225 A  
HETATM   31  C   UNL     1      -9.287  15.364  67.275  1.00  0.00    -0.210 A  
HETATM   32 CL   UNL     1      -9.250  17.066  67.518  1.00  0.00    -0.230 Cl 
HETATM   33  C   UNL     1      -8.291  14.563  67.835  1.00  0.00    -0.159 A  
HETATM   34  C   UNL     1     -10.286  13.424  66.246  1.00  0.00    -0.298 A  
HETATM   35  C   UNL     1     -10.292  14.797  66.497  1.00  0.00    -0.287 A  
HETATM   36  C   UNL     1      -8.278  13.189  67.583  1.00  0.00    -0.175 A  
ENDBRANCH  21  30
ENDBRANCH  11  14
ENDBRANCH  10  11
ENDBRANCH   5  10
ENDBRANCH   4   5
ENDBRANCH   3   4
ENDBRANCH   2   3
TORSDOF 10
ENDMDL
MODEL       84
REMARK 921   NORMALIZED FREE ENERGY PREDICTED BY IDOCK:   -4.40 KCAL/MOL
REMARK 922        TOTAL FREE ENERGY PREDICTED BY IDOCK:   -9.07 KCAL/MOL
REMARK 923 INTER-LIGAND FREE ENERGY PREDICTED BY IDOCK:   -8.05 KCAL/MOL
REMARK 924 INTRA-LIGAND FREE ENERGY PREDICTED BY IDOCK:   -1.01 KCAL/MOL
REMARK 927      BINDING AFFINITY PREDICTED BY RF-SCORE:    0.00 PKD
ROOT
HETATM    1  C   UNL     1     -11.693   7.902  72.946  1.00  0.00    -0.239 C  
HETATM    2  C   UNL     1     -10.338   7.257  73.199  1.00  0.00    -0.359 C  
ENDROOT
BRANCH   2   3
HETATM    3  C   UNL     1     -10.322   5.824  72.672  1.00  0.00    -0.229 C  
BRANCH   3   4
HETATM    4  C   UNL     1      -8.978   5.396  72.063  1.00  0.00    -0.134 C  
BRANCH   4   5
HETATM    5  N   UNL     1      -8.781   5.618  70.613  1.00  0.00    -0.133 NA 
BRANCH   5   6
HETATM    6  C   UNL     1      -9.560   4.657  69.802  1.00  0.00    -0.188 C  
BRANCH   6   7
HETATM    7  C   UNL     1      -9.312   3.161  70.095  1.00  0.00    -0.238 C  
BRANCH   7   8
HETATM    8  C   UNL     1      -8.450   2.424  69.067  1.00  0.00    -0.099 C  
HETATM    9  C   UNL     1      -9.262   1.613  68.070  1.00  0.00    -0.214 C  
ENDBRANCH   7   8
ENDBRANCH   6   7
ENDBRANCH   5   6
BRANCH   5  10
HETATM   10  C   UNL     1      -9.172   7.018  70.282  1.00  0.00    -0.156 C  
BRANCH  10  11
HETATM   11  C   UNL     1     -10.303   7.200  69.221  1.00  0.00    -0.203 C  
HETATM   12  O   UNL     1     -11.554   6.664  69.648  1.00  0.00    -0.572 OA 
HETATM   13  H   UNL     1     -12.242   6.776  69.003  1.00  0.00     0.000 HD 
BRANCH  11  14
HETATM   14  C   UNL     1     -10.447   8.654  68.796  1.00  0.00    -0.209 A  
HETATM   15  C   UNL     1     -10.008   9.202  67.577  1.00  0.00    -0.258 A  
HETATM   16 CL   UNL     1      -7.680   7.536  62.339  1.00  0.00    -0.111 Cl 
HETATM   17  C   UNL     1      -8.741   9.272  64.110  1.00  0.00    -0.201 A  
HETATM   18  C   UNL     1     -10.320  10.564  67.275  1.00  0.00    -0.275 A  
HETATM   19  C   UNL     1      -9.761  10.847  65.929  1.00  0.00    -0.269 C  
HETATM   20  C   UNL     1     -11.056  11.359  68.141  1.00  0.00    -0.306 A  
HETATM   21  C   UNL     1      -9.575  12.033  65.319  1.00  0.00    -0.117 C  
HETATM   22  C   UNL     1      -9.234   9.582  65.370  1.00  0.00    -0.306 A  
HETATM   23  C   UNL     1     -11.436  10.832  69.363  1.00  0.00    -0.295 A  
HETATM   24  C   UNL     1      -9.305   8.626  66.414  1.00  0.00    -0.271 A  
HETATM   25  C   UNL     1      -8.257   7.985  63.896  1.00  0.00    -0.041 A  
HETATM   26 CL   UNL     1     -12.324  11.804  70.475  1.00  0.00    -0.410 Cl 
HETATM   27  C   UNL     1     -11.135   9.509  69.692  1.00  0.00    -0.196 A  
HETATM   28  C   UNL     1      -8.233   7.050  64.935  1.00  0.00    -0.076 A  
HETATM   29  C   UNL     1      -8.742   7.376  66.196  1.00  0.00    -0.172 A  
BRANCH  21  30
HETATM   30  C   UNL     1      -9.901  13.337  65.898  1.00  0.00    -0.241 A  
HETATM   31  C   UNL     1     -10.389  15.942  66.766  1.00  0.00    -0.298 A  
HETATM   32 CL   UNL     1     -10.644  17.579  67.229  1.00  0.00    -0.323 Cl 
HETATM   33  C   UNL     1      -9.234  15.278  67.179  1.00  0.00    -0.223 A  
HETATM   34  C   UNL     1     -11.084  13.991  65.529  1.00  0.00    -0.309 A  
HETATM   35  C   UNL     1     -11.322  15.298  65.958  1.00  0.00    -0.162 A  
HETATM   36  C   UNL     1      -8.990  13.971  66.749  1.00  0.00    -0.217 A  
ENDBRANCH  21  30
ENDBRANCH  11  14
ENDBRANCH  10  11
ENDBRANCH   5  10
ENDBRANCH   4   5
ENDBRANCH   3   4
ENDBRANCH   2   3
TORSDOF 10
ENDMDL
MODEL       85
REMARK 921   NORMALIZED FREE ENERGY PREDICTED BY IDOCK:   -4.30 KCAL/MOL
REMARK 922        TOTAL FREE ENERGY PREDICTED BY IDOCK:   -8.89 KCAL/MOL
REMARK 923 INTER-LIGAND FREE ENERGY PREDICTED BY IDOCK:   -7.03 KCAL/MOL
REMARK 924 INTRA-LIGAND FREE ENERGY PREDICTED BY IDOCK:   -1.86 KCAL/MOL
REMARK 927      BINDING AFFINITY PREDICTED BY RF-SCORE:    0.00 PKD
ROOT
HETATM    1  C   UNL     1      -6.550  10.501  68.541  1.00  0.00    -0.055 C  
HETATM    2  C   UNL     1      -6.311  12.004  68.584  1.00  0.00    -0.059 C  
ENDROOT
BRANCH   2   3
HETATM    3  C   UNL     1      -7.314  12.730  67.690  1.00  0.00    -0.144 C  
BRANCH   3   4
HETATM    4  C   UNL     1      -8.071  13.867  68.394  1.00  0.00    -0.145 C  
BRANCH   4   5
HETATM    5  N   UNL     1      -9.549  13.801  68.406  1.00  0.00    -0.215 NA 
BRANCH   5   6
HETATM    6  C   UNL     1     -10.153  14.964  67.721  1.00  0.00    -0.234 C  
BRANCH   6   7
HETATM    7  C   UNL     1     -10.107  16.305  68.487  1.00  0.00    -0.239 C  
BRANCH   7   8
HETATM    8  C   UNL     1     -10.656  17.516  67.728  1.00  0.00    -0.375 C  
HETATM    9  C   UNL     1      -9.818  17.900  66.520  1.00  0.00    -0.343 C  
ENDBRANCH   7   8
ENDBRANCH   6   7
ENDBRANCH   5   6
BRANCH   5  10
HETATM   10  C   UNL     1      -9.981  12.531  67.758  1.00  0.00    -0.210 C  
BRANCH  10  11
HETATM   11  C   UNL     1     -11.068  11.694  68.504  1.00  0.00    -0.235 C  
HETATM   12  O   UNL     1     -12.281  11.573  67.761  1.00  0.00    -0.560 OA 
HETATM   13  H   UNL     1     -12.942  11.064  68.215  1.00  0.00     0.000 HD 
BRANCH  11  14
HETATM   14  C   UNL     1     -10.542  10.328  68.917  1.00  0.00    -0.242 A  
HETATM   15  C   UNL     1      -9.899   9.404  68.073  1.00  0.00    -0.191 A  
HETATM   16 CL   UNL     1      -7.763   8.938  62.519  1.00  0.00    -0.111 Cl 
HETATM   17  C   UNL     1      -8.205   8.125  65.053  1.00  0.00    -0.157 A  
HETATM   18  C   UNL     1      -9.357   8.208  68.637  1.00  0.00    -0.143 A  
HETATM   19  C   UNL     1      -8.723   7.454  67.525  1.00  0.00    -0.124 C  
HETATM   20  C   UNL     1      -9.430   7.936  69.995  1.00  0.00    -0.157 A  
HETATM   21  C   UNL     1      -8.305   6.175  67.496  1.00  0.00    -0.109 C  
HETATM   22  C   UNL     1      -8.772   8.296  66.308  1.00  0.00    -0.173 A  
HETATM   23  C   UNL     1     -10.114   8.821  70.812  1.00  0.00    -0.210 A  
HETATM   24  C   UNL     1      -9.567   9.422  66.635  1.00  0.00    -0.250 A  
HETATM   25  C   UNL     1      -8.479   9.077  64.076  1.00  0.00    -0.163 A  
HETATM   26 CL   UNL     1     -10.251   8.496  72.499  1.00  0.00    -0.368 Cl 
HETATM   27  C   UNL     1     -10.666   9.991  70.288  1.00  0.00    -0.367 A  
HETATM   28  C   UNL     1      -9.333  10.150  64.347  1.00  0.00    -0.348 A  
HETATM   29  C   UNL     1      -9.888  10.314  65.620  1.00  0.00    -0.332 A  
BRANCH  21  30
HETATM   30  C   UNL     1      -8.404   5.232  68.611  1.00  0.00    -0.089 A  
HETATM   31  C   UNL     1      -8.718   3.658  70.892  1.00  0.00    -0.074 A  
HETATM   32 CL   UNL     1      -8.943   2.760  72.341  1.00  0.00    -0.108 Cl 
HETATM   33  C   UNL     1      -7.528   4.358  70.689  1.00  0.00    -0.052 A  
HETATM   34  C   UNL     1      -9.577   4.487  68.795  1.00  0.00    -0.227 A  
HETATM   35  C   UNL     1      -9.734   3.706  69.942  1.00  0.00    -0.166 A  
HETATM   36  C   UNL     1      -7.368   5.144  69.545  1.00  0.00    -0.057 A  
ENDBRANCH  21  30
ENDBRANCH  11  14
ENDBRANCH  10  11
ENDBRANCH   5  10
ENDBRANCH   4   5
ENDBRANCH   3   4
ENDBRANCH   2   3
TORSDOF 10
ENDMDL
MODEL       86
REMARK 921   NORMALIZED FREE ENERGY PREDICTED BY IDOCK:   -4.29 KCAL/MOL
REMARK 922        TOTAL FREE ENERGY PREDICTED BY IDOCK:   -8.88 KCAL/MOL
REMARK 923 INTER-LIGAND FREE ENERGY PREDICTED BY IDOCK:   -6.50 KCAL/MOL
REMARK 924 INTRA-LIGAND FREE ENERGY PREDICTED BY IDOCK:   -2.38 KCAL/MOL
REMARK 927      BINDING AFFINITY PREDICTED BY RF-SCORE:    0.00 PKD
ROOT
HETATM    1  C   UNL     1      -9.766   4.066  70.132  1.00  0.00    -0.265 C  
HETATM    2  C   UNL     1      -8.787   3.507  69.110  1.00  0.00    -0.159 C  
ENDROOT
BRANCH   2   3
HETATM    3  C   UNL     1      -9.533   2.993  67.881  1.00  0.00    -0.210 C  
BRANCH   3   4
HETATM    4  C   UNL     1      -9.660   4.024  66.749  1.00  0.00    -0.211 C  
BRANCH   4   5
HETATM    5  N   UNL     1      -8.413   4.616  66.218  1.00  0.00    -0.113 NA 
BRANCH   5   6
HETATM    6  C   UNL     1      -7.615   3.624  65.464  1.00  0.00    -0.078 C  
BRANCH   6   7
HETATM    7  C   UNL     1      -6.088   3.660  65.700  1.00  0.00    -0.027 C  
BRANCH   7   8
HETATM    8  C   UNL     1      -5.647   4.157  67.079  1.00  0.00    -0.021 C  
HETATM    9  C   UNL     1      -5.130   5.586  67.068  1.00  0.00    -0.005 C  
ENDBRANCH   7   8
ENDBRANCH   6   7
ENDBRANCH   5   6
BRANCH   5  10
HETATM   10  C   UNL     1      -8.761   5.775  65.349  1.00  0.00    -0.119 C  
BRANCH  10  11
HETATM   11  C   UNL     1      -7.680   6.892  65.198  1.00  0.00    -0.109 C  
HETATM   12  O   UNL     1      -6.866   6.722  64.038  1.00  0.00    -0.046 OA 
HETATM   13  H   UNL     1      -6.209   7.401  63.946  1.00  0.00     0.000 HD 
BRANCH  11  14
HETATM   14  C   UNL     1      -8.297   8.281  65.234  1.00  0.00    -0.175 A  
HETATM   15  C   UNL     1      -8.702   8.972  66.390  1.00  0.00    -0.149 A  
HETATM   16 CL   UNL     1      -8.521   8.516  72.339  1.00  0.00    -0.227 Cl 
HETATM   17  C   UNL     1      -9.026   9.737  69.987  1.00  0.00    -0.255 A  
HETATM   18  C   UNL     1      -9.160  10.321  66.270  1.00  0.00    -0.178 A  
HETATM   19  C   UNL     1      -9.483  10.792  67.641  1.00  0.00    -0.166 C  
HETATM   20  C   UNL     1      -9.202  10.977  65.048  1.00  0.00    -0.219 A  
HETATM   21  C   UNL     1     -10.175  11.882  68.023  1.00  0.00    -0.199 C  
HETATM   22  C   UNL     1      -9.072   9.742  68.600  1.00  0.00    -0.130 A  
HETATM   23  C   UNL     1      -8.858  10.274  63.907  1.00  0.00    -0.220 A  
HETATM   24  C   UNL     1      -8.694   8.619  67.823  1.00  0.00    -0.137 A  
HETATM   25  C   UNL     1      -8.641   8.561  70.624  1.00  0.00    -0.148 A  
HETATM   26 CL   UNL     1      -8.931  11.050  62.370  1.00  0.00    -0.356 Cl 
HETATM   27  C   UNL     1      -8.419   8.951  63.991  1.00  0.00    -0.146 A  
HETATM   28  C   UNL     1      -8.350   7.412  69.884  1.00  0.00    -0.134 A  
HETATM   29  C   UNL     1      -8.391   7.437  68.486  1.00  0.00    -0.126 A  
BRANCH  21  30
HETATM   30  C   UNL     1     -10.772  12.860  67.113  1.00  0.00    -0.268 A  
HETATM   31  C   UNL     1     -11.779  14.576  65.158  1.00  0.00    -0.376 A  
HETATM   32 CL   UNL     1     -12.352  15.587  63.891  1.00  0.00     0.012 Cl 
HETATM   33  C   UNL     1     -10.572  14.876  65.790  1.00  0.00    -0.342 A  
HETATM   34  C   UNL     1     -12.009  12.592  66.511  1.00  0.00    -0.401 A  
HETATM   35  C   UNL     1     -12.506  13.448  65.527  1.00  0.00    -0.534 A  
HETATM   36  C   UNL     1     -10.068  14.019  66.773  1.00  0.00    -0.264 A  
ENDBRANCH  21  30
ENDBRANCH  11  14
ENDBRANCH  10  11
ENDBRANCH   5  10
ENDBRANCH   4   5
ENDBRANCH   3   4
ENDBRANCH   2   3
TORSDOF 10
ENDMDL
MODEL       87
REMARK 921   NORMALIZED FREE ENERGY PREDICTED BY IDOCK:   -4.27 KCAL/MOL
REMARK 922        TOTAL FREE ENERGY PREDICTED BY IDOCK:   -8.85 KCAL/MOL
REMARK 923 INTER-LIGAND FREE ENERGY PREDICTED BY IDOCK:   -7.07 KCAL/MOL
REMARK 924 INTRA-LIGAND FREE ENERGY PREDICTED BY IDOCK:   -1.77 KCAL/MOL
REMARK 927      BINDING AFFINITY PREDICTED BY RF-SCORE:    0.00 PKD
ROOT
HETATM    1  C   UNL     1     -10.343   6.202  69.251  1.00  0.00    -0.276 C  
HETATM    2  C   UNL     1     -10.951   5.680  67.957  1.00  0.00    -0.021 C  
ENDROOT
BRANCH   2   3
HETATM    3  C   UNL     1     -10.885   6.747  66.866  1.00  0.00    -0.402 C  
BRANCH   3   4
HETATM    4  C   UNL     1      -9.458   7.103  66.425  1.00  0.00    -0.123 C  
BRANCH   4   5
HETATM    5  N   UNL     1      -9.083   8.534  66.405  1.00  0.00    -0.172 NA 
BRANCH   5   6
HETATM    6  C   UNL     1      -7.771   8.747  65.755  1.00  0.00    -0.094 C  
BRANCH   6   7
HETATM    7  C   UNL     1      -7.472  10.187  65.283  1.00  0.00    -0.145 C  
BRANCH   7   8
HETATM    8  C   UNL     1      -6.010  10.627  65.400  1.00  0.00    -0.105 C  
HETATM    9  C   UNL     1      -5.402  10.343  66.764  1.00  0.00    -0.043 C  
ENDBRANCH   7   8
ENDBRANCH   6   7
ENDBRANCH   5   6
BRANCH   5  10
HETATM   10  C   UNL     1     -10.146   9.302  65.697  1.00  0.00     0.095 C  
BRANCH  10  11
HETATM   11  C   UNL     1     -11.118  10.142  66.585  1.00  0.00     0.209 C  
HETATM   12  O   UNL     1     -11.208   9.653  67.923  1.00  0.00    -0.519 OA 
HETATM   13  H   UNL     1     -11.798  10.164  68.463  1.00  0.00     0.000 HD 
BRANCH  11  14
HETATM   14  C   UNL     1     -10.763  11.621  66.566  1.00  0.00    -0.313 A  
HETATM   15  C   UNL     1      -9.731  12.229  67.303  1.00  0.00    -0.195 A  
HETATM   16 CL   UNL     1      -5.154  10.816  70.866  1.00  0.00    -0.084 Cl 
HETATM   17  C   UNL     1      -6.707  12.471  69.406  1.00  0.00    -0.022 A  
HETATM   18  C   UNL     1      -9.446  13.613  67.090  1.00  0.00    -0.244 A  
HETATM   19  C   UNL     1      -8.304  13.961  67.973  1.00  0.00    -0.166 C  
HETATM   20  C   UNL     1     -10.146  14.374  66.165  1.00  0.00    -0.323 A  
HETATM   21  C   UNL     1      -7.837  15.176  68.318  1.00  0.00    -0.124 C  
HETATM   22  C   UNL     1      -7.818  12.718  68.614  1.00  0.00    -0.044 A  
HETATM   23  C   UNL     1     -11.198  13.785  65.484  1.00  0.00    -0.299 A  
HETATM   24  C   UNL     1      -8.749  11.705  68.273  1.00  0.00    -0.163 A  
HETATM   25  C   UNL     1      -6.540  11.188  69.918  1.00  0.00    -0.129 A  
HETATM   26 CL   UNL     1     -12.109  14.711  64.352  1.00  0.00    -0.498 Cl 
HETATM   27  C   UNL     1     -11.509  12.439  65.681  1.00  0.00    -0.412 A  
HETATM   28  C   UNL     1      -7.492  10.193  69.671  1.00  0.00    -0.147 A  
HETATM   29  C   UNL     1      -8.601  10.457  68.862  1.00  0.00    -0.149 A  
BRANCH  21  30
HETATM   30  C   UNL     1      -8.396  16.451  67.867  1.00  0.00    -0.174 A  
HETATM   31  C   UNL     1      -9.285  19.011  67.208  1.00  0.00    -0.286 A  
HETATM   32 CL   UNL     1      -9.781  20.622  66.869  1.00  0.00    -0.508 Cl 
HETATM   33  C   UNL     1      -9.967  18.266  68.171  1.00  0.00    -0.377 A  
HETATM   34  C   UNL     1      -7.747  17.185  66.865  1.00  0.00    -0.256 A  
HETATM   35  C   UNL     1      -8.189  18.469  66.543  1.00  0.00    -0.299 A  
HETATM   36  C   UNL     1      -9.525  16.981  68.499  1.00  0.00    -0.269 A  
ENDBRANCH  21  30
ENDBRANCH  11  14
ENDBRANCH  10  11
ENDBRANCH   5  10
ENDBRANCH   4   5
ENDBRANCH   3   4
ENDBRANCH   2   3
TORSDOF 10
ENDMDL
MODEL       88
REMARK 921   NORMALIZED FREE ENERGY PREDICTED BY IDOCK:   -4.25 KCAL/MOL
REMARK 922        TOTAL FREE ENERGY PREDICTED BY IDOCK:   -8.81 KCAL/MOL
REMARK 923 INTER-LIGAND FREE ENERGY PREDICTED BY IDOCK:   -6.80 KCAL/MOL
REMARK 924 INTRA-LIGAND FREE ENERGY PREDICTED BY IDOCK:   -2.01 KCAL/MOL
REMARK 927      BINDING AFFINITY PREDICTED BY RF-SCORE:    0.00 PKD
ROOT
HETATM    1  C   UNL     1     -11.794  13.052  63.452  1.00  0.00    -0.543 C  
HETATM    2  C   UNL     1     -11.077  11.729  63.225  1.00  0.00    -0.370 C  
ENDROOT
BRANCH   2   3
HETATM    3  C   UNL     1      -9.654  11.790  63.777  1.00  0.00    -0.177 C  
BRANCH   3   4
HETATM    4  C   UNL     1      -9.127  10.445  64.299  1.00  0.00    -0.238 C  
BRANCH   4   5
HETATM    5  N   UNL     1      -8.102  10.478  65.365  1.00  0.00    -0.156 NA 
BRANCH   5   6
HETATM    6  C   UNL     1      -8.402  11.511  66.381  1.00  0.00    -0.118 C  
BRANCH   6   7
HETATM    7  C   UNL     1      -7.222  11.947  67.277  1.00  0.00    -0.147 C  
BRANCH   7   8
HETATM    8  C   UNL     1      -7.392  11.664  68.772  1.00  0.00    -0.118 C  
HETATM    9  C   UNL     1      -6.126  11.905  69.578  1.00  0.00    -0.108 C  
ENDBRANCH   7   8
ENDBRANCH   6   7
ENDBRANCH   5   6
BRANCH   5  10
HETATM   10  C   UNL     1      -8.020   9.132  65.999  1.00  0.00    -0.103 C  
BRANCH  10  11
HETATM   11  C   UNL     1      -9.303   8.617  66.726  1.00  0.00    -0.179 C  
HETATM   12  O   UNL     1     -10.116   7.790  65.896  1.00  0.00    -0.298 OA 
HETATM   13  H   UNL     1     -10.896   7.477  66.338  1.00  0.00     0.000 HD 
BRANCH  11  14
HETATM   14  C   UNL     1      -8.966   7.916  68.033  1.00  0.00    -0.127 A  
HETATM   15  C   UNL     1      -9.479   8.246  69.301  1.00  0.00    -0.155 A  
HETATM   16 CL   UNL     1     -13.521  11.821  71.854  1.00  0.00    -0.397 Cl 
HETATM   17  C   UNL     1     -11.674   9.856  71.795  1.00  0.00    -0.183 A  
HETATM   18  C   UNL     1      -9.154   7.419  70.419  1.00  0.00    -0.157 A  
HETATM   19  C   UNL     1      -9.854   7.990  71.598  1.00  0.00    -0.223 C  
HETATM   20  C   UNL     1      -8.361   6.288  70.293  1.00  0.00    -0.126 A  
HETATM   21  C   UNL     1      -9.670   7.727  72.906  1.00  0.00    -0.310 C  
HETATM   22  C   UNL     1     -10.722   9.096  71.131  1.00  0.00    -0.380 A  
HETATM   23  C   UNL     1      -7.811   6.000  69.055  1.00  0.00    -0.096 A  
HETATM   24  C   UNL     1     -10.408   9.296  69.763  1.00  0.00    -0.232 A  
HETATM   25  C   UNL     1     -12.299  10.881  71.092  1.00  0.00    -0.374 A  
HETATM   26 CL   UNL     1      -6.795   4.621  68.870  1.00  0.00    -0.050 Cl 
HETATM   27  C   UNL     1      -8.099   6.798  67.946  1.00  0.00    -0.114 A  
HETATM   28  C   UNL     1     -11.943  11.157  69.768  1.00  0.00    -0.428 A  
HETATM   29  C   UNL     1     -10.989  10.375  69.110  1.00  0.00    -0.285 A  
BRANCH  21  30
HETATM   30  C   UNL     1      -8.692   6.780  73.443  1.00  0.00    -0.140 A  
HETATM   31  C   UNL     1      -6.741   4.932  74.186  1.00  0.00    -0.070 A  
HETATM   32 CL   UNL     1      -5.519   3.778  74.555  1.00  0.00    -0.004 Cl 
HETATM   33  C   UNL     1      -8.045   4.503  73.937  1.00  0.00    -0.100 A  
HETATM   34  C   UNL     1      -7.392   7.212  73.744  1.00  0.00    -0.100 A  
HETATM   35  C   UNL     1      -6.416   6.282  74.107  1.00  0.00    -0.070 A  
HETATM   36  C   UNL     1      -9.025   5.428  73.569  1.00  0.00    -0.125 A  
ENDBRANCH  21  30
ENDBRANCH  11  14
ENDBRANCH  10  11
ENDBRANCH   5  10
ENDBRANCH   4   5
ENDBRANCH   3   4
ENDBRANCH   2   3
TORSDOF 10
ENDMDL
MODEL       89
REMARK 921   NORMALIZED FREE ENERGY PREDICTED BY IDOCK:   -4.20 KCAL/MOL
REMARK 922        TOTAL FREE ENERGY PREDICTED BY IDOCK:   -8.74 KCAL/MOL
REMARK 923 INTER-LIGAND FREE ENERGY PREDICTED BY IDOCK:   -7.16 KCAL/MOL
REMARK 924 INTRA-LIGAND FREE ENERGY PREDICTED BY IDOCK:   -1.58 KCAL/MOL
REMARK 927      BINDING AFFINITY PREDICTED BY RF-SCORE:    0.00 PKD
ROOT
HETATM    1  C   UNL     1     -10.182  17.376  68.414  1.00  0.00    -0.362 C  
HETATM    2  C   UNL     1     -10.961  16.577  69.449  1.00  0.00    -0.288 C  
ENDROOT
BRANCH   2   3
HETATM    3  C   UNL     1     -10.466  15.132  69.492  1.00  0.00    -0.268 C  
BRANCH   3   4
HETATM    4  C   UNL     1     -11.117  14.217  68.444  1.00  0.00    -0.252 C  
BRANCH   4   5
HETATM    5  N   UNL     1     -10.316  13.082  67.935  1.00  0.00    -0.226 NA 
BRANCH   5   6
HETATM    6  C   UNL     1      -8.989  13.522  67.452  1.00  0.00    -0.219 C  
BRANCH   6   7
HETATM    7  C   UNL     1      -7.771  13.017  68.258  1.00  0.00    -0.141 C  
BRANCH   7   8
HETATM    8  C   UNL     1      -6.884  11.997  67.539  1.00  0.00    -0.128 C  
HETATM    9  C   UNL     1      -5.432  12.434  67.428  1.00  0.00    -0.117 C  
ENDBRANCH   7   8
ENDBRANCH   6   7
ENDBRANCH   5   6
BRANCH   5  10
HETATM   10  C   UNL     1     -10.168  12.070  69.019  1.00  0.00     0.040 C  
BRANCH  10  11
HETATM   11  C   UNL     1     -11.116  10.831  68.960  1.00  0.00    -0.253 C  
HETATM   12  O   UNL     1     -12.412  11.149  68.457  1.00  0.00    -0.632 OA 
HETATM   13  H   UNL     1     -12.989  10.395  68.421  1.00  0.00     0.000 HD 
BRANCH  11  14
HETATM   14  C   UNL     1     -10.493   9.682  68.182  1.00  0.00    -0.266 A  
HETATM   15  C   UNL     1     -10.335   8.364  68.645  1.00  0.00    -0.222 A  
HETATM   16 CL   UNL     1     -11.816   4.889  73.268  1.00  0.00    -0.227 Cl 
HETATM   17  C   UNL     1     -10.786   5.424  70.832  1.00  0.00    -0.243 A  
HETATM   18  C   UNL     1      -9.835   7.368  67.751  1.00  0.00    -0.187 A  
HETATM   19  C   UNL     1      -9.808   6.086  68.501  1.00  0.00    -0.156 C  
HETATM   20  C   UNL     1      -9.515   7.657  66.432  1.00  0.00    -0.224 A  
HETATM   21  C   UNL     1      -9.194   4.930  68.186  1.00  0.00    -0.151 C  
HETATM   22  C   UNL     1     -10.440   6.309  69.822  1.00  0.00    -0.289 A  
HETATM   23  C   UNL     1      -9.617   8.967  65.998  1.00  0.00    -0.272 A  
HETATM   24  C   UNL     1     -10.662   7.705  69.925  1.00  0.00    -0.253 A  
HETATM   25  C   UNL     1     -11.324   5.947  72.004  1.00  0.00    -0.267 A  
HETATM   26 CL   UNL     1      -9.196   9.366  64.375  1.00  0.00    -0.199 Cl 
HETATM   27  C   UNL     1     -10.090   9.965  66.853  1.00  0.00    -0.285 A  
HETATM   28  C   UNL     1     -11.471   7.328  72.167  1.00  0.00    -0.310 A  
HETATM   29  C   UNL     1     -11.126   8.206  71.134  1.00  0.00    -0.279 A  
BRANCH  21  30
HETATM   30  C   UNL     1      -8.394   4.704  66.982  1.00  0.00    -0.105 A  
HETATM   31  C   UNL     1      -6.819   4.000  64.791  1.00  0.00    -0.049 A  
HETATM   32 CL   UNL     1      -5.832   3.485  63.479  1.00  0.00    -0.013 Cl 
HETATM   33  C   UNL     1      -6.232   4.609  65.900  1.00  0.00    -0.035 A  
HETATM   34  C   UNL     1      -8.984   4.139  65.844  1.00  0.00    -0.126 A  
HETATM   35  C   UNL     1      -8.192   3.780  64.752  1.00  0.00    -0.093 A  
HETATM   36  C   UNL     1      -7.020   4.966  66.997  1.00  0.00    -0.061 A  
ENDBRANCH  21  30
ENDBRANCH  11  14
ENDBRANCH  10  11
ENDBRANCH   5  10
ENDBRANCH   4   5
ENDBRANCH   3   4
ENDBRANCH   2   3
TORSDOF 10
ENDMDL
MODEL       90
REMARK 921   NORMALIZED FREE ENERGY PREDICTED BY IDOCK:   -4.18 KCAL/MOL
REMARK 922        TOTAL FREE ENERGY PREDICTED BY IDOCK:   -8.71 KCAL/MOL
REMARK 923 INTER-LIGAND FREE ENERGY PREDICTED BY IDOCK:   -7.99 KCAL/MOL
REMARK 924 INTRA-LIGAND FREE ENERGY PREDICTED BY IDOCK:   -0.72 KCAL/MOL
REMARK 927      BINDING AFFINITY PREDICTED BY RF-SCORE:    0.00 PKD
ROOT
HETATM    1  C   UNL     1      -5.860   7.177  71.530  1.00  0.00    -0.037 C  
HETATM    2  C   UNL     1      -6.367   7.681  70.186  1.00  0.00    -0.034 C  
ENDROOT
BRANCH   2   3
HETATM    3  C   UNL     1      -7.859   7.393  70.036  1.00  0.00    -0.104 C  
BRANCH   3   4
HETATM    4  C   UNL     1      -8.768   8.547  70.487  1.00  0.00    -0.152 C  
BRANCH   4   5
HETATM    5  N   UNL     1     -10.201   8.471  70.129  1.00  0.00    -0.191 NA 
BRANCH   5   6
HETATM    6  C   UNL     1     -10.953   7.607  71.065  1.00  0.00    -0.248 C  
BRANCH   6   7
HETATM    7  C   UNL     1     -10.969   8.057  72.543  1.00  0.00    -0.430 C  
BRANCH   7   8
HETATM    8  C   UNL     1     -10.590   6.980  73.563  1.00  0.00    -0.405 C  
HETATM    9  C   UNL     1      -9.654   5.921  73.002  1.00  0.00    -0.158 C  
ENDBRANCH   7   8
ENDBRANCH   6   7
ENDBRANCH   5   6
BRANCH   5  10
HETATM   10  C   UNL     1     -10.770   9.848  70.119  1.00  0.00    -0.308 C  
BRANCH  10  11
HETATM   11  C   UNL     1     -11.130  10.451  68.724  1.00  0.00    -0.250 C  
HETATM   12  O   UNL     1     -12.523  10.730  68.584  1.00  0.00    -0.793 OA 
HETATM   13  H   UNL     1     -12.742  11.097  67.736  1.00  0.00     0.000 HD 
BRANCH  11  14
HETATM   14  C   UNL     1     -10.293  11.681  68.409  1.00  0.00    -0.215 A  
HETATM   15  C   UNL     1     -10.544  12.987  68.865  1.00  0.00    -0.157 A  
HETATM   16 CL   UNL     1     -14.159  15.966  72.566  1.00  0.00    -0.504 Cl 
HETATM   17  C   UNL     1     -12.078  15.679  70.873  1.00  0.00    -0.452 A  
HETATM   18  C   UNL     1      -9.599  14.019  68.577  1.00  0.00    -0.201 A  
HETATM   19  C   UNL     1     -10.111  15.264  69.204  1.00  0.00    -0.240 C  
HETATM   20  C   UNL     1      -8.429  13.769  67.874  1.00  0.00    -0.176 A  
HETATM   21  C   UNL     1      -9.719  16.537  69.008  1.00  0.00    -0.258 C  
HETATM   22  C   UNL     1     -11.314  14.922  69.997  1.00  0.00    -0.310 A  
HETATM   23  C   UNL     1      -8.215  12.495  67.377  1.00  0.00    -0.183 A  
HETATM   24  C   UNL     1     -11.612  13.568  69.703  1.00  0.00    -0.340 A  
HETATM   25  C   UNL     1     -13.205  15.088  71.437  1.00  0.00    -0.421 A  
HETATM   26 CL   UNL     1      -6.787  12.159  66.471  1.00  0.00     0.257 Cl 
HETATM   27  C   UNL     1      -9.127  11.469  67.631  1.00  0.00    -0.168 A  
HETATM   28  C   UNL     1     -13.572  13.783  71.094  1.00  0.00    -0.091 A  
HETATM   29  C   UNL     1     -12.785  13.030  70.216  1.00  0.00     0.022 A  
BRANCH  21  30
HETATM   30  C   UNL     1      -8.660  16.959  68.091  1.00  0.00    -0.221 A  
HETATM   31  C   UNL     1      -6.616  18.008  66.509  1.00  0.00    -0.207 A  
HETATM   32 CL   UNL     1      -5.357  18.729  65.586  1.00  0.00    -0.185 Cl 
HETATM   33  C   UNL     1      -7.948  18.266  66.183  1.00  0.00    -0.219 A  
HETATM   34  C   UNL     1      -7.321  16.662  68.383  1.00  0.00    -0.190 A  
HETATM   35  C   UNL     1      -6.300  17.195  67.594  1.00  0.00    -0.161 A  
HETATM   36  C   UNL     1      -8.973  17.737  66.972  1.00  0.00    -0.258 A  
ENDBRANCH  21  30
ENDBRANCH  11  14
ENDBRANCH  10  11
ENDBRANCH   5  10
ENDBRANCH   4   5
ENDBRANCH   3   4
ENDBRANCH   2   3
TORSDOF 10
ENDMDL
MODEL       91
REMARK 921   NORMALIZED FREE ENERGY PREDICTED BY IDOCK:   -4.17 KCAL/MOL
REMARK 922        TOTAL FREE ENERGY PREDICTED BY IDOCK:   -8.70 KCAL/MOL
REMARK 923 INTER-LIGAND FREE ENERGY PREDICTED BY IDOCK:   -7.44 KCAL/MOL
REMARK 924 INTRA-LIGAND FREE ENERGY PREDICTED BY IDOCK:   -1.25 KCAL/MOL
REMARK 927      BINDING AFFINITY PREDICTED BY RF-SCORE:    0.00 PKD
ROOT
HETATM    1  C   UNL     1     -11.913   6.062  72.282  1.00  0.00    -0.259 C  
HETATM    2  C   UNL     1     -10.726   5.136  72.506  1.00  0.00    -0.286 C  
ENDROOT
BRANCH   2   3
HETATM    3  C   UNL     1     -10.364   4.409  71.212  1.00  0.00    -0.060 C  
BRANCH   3   4
HETATM    4  C   UNL     1      -8.867   4.443  70.873  1.00  0.00    -0.105 C  
BRANCH   4   5
HETATM    5  N   UNL     1      -8.464   5.110  69.616  1.00  0.00    -0.092 NA 
BRANCH   5   6
HETATM    6  C   UNL     1      -9.090   4.475  68.435  1.00  0.00    -0.124 C  
BRANCH   6   7
HETATM    7  C   UNL     1      -8.185   4.301  67.196  1.00  0.00    -0.100 C  
BRANCH   7   8
HETATM    8  C   UNL     1      -8.736   4.883  65.891  1.00  0.00    -0.127 C  
HETATM    9  C   UNL     1     -10.061   4.268  65.470  1.00  0.00    -0.235 C  
ENDBRANCH   7   8
ENDBRANCH   6   7
ENDBRANCH   5   6
BRANCH   5  10
HETATM   10  C   UNL     1      -8.837   6.551  69.692  1.00  0.00    -0.138 C  
BRANCH  10  11
HETATM   11  C   UNL     1      -9.931   7.049  68.695  1.00  0.00    -0.156 C  
HETATM   12  O   UNL     1     -11.093   6.220  68.688  1.00  0.00    -0.334 OA 
HETATM   13  H   UNL     1     -11.758   6.524  68.082  1.00  0.00     0.000 HD 
BRANCH  11  14
HETATM   14  C   UNL     1     -10.298   8.504  68.943  1.00  0.00    -0.226 A  
HETATM   15  C   UNL     1     -10.133   9.561  68.030  1.00  0.00    -0.226 A  
HETATM   16 CL   UNL     1      -8.566  10.558  62.357  1.00  0.00    -0.232 Cl 
HETATM   17  C   UNL     1      -9.488  11.231  64.801  1.00  0.00    -0.221 A  
HETATM   18  C   UNL     1     -10.634  10.856  68.368  1.00  0.00    -0.225 A  
HETATM   19  C   UNL     1     -10.346  11.747  67.215  1.00  0.00    -0.231 C  
HETATM   20  C   UNL     1     -11.293  11.101  69.564  1.00  0.00    -0.359 A  
HETATM   21  C   UNL     1     -10.392  13.091  67.147  1.00  0.00    -0.243 C  
HETATM   22  C   UNL     1      -9.790  10.920  66.119  1.00  0.00    -0.268 A  
HETATM   23  C   UNL     1     -11.401  10.071  70.483  1.00  0.00    -0.335 A  
HETATM   24  C   UNL     1      -9.581   9.628  66.663  1.00  0.00    -0.241 A  
HETATM   25  C   UNL     1      -8.914  10.240  64.011  1.00  0.00    -0.237 A  
HETATM   26 CL   UNL     1     -12.186  10.350  71.992  1.00  0.00    -0.051 Cl 
HETATM   27  C   UNL     1     -10.910   8.798  70.187  1.00  0.00    -0.241 A  
HETATM   28  C   UNL     1      -8.615   8.984  64.548  1.00  0.00    -0.181 A  
HETATM   29  C   UNL     1      -8.934   8.685  65.876  1.00  0.00    -0.245 A  
BRANCH  21  30
HETATM   30  C   UNL     1     -10.751  13.976  68.255  1.00  0.00    -0.262 A  
HETATM   31  C   UNL     1     -11.451  15.420  70.536  1.00  0.00    -0.327 A  
HETATM   32 CL   UNL     1     -11.891  16.232  71.987  1.00  0.00    -0.598 Cl 
HETATM   33  C   UNL     1     -12.445  14.976  69.664  1.00  0.00    -0.168 A  
HETATM   34  C   UNL     1      -9.755  14.469  69.109  1.00  0.00    -0.062 A  
HETATM   35  C   UNL     1     -10.109  15.185  70.254  1.00  0.00     0.047 A  
HETATM   36  C   UNL     1     -12.096  14.256  68.518  1.00  0.00    -0.295 A  
ENDBRANCH  21  30
ENDBRANCH  11  14
ENDBRANCH  10  11
ENDBRANCH   5  10
ENDBRANCH   4   5
ENDBRANCH   3   4
ENDBRANCH   2   3
TORSDOF 10
ENDMDL
MODEL       92
REMARK 921   NORMALIZED FREE ENERGY PREDICTED BY IDOCK:   -4.09 KCAL/MOL
REMARK 922        TOTAL FREE ENERGY PREDICTED BY IDOCK:   -8.56 KCAL/MOL
REMARK 923 INTER-LIGAND FREE ENERGY PREDICTED BY IDOCK:   -5.84 KCAL/MOL
REMARK 924 INTRA-LIGAND FREE ENERGY PREDICTED BY IDOCK:   -2.72 KCAL/MOL
REMARK 927      BINDING AFFINITY PREDICTED BY RF-SCORE:    0.00 PKD
ROOT
HETATM    1  C   UNL     1      -6.732   5.425  62.573  1.00  0.00    -0.025 C  
HETATM    2  C   UNL     1      -5.752   6.336  63.299  1.00  0.00    -0.022 C  
ENDROOT
BRANCH   2   3
HETATM    3  C   UNL     1      -6.500   7.436  64.049  1.00  0.00    -0.048 C  
BRANCH   3   4
HETATM    4  C   UNL     1      -5.760   7.964  65.287  1.00  0.00    -0.037 C  
BRANCH   4   5
HETATM    5  N   UNL     1      -6.565   8.260  66.493  1.00  0.00    -0.055 NA 
BRANCH   5   6
HETATM    6  C   UNL     1      -7.773   7.408  66.566  1.00  0.00    -0.093 C  
BRANCH   6   7
HETATM    7  C   UNL     1      -9.075   8.025  66.007  1.00  0.00    -0.193 C  
BRANCH   7   8
HETATM    8  C   UNL     1      -8.980   9.496  65.592  1.00  0.00    -0.224 C  
HETATM    9  C   UNL     1     -10.250  10.283  65.870  1.00  0.00    -0.293 C  
ENDBRANCH   7   8
ENDBRANCH   6   7
ENDBRANCH   5   6
BRANCH   5  10
HETATM   10  C   UNL     1      -5.716   8.064  67.701  1.00  0.00    -0.038 C  
BRANCH  10  11
HETATM   11  C   UNL     1      -6.309   8.543  69.064  1.00  0.00    -0.044 C  
HETATM   12  O   UNL     1      -5.312   8.729  70.067  1.00  0.00    -0.028 OA 
HETATM   13  H   UNL     1      -5.673   9.021  70.896  1.00  0.00     0.000 HD 
BRANCH  11  14
HETATM   14  C   UNL     1      -7.160   9.793  68.900  1.00  0.00    -0.067 A  
HETATM   15  C   UNL     1      -8.519   9.914  69.241  1.00  0.00    -0.158 A  
HETATM   16 CL   UNL     1     -12.891   6.869  71.932  1.00  0.00    -0.342 Cl 
HETATM   17  C   UNL     1     -11.764   9.020  70.757  1.00  0.00    -0.286 A  
HETATM   18  C   UNL     1      -9.151  11.191  69.134  1.00  0.00     0.048 A  
HETATM   19  C   UNL     1     -10.556  11.019  69.585  1.00  0.00    -0.132 C  
HETATM   20  C   UNL     1      -8.462  12.321  68.718  1.00  0.00     0.113 A  
HETATM   21  C   UNL     1     -11.604  11.850  69.436  1.00  0.00    -0.388 C  
HETATM   22  C   UNL     1     -10.709   9.639  70.102  1.00  0.00    -0.321 A  
HETATM   23  C   UNL     1      -7.140  12.184  68.329  1.00  0.00    -0.084 A  
HETATM   24  C   UNL     1      -9.502   8.964  69.797  1.00  0.00    -0.174 A  
HETATM   25  C   UNL     1     -11.634   7.672  71.076  1.00  0.00    -0.282 A  
HETATM   26 CL   UNL     1      -6.264  13.562  67.777  1.00  0.00    -0.154 Cl 
HETATM   27  C   UNL     1      -6.499  10.947  68.409  1.00  0.00    -0.057 A  
HETATM   28  C   UNL     1     -10.489   6.959  70.707  1.00  0.00    -0.238 A  
HETATM   29  C   UNL     1      -9.431   7.602  70.056  1.00  0.00    -0.161 A  
BRANCH  21  30
HETATM   30  C   UNL     1     -11.558  13.149  68.763  1.00  0.00    -0.348 A  
HETATM   31  C   UNL     1     -11.178  15.580  67.451  1.00  0.00    -0.248 A  
HETATM   32 CL   UNL     1     -10.855  17.061  66.640  1.00  0.00    -0.062 Cl 
HETATM   33  C   UNL     1     -11.121  15.526  68.844  1.00  0.00    -0.282 A  
HETATM   34  C   UNL     1     -11.666  13.219  67.368  1.00  0.00    -0.419 A  
HETATM   35  C   UNL     1     -11.466  14.435  66.713  1.00  0.00    -0.381 A  
HETATM   36  C   UNL     1     -11.315  14.310  69.503  1.00  0.00    -0.315 A  
ENDBRANCH  21  30
ENDBRANCH  11  14
ENDBRANCH  10  11
ENDBRANCH   5  10
ENDBRANCH   4   5
ENDBRANCH   3   4
ENDBRANCH   2   3
TORSDOF 10
ENDMDL
MODEL       93
REMARK 921   NORMALIZED FREE ENERGY PREDICTED BY IDOCK:   -4.07 KCAL/MOL
REMARK 922        TOTAL FREE ENERGY PREDICTED BY IDOCK:   -8.53 KCAL/MOL
REMARK 923 INTER-LIGAND FREE ENERGY PREDICTED BY IDOCK:   -5.12 KCAL/MOL
REMARK 924 INTRA-LIGAND FREE ENERGY PREDICTED BY IDOCK:   -3.41 KCAL/MOL
REMARK 927      BINDING AFFINITY PREDICTED BY RF-SCORE:    0.00 PKD
ROOT
HETATM    1  C   UNL     1     -11.526   6.591  70.057  1.00  0.00    -0.476 C  
HETATM    2  C   UNL     1     -10.262   5.991  70.658  1.00  0.00    -0.260 C  
ENDROOT
BRANCH   2   3
HETATM    3  C   UNL     1     -10.030   4.582  70.117  1.00  0.00    -0.278 C  
BRANCH   3   4
HETATM    4  C   UNL     1      -8.818   3.867  70.732  1.00  0.00    -0.084 C  
BRANCH   4   5
HETATM    5  N   UNL     1      -7.606   4.675  70.993  1.00  0.00    -0.070 NA 
BRANCH   5   6
HETATM    6  C   UNL     1      -7.152   4.539  72.395  1.00  0.00    -0.070 C  
BRANCH   6   7
HETATM    7  C   UNL     1      -6.805   5.854  73.127  1.00  0.00    -0.079 C  
BRANCH   7   8
HETATM    8  C   UNL     1      -7.867   6.362  74.106  1.00  0.00    -0.097 C  
HETATM    9  C   UNL     1      -8.434   7.720  73.727  1.00  0.00    -0.289 C  
ENDBRANCH   7   8
ENDBRANCH   6   7
ENDBRANCH   5   6
BRANCH   5  10
HETATM   10  C   UNL     1      -6.531   4.251  70.053  1.00  0.00    -0.032 C  
BRANCH  10  11
HETATM   11  C   UNL     1      -5.749   5.387  69.320  1.00  0.00    -0.012 C  
HETATM   12  O   UNL     1      -5.190   4.961  68.078  1.00  0.00    -0.009 OA 
HETATM   13  H   UNL     1      -4.715   5.652  67.632  1.00  0.00     0.000 HD 
BRANCH  11  14
HETATM   14  C   UNL     1      -6.604   6.631  69.136  1.00  0.00    -0.041 A  
HETATM   15  C   UNL     1      -7.692   6.759  68.254  1.00  0.00    -0.106 A  
HETATM   16 CL   UNL     1     -11.030   3.490  64.538  1.00  0.00     0.072 Cl 
HETATM   17  C   UNL     1     -10.343   5.710  65.908  1.00  0.00     0.123 A  
HETATM   18  C   UNL     1      -8.471   7.957  68.279  1.00  0.00    -0.124 A  
HETATM   19  C   UNL     1      -9.552   7.792  67.275  1.00  0.00    -0.207 C  
HETATM   20  C   UNL     1      -8.197   8.994  69.159  1.00  0.00    -0.121 A  
HETATM   21  C   UNL     1     -10.376   8.721  66.753  1.00  0.00    -0.328 C  
HETATM   22  C   UNL     1      -9.490   6.409  66.750  1.00  0.00    -0.176 A  
HETATM   23  C   UNL     1      -7.091   8.887  69.985  1.00  0.00    -0.049 A  
HETATM   24  C   UNL     1      -8.307   5.836  67.280  1.00  0.00    -0.104 A  
HETATM   25  C   UNL     1      -9.984   4.417  65.540  1.00  0.00    -0.230 A  
HETATM   26 CL   UNL     1      -6.704  10.171  71.067  1.00  0.00     0.117 Cl 
HETATM   27  C   UNL     1      -6.303   7.734  69.974  1.00  0.00    -0.033 A  
HETATM   28  C   UNL     1      -8.778   3.861  65.977  1.00  0.00    -0.115 A  
HETATM   29  C   UNL     1      -7.934   4.575  66.833  1.00  0.00    -0.102 A  
BRANCH  21  30
HETATM   30  C   UNL     1     -10.360  10.144  67.092  1.00  0.00    -0.295 A  
HETATM   31  C   UNL     1     -10.551  12.890  67.543  1.00  0.00    -0.226 A  
HETATM   32 CL   UNL     1     -10.732  14.587  67.756  1.00  0.00    -0.254 Cl 
HETATM   33  C   UNL     1      -9.664  12.404  66.582  1.00  0.00    -0.229 A  
HETATM   34  C   UNL     1     -11.212  10.636  68.091  1.00  0.00    -0.366 A  
HETATM   35  C   UNL     1     -11.312  12.011  68.308  1.00  0.00    -0.342 A  
HETATM   36  C   UNL     1      -9.564  11.028  66.358  1.00  0.00    -0.227 A  
ENDBRANCH  21  30
ENDBRANCH  11  14
ENDBRANCH  10  11
ENDBRANCH   5  10
ENDBRANCH   4   5
ENDBRANCH   3   4
ENDBRANCH   2   3
TORSDOF 10
ENDMDL
MODEL       94
REMARK 921   NORMALIZED FREE ENERGY PREDICTED BY IDOCK:   -4.02 KCAL/MOL
REMARK 922        TOTAL FREE ENERGY PREDICTED BY IDOCK:   -8.46 KCAL/MOL
REMARK 923 INTER-LIGAND FREE ENERGY PREDICTED BY IDOCK:   -6.96 KCAL/MOL
REMARK 924 INTRA-LIGAND FREE ENERGY PREDICTED BY IDOCK:   -1.50 KCAL/MOL
REMARK 927      BINDING AFFINITY PREDICTED BY RF-SCORE:    0.00 PKD
ROOT
HETATM    1  C   UNL     1      -9.388   4.023  65.297  1.00  0.00    -0.163 C  
HETATM    2  C   UNL     1      -8.902   3.565  66.665  1.00  0.00    -0.139 C  
ENDROOT
BRANCH   2   3
HETATM    3  C   UNL     1      -9.109   4.667  67.702  1.00  0.00    -0.133 C  
BRANCH   3   4
HETATM    4  C   UNL     1      -8.943   4.199  69.155  1.00  0.00    -0.110 C  
BRANCH   4   5
HETATM    5  N   UNL     1      -9.221   5.180  70.227  1.00  0.00    -0.141 NA 
BRANCH   5   6
HETATM    6  C   UNL     1      -8.209   5.114  71.304  1.00  0.00    -0.117 C  
BRANCH   6   7
HETATM    7  C   UNL     1      -7.370   3.818  71.369  1.00  0.00    -0.040 C  
BRANCH   7   8
HETATM    8  C   UNL     1      -7.368   3.103  72.723  1.00  0.00    -0.049 C  
HETATM    9  C   UNL     1      -7.336   1.588  72.605  1.00  0.00    -0.027 C  
ENDBRANCH   7   8
ENDBRANCH   6   7
ENDBRANCH   5   6
BRANCH   5  10
HETATM   10  C   UNL     1      -9.262   6.546  69.633  1.00  0.00    -0.143 C  
BRANCH  10  11
HETATM   11  C   UNL     1     -10.643   7.041  69.099  1.00  0.00    -0.219 C  
HETATM   12  O   UNL     1     -11.744   6.500  69.827  1.00  0.00    -0.595 OA 
HETATM   13  H   UNL     1     -12.584   6.801  69.503  1.00  0.00     0.000 HD 
BRANCH  11  14
HETATM   14  C   UNL     1     -10.715   8.560  69.047  1.00  0.00    -0.113 A  
HETATM   15  C   UNL     1     -10.236   9.371  68.003  1.00  0.00    -0.248 A  
HETATM   16 CL   UNL     1      -7.919   8.942  62.518  1.00  0.00    -0.135 Cl 
HETATM   17  C   UNL     1      -8.922  10.235  64.662  1.00  0.00    -0.240 A  
HETATM   18  C   UNL     1     -10.481  10.778  68.046  1.00  0.00    -0.225 A  
HETATM   19  C   UNL     1      -9.893  11.359  66.813  1.00  0.00    -0.232 C  
HETATM   20  C   UNL     1     -11.192  11.369  69.081  1.00  0.00    -0.335 A  
HETATM   21  C   UNL     1      -9.644  12.649  66.515  1.00  0.00    -0.248 C  
HETATM   22  C   UNL     1      -9.416  10.247  65.959  1.00  0.00    -0.234 A  
HETATM   23  C   UNL     1     -11.611  10.574  70.134  1.00  0.00    -0.326 A  
HETATM   24  C   UNL     1      -9.544   9.068  66.734  1.00  0.00    -0.259 A  
HETATM   25  C   UNL     1      -8.494   9.020  64.136  1.00  0.00    -0.170 A  
HETATM   26 CL   UNL     1     -12.469  11.282  71.451  1.00  0.00    -0.430 Cl 
HETATM   27  C   UNL     1     -11.375   9.199  70.126  1.00  0.00    -0.164 A  
HETATM   28  C   UNL     1      -8.526   7.857  64.912  1.00  0.00    -0.045 A  
HETATM   29  C   UNL     1      -9.037   7.885  66.214  1.00  0.00    -0.224 A  
BRANCH  21  30
HETATM   30  C   UNL     1      -9.918  13.782  67.399  1.00  0.00    -0.237 A  
HETATM   31  C   UNL     1     -10.541  15.745  69.280  1.00  0.00    -0.244 A  
HETATM   32 CL   UNL     1     -10.959  16.890  70.493  1.00  0.00     0.125 Cl 
HETATM   33  C   UNL     1     -11.482  15.384  68.315  1.00  0.00    -0.362 A  
HETATM   34  C   UNL     1      -8.960  14.185  68.338  1.00  0.00    -0.189 A  
HETATM   35  C   UNL     1      -9.277  15.162  69.284  1.00  0.00    -0.205 A  
HETATM   36  C   UNL     1     -11.170  14.404  67.369  1.00  0.00    -0.337 A  
ENDBRANCH  21  30
ENDBRANCH  11  14
ENDBRANCH  10  11
ENDBRANCH   5  10
ENDBRANCH   4   5
ENDBRANCH   3   4
ENDBRANCH   2   3
TORSDOF 10
ENDMDL
MODEL       95
REMARK 921   NORMALIZED FREE ENERGY PREDICTED BY IDOCK:   -3.95 KCAL/MOL
REMARK 922        TOTAL FREE ENERGY PREDICTED BY IDOCK:   -8.34 KCAL/MOL
REMARK 923 INTER-LIGAND FREE ENERGY PREDICTED BY IDOCK:   -6.80 KCAL/MOL
REMARK 924 INTRA-LIGAND FREE ENERGY PREDICTED BY IDOCK:   -1.54 KCAL/MOL
REMARK 927      BINDING AFFINITY PREDICTED BY RF-SCORE:    0.00 PKD
ROOT
HETATM    1  C   UNL     1      -6.882   7.988  74.094  1.00  0.00    -0.150 C  
HETATM    2  C   UNL     1      -6.580   6.506  73.916  1.00  0.00    -0.073 C  
ENDROOT
BRANCH   2   3
HETATM    3  C   UNL     1      -7.014   6.035  72.530  1.00  0.00    -0.079 C  
BRANCH   3   4
HETATM    4  C   UNL     1      -8.375   6.586  72.079  1.00  0.00    -0.107 C  
BRANCH   4   5
HETATM    5  N   UNL     1      -9.105   5.836  71.034  1.00  0.00    -0.145 NA 
BRANCH   5   6
HETATM    6  C   UNL     1     -10.556   5.774  71.319  1.00  0.00    -0.257 C  
BRANCH   6   7
HETATM    7  C   UNL     1     -11.460   6.666  70.440  1.00  0.00    -0.444 C  
BRANCH   7   8
HETATM    8  C   UNL     1     -12.357   7.646  71.201  1.00  0.00    -0.293 C  
HETATM    9  C   UNL     1     -11.675   8.280  72.402  1.00  0.00    -0.463 C  
ENDBRANCH   7   8
ENDBRANCH   6   7
ENDBRANCH   5   6
BRANCH   5  10
HETATM   10  C   UNL     1      -8.860   6.483  69.714  1.00  0.00    -0.143 C  
BRANCH  10  11
HETATM   11  C   UNL     1      -8.213   7.904  69.736  1.00  0.00    -0.121 C  
HETATM   12  O   UNL     1      -6.808   7.877  69.493  1.00  0.00    -0.045 OA 
HETATM   13  H   UNL     1      -6.414   8.741  69.506  1.00  0.00     0.000 HD 
BRANCH  11  14
HETATM   14  C   UNL     1      -8.915   8.857  68.780  1.00  0.00    -0.134 A  
HETATM   15  C   UNL     1      -8.828   8.826  67.377  1.00  0.00    -0.140 A  
HETATM   16 CL   UNL     1      -6.590   5.487  62.963  1.00  0.00    -0.025 Cl 
HETATM   17  C   UNL     1      -8.025   7.512  64.022  1.00  0.00    -0.091 A  
HETATM   18  C   UNL     1      -9.639   9.718  66.610  1.00  0.00    -0.239 A  
HETATM   19  C   UNL     1      -9.359   9.438  65.179  1.00  0.00    -0.288 C  
HETATM   20  C   UNL     1     -10.524  10.605  67.207  1.00  0.00    -0.293 A  
HETATM   21  C   UNL     1      -9.675  10.167  64.092  1.00  0.00    -0.301 C  
HETATM   22  C   UNL     1      -8.468   8.258  65.104  1.00  0.00    -0.164 A  
HETATM   23  C   UNL     1     -10.563  10.672  68.589  1.00  0.00    -0.203 A  
HETATM   24  C   UNL     1      -8.084   7.965  66.437  1.00  0.00    -0.108 A  
HETATM   25  C   UNL     1      -7.132   6.473  64.264  1.00  0.00    -0.060 A  
HETATM   26 CL   UNL     1     -11.627  11.785  69.362  1.00  0.00    -0.356 Cl 
HETATM   27  C   UNL     1      -9.773   9.822  69.365  1.00  0.00    -0.214 A  
HETATM   28  C   UNL     1      -6.668   6.220  65.559  1.00  0.00    -0.048 A  
HETATM   29  C   UNL     1      -7.132   6.975  66.640  1.00  0.00    -0.078 A  
BRANCH  21  30
HETATM   30  C   UNL     1     -10.391  11.443  64.115  1.00  0.00    -0.400 A  
HETATM   31  C   UNL     1     -11.798  13.828  64.451  1.00  0.00    -0.427 A  
HETATM   32 CL   UNL     1     -12.680  15.275  64.744  1.00  0.00     0.189 Cl 
HETATM   33  C   UNL     1     -12.478  12.667  64.079  1.00  0.00    -0.487 A  
HETATM   34  C   UNL     1      -9.708  12.623  64.439  1.00  0.00     0.065 A  
HETATM   35  C   UNL     1     -10.416  13.814  64.614  1.00  0.00    -0.433 A  
HETATM   36  C   UNL     1     -11.774  11.472  63.906  1.00  0.00    -0.249 A  
ENDBRANCH  21  30
ENDBRANCH  11  14
ENDBRANCH  10  11
ENDBRANCH   5  10
ENDBRANCH   4   5
ENDBRANCH   3   4
ENDBRANCH   2   3
TORSDOF 10
ENDMDL
MODEL       96
REMARK 921   NORMALIZED FREE ENERGY PREDICTED BY IDOCK:   -3.92 KCAL/MOL
REMARK 922        TOTAL FREE ENERGY PREDICTED BY IDOCK:   -8.29 KCAL/MOL
REMARK 923 INTER-LIGAND FREE ENERGY PREDICTED BY IDOCK:   -7.78 KCAL/MOL
REMARK 924 INTRA-LIGAND FREE ENERGY PREDICTED BY IDOCK:   -0.52 KCAL/MOL
REMARK 927      BINDING AFFINITY PREDICTED BY RF-SCORE:    0.00 PKD
ROOT
HETATM    1  C   UNL     1      -6.004   4.200  71.165  1.00  0.00    -0.014 C  
HETATM    2  C   UNL     1      -6.970   4.557  70.043  1.00  0.00    -0.045 C  
ENDROOT
BRANCH   2   3
HETATM    3  C   UNL     1      -7.325   6.041  70.096  1.00  0.00    -0.078 C  
BRANCH   3   4
HETATM    4  C   UNL     1      -8.819   6.335  69.894  1.00  0.00    -0.141 C  
BRANCH   4   5
HETATM    5  N   UNL     1      -9.333   7.636  70.376  1.00  0.00    -0.160 NA 
BRANCH   5   6
HETATM    6  C   UNL     1      -8.242   8.506  70.868  1.00  0.00    -0.133 C  
BRANCH   6   7
HETATM    7  C   UNL     1      -7.842   9.680  69.947  1.00  0.00    -0.157 C  
BRANCH   7   8
HETATM    8  C   UNL     1      -6.372  10.101  70.018  1.00  0.00    -0.088 C  
HETATM    9  C   UNL     1      -5.404   8.956  69.771  1.00  0.00    -0.029 C  
ENDBRANCH   7   8
ENDBRANCH   6   7
ENDBRANCH   5   6
BRANCH   5  10
HETATM   10  C   UNL     1     -10.074   8.303  69.269  1.00  0.00    -0.199 C  
BRANCH  10  11
HETATM   11  C   UNL     1     -11.405   9.026  69.648  1.00  0.00     0.121 C  
HETATM   12  O   UNL     1     -11.824   8.750  70.984  1.00  0.00    -0.286 OA 
HETATM   13  H   UNL     1     -12.634   9.190  71.214  1.00  0.00     0.000 HD 
BRANCH  11  14
HETATM   14  C   UNL     1     -11.323  10.524  69.399  1.00  0.00    -0.331 A  
HETATM   15  C   UNL     1     -10.804  11.140  68.246  1.00  0.00    -0.258 A  
HETATM   16 CL   UNL     1      -8.763   9.770  62.806  1.00  0.00    -0.205 Cl 
HETATM   17  C   UNL     1      -9.542  11.425  64.788  1.00  0.00    -0.239 A  
HETATM   18  C   UNL     1     -10.901  12.559  68.111  1.00  0.00    -0.248 A  
HETATM   19  C   UNL     1     -10.306  12.912  66.797  1.00  0.00    -0.250 C  
HETATM   20  C   UNL     1     -11.506  13.350  69.078  1.00  0.00    -0.348 A  
HETATM   21  C   UNL     1      -9.938  14.119  66.327  1.00  0.00    -0.315 C  
HETATM   22  C   UNL     1      -9.981  11.655  66.084  1.00  0.00    -0.252 A  
HETATM   23  C   UNL     1     -11.963  12.746  70.237  1.00  0.00    -0.280 A  
HETATM   24  C   UNL     1     -10.199  10.605  67.010  1.00  0.00    -0.267 A  
HETATM   25  C   UNL     1      -9.263  10.115  64.415  1.00  0.00    -0.258 A  
HETATM   26 CL   UNL     1     -12.690  13.703  71.471  1.00  0.00    -0.433 Cl 
HETATM   27  C   UNL     1     -11.870  11.363  70.402  1.00  0.00    -0.428 A  
HETATM   28  C   UNL     1      -9.383   9.070  65.337  1.00  0.00    -0.213 A  
HETATM   29  C   UNL     1      -9.837   9.318  66.636  1.00  0.00    -0.311 A  
BRANCH  21  30
HETATM   30  C   UNL     1     -10.059  15.379  67.062  1.00  0.00    -0.249 A  
HETATM   31  C   UNL     1     -10.043  17.868  68.319  1.00  0.00    -0.375 A  
HETATM   32 CL   UNL     1      -9.954  19.421  69.052  1.00  0.00    -0.508 Cl 
HETATM   33  C   UNL     1      -9.406  16.782  68.921  1.00  0.00    -0.233 A  
HETATM   34  C   UNL     1     -10.740  16.461  66.488  1.00  0.00    -0.163 A  
HETATM   35  C   UNL     1     -10.722  17.708  67.116  1.00  0.00    -0.203 A  
HETATM   36  C   UNL     1      -9.417  15.533  68.294  1.00  0.00    -0.200 A  
ENDBRANCH  21  30
ENDBRANCH  11  14
ENDBRANCH  10  11
ENDBRANCH   5  10
ENDBRANCH   4   5
ENDBRANCH   3   4
ENDBRANCH   2   3
TORSDOF 10
ENDMDL
MODEL       97
REMARK 921   NORMALIZED FREE ENERGY PREDICTED BY IDOCK:   -3.90 KCAL/MOL
REMARK 922        TOTAL FREE ENERGY PREDICTED BY IDOCK:   -8.26 KCAL/MOL
REMARK 923 INTER-LIGAND FREE ENERGY PREDICTED BY IDOCK:   -7.03 KCAL/MOL
REMARK 924 INTRA-LIGAND FREE ENERGY PREDICTED BY IDOCK:   -1.23 KCAL/MOL
REMARK 927      BINDING AFFINITY PREDICTED BY RF-SCORE:    0.00 PKD
ROOT
HETATM    1  C   UNL     1      -8.217   5.210  68.548  1.00  0.00    -0.089 C  
HETATM    2  C   UNL     1      -7.427   6.456  68.170  1.00  0.00    -0.094 C  
ENDROOT
BRANCH   2   3
HETATM    3  C   UNL     1      -8.042   7.127  66.944  1.00  0.00    -0.116 C  
BRANCH   3   4
HETATM    4  C   UNL     1      -7.315   8.404  66.498  1.00  0.00    -0.081 C  
BRANCH   4   5
HETATM    5  N   UNL     1      -8.068   9.676  66.553  1.00  0.00    -0.118 NA 
BRANCH   5   6
HETATM    6  C   UNL     1      -9.463   9.506  66.091  1.00  0.00    -0.221 C  
BRANCH   6   7
HETATM    7  C   UNL     1     -10.041  10.653  65.234  1.00  0.00    -0.363 C  
BRANCH   7   8
HETATM    8  C   UNL     1     -11.116  11.505  65.914  1.00  0.00    -0.274 C  
HETATM    9  C   UNL     1     -11.302  12.869  65.268  1.00  0.00    -0.333 C  
ENDBRANCH   7   8
ENDBRANCH   6   7
ENDBRANCH   5   6
BRANCH   5  10
HETATM   10  C   UNL     1      -8.040  10.194  67.950  1.00  0.00    -0.109 C  
BRANCH  10  11
HETATM   11  C   UNL     1      -9.156  11.212  68.346  1.00  0.00    -0.168 C  
HETATM   12  O   UNL     1      -9.700  10.961  69.641  1.00  0.00    -0.428 OA 
HETATM   13  H   UNL     1     -10.379  11.581  69.881  1.00  0.00     0.000 HD 
BRANCH  11  14
HETATM   14  C   UNL     1      -8.675  12.650  68.224  1.00  0.00    -0.169 A  
HETATM   15  C   UNL     1      -9.392  13.794  68.619  1.00  0.00    -0.081 A  
HETATM   16 CL   UNL     1     -14.410  15.341  71.459  1.00  0.00    -0.634 Cl 
HETATM   17  C   UNL     1     -12.036  15.784  70.256  1.00  0.00    -0.371 A  
HETATM   18  C   UNL     1      -8.758  15.072  68.546  1.00  0.00    -0.175 A  
HETATM   19  C   UNL     1      -9.735  16.070  69.051  1.00  0.00    -0.244 C  
HETATM   20  C   UNL     1      -7.449  15.220  68.111  1.00  0.00    -0.117 A  
HETATM   21  C   UNL     1      -9.708  17.413  68.949  1.00  0.00    -0.251 C  
HETATM   22  C   UNL     1     -10.918  15.342  69.563  1.00  0.00    -0.280 A  
HETATM   23  C   UNL     1      -6.768  14.098  67.669  1.00  0.00    -0.171 A  
HETATM   24  C   UNL     1     -10.733  13.983  69.207  1.00  0.00    -0.144 A  
HETATM   25  C   UNL     1     -13.027  14.855  70.560  1.00  0.00    -0.292 A  
HETATM   26 CL   UNL     1      -5.151  14.252  67.093  1.00  0.00     0.671 Cl 
HETATM   27  C   UNL     1      -7.366  12.838  67.716  1.00  0.00    -0.130 A  
HETATM   28  C   UNL     1     -12.911  13.526  70.141  1.00  0.00     0.075 A  
HETATM   29  C   UNL     1     -11.772  13.095  69.453  1.00  0.00    -0.386 A  
BRANCH  21  30
HETATM   30  C   UNL     1      -8.657  18.184  68.284  1.00  0.00    -0.298 A  
HETATM   31  C   UNL     1      -6.822  19.895  67.066  1.00  0.00    -0.212 A  
HETATM   32 CL   UNL     1      -5.749  21.018  66.328  1.00  0.00    -0.263 Cl 
HETATM   33  C   UNL     1      -7.801  19.265  66.297  1.00  0.00    -0.311 A  
HETATM   34  C   UNL     1      -7.640  18.779  69.043  1.00  0.00    -0.256 A  
HETATM   35  C   UNL     1      -6.728  19.642  68.431  1.00  0.00    -0.323 A  
HETATM   36  C   UNL     1      -8.719  18.404  66.905  1.00  0.00    -0.275 A  
ENDBRANCH  21  30
ENDBRANCH  11  14
ENDBRANCH  10  11
ENDBRANCH   5  10
ENDBRANCH   4   5
ENDBRANCH   3   4
ENDBRANCH   2   3
TORSDOF 10
ENDMDL
MODEL       98
REMARK 921   NORMALIZED FREE ENERGY PREDICTED BY IDOCK:   -3.82 KCAL/MOL
REMARK 922        TOTAL FREE ENERGY PREDICTED BY IDOCK:   -8.15 KCAL/MOL
REMARK 923 INTER-LIGAND FREE ENERGY PREDICTED BY IDOCK:   -8.55 KCAL/MOL
REMARK 924 INTRA-LIGAND FREE ENERGY PREDICTED BY IDOCK:    0.40 KCAL/MOL
REMARK 927      BINDING AFFINITY PREDICTED BY RF-SCORE:    0.00 PKD
ROOT
HETATM    1  C   UNL     1     -13.025  14.525  71.186  1.00  0.00    -0.414 C  
HETATM    2  C   UNL     1     -12.178  13.860  70.110  1.00  0.00    -0.425 C  
ENDROOT
BRANCH   2   3
HETATM    3  C   UNL     1     -11.774  14.877  69.044  1.00  0.00    -0.347 C  
BRANCH   3   4
HETATM    4  C   UNL     1     -10.759  14.343  68.023  1.00  0.00    -0.241 C  
BRANCH   4   5
HETATM    5  N   UNL     1     -11.256  13.419  66.981  1.00  0.00    -0.296 NA 
BRANCH   5   6
HETATM    6  C   UNL     1     -10.595  13.657  65.678  1.00  0.00    -0.293 C  
BRANCH   6   7
HETATM    7  C   UNL     1     -11.344  13.139  64.431  1.00  0.00    -0.400 C  
BRANCH   7   8
HETATM    8  C   UNL     1     -11.111  11.664  64.089  1.00  0.00    -0.435 C  
HETATM    9  C   UNL     1     -10.120  11.458  62.955  1.00  0.00    -0.333 C  
ENDBRANCH   7   8
ENDBRANCH   6   7
ENDBRANCH   5   6
BRANCH   5  10
HETATM   10  C   UNL     1     -11.031  12.016  67.431  1.00  0.00    -0.261 C  
BRANCH  10  11
HETATM   11  C   UNL     1      -9.550  11.524  67.486  1.00  0.00    -0.172 C  
HETATM   12  O   UNL     1      -8.857  11.982  68.645  1.00  0.00    -0.330 OA 
HETATM   13  H   UNL     1      -7.956  11.682  68.679  1.00  0.00     0.000 HD 
BRANCH  11  14
HETATM   14  C   UNL     1      -9.455  10.011  67.354  1.00  0.00    -0.176 A  
HETATM   15  C   UNL     1     -10.004   9.072  68.245  1.00  0.00    -0.198 A  
HETATM   16 CL   UNL     1     -13.535   8.782  73.050  1.00  0.00    -0.061 Cl 
HETATM   17  C   UNL     1     -12.073   7.779  71.016  1.00  0.00    -0.264 A  
HETATM   18  C   UNL     1      -9.928   7.682  67.923  1.00  0.00    -0.208 A  
HETATM   19  C   UNL     1     -10.609   6.945  69.018  1.00  0.00    -0.240 C  
HETATM   20  C   UNL     1      -9.343   7.229  66.749  1.00  0.00    -0.203 A  
HETATM   21  C   UNL     1     -10.585   5.629  69.300  1.00  0.00    -0.359 C  
HETATM   22  C   UNL     1     -11.222   7.937  69.932  1.00  0.00    -0.051 A  
HETATM   23  C   UNL     1      -8.754   8.154  65.904  1.00  0.00    -0.156 A  
HETATM   24  C   UNL     1     -10.765   9.208  69.503  1.00  0.00    -0.226 A  
HETATM   25  C   UNL     1     -12.443   8.916  71.728  1.00  0.00    -0.362 A  
HETATM   26 CL   UNL     1      -7.990   7.622  64.453  1.00  0.00    -0.138 Cl 
HETATM   27  C   UNL     1      -8.800   9.517  66.198  1.00  0.00    -0.177 A  
HETATM   28  C   UNL     1     -11.934  10.172  71.380  1.00  0.00    -0.447 A  
HETATM   29  C   UNL     1     -11.085  10.314  70.278  1.00  0.00    -0.388 A  
BRANCH  21  30
HETATM   30  C   UNL     1      -9.842   4.621  68.544  1.00  0.00    -0.181 A  
HETATM   31  C   UNL     1      -8.187   2.875  67.133  1.00  0.00    -0.084 A  
HETATM   32 CL   UNL     1      -7.099   1.860  66.270  1.00  0.00    -0.050 Cl 
HETATM   33  C   UNL     1      -8.921   3.843  66.447  1.00  0.00    -0.133 A  
HETATM   34  C   UNL     1      -9.141   3.613  69.222  1.00  0.00    -0.197 A  
HETATM   35  C   UNL     1      -8.307   2.747  68.513  1.00  0.00    -0.086 A  
HETATM   36  C   UNL     1      -9.754   4.716  67.152  1.00  0.00    -0.219 A  
ENDBRANCH  21  30
ENDBRANCH  11  14
ENDBRANCH  10  11
ENDBRANCH   5  10
ENDBRANCH   4   5
ENDBRANCH   3   4
ENDBRANCH   2   3
TORSDOF 10
ENDMDL
MODEL       99
REMARK 921   NORMALIZED FREE ENERGY PREDICTED BY IDOCK:   -3.81 KCAL/MOL
REMARK 922        TOTAL FREE ENERGY PREDICTED BY IDOCK:   -8.12 KCAL/MOL
REMARK 923 INTER-LIGAND FREE ENERGY PREDICTED BY IDOCK:   -7.25 KCAL/MOL
REMARK 924 INTRA-LIGAND FREE ENERGY PREDICTED BY IDOCK:   -0.88 KCAL/MOL
REMARK 927      BINDING AFFINITY PREDICTED BY RF-SCORE:    0.00 PKD
ROOT
HETATM    1  C   UNL     1     -12.593  13.707  64.095  1.00  0.00    -0.169 C  
HETATM    2  C   UNL     1     -12.430  13.206  65.523  1.00  0.00    -0.516 C  
ENDROOT
BRANCH   2   3
HETATM    3  C   UNL     1     -11.806  11.812  65.533  1.00  0.00     0.007 C  
BRANCH   3   4
HETATM    4  C   UNL     1     -10.961  11.495  64.291  1.00  0.00    -0.341 C  
BRANCH   4   5
HETATM    5  N   UNL     1      -9.772  10.634  64.472  1.00  0.00    -0.280 NA 
BRANCH   5   6
HETATM    6  C   UNL     1      -9.317  10.053  63.189  1.00  0.00    -0.260 C  
BRANCH   6   7
HETATM    7  C   UNL     1      -8.673   8.652  63.268  1.00  0.00     0.081 C  
BRANCH   7   8
HETATM    8  C   UNL     1      -7.347   8.494  62.519  1.00  0.00    -0.100 C  
HETATM    9  C   UNL     1      -6.143   8.966  63.318  1.00  0.00    -0.089 C  
ENDBRANCH   7   8
ENDBRANCH   6   7
ENDBRANCH   5   6
BRANCH   5  10
HETATM   10  C   UNL     1      -8.683  11.438  65.095  1.00  0.00     0.188 C  
BRANCH  10  11
HETATM   11  C   UNL     1      -7.645  10.663  65.966  1.00  0.00    -0.142 C  
HETATM   12  O   UNL     1      -6.711  11.525  66.615  1.00  0.00    -0.230 OA 
HETATM   13  H   UNL     1      -6.080  11.054  67.145  1.00  0.00     0.000 HD 
BRANCH  11  14
HETATM   14  C   UNL     1      -8.326   9.742  66.967  1.00  0.00    -0.117 A  
HETATM   15  C   UNL     1      -9.263  10.134  67.940  1.00  0.00    -0.144 A  
HETATM   16 CL   UNL     1     -12.400  14.911  69.666  1.00  0.00    -0.285 Cl 
HETATM   17  C   UNL     1     -11.667  12.315  69.699  1.00  0.00    -0.386 A  
HETATM   18  C   UNL     1      -9.902   9.132  68.734  1.00  0.00    -0.175 A  
HETATM   19  C   UNL     1     -10.848   9.834  69.639  1.00  0.00    -0.274 C  
HETATM   20  C   UNL     1      -9.639   7.781  68.564  1.00  0.00    -0.151 A  
HETATM   21  C   UNL     1     -11.487   9.367  70.728  1.00  0.00    -0.364 C  
HETATM   22  C   UNL     1     -10.866  11.268  69.268  1.00  0.00    -0.259 A  
HETATM   23  C   UNL     1      -8.674   7.405  67.645  1.00  0.00    -0.125 A  
HETATM   24  C   UNL     1      -9.836  11.443  68.310  1.00  0.00    -0.202 A  
HETATM   25  C   UNL     1     -11.405  13.587  69.201  1.00  0.00    -0.282 A  
HETATM   26 CL   UNL     1      -8.300   5.736  67.433  1.00  0.00    -0.105 Cl 
HETATM   27  C   UNL     1      -8.023   8.361  66.865  1.00  0.00    -0.099 A  
HETATM   28  C   UNL     1     -10.338  13.803  68.324  1.00  0.00    -0.247 A  
HETATM   29  C   UNL     1      -9.546  12.735  67.891  1.00  0.00    -0.211 A  
BRANCH  21  30
HETATM   30  C   UNL     1     -11.362   8.009  71.258  1.00  0.00    -0.295 A  
HETATM   31  C   UNL     1     -10.833   5.440  72.205  1.00  0.00    -0.227 A  
HETATM   32 CL   UNL     1     -10.421   3.866  72.763  1.00  0.00    -0.241 Cl 
HETATM   33  C   UNL     1     -11.213   5.625  70.876  1.00  0.00    -0.106 A  
HETATM   34  C   UNL     1     -11.030   7.810  72.605  1.00  0.00    -0.422 A  
HETATM   35  C   UNL     1     -10.758   6.524  73.074  1.00  0.00    -0.291 A  
HETATM   36  C   UNL     1     -11.482   6.911  70.400  1.00  0.00    -0.387 A  
ENDBRANCH  21  30
ENDBRANCH  11  14
ENDBRANCH  10  11
ENDBRANCH   5  10
ENDBRANCH   4   5
ENDBRANCH   3   4
ENDBRANCH   2   3
TORSDOF 10
ENDMDL
MODEL      100
REMARK 921   NORMALIZED FREE ENERGY PREDICTED BY IDOCK:   -3.80 KCAL/MOL
REMARK 922        TOTAL FREE ENERGY PREDICTED BY IDOCK:   -8.11 KCAL/MOL
REMARK 923 INTER-LIGAND FREE ENERGY PREDICTED BY IDOCK:   -6.71 KCAL/MOL
REMARK 924 INTRA-LIGAND FREE ENERGY PREDICTED BY IDOCK:   -1.40 KCAL/MOL
REMARK 927      BINDING AFFINITY PREDICTED BY RF-SCORE:    0.00 PKD
ROOT
HETATM    1  C   UNL     1      -6.314  10.373  68.152  1.00  0.00    -0.052 C  
HETATM    2  C   UNL     1      -6.245  11.869  68.420  1.00  0.00    -0.050 C  
ENDROOT
BRANCH   2   3
HETATM    3  C   UNL     1      -7.210  12.621  67.505  1.00  0.00    -0.155 C  
BRANCH   3   4
HETATM    4  C   UNL     1      -8.412  13.238  68.233  1.00  0.00    -0.160 C  
BRANCH   4   5
HETATM    5  N   UNL     1      -9.764  12.875  67.754  1.00  0.00    -0.208 NA 
BRANCH   5   6
HETATM    6  C   UNL     1     -10.022  13.402  66.395  1.00  0.00    -0.293 C  
BRANCH   6   7
HETATM    7  C   UNL     1     -10.189  12.348  65.278  1.00  0.00    -0.306 C  
BRANCH   7   8
HETATM    8  C   UNL     1     -11.557  12.328  64.592  1.00  0.00    -0.404 C  
HETATM    9  C   UNL     1     -11.694  13.369  63.493  1.00  0.00    -0.301 C  
ENDBRANCH   7   8
ENDBRANCH   6   7
ENDBRANCH   5   6
BRANCH   5  10
HETATM   10  C   UNL     1      -9.902  11.392  67.773  1.00  0.00    -0.175 C  
BRANCH  10  11
HETATM   11  C   UNL     1     -10.959  10.795  68.755  1.00  0.00    -0.247 C  
HETATM   12  O   UNL     1     -12.244  10.638  68.156  1.00  0.00    -0.719 OA 
HETATM   13  H   UNL     1     -12.887  10.274  68.754  1.00  0.00     0.000 HD 
BRANCH  11  14
HETATM   14  C   UNL     1     -10.480   9.490  69.373  1.00  0.00    -0.231 A  
HETATM   15  C   UNL     1      -9.753   8.484  68.711  1.00  0.00    -0.168 A  
HETATM   16 CL   UNL     1      -7.042   7.421  63.500  1.00  0.00    -0.062 Cl 
HETATM   17  C   UNL     1      -7.750   6.893  66.049  1.00  0.00    -0.096 A  
HETATM   18  C   UNL     1      -9.274   7.365  69.459  1.00  0.00    -0.146 A  
HETATM   19  C   UNL     1      -8.527   6.498  68.513  1.00  0.00    -0.124 C  
HETATM   20  C   UNL     1      -9.491   7.246  70.825  1.00  0.00    -0.164 A  
HETATM   21  C   UNL     1      -8.110   5.228  68.672  1.00  0.00    -0.090 C  
HETATM   22  C   UNL     1      -8.446   7.198  67.210  1.00  0.00    -0.122 A  
HETATM   23  C   UNL     1     -10.256   8.209  71.460  1.00  0.00    -0.206 A  
HETATM   24  C   UNL     1      -9.271   8.345  67.323  1.00  0.00    -0.165 A  
HETATM   25  C   UNL     1      -7.918   7.726  64.948  1.00  0.00    -0.139 A  
HETATM   26 CL   UNL     1     -10.571   8.075  73.149  1.00  0.00    -0.340 Cl 
HETATM   27  C   UNL     1     -10.748   9.308  70.752  1.00  0.00    -0.350 A  
HETATM   28  C   UNL     1      -8.796   8.814  65.004  1.00  0.00    -0.151 A  
HETATM   29  C   UNL     1      -9.482   9.113  66.185  1.00  0.00    -0.309 A  
BRANCH  21  30
HETATM   30  C   UNL     1      -8.327   4.416  69.870  1.00  0.00    -0.075 A  
HETATM   31  C   UNL     1      -8.602   2.648  72.009  1.00  0.00    -0.069 A  
HETATM   32 CL   UNL     1      -8.734   1.493  73.277  1.00  0.00    -0.060 Cl 
HETATM   33  C   UNL     1      -9.614   2.744  71.053  1.00  0.00    -0.215 A  
HETATM   34  C   UNL     1      -7.338   4.352  70.861  1.00  0.00    -0.048 A  
HETATM   35  C   UNL     1      -7.475   3.460  71.926  1.00  0.00    -0.052 A  
HETATM   36  C   UNL     1      -9.479   3.632  69.983  1.00  0.00    -0.260 A  
ENDBRANCH  21  30
ENDBRANCH  11  14
ENDBRANCH  10  11
ENDBRANCH   5  10
ENDBRANCH   4   5
ENDBRANCH   3   4
ENDBRANCH   2   3
TORSDOF 10
ENDMDL
MODEL      101
REMARK 921   NORMALIZED FREE ENERGY PREDICTED BY IDOCK:   -3.77 KCAL/MOL
REMARK 922        TOTAL FREE ENERGY PREDICTED BY IDOCK:   -8.07 KCAL/MOL
REMARK 923 INTER-LIGAND FREE ENERGY PREDICTED BY IDOCK:   -6.39 KCAL/MOL
REMARK 924 INTRA-LIGAND FREE ENERGY PREDICTED BY IDOCK:   -1.68 KCAL/MOL
REMARK 927      BINDING AFFINITY PREDICTED BY RF-SCORE:    0.00 PKD
ROOT
HETATM    1  C   UNL     1     -11.372   6.456  69.498  1.00  0.00    -0.460 C  
HETATM    2  C   UNL     1     -11.109   6.398  68.000  1.00  0.00    -0.365 C  
ENDROOT
BRANCH   2   3
HETATM    3  C   UNL     1     -10.361   5.116  67.637  1.00  0.00    -0.173 C  
BRANCH   3   4
HETATM    4  C   UNL     1      -9.624   5.181  66.292  1.00  0.00    -0.164 C  
BRANCH   4   5
HETATM    5  N   UNL     1      -8.412   4.347  66.134  1.00  0.00    -0.113 NA 
BRANCH   5   6
HETATM    6  C   UNL     1      -7.832   4.478  64.779  1.00  0.00    -0.086 C  
BRANCH   6   7
HETATM    7  C   UNL     1      -8.782   5.002  63.680  1.00  0.00    -0.079 C  
BRANCH   7   8
HETATM    8  C   UNL     1      -9.375   3.932  62.759  1.00  0.00    -0.113 C  
HETATM    9  C   UNL     1     -10.654   3.313  63.299  1.00  0.00    -0.241 C  
ENDBRANCH   7   8
ENDBRANCH   6   7
ENDBRANCH   5   6
BRANCH   5  10
HETATM   10  C   UNL     1      -7.416   4.742  67.169  1.00  0.00    -0.086 C  
BRANCH  10  11
HETATM   11  C   UNL     1      -6.391   5.852  66.772  1.00  0.00    -0.045 C  
HETATM   12  O   UNL     1      -5.592   5.491  65.646  1.00  0.00    -0.013 OA 
HETATM   13  H   UNL     1      -4.969   6.166  65.405  1.00  0.00     0.000 HD 
BRANCH  11  14
HETATM   14  C   UNL     1      -7.072   7.194  66.551  1.00  0.00    -0.078 A  
HETATM   15  C   UNL     1      -7.691   7.976  67.543  1.00  0.00    -0.106 A  
HETATM   16 CL   UNL     1      -8.453   8.166  73.461  1.00  0.00    -0.302 Cl 
HETATM   17  C   UNL     1      -8.629   9.095  70.934  1.00  0.00    -0.259 A  
HETATM   18  C   UNL     1      -8.188   9.271  67.199  1.00  0.00    -0.117 A  
HETATM   19  C   UNL     1      -8.751   9.862  68.439  1.00  0.00    -0.120 C  
HETATM   20  C   UNL     1      -8.064   9.789  65.918  1.00  0.00    -0.114 A  
HETATM   21  C   UNL     1      -9.547  10.939  68.581  1.00  0.00    -0.192 C  
HETATM   22  C   UNL     1      -8.450   8.950  69.566  1.00  0.00    -0.128 A  
HETATM   23  C   UNL     1      -7.506   8.993  64.933  1.00  0.00    -0.105 A  
HETATM   24  C   UNL     1      -7.898   7.778  68.991  1.00  0.00    -0.118 A  
HETATM   25  C   UNL     1      -8.296   8.021  71.754  1.00  0.00    -0.127 A  
HETATM   26 CL   UNL     1      -7.366   9.595  63.324  1.00  0.00    -0.113 Cl 
HETATM   27  C   UNL     1      -7.024   7.719  65.236  1.00  0.00    -0.059 A  
HETATM   28  C   UNL     1      -7.834   6.821  71.206  1.00  0.00    -0.101 A  
HETATM   29  C   UNL     1      -7.650   6.696  69.825  1.00  0.00    -0.104 A  
BRANCH  21  30
HETATM   30  C   UNL     1     -10.036  11.774  67.483  1.00  0.00    -0.204 A  
HETATM   31  C   UNL     1     -11.109  13.525  65.597  1.00  0.00    -0.289 A  
HETATM   32 CL   UNL     1     -11.816  14.646  64.501  1.00  0.00    -0.446 Cl 
HETATM   33  C   UNL     1     -11.792  12.353  65.924  1.00  0.00    -0.467 A  
HETATM   34  C   UNL     1      -9.331  12.927  67.113  1.00  0.00    -0.229 A  
HETATM   35  C   UNL     1      -9.875  13.806  66.174  1.00  0.00    -0.310 A  
HETATM   36  C   UNL     1     -11.253  11.472  66.866  1.00  0.00    -0.363 A  
ENDBRANCH  21  30
ENDBRANCH  11  14
ENDBRANCH  10  11
ENDBRANCH   5  10
ENDBRANCH   4   5
ENDBRANCH   3   4
ENDBRANCH   2   3
TORSDOF 10
ENDMDL
MODEL      102
REMARK 921   NORMALIZED FREE ENERGY PREDICTED BY IDOCK:   -3.63 KCAL/MOL
REMARK 922        TOTAL FREE ENERGY PREDICTED BY IDOCK:   -7.83 KCAL/MOL
REMARK 923 INTER-LIGAND FREE ENERGY PREDICTED BY IDOCK:   -8.02 KCAL/MOL
REMARK 924 INTRA-LIGAND FREE ENERGY PREDICTED BY IDOCK:    0.19 KCAL/MOL
REMARK 927      BINDING AFFINITY PREDICTED BY RF-SCORE:    0.00 PKD
ROOT
HETATM    1  C   UNL     1      -6.557  14.267  68.895  1.00  0.00    -0.096 C  
HETATM    2  C   UNL     1      -5.973  13.653  67.631  1.00  0.00    -0.085 C  
ENDROOT
BRANCH   2   3
HETATM    3  C   UNL     1      -5.993  12.128  67.719  1.00  0.00    -0.090 C  
BRANCH   3   4
HETATM    4  C   UNL     1      -6.358  11.430  66.401  1.00  0.00    -0.047 C  
BRANCH   4   5
HETATM    5  N   UNL     1      -6.145   9.968  66.318  1.00  0.00    -0.065 NA 
BRANCH   5   6
HETATM    6  C   UNL     1      -5.513   9.437  67.546  1.00  0.00    -0.037 C  
BRANCH   6   7
HETATM    7  C   UNL     1      -6.450   8.707  68.533  1.00  0.00    -0.055 C  
BRANCH   7   8
HETATM    8  C   UNL     1      -6.787   9.477  69.813  1.00  0.00    -0.064 C  
HETATM    9  C   UNL     1      -7.372   8.600  70.907  1.00  0.00    -0.077 C  
ENDBRANCH   7   8
ENDBRANCH   6   7
ENDBRANCH   5   6
BRANCH   5  10
HETATM   10  C   UNL     1      -7.457   9.302  66.078  1.00  0.00    -0.095 C  
BRANCH  10  11
HETATM   11  C   UNL     1      -8.603  10.192  65.502  1.00  0.00    -0.151 C  
HETATM   12  O   UNL     1      -9.480   9.474  64.634  1.00  0.00    -0.422 OA 
HETATM   13  H   UNL     1     -10.177  10.015  64.285  1.00  0.00     0.000 HD 
BRANCH  11  14
HETATM   14  C   UNL     1      -9.380  10.893  66.606  1.00  0.00    -0.191 A  
HETATM   15  C   UNL     1     -10.004  10.265  67.699  1.00  0.00    -0.212 A  
HETATM   16 CL   UNL     1     -10.505   4.901  70.270  1.00  0.00    -0.257 Cl 
HETATM   17  C   UNL     1     -10.857   7.568  70.071  1.00  0.00    -0.260 A  
HETATM   18  C   UNL     1     -10.599  11.072  68.717  1.00  0.00    -0.232 A  
HETATM   19  C   UNL     1     -11.143  10.145  69.742  1.00  0.00    -0.328 C  
HETATM   20  C   UNL     1     -10.568  12.458  68.670  1.00  0.00    -0.243 A  
HETATM   21  C   UNL     1     -12.000  10.399  70.749  1.00  0.00    -0.462 C  
HETATM   22  C   UNL     1     -10.732   8.768  69.385  1.00  0.00    -0.180 A  
HETATM   23  C   UNL     1     -10.005  13.070  67.563  1.00  0.00    -0.212 A  
HETATM   24  C   UNL     1     -10.131   8.851  68.105  1.00  0.00    -0.227 A  
HETATM   25  C   UNL     1     -10.417   6.407  69.444  1.00  0.00    -0.228 A  
HETATM   26 CL   UNL     1      -9.979  14.790  67.457  1.00  0.00    -0.219 Cl 
HETATM   27  C   UNL     1      -9.427  12.308  66.546  1.00  0.00    -0.238 A  
HETATM   28  C   UNL     1      -9.903   6.450  68.145  1.00  0.00    -0.127 A  
HETATM   29  C   UNL     1      -9.774   7.669  67.471  1.00  0.00    -0.197 A  
BRANCH  21  30
HETATM   30  C   UNL     1     -12.593  11.706  71.039  1.00  0.00    -0.431 A  
HETATM   31  C   UNL     1     -13.496  14.238  71.780  1.00  0.00    -0.381 A  
HETATM   32 CL   UNL     1     -13.986  15.803  72.298  1.00  0.00    -0.540 Cl 
HETATM   33  C   UNL     1     -13.963  13.109  72.455  1.00  0.00    -0.497 A  
HETATM   34  C   UNL     1     -12.168  12.839  70.332  1.00  0.00    -0.371 A  
HETATM   35  C   UNL     1     -12.615  14.106  70.711  1.00  0.00    -0.432 A  
HETATM   36  C   UNL     1     -13.514  11.839  72.082  1.00  0.00    -0.273 A  
ENDBRANCH  21  30
ENDBRANCH  11  14
ENDBRANCH  10  11
ENDBRANCH   5  10
ENDBRANCH   4   5
ENDBRANCH   3   4
ENDBRANCH   2   3
TORSDOF 10
ENDMDL
MODEL      103
REMARK 921   NORMALIZED FREE ENERGY PREDICTED BY IDOCK:   -3.62 KCAL/MOL
REMARK 922        TOTAL FREE ENERGY PREDICTED BY IDOCK:   -7.82 KCAL/MOL
REMARK 923 INTER-LIGAND FREE ENERGY PREDICTED BY IDOCK:   -6.27 KCAL/MOL
REMARK 924 INTRA-LIGAND FREE ENERGY PREDICTED BY IDOCK:   -1.56 KCAL/MOL
REMARK 927      BINDING AFFINITY PREDICTED BY RF-SCORE:    0.00 PKD
ROOT
HETATM    1  C   UNL     1     -11.582   6.866  70.328  1.00  0.00    -0.362 C  
HETATM    2  C   UNL     1     -10.451   6.120  69.635  1.00  0.00    -0.312 C  
ENDROOT
BRANCH   2   3
HETATM    3  C   UNL     1     -10.808   5.843  68.176  1.00  0.00    -0.323 C  
BRANCH   3   4
HETATM    4  C   UNL     1     -11.155   7.101  67.367  1.00  0.00    -0.138 C  
BRANCH   4   5
HETATM    5  N   UNL     1     -10.044   8.005  66.995  1.00  0.00    -0.251 NA 
BRANCH   5   6
HETATM    6  C   UNL     1      -9.067   7.334  66.109  1.00  0.00    -0.122 C  
BRANCH   6   7
HETATM    7  C   UNL     1      -7.822   6.735  66.800  1.00  0.00    -0.107 C  
BRANCH   7   8
HETATM    8  C   UNL     1      -7.605   5.235  66.580  1.00  0.00    -0.088 C  
HETATM    9  C   UNL     1      -6.190   4.888  66.147  1.00  0.00    -0.035 C  
ENDBRANCH   7   8
ENDBRANCH   6   7
ENDBRANCH   5   6
BRANCH   5  10
HETATM   10  C   UNL     1     -10.606   9.214  66.330  1.00  0.00     0.068 C  
BRANCH  10  11
HETATM   11  C   UNL     1      -9.619  10.072  65.477  1.00  0.00    -0.266 C  
HETATM   12  O   UNL     1      -9.826   9.922  64.073  1.00  0.00    -0.452 OA 
HETATM   13  H   UNL     1      -9.226  10.445  63.554  1.00  0.00     0.000 HD 
BRANCH  11  14
HETATM   14  C   UNL     1      -9.652  11.537  65.882  1.00  0.00    -0.254 A  
HETATM   15  C   UNL     1      -9.002  12.098  66.996  1.00  0.00    -0.201 A  
HETATM   16 CL   UNL     1      -5.153  10.629  71.316  1.00  0.00    -0.095 Cl 
HETATM   17  C   UNL     1      -6.697  12.305  69.872  1.00  0.00     0.200 A  
HETATM   18  C   UNL     1      -9.034  13.515  67.179  1.00  0.00    -0.230 A  
HETATM   19  C   UNL     1      -8.248  13.811  68.405  1.00  0.00    -0.151 C  
HETATM   20  C   UNL     1      -9.673  14.359  66.283  1.00  0.00    -0.330 A  
HETATM   21  C   UNL     1      -8.192  14.948  69.124  1.00  0.00    -0.151 C  
HETATM   22  C   UNL     1      -7.624  12.551  68.870  1.00  0.00     0.047 A  
HETATM   23  C   UNL     1     -10.359  13.797  65.220  1.00  0.00    -0.361 A  
HETATM   24  C   UNL     1      -8.167  11.518  68.067  1.00  0.00    -0.143 A  
HETATM   25  C   UNL     1      -6.335  10.985  70.118  1.00  0.00    -0.147 A  
HETATM   26 CL   UNL     1     -11.191  14.815  64.105  1.00  0.00     0.014 Cl 
HETATM   27  C   UNL     1     -10.358  12.415  65.022  1.00  0.00    -0.319 A  
HETATM   28  C   UNL     1      -6.923   9.939  69.400  1.00  0.00    -0.063 A  
HETATM   29  C   UNL     1      -7.849  10.205  68.386  1.00  0.00    -0.093 A  
BRANCH  21  30
HETATM   30  C   UNL     1      -8.936  16.171  68.822  1.00  0.00    -0.236 A  
HETATM   31  C   UNL     1     -10.388  18.395  67.970  1.00  0.00    -0.384 A  
HETATM   32 CL   UNL     1     -11.285  19.731  67.362  1.00  0.00    -0.190 Cl 
HETATM   33  C   UNL     1      -8.995  18.401  67.886  1.00  0.00    -0.296 A  
HETATM   34  C   UNL     1     -10.332  16.192  68.951  1.00  0.00    -0.250 A  
HETATM   35  C   UNL     1     -11.056  17.304  68.516  1.00  0.00    -0.008 A  
HETATM   36  C   UNL     1      -8.266  17.289  68.316  1.00  0.00    -0.237 A  
ENDBRANCH  21  30
ENDBRANCH  11  14
ENDBRANCH  10  11
ENDBRANCH   5  10
ENDBRANCH   4   5
ENDBRANCH   3   4
ENDBRANCH   2   3
TORSDOF 10
ENDMDL
MODEL      104
REMARK 921   NORMALIZED FREE ENERGY PREDICTED BY IDOCK:   -3.57 KCAL/MOL
REMARK 922        TOTAL FREE ENERGY PREDICTED BY IDOCK:   -7.74 KCAL/MOL
REMARK 923 INTER-LIGAND FREE ENERGY PREDICTED BY IDOCK:   -6.38 KCAL/MOL
REMARK 924 INTRA-LIGAND FREE ENERGY PREDICTED BY IDOCK:   -1.36 KCAL/MOL
REMARK 927      BINDING AFFINITY PREDICTED BY RF-SCORE:    0.00 PKD
ROOT
HETATM    1  C   UNL     1     -13.959   9.138  71.796  1.00  0.00    -0.372 C  
HETATM    2  C   UNL     1     -13.038  10.349  71.753  1.00  0.00    -0.567 C  
ENDROOT
BRANCH   2   3
HETATM    3  C   UNL     1     -12.730  10.736  70.308  1.00  0.00    -0.286 C  
BRANCH   3   4
HETATM    4  C   UNL     1     -11.866  11.997  70.167  1.00  0.00    -0.301 C  
BRANCH   4   5
HETATM    5  N   UNL     1     -12.360  13.071  69.278  1.00  0.00    -0.060 NA 
BRANCH   5   6
HETATM    6  C   UNL     1     -12.467  14.364  69.990  1.00  0.00    -0.301 C  
BRANCH   6   7
HETATM    7  C   UNL     1     -11.218  14.810  70.782  1.00  0.00    -0.154 C  
BRANCH   7   8
HETATM    8  C   UNL     1     -10.416  15.954  70.155  1.00  0.00    -0.251 C  
HETATM    9  C   UNL     1     -11.119  16.609  68.978  1.00  0.00    -0.234 C  
ENDBRANCH   7   8
ENDBRANCH   6   7
ENDBRANCH   5   6
BRANCH   5  10
HETATM   10  C   UNL     1     -11.442  13.194  68.111  1.00  0.00    -0.314 C  
BRANCH  10  11
HETATM   11  C   UNL     1     -11.618  12.149  66.964  1.00  0.00    -0.337 C  
HETATM   12  O   UNL     1     -11.675  12.751  65.671  1.00  0.00    -0.355 OA 
HETATM   13  H   UNL     1     -11.782  12.116  64.973  1.00  0.00     0.000 HD 
BRANCH  11  14
HETATM   14  C   UNL     1     -10.550  11.068  67.017  1.00  0.00    -0.303 A  
HETATM   15  C   UNL     1      -9.164  11.285  67.125  1.00  0.00    -0.169 A  
HETATM   16 CL   UNL     1      -5.237  15.701  67.969  1.00  0.00    -0.121 Cl 
HETATM   17  C   UNL     1      -6.020  13.134  67.697  1.00  0.00    -0.136 A  
HETATM   18  C   UNL     1      -8.294  10.162  67.280  1.00  0.00    -0.121 A  
HETATM   19  C   UNL     1      -6.913  10.697  67.397  1.00  0.00    -0.082 C  
HETATM   20  C   UNL     1      -8.775   8.863  67.344  1.00  0.00    -0.128 A  
HETATM   21  C   UNL     1      -5.739  10.044  67.307  1.00  0.00    -0.046 C  
HETATM   22  C   UNL     1      -6.992  12.174  67.453  1.00  0.00    -0.146 A  
HETATM   23  C   UNL     1     -10.133   8.651  67.179  1.00  0.00    -0.261 A  
HETATM   24  C   UNL     1      -8.343  12.511  67.192  1.00  0.00    -0.179 A  
HETATM   25  C   UNL     1      -6.391  14.473  67.628  1.00  0.00    -0.107 A  
HETATM   26 CL   UNL     1     -10.760   7.045  67.221  1.00  0.00    -0.388 Cl 
HETATM   27  C   UNL     1     -11.007   9.727  67.013  1.00  0.00    -0.059 A  
HETATM   28  C   UNL     1      -7.698  14.834  67.284  1.00  0.00    -0.214 A  
HETATM   29  C   UNL     1      -8.668  13.853  67.051  1.00  0.00    -0.215 A  
BRANCH  21  30
HETATM   30  C   UNL     1      -5.592   8.609  67.061  1.00  0.00    -0.038 A  
HETATM   31  C   UNL     1      -5.608   5.857  66.611  1.00  0.00    -0.013 A  
HETATM   32 CL   UNL     1      -5.708   4.160  66.345  1.00  0.00    -0.018 Cl 
HETATM   33  C   UNL     1      -5.477   6.346  67.910  1.00  0.00    -0.005 A  
HETATM   34  C   UNL     1      -5.672   8.110  65.754  1.00  0.00    -0.037 A  
HETATM   35  C   UNL     1      -5.689   6.732  65.532  1.00  0.00    -0.030 A  
HETATM   36  C   UNL     1      -5.464   7.725  68.138  1.00  0.00    -0.032 A  
ENDBRANCH  21  30
ENDBRANCH  11  14
ENDBRANCH  10  11
ENDBRANCH   5  10
ENDBRANCH   4   5
ENDBRANCH   3   4
ENDBRANCH   2   3
TORSDOF 10
ENDMDL
MODEL      105
REMARK 921   NORMALIZED FREE ENERGY PREDICTED BY IDOCK:   -3.55 KCAL/MOL
REMARK 922        TOTAL FREE ENERGY PREDICTED BY IDOCK:   -7.71 KCAL/MOL
REMARK 923 INTER-LIGAND FREE ENERGY PREDICTED BY IDOCK:   -6.69 KCAL/MOL
REMARK 924 INTRA-LIGAND FREE ENERGY PREDICTED BY IDOCK:   -1.02 KCAL/MOL
REMARK 927      BINDING AFFINITY PREDICTED BY RF-SCORE:    0.00 PKD
ROOT
HETATM    1  C   UNL     1      -5.824  16.294  69.008  1.00  0.00    -0.130 C  
HETATM    2  C   UNL     1      -6.351  15.585  67.767  1.00  0.00    -0.183 C  
ENDROOT
BRANCH   2   3
HETATM    3  C   UNL     1      -7.407  14.551  68.150  1.00  0.00    -0.129 C  
BRANCH   3   4
HETATM    4  C   UNL     1      -8.629  15.141  68.870  1.00  0.00    -0.200 C  
BRANCH   4   5
HETATM    5  N   UNL     1      -9.873  14.341  68.876  1.00  0.00    -0.184 NA 
BRANCH   5   6
HETATM    6  C   UNL     1     -10.970  15.030  68.160  1.00  0.00    -0.279 C  
BRANCH   6   7
HETATM    7  C   UNL     1     -11.327  16.446  68.664  1.00  0.00    -0.289 C  
BRANCH   7   8
HETATM    8  C   UNL     1     -11.182  16.663  70.173  1.00  0.00    -0.008 C  
HETATM    9  C   UNL     1     -12.076  15.755  71.001  1.00  0.00    -0.464 C  
ENDBRANCH   7   8
ENDBRANCH   6   7
ENDBRANCH   5   6
BRANCH   5  10
HETATM   10  C   UNL     1      -9.598  13.015  68.255  1.00  0.00    -0.213 C  
BRANCH  10  11
HETATM   11  C   UNL     1      -9.829  11.756  69.150  1.00  0.00     0.223 C  
HETATM   12  O   UNL     1     -11.044  11.823  69.896  1.00  0.00    -0.473 OA 
HETATM   13  H   UNL     1     -11.184  11.057  70.440  1.00  0.00     0.000 HD 
BRANCH  11  14
HETATM   14  C   UNL     1      -9.751  10.470  68.343  1.00  0.00    -0.166 A  
HETATM   15  C   UNL     1      -9.803   9.165  68.867  1.00  0.00    -0.179 A  
HETATM   16 CL   UNL     1     -10.755   6.295  74.014  1.00  0.00    -0.161 Cl 
HETATM   17  C   UNL     1     -10.342   6.492  71.355  1.00  0.00    -0.234 A  
HETATM   18  C   UNL     1      -9.834   8.055  67.968  1.00  0.00    -0.198 A  
HETATM   19  C   UNL     1      -9.918   6.827  68.799  1.00  0.00    -0.149 C  
HETATM   20  C   UNL     1      -9.831   8.224  66.591  1.00  0.00    -0.337 A  
HETATM   21  C   UNL     1      -9.723   5.544  68.440  1.00  0.00    -0.168 C  
HETATM   22  C   UNL     1     -10.082   7.235  70.213  1.00  0.00    -0.196 A  
HETATM   23  C   UNL     1      -9.722   9.506  66.081  1.00  0.00    -0.258 A  
HETATM   24  C   UNL     1      -9.914   8.641  70.243  1.00  0.00    -0.204 A  
HETATM   25  C   UNL     1     -10.388   7.161  72.574  1.00  0.00    -0.208 A  
HETATM   26 CL   UNL     1      -9.682   9.748  64.375  1.00  0.00    -0.187 Cl 
HETATM   27  C   UNL     1      -9.676  10.610  66.935  1.00  0.00    -0.213 A  
HETATM   28  C   UNL     1     -10.136   8.534  72.643  1.00  0.00    -0.253 A  
HETATM   29  C   UNL     1      -9.885   9.270  71.480  1.00  0.00    -0.245 A  
BRANCH  21  30
HETATM   30  C   UNL     1      -9.369   5.092  67.094  1.00  0.00    -0.132 A  
HETATM   31  C   UNL     1      -8.724   4.514  64.443  1.00  0.00    -0.149 A  
HETATM   32 CL   UNL     1      -8.341   4.244  62.788  1.00  0.00    -0.083 Cl 
HETATM   33  C   UNL     1     -10.049   4.426  64.870  1.00  0.00    -0.136 A  
HETATM   34  C   UNL     1      -8.033   5.128  66.671  1.00  0.00    -0.104 A  
HETATM   35  C   UNL     1      -7.715   4.846  65.342  1.00  0.00    -0.086 A  
HETATM   36  C   UNL     1     -10.374   4.712  66.199  1.00  0.00    -0.310 A  
ENDBRANCH  21  30
ENDBRANCH  11  14
ENDBRANCH  10  11
ENDBRANCH   5  10
ENDBRANCH   4   5
ENDBRANCH   3   4
ENDBRANCH   2   3
TORSDOF 10
ENDMDL
MODEL      106
REMARK 921   NORMALIZED FREE ENERGY PREDICTED BY IDOCK:   -3.49 KCAL/MOL
REMARK 922        TOTAL FREE ENERGY PREDICTED BY IDOCK:   -7.62 KCAL/MOL
REMARK 923 INTER-LIGAND FREE ENERGY PREDICTED BY IDOCK:   -5.79 KCAL/MOL
REMARK 924 INTRA-LIGAND FREE ENERGY PREDICTED BY IDOCK:   -1.83 KCAL/MOL
REMARK 927      BINDING AFFINITY PREDICTED BY RF-SCORE:    0.00 PKD
ROOT
HETATM    1  C   UNL     1      -8.188  16.288  68.656  1.00  0.00    -0.214 C  
HETATM    2  C   UNL     1      -8.347  14.804  68.954  1.00  0.00    -0.163 C  
ENDROOT
BRANCH   2   3
HETATM    3  C   UNL     1      -9.777  14.351  68.665  1.00  0.00    -0.216 C  
BRANCH   3   4
HETATM    4  C   UNL     1      -9.892  13.327  67.526  1.00  0.00    -0.220 C  
BRANCH   4   5
HETATM    5  N   UNL     1     -10.707  12.118  67.771  1.00  0.00    -0.204 NA 
BRANCH   5   6
HETATM    6  C   UNL     1     -10.823  11.281  66.556  1.00  0.00    -0.265 C  
BRANCH   6   7
HETATM    7  C   UNL     1      -9.931  11.689  65.362  1.00  0.00    -0.287 C  
BRANCH   7   8
HETATM    8  C   UNL     1     -10.419  11.225  63.987  1.00  0.00    -0.440 C  
HETATM    9  C   UNL     1     -11.462  12.145  63.375  1.00  0.00    -0.501 C  
ENDBRANCH   7   8
ENDBRANCH   6   7
ENDBRANCH   5   6
BRANCH   5  10
HETATM   10  C   UNL     1     -10.094  11.339  68.883  1.00  0.00    -0.170 C  
BRANCH  10  11
HETATM   11  C   UNL     1      -8.748  10.610  68.575  1.00  0.00    -0.141 C  
HETATM   12  O   UNL     1      -7.605  11.419  68.850  1.00  0.00    -0.124 OA 
HETATM   13  H   UNL     1      -6.786  10.975  68.662  1.00  0.00     0.000 HD 
BRANCH  11  14
HETATM   14  C   UNL     1      -8.656   9.271  69.290  1.00  0.00    -0.139 A  
HETATM   15  C   UNL     1      -8.525   8.015  68.671  1.00  0.00    -0.128 A  
HETATM   16 CL   UNL     1      -7.679   5.591  63.281  1.00  0.00    -0.077 Cl 
HETATM   17  C   UNL     1      -7.923   5.573  65.968  1.00  0.00    -0.106 A  
HETATM   18  C   UNL     1      -8.334   6.855  69.484  1.00  0.00    -0.133 A  
HETATM   19  C   UNL     1      -8.200   5.698  68.564  1.00  0.00    -0.106 C  
HETATM   20  C   UNL     1      -8.258   6.931  70.867  1.00  0.00    -0.118 A  
HETATM   21  C   UNL     1      -8.256   4.381  68.840  1.00  0.00    -0.083 C  
HETATM   22  C   UNL     1      -8.169   6.211  67.175  1.00  0.00    -0.106 A  
HETATM   23  C   UNL     1      -8.445   8.162  71.474  1.00  0.00    -0.127 A  
HETATM   24  C   UNL     1      -8.463   7.595  67.257  1.00  0.00    -0.121 A  
HETATM   25  C   UNL     1      -8.021   6.322  64.800  1.00  0.00    -0.124 A  
HETATM   26 CL   UNL     1      -8.389   8.286  73.192  1.00  0.00    -0.262 Cl 
HETATM   27  C   UNL     1      -8.647   9.310  70.707  1.00  0.00    -0.254 A  
HETATM   28  C   UNL     1      -8.397   7.668  64.846  1.00  0.00    -0.054 A  
HETATM   29  C   UNL     1      -8.632   8.299  66.072  1.00  0.00    -0.167 A  
BRANCH  21  30
HETATM   30  C   UNL     1      -8.474   3.810  70.170  1.00  0.00    -0.093 A  
HETATM   31  C   UNL     1      -8.893   2.456  72.571  1.00  0.00    -0.070 A  
HETATM   32 CL   UNL     1      -9.156   1.543  74.005  1.00  0.00    -0.060 Cl 
HETATM   33  C   UNL     1      -9.985   2.919  71.836  1.00  0.00    -0.213 A  
HETATM   34  C   UNL     1      -7.382   3.387  70.939  1.00  0.00    -0.037 A  
HETATM   35  C   UNL     1      -7.595   2.702  72.136  1.00  0.00    -0.052 A  
HETATM   36  C   UNL     1      -9.777   3.601  70.635  1.00  0.00    -0.215 A  
ENDBRANCH  21  30
ENDBRANCH  11  14
ENDBRANCH  10  11
ENDBRANCH   5  10
ENDBRANCH   4   5
ENDBRANCH   3   4
ENDBRANCH   2   3
TORSDOF 10
ENDMDL
MODEL      107
REMARK 921   NORMALIZED FREE ENERGY PREDICTED BY IDOCK:   -3.44 KCAL/MOL
REMARK 922        TOTAL FREE ENERGY PREDICTED BY IDOCK:   -7.54 KCAL/MOL
REMARK 923 INTER-LIGAND FREE ENERGY PREDICTED BY IDOCK:   -5.89 KCAL/MOL
REMARK 924 INTRA-LIGAND FREE ENERGY PREDICTED BY IDOCK:   -1.65 KCAL/MOL
REMARK 927      BINDING AFFINITY PREDICTED BY RF-SCORE:    0.00 PKD
ROOT
HETATM    1  C   UNL     1     -12.664  15.012  71.737  1.00  0.00    -0.411 C  
HETATM    2  C   UNL     1     -12.418  14.072  70.565  1.00  0.00    -0.429 C  
ENDROOT
BRANCH   2   3
HETATM    3  C   UNL     1     -13.234  12.791  70.725  1.00  0.00     0.307 C  
BRANCH   3   4
HETATM    4  C   UNL     1     -12.846  11.951  71.951  1.00  0.00    -0.236 C  
BRANCH   4   5
HETATM    5  N   UNL     1     -12.711  10.490  71.765  1.00  0.00    -0.428 NA 
BRANCH   5   6
HETATM    6  C   UNL     1     -13.630   9.984  70.721  1.00  0.00     0.098 C  
BRANCH   6   7
HETATM    7  C   UNL     1     -14.293   8.618  71.003  1.00  0.00    -0.026 C  
BRANCH   7   8
HETATM    8  C   UNL     1     -13.368   7.544  71.582  1.00  0.00    -0.414 C  
HETATM    9  C   UNL     1     -12.592   6.782  70.520  1.00  0.00     0.067 C  
ENDBRANCH   7   8
ENDBRANCH   6   7
ENDBRANCH   5   6
BRANCH   5  10
HETATM   10  C   UNL     1     -11.298  10.176  71.412  1.00  0.00    -0.061 C  
BRANCH  10  11
HETATM   11  C   UNL     1     -10.887  10.366  69.917  1.00  0.00    -0.298 C  
HETATM   12  O   UNL     1     -10.210  11.599  69.681  1.00  0.00    -0.328 OA 
HETATM   13  H   UNL     1      -9.959  11.714  68.772  1.00  0.00     0.000 HD 
BRANCH  11  14
HETATM   14  C   UNL     1     -10.074   9.188  69.403  1.00  0.00    -0.198 A  
HETATM   15  C   UNL     1      -9.690   8.974  68.067  1.00  0.00    -0.179 A  
HETATM   16 CL   UNL     1      -9.792  11.678  62.746  1.00  0.00    -0.209 Cl 
HETATM   17  C   UNL     1      -9.128   9.738  64.499  1.00  0.00    -0.297 A  
HETATM   18  C   UNL     1      -8.827   7.878  67.759  1.00  0.00    -0.122 A  
HETATM   19  C   UNL     1      -8.574   7.923  66.296  1.00  0.00    -0.160 C  
HETATM   20  C   UNL     1      -8.341   7.025  68.740  1.00  0.00    -0.122 A  
HETATM   21  C   UNL     1      -8.040   6.980  65.496  1.00  0.00    -0.132 C  
HETATM   22  C   UNL     1      -9.190   9.157  65.758  1.00  0.00    -0.294 A  
HETATM   23  C   UNL     1      -8.768   7.206  70.044  1.00  0.00    -0.141 A  
HETATM   24  C   UNL     1      -9.937   9.725  66.820  1.00  0.00    -0.278 A  
HETATM   25  C   UNL     1      -9.872  10.891  64.273  1.00  0.00    -0.310 A  
HETATM   26 CL   UNL     1      -8.209   6.145  71.282  1.00  0.00    -0.121 Cl 
HETATM   27  C   UNL     1      -9.622   8.260  70.374  1.00  0.00    -0.174 A  
HETATM   28  C   UNL     1     -10.688  11.421  65.278  1.00  0.00    -0.326 A  
HETATM   29  C   UNL     1     -10.731  10.830  66.544  1.00  0.00    -0.245 A  
BRANCH  21  30
HETATM   30  C   UNL     1      -7.586   5.661  65.939  1.00  0.00    -0.086 A  
HETATM   31  C   UNL     1      -6.777   3.239  67.059  1.00  0.00    -0.045 A  
HETATM   32 CL   UNL     1      -6.292   1.782  67.833  1.00  0.00    -0.024 Cl 
HETATM   33  C   UNL     1      -5.839   4.246  66.831  1.00  0.00    -0.023 A  
HETATM   34  C   UNL     1      -8.514   4.627  66.124  1.00  0.00    -0.114 A  
HETATM   35  C   UNL     1      -8.107   3.419  66.693  1.00  0.00    -0.091 A  
HETATM   36  C   UNL     1      -6.242   5.459  66.266  1.00  0.00    -0.034 A  
ENDBRANCH  21  30
ENDBRANCH  11  14
ENDBRANCH  10  11
ENDBRANCH   5  10
ENDBRANCH   4   5
ENDBRANCH   3   4
ENDBRANCH   2   3
TORSDOF 10
ENDMDL
MODEL      108
REMARK 921   NORMALIZED FREE ENERGY PREDICTED BY IDOCK:   -3.34 KCAL/MOL
REMARK 922        TOTAL FREE ENERGY PREDICTED BY IDOCK:   -7.38 KCAL/MOL
REMARK 923 INTER-LIGAND FREE ENERGY PREDICTED BY IDOCK:   -6.07 KCAL/MOL
REMARK 924 INTRA-LIGAND FREE ENERGY PREDICTED BY IDOCK:   -1.31 KCAL/MOL
REMARK 927      BINDING AFFINITY PREDICTED BY RF-SCORE:    0.00 PKD
ROOT
HETATM    1  C   UNL     1      -8.212  16.700  68.570  1.00  0.00    -0.231 C  
HETATM    2  C   UNL     1      -8.404  15.190  68.555  1.00  0.00    -0.158 C  
ENDROOT
BRANCH   2   3
HETATM    3  C   UNL     1      -9.392  14.788  67.462  1.00  0.00    -0.194 C  
BRANCH   3   4
HETATM    4  C   UNL     1      -9.535  13.270  67.275  1.00  0.00    -0.233 C  
BRANCH   4   5
HETATM    5  N   UNL     1     -10.015  12.479  68.429  1.00  0.00    -0.226 NA 
BRANCH   5   6
HETATM    6  C   UNL     1     -11.470  12.645  68.638  1.00  0.00    -0.308 C  
BRANCH   6   7
HETATM    7  C   UNL     1     -11.957  12.591  70.103  1.00  0.00    -0.377 C  
BRANCH   7   8
HETATM    8  C   UNL     1     -12.556  11.254  70.549  1.00  0.00    -0.331 C  
HETATM    9  C   UNL     1     -13.210  11.313  71.919  1.00  0.00    -0.491 C  
ENDBRANCH   7   8
ENDBRANCH   6   7
ENDBRANCH   5   6
BRANCH   5  10
HETATM   10  C   UNL     1      -9.681  11.045  68.204  1.00  0.00    -0.174 C  
BRANCH  10  11
HETATM   11  C   UNL     1      -8.254  10.578  68.633  1.00  0.00    -0.130 C  
HETATM   12  O   UNL     1      -7.564  11.554  69.414  1.00  0.00    -0.340 OA 
HETATM   13  H   UNL     1      -6.696  11.270  69.675  1.00  0.00     0.000 HD 
BRANCH  11  14
HETATM   14  C   UNL     1      -8.291   9.235  69.345  1.00  0.00    -0.127 A  
HETATM   15  C   UNL     1      -8.283   7.973  68.723  1.00  0.00    -0.126 A  
HETATM   16 CL   UNL     1      -7.685   5.494  63.326  1.00  0.00    -0.077 Cl 
HETATM   17  C   UNL     1      -7.926   5.492  66.013  1.00  0.00    -0.106 A  
HETATM   18  C   UNL     1      -8.205   6.799  69.533  1.00  0.00    -0.131 A  
HETATM   19  C   UNL     1      -8.185   5.636  68.609  1.00  0.00    -0.103 C  
HETATM   20  C   UNL     1      -8.120   6.863  70.916  1.00  0.00    -0.114 A  
HETATM   21  C   UNL     1      -8.368   4.330  68.883  1.00  0.00    -0.092 C  
HETATM   22  C   UNL     1      -8.107   6.148  67.222  1.00  0.00    -0.106 A  
HETATM   23  C   UNL     1      -8.186   8.104  71.526  1.00  0.00    -0.125 A  
HETATM   24  C   UNL     1      -8.264   7.553  67.308  1.00  0.00    -0.115 A  
HETATM   25  C   UNL     1      -7.952   6.250  64.847  1.00  0.00    -0.124 A  
HETATM   26 CL   UNL     1      -8.115   8.218  73.244  1.00  0.00    -0.238 Cl 
HETATM   27  C   UNL     1      -8.276   9.269  70.762  1.00  0.00    -0.210 A  
HETATM   28  C   UNL     1      -8.196   7.626  64.897  1.00  0.00    -0.098 A  
HETATM   29  C   UNL     1      -8.366   8.274  66.125  1.00  0.00    -0.125 A  
BRANCH  21  30
HETATM   30  C   UNL     1      -8.640   3.780  70.211  1.00  0.00    -0.103 A  
HETATM   31  C   UNL     1      -9.038   2.980  72.853  1.00  0.00    -0.087 A  
HETATM   32 CL   UNL     1      -9.241   2.563  74.509  1.00  0.00    -0.094 Cl 
HETATM   33  C   UNL     1      -7.866   2.619  72.187  1.00  0.00    -0.054 A  
HETATM   34  C   UNL     1      -9.836   4.096  70.869  1.00  0.00    -0.247 A  
HETATM   35  C   UNL     1     -10.029   3.701  72.194  1.00  0.00    -0.238 A  
HETATM   36  C   UNL     1      -7.667   3.015  70.862  1.00  0.00    -0.043 A  
ENDBRANCH  21  30
ENDBRANCH  11  14
ENDBRANCH  10  11
ENDBRANCH   5  10
ENDBRANCH   4   5
ENDBRANCH   3   4
ENDBRANCH   2   3
TORSDOF 10
ENDMDL
MODEL      109
REMARK 921   NORMALIZED FREE ENERGY PREDICTED BY IDOCK:   -3.33 KCAL/MOL
REMARK 922        TOTAL FREE ENERGY PREDICTED BY IDOCK:   -7.36 KCAL/MOL
REMARK 923 INTER-LIGAND FREE ENERGY PREDICTED BY IDOCK:   -4.38 KCAL/MOL
REMARK 924 INTRA-LIGAND FREE ENERGY PREDICTED BY IDOCK:   -2.98 KCAL/MOL
REMARK 927      BINDING AFFINITY PREDICTED BY RF-SCORE:    0.00 PKD
ROOT
HETATM    1  C   UNL     1      -9.613  10.805  65.264  1.00  0.00    -0.278 C  
HETATM    2  C   UNL     1      -9.531   9.286  65.281  1.00  0.00    -0.234 C  
ENDROOT
BRANCH   2   3
HETATM    3  C   UNL     1      -9.868   8.748  66.671  1.00  0.00    -0.335 C  
BRANCH   3   4
HETATM    4  C   UNL     1      -9.792   7.219  66.786  1.00  0.00    -0.212 C  
BRANCH   4   5
HETATM    5  N   UNL     1      -8.806   6.651  67.731  1.00  0.00    -0.115 NA 
BRANCH   5   6
HETATM    6  C   UNL     1      -9.454   5.789  68.744  1.00  0.00    -0.124 C  
BRANCH   6   7
HETATM    7  C   UNL     1     -10.972   5.994  68.941  1.00  0.00    -0.395 C  
BRANCH   7   8
HETATM    8  C   UNL     1     -11.373   6.792  70.185  1.00  0.00    -0.404 C  
HETATM    9  C   UNL     1     -10.235   6.974  71.176  1.00  0.00    -0.208 C  
ENDBRANCH   7   8
ENDBRANCH   6   7
ENDBRANCH   5   6
BRANCH   5  10
HETATM   10  C   UNL     1      -7.790   5.877  66.962  1.00  0.00    -0.102 C  
BRANCH  10  11
HETATM   11  C   UNL     1      -6.311   6.367  67.060  1.00  0.00    -0.041 C  
HETATM   12  O   UNL     1      -5.476   5.816  66.042  1.00  0.00    -0.012 OA 
HETATM   13  H   UNL     1      -4.577   6.114  66.101  1.00  0.00     0.000 HD 
BRANCH  11  14
HETATM   14  C   UNL     1      -6.220   7.885  67.080  1.00  0.00    -0.054 A  
HETATM   15  C   UNL     1      -6.223   8.694  68.231  1.00  0.00    -0.054 A  
HETATM   16 CL   UNL     1      -6.066   8.256  74.182  1.00  0.00    -0.115 Cl 
HETATM   17  C   UNL     1      -6.036   9.553  71.816  1.00  0.00     0.038 A  
HETATM   18  C   UNL     1      -6.014  10.101  68.091  1.00  0.00    -0.041 A  
HETATM   19  C   UNL     1      -6.038  10.680  69.459  1.00  0.00    -0.053 C  
HETATM   20  C   UNL     1      -5.793  10.694  66.857  1.00  0.00    -0.062 A  
HETATM   21  C   UNL     1      -6.139  11.970  69.834  1.00  0.00    -0.150 C  
HETATM   22  C   UNL     1      -6.122   9.567  70.432  1.00  0.00    -0.059 A  
HETATM   23  C   UNL     1      -5.849   9.901  65.723  1.00  0.00    -0.065 A  
HETATM   24  C   UNL     1      -6.328   8.389  69.671  1.00  0.00    -0.036 A  
HETATM   25  C   UNL     1      -6.211   8.337  72.470  1.00  0.00    -0.073 A  
HETATM   26 CL   UNL     1      -5.611  10.611  64.171  1.00  0.00    -0.115 Cl 
HETATM   27  C   UNL     1      -6.064   8.526  65.826  1.00  0.00    -0.048 A  
HETATM   28  C   UNL     1      -6.505   7.176  71.749  1.00  0.00    -0.047 A  
HETATM   29  C   UNL     1      -6.578   7.206  70.353  1.00  0.00    -0.047 A  
BRANCH  21  30
HETATM   30  C   UNL     1      -6.252  13.105  68.918  1.00  0.00    -0.088 A  
HETATM   31  C   UNL     1      -6.517  15.437  67.413  1.00  0.00    -0.080 A  
HETATM   32 CL   UNL     1      -6.700  16.920  66.561  1.00  0.00    -0.265 Cl 
HETATM   33  C   UNL     1      -7.632  14.633  67.648  1.00  0.00    -0.198 A  
HETATM   34  C   UNL     1      -5.127  13.891  68.635  1.00  0.00    -0.089 A  
HETATM   35  C   UNL     1      -5.264  15.062  67.888  1.00  0.00    -0.096 A  
HETATM   36  C   UNL     1      -7.500  13.461  68.399  1.00  0.00    -0.117 A  
ENDBRANCH  21  30
ENDBRANCH  11  14
ENDBRANCH  10  11
ENDBRANCH   5  10
ENDBRANCH   4   5
ENDBRANCH   3   4
ENDBRANCH   2   3
TORSDOF 10
ENDMDL
MODEL      110
REMARK 921   NORMALIZED FREE ENERGY PREDICTED BY IDOCK:   -3.31 KCAL/MOL
REMARK 922        TOTAL FREE ENERGY PREDICTED BY IDOCK:   -7.34 KCAL/MOL
REMARK 923 INTER-LIGAND FREE ENERGY PREDICTED BY IDOCK:   -5.20 KCAL/MOL
REMARK 924 INTRA-LIGAND FREE ENERGY PREDICTED BY IDOCK:   -2.13 KCAL/MOL
REMARK 927      BINDING AFFINITY PREDICTED BY RF-SCORE:    0.00 PKD
ROOT
HETATM    1  C   UNL     1     -12.173   8.640  71.351  1.00  0.00    -0.348 C  
HETATM    2  C   UNL     1     -12.272   7.128  71.204  1.00  0.00    -0.405 C  
ENDROOT
BRANCH   2   3
HETATM    3  C   UNL     1     -11.055   6.583  70.459  1.00  0.00    -0.375 C  
BRANCH   3   4
HETATM    4  C   UNL     1     -10.513   5.263  71.028  1.00  0.00    -0.203 C  
BRANCH   4   5
HETATM    5  N   UNL     1      -9.319   5.331  71.898  1.00  0.00    -0.141 NA 
BRANCH   5   6
HETATM    6  C   UNL     1      -9.663   5.100  73.318  1.00  0.00    -0.145 C  
BRANCH   6   7
HETATM    7  C   UNL     1     -10.936   4.266  73.582  1.00  0.00    -0.364 C  
BRANCH   7   8
HETATM    8  C   UNL     1     -10.696   2.829  74.051  1.00  0.00    -0.268 C  
HETATM    9  C   UNL     1     -11.055   1.786  73.006  1.00  0.00    -0.228 C  
ENDBRANCH   7   8
ENDBRANCH   6   7
ENDBRANCH   5   6
BRANCH   5  10
HETATM   10  C   UNL     1      -8.324   4.324  71.433  1.00  0.00    -0.090 C  
BRANCH  10  11
HETATM   11  C   UNL     1      -6.880   4.842  71.140  1.00  0.00    -0.043 C  
HETATM   12  O   UNL     1      -6.116   3.935  70.347  1.00  0.00    -0.017 OA 
HETATM   13  H   UNL     1      -5.238   4.251  70.169  1.00  0.00     0.000 HD 
BRANCH  11  14
HETATM   14  C   UNL     1      -6.896   6.231  70.520  1.00  0.00    -0.062 A  
HETATM   15  C   UNL     1      -7.498   6.580  69.298  1.00  0.00    -0.095 A  
HETATM   16 CL   UNL     1     -10.969   4.254  65.034  1.00  0.00    -0.185 Cl 
HETATM   17  C   UNL     1      -9.614   6.217  66.294  1.00  0.00    -0.123 A  
HETATM   18  C   UNL     1      -7.528   7.953  68.904  1.00  0.00    -0.094 A  
HETATM   19  C   UNL     1      -8.244   8.016  67.604  1.00  0.00    -0.124 C  
HETATM   20  C   UNL     1      -6.994   8.958  69.698  1.00  0.00    -0.054 A  
HETATM   21  C   UNL     1      -8.310   9.028  66.719  1.00  0.00    -0.115 C  
HETATM   22  C   UNL     1      -8.769   6.665  67.300  1.00  0.00    -0.118 A  
HETATM   23  C   UNL     1      -6.352   8.603  70.872  1.00  0.00    -0.044 A  
HETATM   24  C   UNL     1      -8.228   5.798  68.281  1.00  0.00    -0.108 A  
HETATM   25  C   UNL     1      -9.890   4.855  66.231  1.00  0.00    -0.209 A  
HETATM   26 CL   UNL     1      -5.650   9.824  71.866  1.00  0.00    -0.024 Cl 
HETATM   27  C   UNL     1      -6.295   7.268  71.277  1.00  0.00    -0.036 A  
HETATM   28  C   UNL     1      -9.298   3.965  67.132  1.00  0.00    -0.216 A  
HETATM   29  C   UNL     1      -8.457   4.435  68.146  1.00  0.00    -0.100 A  
BRANCH  21  30
HETATM   30  C   UNL     1      -7.652  10.326  66.875  1.00  0.00    -0.105 A  
HETATM   31  C   UNL     1      -6.308  12.703  67.439  1.00  0.00    -0.150 A  
HETATM   32 CL   UNL     1      -5.460  14.136  67.868  1.00  0.00    -0.109 Cl 
HETATM   33  C   UNL     1      -7.660  12.577  67.761  1.00  0.00    -0.138 A  
HETATM   34  C   UNL     1      -6.308  10.478  66.507  1.00  0.00    -0.094 A  
HETATM   35  C   UNL     1      -5.636  11.666  66.799  1.00  0.00    -0.134 A  
HETATM   36  C   UNL     1      -8.336  11.387  67.475  1.00  0.00    -0.137 A  
ENDBRANCH  21  30
ENDBRANCH  11  14
ENDBRANCH  10  11
ENDBRANCH   5  10
ENDBRANCH   4   5
ENDBRANCH   3   4
ENDBRANCH   2   3
TORSDOF 10
ENDMDL
MODEL      111
REMARK 921   NORMALIZED FREE ENERGY PREDICTED BY IDOCK:   -3.23 KCAL/MOL
REMARK 922        TOTAL FREE ENERGY PREDICTED BY IDOCK:   -7.20 KCAL/MOL
REMARK 923 INTER-LIGAND FREE ENERGY PREDICTED BY IDOCK:   -7.19 KCAL/MOL
REMARK 924 INTRA-LIGAND FREE ENERGY PREDICTED BY IDOCK:   -0.01 KCAL/MOL
REMARK 927      BINDING AFFINITY PREDICTED BY RF-SCORE:    0.00 PKD
ROOT
HETATM    1  C   UNL     1      -9.382   5.276  66.056  1.00  0.00    -0.167 C  
HETATM    2  C   UNL     1      -8.909   6.722  66.033  1.00  0.00    -0.150 C  
ENDROOT
BRANCH   2   3
HETATM    3  C   UNL     1      -8.130   7.010  64.751  1.00  0.00    -0.096 C  
BRANCH   3   4
HETATM    4  C   UNL     1      -6.664   7.400  64.984  1.00  0.00    -0.044 C  
BRANCH   4   5
HETATM    5  N   UNL     1      -6.265   8.788  64.663  1.00  0.00    -0.065 NA 
BRANCH   5   6
HETATM    6  C   UNL     1      -7.441   9.666  64.480  1.00  0.00    -0.128 C  
BRANCH   6   7
HETATM    7  C   UNL     1      -7.851   9.958  63.019  1.00  0.00    -0.138 C  
BRANCH   7   8
HETATM    8  C   UNL     1      -8.754  11.178  62.820  1.00  0.00    -0.228 C  
HETATM    9  C   UNL     1     -10.144  11.001  63.411  1.00  0.00    -0.424 C  
ENDBRANCH   7   8
ENDBRANCH   6   7
ENDBRANCH   5   6
BRANCH   5  10
HETATM   10  C   UNL     1      -5.394   9.305  65.757  1.00  0.00    -0.040 C  
BRANCH  10  11
HETATM   11  C   UNL     1      -6.055  10.279  66.783  1.00  0.00    -0.062 C  
HETATM   12  O   UNL     1      -6.736  11.365  66.156  1.00  0.00    -0.354 OA 
HETATM   13  H   UNL     1      -7.139  11.957  66.780  1.00  0.00     0.000 HD 
BRANCH  11  14
HETATM   14  C   UNL     1      -6.971   9.543  67.748  1.00  0.00    -0.080 A  
HETATM   15  C   UNL     1      -8.297   9.897  68.056  1.00  0.00    -0.113 A  
HETATM   16 CL   UNL     1     -12.556  13.732  66.387  1.00  0.00    -0.390 Cl 
HETATM   17  C   UNL     1     -11.538  11.638  67.749  1.00  0.00    -0.359 A  
HETATM   18  C   UNL     1      -9.069   9.038  68.897  1.00  0.00    -0.140 A  
HETATM   19  C   UNL     1     -10.418   9.647  69.018  1.00  0.00    -0.229 C  
HETATM   20  C   UNL     1      -8.557   7.853  69.407  1.00  0.00    -0.137 A  
HETATM   21  C   UNL     1     -11.406   9.358  69.886  1.00  0.00    -0.121 C  
HETATM   22  C   UNL     1     -10.480  10.817  68.113  1.00  0.00    -0.214 A  
HETATM   23  C   UNL     1      -7.234   7.538  69.147  1.00  0.00    -0.084 A  
HETATM   24  C   UNL     1      -9.166  11.007  67.618  1.00  0.00    -0.151 A  
HETATM   25  C   UNL     1     -11.272  12.713  66.907  1.00  0.00    -0.300 A  
HETATM   26 CL   UNL     1      -6.557   6.090  69.792  1.00  0.00    -0.045 Cl 
HETATM   27  C   UNL     1      -6.450   8.365  68.340  1.00  0.00    -0.059 A  
HETATM   28  C   UNL     1      -9.968  12.975  66.476  1.00  0.00    -0.262 A  
HETATM   29  C   UNL     1      -8.915  12.132  66.843  1.00  0.00    -0.201 A  
BRANCH  21  30
HETATM   30  C   UNL     1     -11.334   8.338  70.932  1.00  0.00    -0.292 A  
HETATM   31  C   UNL     1     -10.919   6.341  72.834  1.00  0.00    -0.254 A  
HETATM   32 CL   UNL     1     -10.581   5.095  73.971  1.00  0.00    -0.323 Cl 
HETATM   33  C   UNL     1     -11.477   6.016  71.597  1.00  0.00    -0.293 A  
HETATM   34  C   UNL     1     -10.822   8.665  72.195  1.00  0.00    -0.424 A  
HETATM   35  C   UNL     1     -10.607   7.662  73.142  1.00  0.00    -0.438 A  
HETATM   36  C   UNL     1     -11.689   7.017  70.645  1.00  0.00    -0.384 A  
ENDBRANCH  21  30
ENDBRANCH  11  14
ENDBRANCH  10  11
ENDBRANCH   5  10
ENDBRANCH   4   5
ENDBRANCH   3   4
ENDBRANCH   2   3
TORSDOF 10
ENDMDL
MODEL      112
REMARK 921   NORMALIZED FREE ENERGY PREDICTED BY IDOCK:   -3.23 KCAL/MOL
REMARK 922        TOTAL FREE ENERGY PREDICTED BY IDOCK:   -7.20 KCAL/MOL
REMARK 923 INTER-LIGAND FREE ENERGY PREDICTED BY IDOCK:   -5.89 KCAL/MOL
REMARK 924 INTRA-LIGAND FREE ENERGY PREDICTED BY IDOCK:   -1.31 KCAL/MOL
REMARK 927      BINDING AFFINITY PREDICTED BY RF-SCORE:    0.00 PKD
ROOT
HETATM    1  C   UNL     1     -10.286   1.562  73.109  1.00  0.00    -0.185 C  
HETATM    2  C   UNL     1     -10.094   2.045  71.678  1.00  0.00    -0.121 C  
ENDROOT
BRANCH   2   3
HETATM    3  C   UNL     1      -8.704   2.652  71.501  1.00  0.00    -0.112 C  
BRANCH   3   4
HETATM    4  C   UNL     1      -8.687   4.188  71.496  1.00  0.00    -0.107 C  
BRANCH   4   5
HETATM    5  N   UNL     1      -9.878   4.884  70.961  1.00  0.00    -0.184 NA 
BRANCH   5   6
HETATM    6  C   UNL     1     -10.568   5.669  72.009  1.00  0.00    -0.229 C  
BRANCH   6   7
HETATM    7  C   UNL     1      -9.884   5.705  73.393  1.00  0.00    -0.175 C  
BRANCH   7   8
HETATM    8  C   UNL     1      -9.575   7.102  73.938  1.00  0.00    -0.319 C  
HETATM    9  C   UNL     1      -8.173   7.228  74.512  1.00  0.00    -0.216 C  
ENDBRANCH   7   8
ENDBRANCH   6   7
ENDBRANCH   5   6
BRANCH   5  10
HETATM   10  C   UNL     1      -9.456   5.770  69.839  1.00  0.00    -0.150 C  
BRANCH  10  11
HETATM   11  C   UNL     1      -8.934   7.191  70.222  1.00  0.00    -0.152 C  
HETATM   12  O   UNL     1      -7.513   7.247  70.336  1.00  0.00    -0.080 OA 
HETATM   13  H   UNL     1      -7.196   8.111  70.569  1.00  0.00     0.000 HD 
BRANCH  11  14
HETATM   14  C   UNL     1      -9.448   8.256  69.266  1.00  0.00    -0.155 A  
HETATM   15  C   UNL     1      -9.172   8.327  67.888  1.00  0.00    -0.140 A  
HETATM   16 CL   UNL     1      -6.528   5.201  63.544  1.00  0.00    -0.026 Cl 
HETATM   17  C   UNL     1      -7.987   7.225  64.570  1.00  0.00    -0.112 A  
HETATM   18  C   UNL     1      -9.824   9.324  67.099  1.00  0.00    -0.251 A  
HETATM   19  C   UNL     1      -9.365   9.137  65.699  1.00  0.00    -0.300 C  
HETATM   20  C   UNL     1     -10.734  10.217  67.647  1.00  0.00    -0.339 A  
HETATM   21  C   UNL     1      -9.492   9.966  64.645  1.00  0.00    -0.343 C  
HETATM   22  C   UNL     1      -8.535   7.912  65.644  1.00  0.00    -0.160 A  
HETATM   23  C   UNL     1     -10.958  10.180  69.012  1.00  0.00    -0.226 A  
HETATM   24  C   UNL     1      -8.352   7.495  66.986  1.00  0.00    -0.121 A  
HETATM   25  C   UNL     1      -7.191   6.117  64.840  1.00  0.00    -0.063 A  
HETATM   26 CL   UNL     1     -12.059  11.295  69.729  1.00  0.00    -0.385 Cl 
HETATM   27  C   UNL     1     -10.327   9.225  69.811  1.00  0.00    -0.232 A  
HETATM   28  C   UNL     1      -6.922   5.737  66.159  1.00  0.00    -0.059 A  
HETATM   29  C   UNL     1      -7.490   6.435  67.229  1.00  0.00    -0.088 A  
BRANCH  21  30
HETATM   30  C   UNL     1     -10.138  11.278  64.681  1.00  0.00    -0.343 A  
HETATM   31  C   UNL     1     -11.361  13.758  65.046  1.00  0.00    -0.328 A  
HETATM   32 CL   UNL     1     -12.115  15.271  65.361  1.00  0.00     0.152 Cl 
HETATM   33  C   UNL     1     -12.144  12.613  64.895  1.00  0.00    -0.494 A  
HETATM   34  C   UNL     1      -9.359  12.439  64.783  1.00  0.00     0.406 A  
HETATM   35  C   UNL     1      -9.974  13.678  64.974  1.00  0.00    -0.205 A  
HETATM   36  C   UNL     1     -11.533  11.370  64.708  1.00  0.00    -0.056 A  
ENDBRANCH  21  30
ENDBRANCH  11  14
ENDBRANCH  10  11
ENDBRANCH   5  10
ENDBRANCH   4   5
ENDBRANCH   3   4
ENDBRANCH   2   3
TORSDOF 10
ENDMDL
MODEL      113
REMARK 921   NORMALIZED FREE ENERGY PREDICTED BY IDOCK:   -3.22 KCAL/MOL
REMARK 922        TOTAL FREE ENERGY PREDICTED BY IDOCK:   -7.18 KCAL/MOL
REMARK 923 INTER-LIGAND FREE ENERGY PREDICTED BY IDOCK:   -5.61 KCAL/MOL
REMARK 924 INTRA-LIGAND FREE ENERGY PREDICTED BY IDOCK:   -1.58 KCAL/MOL
REMARK 927      BINDING AFFINITY PREDICTED BY RF-SCORE:    0.00 PKD
ROOT
HETATM    1  C   UNL     1      -5.253   7.847  64.293  1.00  0.00    -0.036 C  
HETATM    2  C   UNL     1      -5.985   6.535  64.047  1.00  0.00    -0.030 C  
ENDROOT
BRANCH   2   3
HETATM    3  C   UNL     1      -6.794   6.135  65.280  1.00  0.00    -0.048 C  
BRANCH   3   4
HETATM    4  C   UNL     1      -6.122   6.497  66.613  1.00  0.00    -0.033 C  
BRANCH   4   5
HETATM    5  N   UNL     1      -6.867   6.204  67.857  1.00  0.00    -0.064 NA 
BRANCH   5   6
HETATM    6  C   UNL     1      -7.125   4.755  68.011  1.00  0.00    -0.062 C  
BRANCH   6   7
HETATM    7  C   UNL     1      -6.757   4.141  69.380  1.00  0.00    -0.044 C  
BRANCH   7   8
HETATM    8  C   UNL     1      -6.809   2.612  69.451  1.00  0.00    -0.033 C  
HETATM    9  C   UNL     1      -6.292   1.932  68.193  1.00  0.00    -0.025 C  
ENDBRANCH   7   8
ENDBRANCH   6   7
ENDBRANCH   5   6
BRANCH   5  10
HETATM   10  C   UNL     1      -6.090   6.721  69.019  1.00  0.00    -0.026 C  
BRANCH  10  11
HETATM   11  C   UNL     1      -6.892   7.495  70.113  1.00  0.00    -0.051 C  
HETATM   12  O   UNL     1      -6.092   7.841  71.244  1.00  0.00    -0.035 OA 
HETATM   13  H   UNL     1      -6.580   8.312  71.909  1.00  0.00     0.000 HD 
BRANCH  11  14
HETATM   14  C   UNL     1      -7.588   8.720  69.540  1.00  0.00    -0.080 A  
HETATM   15  C   UNL     1      -8.960   9.013  69.650  1.00  0.00    -0.153 A  
HETATM   16 CL   UNL     1     -13.900   7.030  72.352  1.00  0.00     0.139 Cl 
HETATM   17  C   UNL     1     -12.434   8.742  70.869  1.00  0.00    -0.050 A  
HETATM   18  C   UNL     1      -9.445  10.263  69.157  1.00  0.00    -0.225 A  
HETATM   19  C   UNL     1     -10.904  10.302  69.436  1.00  0.00    -0.282 C  
HETATM   20  C   UNL     1      -8.603  11.205  68.585  1.00  0.00    -0.151 A  
HETATM   21  C   UNL     1     -11.840  11.139  68.950  1.00  0.00    -0.406 C  
HETATM   22  C   UNL     1     -11.253   9.107  70.238  1.00  0.00    -0.249 A  
HETATM   23  C   UNL     1      -7.265  10.888  68.427  1.00  0.00    -0.087 A  
HETATM   24  C   UNL     1     -10.091   8.298  70.274  1.00  0.00    -0.195 A  
HETATM   25  C   UNL     1     -12.477   7.510  71.513  1.00  0.00    -0.346 A  
HETATM   26 CL   UNL     1      -6.197  12.023  67.692  1.00  0.00    -0.082 Cl 
HETATM   27  C   UNL     1      -6.763   9.669  68.887  1.00  0.00    -0.046 A  
HETATM   28  C   UNL     1     -11.373   6.653  71.487  1.00  0.00    -0.326 A  
HETATM   29  C   UNL     1     -10.187   7.041  70.855  1.00  0.00    -0.210 A  
BRANCH  21  30
HETATM   30  C   UNL     1     -11.586  12.224  68.001  1.00  0.00    -0.408 A  
HETATM   31  C   UNL     1     -10.814  14.219  66.212  1.00  0.00    -0.310 A  
HETATM   32 CL   UNL     1     -10.252  15.426  65.123  1.00  0.00    -0.386 Cl 
HETATM   33  C   UNL     1     -10.910  14.507  67.574  1.00  0.00    -0.289 A  
HETATM   34  C   UNL     1     -11.537  11.955  66.627  1.00  0.00    -0.337 A  
HETATM   35  C   UNL     1     -11.142  12.954  65.735  1.00  0.00    -0.312 A  
HETATM   36  C   UNL     1     -11.301  13.509  68.472  1.00  0.00    -0.327 A  
ENDBRANCH  21  30
ENDBRANCH  11  14
ENDBRANCH  10  11
ENDBRANCH   5  10
ENDBRANCH   4   5
ENDBRANCH   3   4
ENDBRANCH   2   3
TORSDOF 10
ENDMDL
MODEL      114
REMARK 921   NORMALIZED FREE ENERGY PREDICTED BY IDOCK:   -3.21 KCAL/MOL
REMARK 922        TOTAL FREE ENERGY PREDICTED BY IDOCK:   -7.17 KCAL/MOL
REMARK 923 INTER-LIGAND FREE ENERGY PREDICTED BY IDOCK:   -6.43 KCAL/MOL
REMARK 924 INTRA-LIGAND FREE ENERGY PREDICTED BY IDOCK:   -0.74 KCAL/MOL
REMARK 927      BINDING AFFINITY PREDICTED BY RF-SCORE:    0.00 PKD
ROOT
HETATM    1  C   UNL     1     -10.677   5.563  68.712  1.00  0.00    -0.195 C  
HETATM    2  C   UNL     1     -10.293   6.912  69.304  1.00  0.00    -0.212 C  
ENDROOT
BRANCH   2   3
HETATM    3  C   UNL     1      -9.076   7.486  68.582  1.00  0.00    -0.134 C  
BRANCH   3   4
HETATM    4  C   UNL     1      -8.876   8.994  68.793  1.00  0.00    -0.137 C  
BRANCH   4   5
HETATM    5  N   UNL     1      -9.767   9.913  68.051  1.00  0.00    -0.139 NA 
BRANCH   5   6
HETATM    6  C   UNL     1     -10.273   9.297  66.804  1.00  0.00    -0.255 C  
BRANCH   6   7
HETATM    7  C   UNL     1      -9.268   9.203  65.635  1.00  0.00    -0.296 C  
BRANCH   7   8
HETATM    8  C   UNL     1      -8.447  10.468  65.370  1.00  0.00    -0.173 C  
HETATM    9  C   UNL     1      -6.985  10.331  65.764  1.00  0.00    -0.128 C  
ENDBRANCH   7   8
ENDBRANCH   6   7
ENDBRANCH   5   6
BRANCH   5  10
HETATM   10  C   UNL     1     -10.900  10.308  68.935  1.00  0.00    -0.228 C  
BRANCH  10  11
HETATM   11  C   UNL     1     -11.986  11.242  68.313  1.00  0.00    -0.145 C  
HETATM   12  O   UNL     1     -13.152  11.354  69.129  1.00  0.00     0.479 OA 
HETATM   13  H   UNL     1     -13.812  11.922  68.751  1.00  0.00     0.000 HD 
BRANCH  11  14
HETATM   14  C   UNL     1     -11.422  12.613  67.974  1.00  0.00    -0.366 A  
HETATM   15  C   UNL     1     -11.356  13.714  68.846  1.00  0.00    -0.332 A  
HETATM   16 CL   UNL     1     -12.324  15.140  74.561  1.00  0.00    -0.664 Cl 
HETATM   17  C   UNL     1     -11.496  15.576  72.031  1.00  0.00    -0.515 A  
HETATM   18  C   UNL     1     -10.691  14.904  68.415  1.00  0.00    -0.245 A  
HETATM   19  C   UNL     1     -10.754  15.868  69.543  1.00  0.00    -0.288 C  
HETATM   20  C   UNL     1     -10.094  15.001  67.167  1.00  0.00    -0.239 A  
HETATM   21  C   UNL     1     -10.499  17.190  69.545  1.00  0.00    -0.122 C  
HETATM   22  C   UNL     1     -11.345  15.176  70.711  1.00  0.00    -0.341 A  
HETATM   23  C   UNL     1     -10.212  13.936  66.291  1.00  0.00    -0.297 A  
HETATM   24  C   UNL     1     -11.787  13.914  70.244  1.00  0.00    -0.360 A  
HETATM   25  C   UNL     1     -12.153  14.714  72.904  1.00  0.00    -0.095 A  
HETATM   26 CL   UNL     1      -9.509  14.037  64.721  1.00  0.00     0.649 Cl 
HETATM   27  C   UNL     1     -10.867  12.765  66.679  1.00  0.00    -0.288 A  
HETATM   28  C   UNL     1     -12.679  13.502  72.447  1.00  0.00    -0.163 A  
HETATM   29  C   UNL     1     -12.509  13.110  71.116  1.00  0.00    -0.378 A  
BRANCH  21  30
HETATM   30  C   UNL     1     -10.094  17.970  68.375  1.00  0.00    -0.392 A  
HETATM   31  C   UNL     1      -9.309  19.692  66.327  1.00  0.00    -0.383 A  
HETATM   32 CL   UNL     1      -8.828  20.823  65.123  1.00  0.00     1.094 Cl 
HETATM   33  C   UNL     1     -10.665  19.476  66.570  1.00  0.00    -0.535 A  
HETATM   34  C   UNL     1      -8.733  18.153  68.093  1.00  0.00    -0.285 A  
HETATM   35  C   UNL     1      -8.343  19.022  67.072  1.00  0.00    -0.291 A  
HETATM   36  C   UNL     1     -11.060  18.610  67.593  1.00  0.00    -0.030 A  
ENDBRANCH  21  30
ENDBRANCH  11  14
ENDBRANCH  10  11
ENDBRANCH   5  10
ENDBRANCH   4   5
ENDBRANCH   3   4
ENDBRANCH   2   3
TORSDOF 10
ENDMDL
MODEL      115
REMARK 921   NORMALIZED FREE ENERGY PREDICTED BY IDOCK:   -3.18 KCAL/MOL
REMARK 922        TOTAL FREE ENERGY PREDICTED BY IDOCK:   -7.12 KCAL/MOL
REMARK 923 INTER-LIGAND FREE ENERGY PREDICTED BY IDOCK:   -6.09 KCAL/MOL
REMARK 924 INTRA-LIGAND FREE ENERGY PREDICTED BY IDOCK:   -1.03 KCAL/MOL
REMARK 927      BINDING AFFINITY PREDICTED BY RF-SCORE:    0.00 PKD
ROOT
HETATM    1  C   UNL     1     -12.777  13.626  70.137  1.00  0.00    -0.111 C  
HETATM    2  C   UNL     1     -11.467  14.398  70.080  1.00  0.00    -0.280 C  
ENDROOT
BRANCH   2   3
HETATM    3  C   UNL     1     -11.252  14.984  68.687  1.00  0.00    -0.289 C  
BRANCH   3   4
HETATM    4  C   UNL     1     -12.035  14.267  67.578  1.00  0.00    -0.376 C  
BRANCH   4   5
HETATM    5  N   UNL     1     -11.258  13.613  66.502  1.00  0.00    -0.305 NA 
BRANCH   5   6
HETATM    6  C   UNL     1     -10.304  14.551  65.870  1.00  0.00    -0.319 C  
BRANCH   6   7
HETATM    7  C   UNL     1     -10.923  15.672  65.007  1.00  0.00    -0.445 C  
BRANCH   7   8
HETATM    8  C   UNL     1     -10.623  17.100  65.470  1.00  0.00    -0.160 C  
HETATM    9  C   UNL     1      -9.438  17.190  66.418  1.00  0.00    -0.290 C  
ENDBRANCH   7   8
ENDBRANCH   6   7
ENDBRANCH   5   6
BRANCH   5  10
HETATM   10  C   UNL     1     -10.537  12.440  67.072  1.00  0.00    -0.225 C  
BRANCH  10  11
HETATM   11  C   UNL     1     -10.342  11.209  66.131  1.00  0.00    -0.250 C  
HETATM   12  O   UNL     1      -9.525  11.502  64.998  1.00  0.00    -0.301 OA 
HETATM   13  H   UNL     1      -9.406  10.753  64.426  1.00  0.00     0.000 HD 
BRANCH  11  14
HETATM   14  C   UNL     1      -9.813  10.001  66.888  1.00  0.00    -0.248 A  
HETATM   15  C   UNL     1      -8.769  10.012  67.830  1.00  0.00    -0.125 A  
HETATM   16 CL   UNL     1      -5.233  13.830  70.755  1.00  0.00    -0.111 Cl 
HETATM   17  C   UNL     1      -6.274  11.413  70.163  1.00  0.00    -0.138 A  
HETATM   18  C   UNL     1      -8.463   8.812  68.544  1.00  0.00    -0.130 A  
HETATM   19  C   UNL     1      -7.352   9.134  69.476  1.00  0.00    -0.068 C  
HETATM   20  C   UNL     1      -9.176   7.638  68.349  1.00  0.00    -0.140 A  
HETATM   21  C   UNL     1      -6.556   8.298  70.169  1.00  0.00    -0.036 C  
HETATM   22  C   UNL     1      -7.097  10.591  69.407  1.00  0.00    -0.110 A  
HETATM   23  C   UNL     1     -10.164   7.617  67.380  1.00  0.00    -0.251 A  
HETATM   24  C   UNL     1      -7.892  11.084  68.343  1.00  0.00    -0.127 A  
HETATM   25  C   UNL     1      -6.200  12.759  69.820  1.00  0.00    -0.108 A  
HETATM   26 CL   UNL     1     -11.047   6.166  67.090  1.00  0.00    -0.395 Cl 
HETATM   27  C   UNL     1     -10.477   8.770  66.657  1.00  0.00    -0.240 A  
HETATM   28  C   UNL     1      -6.906  13.253  68.718  1.00  0.00    -0.102 A  
HETATM   29  C   UNL     1      -7.739  12.413  67.973  1.00  0.00    -0.135 A  
BRANCH  21  30
HETATM   30  C   UNL     1      -6.635   6.837  70.132  1.00  0.00    -0.044 A  
HETATM   31  C   UNL     1      -6.546   4.052  70.237  1.00  0.00    -0.032 A  
HETATM   32 CL   UNL     1      -6.416   2.341  70.351  1.00  0.00    -0.027 Cl 
HETATM   33  C   UNL     1      -5.886   4.729  69.211  1.00  0.00    -0.017 A  
HETATM   34  C   UNL     1      -7.337   6.149  71.130  1.00  0.00    -0.084 A  
HETATM   35  C   UNL     1      -7.284   4.755  71.185  1.00  0.00    -0.052 A  
HETATM   36  C   UNL     1      -5.933   6.125  69.155  1.00  0.00    -0.024 A  
ENDBRANCH  21  30
ENDBRANCH  11  14
ENDBRANCH  10  11
ENDBRANCH   5  10
ENDBRANCH   4   5
ENDBRANCH   3   4
ENDBRANCH   2   3
TORSDOF 10
ENDMDL
MODEL      116
REMARK 921   NORMALIZED FREE ENERGY PREDICTED BY IDOCK:   -3.08 KCAL/MOL
REMARK 922        TOTAL FREE ENERGY PREDICTED BY IDOCK:   -6.97 KCAL/MOL
REMARK 923 INTER-LIGAND FREE ENERGY PREDICTED BY IDOCK:   -5.92 KCAL/MOL
REMARK 924 INTRA-LIGAND FREE ENERGY PREDICTED BY IDOCK:   -1.05 KCAL/MOL
REMARK 927      BINDING AFFINITY PREDICTED BY RF-SCORE:    0.00 PKD
ROOT
HETATM    1  C   UNL     1     -10.964   6.367  70.167  1.00  0.00    -0.395 C  
HETATM    2  C   UNL     1      -9.506   6.144  70.544  1.00  0.00    -0.182 C  
ENDROOT
BRANCH   2   3
HETATM    3  C   UNL     1      -8.838   7.470  70.901  1.00  0.00    -0.144 C  
BRANCH   3   4
HETATM    4  C   UNL     1      -7.303   7.419  70.900  1.00  0.00    -0.073 C  
BRANCH   4   5
HETATM    5  N   UNL     1      -6.577   8.604  71.406  1.00  0.00    -0.066 NA 
BRANCH   5   6
HETATM    6  C   UNL     1      -6.352   8.525  72.867  1.00  0.00    -0.084 C  
BRANCH   6   7
HETATM    7  C   UNL     1      -5.684   7.231  73.382  1.00  0.00    -0.049 C  
BRANCH   7   8
HETATM    8  C   UNL     1      -6.422   6.517  74.518  1.00  0.00    -0.081 C  
HETATM    9  C   UNL     1      -7.913   6.811  74.547  1.00  0.00    -0.143 C  
ENDBRANCH   7   8
ENDBRANCH   6   7
ENDBRANCH   5   6
BRANCH   5  10
HETATM   10  C   UNL     1      -5.278   8.720  70.684  1.00  0.00    -0.020 C  
BRANCH  10  11
HETATM   11  C   UNL     1      -5.348   8.886  69.133  1.00  0.00    -0.036 C  
HETATM   12  O   UNL     1      -5.538   7.647  68.452  1.00  0.00    -0.026 OA 
HETATM   13  H   UNL     1      -5.580   7.748  67.508  1.00  0.00     0.000 HD 
BRANCH  11  14
HETATM   14  C   UNL     1      -6.401   9.903  68.722  1.00  0.00    -0.045 A  
HETATM   15  C   UNL     1      -7.604   9.617  68.053  1.00  0.00    -0.083 A  
HETATM   16 CL   UNL     1     -10.868   4.971  66.209  1.00  0.00    -0.277 Cl 
HETATM   17  C   UNL     1     -10.353   7.580  66.666  1.00  0.00    -0.252 A  
HETATM   18  C   UNL     1      -8.547  10.669  67.837  1.00  0.00    -0.124 A  
HETATM   19  C   UNL     1      -9.716  10.068  67.144  1.00  0.00    -0.217 C  
HETATM   20  C   UNL     1      -8.320  11.963  68.283  1.00  0.00    -0.159 A  
HETATM   21  C   UNL     1     -10.735  10.680  66.512  1.00  0.00    -0.218 C  
HETATM   22  C   UNL     1      -9.512   8.603  67.079  1.00  0.00    -0.221 A  
HETATM   23  C   UNL     1      -7.110  12.252  68.890  1.00  0.00    -0.088 A  
HETATM   24  C   UNL     1      -8.195   8.364  67.544  1.00  0.00    -0.125 A  
HETATM   25  C   UNL     1      -9.852   6.282  66.666  1.00  0.00    -0.154 A  
HETATM   26 CL   UNL     1      -6.783  13.856  69.426  1.00  0.00    -0.114 Cl 
HETATM   27  C   UNL     1      -6.163  11.248  69.102  1.00  0.00    -0.058 A  
HETATM   28  C   UNL     1      -8.527   6.029  67.034  1.00  0.00    -0.108 A  
HETATM   29  C   UNL     1      -7.696   7.071  67.458  1.00  0.00    -0.111 A  
BRANCH  21  30
HETATM   30  C   UNL     1     -10.893  12.128  66.378  1.00  0.00    -0.306 A  
HETATM   31  C   UNL     1     -10.942  14.915  66.277  1.00  0.00    -0.338 A  
HETATM   32 CL   UNL     1     -10.898  16.634  66.267  1.00  0.00    -0.101 Cl 
HETATM   33  C   UNL     1     -11.605  14.246  67.305  1.00  0.00    -0.401 A  
HETATM   34  C   UNL     1     -10.272  12.805  65.319  1.00  0.00    -0.296 A  
HETATM   35  C   UNL     1     -10.291  14.200  65.276  1.00  0.00    -0.409 A  
HETATM   36  C   UNL     1     -11.586  12.849  67.355  1.00  0.00    -0.414 A  
ENDBRANCH  21  30
ENDBRANCH  11  14
ENDBRANCH  10  11
ENDBRANCH   5  10
ENDBRANCH   4   5
ENDBRANCH   3   4
ENDBRANCH   2   3
TORSDOF 10
ENDMDL
MODEL      117
REMARK 921   NORMALIZED FREE ENERGY PREDICTED BY IDOCK:   -2.94 KCAL/MOL
REMARK 922        TOTAL FREE ENERGY PREDICTED BY IDOCK:   -6.75 KCAL/MOL
REMARK 923 INTER-LIGAND FREE ENERGY PREDICTED BY IDOCK:   -6.01 KCAL/MOL
REMARK 924 INTRA-LIGAND FREE ENERGY PREDICTED BY IDOCK:   -0.74 KCAL/MOL
REMARK 927      BINDING AFFINITY PREDICTED BY RF-SCORE:    0.00 PKD
ROOT
HETATM    1  C   UNL     1      -6.539  12.993  67.627  1.00  0.00    -0.160 C  
HETATM    2  C   UNL     1      -6.764  12.085  68.828  1.00  0.00    -0.087 C  
ENDROOT
BRANCH   2   3
HETATM    3  C   UNL     1      -8.245  11.737  68.965  1.00  0.00     0.150 C  
BRANCH   3   4
HETATM    4  C   UNL     1      -8.577  10.272  68.646  1.00  0.00    -0.128 C  
BRANCH   4   5
HETATM    5  N   UNL     1      -9.875   9.988  67.996  1.00  0.00    -0.140 NA 
BRANCH   5   6
HETATM    6  C   UNL     1      -9.994   8.564  67.612  1.00  0.00    -0.198 C  
BRANCH   6   7
HETATM    7  C   UNL     1      -9.410   8.181  66.234  1.00  0.00    -0.259 C  
BRANCH   7   8
HETATM    8  C   UNL     1      -8.265   7.165  66.265  1.00  0.00    -0.124 C  
HETATM    9  C   UNL     1      -6.896   7.793  66.065  1.00  0.00    -0.057 C  
ENDBRANCH   7   8
ENDBRANCH   6   7
ENDBRANCH   5   6
BRANCH   5  10
HETATM   10  C   UNL     1     -10.975  10.371  68.926  1.00  0.00    -0.245 C  
BRANCH  10  11
HETATM   11  C   UNL     1     -12.101  11.285  68.346  1.00  0.00    -0.040 C  
HETATM   12  O   UNL     1     -13.228  11.392  69.214  1.00  0.00     0.678 OA 
HETATM   13  H   UNL     1     -13.913  11.948  68.861  1.00  0.00     0.000 HD 
BRANCH  11  14
HETATM   14  C   UNL     1     -11.571  12.659  67.966  1.00  0.00    -0.394 A  
HETATM   15  C   UNL     1     -11.486  13.774  68.819  1.00  0.00    -0.338 A  
HETATM   16 CL   UNL     1     -12.251  15.267  74.548  1.00  0.00    -0.713 Cl 
HETATM   17  C   UNL     1     -11.529  15.678  71.981  1.00  0.00    -0.495 A  
HETATM   18  C   UNL     1     -10.857  14.966  68.346  1.00  0.00    -0.252 A  
HETATM   19  C   UNL     1     -10.889  15.945  69.462  1.00  0.00    -0.305 C  
HETATM   20  C   UNL     1     -10.310  15.054  67.074  1.00  0.00    -0.269 A  
HETATM   21  C   UNL     1     -10.654  17.271  69.436  1.00  0.00    -0.079 C  
HETATM   22  C   UNL     1     -11.424  15.262  70.662  1.00  0.00    -0.353 A  
HETATM   23  C   UNL     1     -10.447  13.974  66.218  1.00  0.00    -0.286 A  
HETATM   24  C   UNL     1     -11.866  13.987  70.230  1.00  0.00    -0.373 A  
HETATM   25  C   UNL     1     -12.139  14.820  72.891  1.00  0.00    -0.183 A  
HETATM   26 CL   UNL     1      -9.809  14.063  64.620  1.00  0.00     0.023 Cl 
HETATM   27  C   UNL     1     -11.069  12.801  66.647  1.00  0.00    -0.313 A  
HETATM   28  C   UNL     1     -12.664  13.594  72.472  1.00  0.00    -0.180 A  
HETATM   29  C   UNL     1     -12.540  13.186  71.141  1.00  0.00    -0.403 A  
BRANCH  21  30
HETATM   30  C   UNL     1     -10.306  18.040  68.240  1.00  0.00    -0.389 A  
HETATM   31  C   UNL     1      -9.501  19.692  66.143  1.00  0.00    -0.369 A  
HETATM   32 CL   UNL     1      -8.968  20.767  64.911  1.00  0.00     1.376 Cl 
HETATM   33  C   UNL     1     -10.735  19.904  66.760  1.00  0.00    -0.464 A  
HETATM   34  C   UNL     1      -9.092  17.801  67.583  1.00  0.00    -0.246 A  
HETATM   35  C   UNL     1      -8.688  18.635  66.539  1.00  0.00    -0.312 A  
HETATM   36  C   UNL     1     -11.141  19.075  67.808  1.00  0.00    -0.088 A  
ENDBRANCH  21  30
ENDBRANCH  11  14
ENDBRANCH  10  11
ENDBRANCH   5  10
ENDBRANCH   4   5
ENDBRANCH   3   4
ENDBRANCH   2   3
TORSDOF 10
ENDMDL
MODEL      118
REMARK 921   NORMALIZED FREE ENERGY PREDICTED BY IDOCK:   -2.75 KCAL/MOL
REMARK 922        TOTAL FREE ENERGY PREDICTED BY IDOCK:   -6.44 KCAL/MOL
REMARK 923 INTER-LIGAND FREE ENERGY PREDICTED BY IDOCK:   -6.89 KCAL/MOL
REMARK 924 INTRA-LIGAND FREE ENERGY PREDICTED BY IDOCK:    0.45 KCAL/MOL
REMARK 927      BINDING AFFINITY PREDICTED BY RF-SCORE:    0.00 PKD
ROOT
HETATM    1  C   UNL     1      -6.570  12.380  68.025  1.00  0.00    -0.081 C  
HETATM    2  C   UNL     1      -7.488  13.528  67.629  1.00  0.00    -0.187 C  
ENDROOT
BRANCH   2   3
HETATM    3  C   UNL     1      -8.940  13.189  67.960  1.00  0.00    -0.195 C  
BRANCH   3   4
HETATM    4  C   UNL     1      -9.515  13.982  69.142  1.00  0.00     0.236 C  
BRANCH   4   5
HETATM    5  N   UNL     1     -10.932  14.399  69.064  1.00  0.00    -0.249 NA 
BRANCH   5   6
HETATM    6  C   UNL     1     -11.178  15.282  67.902  1.00  0.00    -0.331 C  
BRANCH   6   7
HETATM    7  C   UNL     1     -10.119  16.376  67.643  1.00  0.00    -0.263 C  
BRANCH   7   8
HETATM    8  C   UNL     1      -9.463  16.343  66.260  1.00  0.00    -0.347 C  
HETATM    9  C   UNL     1     -10.436  16.613  65.125  1.00  0.00    -0.117 C  
ENDBRANCH   7   8
ENDBRANCH   6   7
ENDBRANCH   5   6
BRANCH   5  10
HETATM   10  C   UNL     1     -11.790  13.183  68.986  1.00  0.00    -0.313 C  
BRANCH  10  11
HETATM   11  C   UNL     1     -11.819  12.260  70.245  1.00  0.00    -0.240 C  
HETATM   12  O   UNL     1     -13.139  12.032  70.734  1.00  0.00     0.008 OA 
HETATM   13  H   UNL     1     -13.157  11.470  71.500  1.00  0.00     0.000 HD 
BRANCH  11  14
HETATM   14  C   UNL     1     -11.093  10.946  69.996  1.00  0.00    -0.285 A  
HETATM   15  C   UNL     1     -10.738  10.428  68.738  1.00  0.00    -0.255 A  
HETATM   16 CL   UNL     1     -10.709  11.942  62.964  1.00  0.00    -0.266 Cl 
HETATM   17  C   UNL     1     -10.161  10.377  65.092  1.00  0.00    -0.326 A  
HETATM   18  C   UNL     1      -9.955   9.234  68.673  1.00  0.00    -0.193 A  
HETATM   19  C   UNL     1      -9.715   8.950  67.235  1.00  0.00    -0.235 C  
HETATM   20  C   UNL     1      -9.519   8.578  69.815  1.00  0.00    -0.166 A  
HETATM   21  C   UNL     1      -9.255   7.825  66.656  1.00  0.00    -0.220 C  
HETATM   22  C   UNL     1     -10.250  10.082  66.445  1.00  0.00    -0.290 A  
HETATM   23  C   UNL     1      -9.920   9.060  71.050  1.00  0.00    -0.279 A  
HETATM   24  C   UNL     1     -10.946  10.912  67.359  1.00  0.00    -0.353 A  
HETATM   25  C   UNL     1     -10.827  11.505  64.623  1.00  0.00    -0.310 A  
HETATM   26 CL   UNL     1      -9.422   8.249  72.487  1.00  0.00    -0.335 Cl 
HETATM   27  C   UNL     1     -10.696  10.216  71.144  1.00  0.00     0.228 A  
HETATM   28  C   UNL     1     -11.594  12.291  65.488  1.00  0.00    -0.422 A  
HETATM   29  C   UNL     1     -11.665  11.986  66.851  1.00  0.00    -0.342 A  
BRANCH  21  30
HETATM   30  C   UNL     1      -8.888   6.602  67.371  1.00  0.00    -0.116 A  
HETATM   31  C   UNL     1      -8.157   4.144  68.466  1.00  0.00    -0.076 A  
HETATM   32 CL   UNL     1      -7.704   2.593  69.057  1.00  0.00    -0.046 Cl 
HETATM   33  C   UNL     1      -9.505   4.438  68.258  1.00  0.00    -0.210 A  
HETATM   34  C   UNL     1      -7.539   6.320  67.629  1.00  0.00    -0.097 A  
HETATM   35  C   UNL     1      -7.176   5.085  68.169  1.00  0.00    -0.063 A  
HETATM   36  C   UNL     1      -9.873   5.671  67.714  1.00  0.00    -0.153 A  
ENDBRANCH  21  30
ENDBRANCH  11  14
ENDBRANCH  10  11
ENDBRANCH   5  10
ENDBRANCH   4   5
ENDBRANCH   3   4
ENDBRANCH   2   3
TORSDOF 10
ENDMDL
MODEL      119
REMARK 921   NORMALIZED FREE ENERGY PREDICTED BY IDOCK:   -2.67 KCAL/MOL
REMARK 922        TOTAL FREE ENERGY PREDICTED BY IDOCK:   -6.31 KCAL/MOL
REMARK 923 INTER-LIGAND FREE ENERGY PREDICTED BY IDOCK:   -4.96 KCAL/MOL
REMARK 924 INTRA-LIGAND FREE ENERGY PREDICTED BY IDOCK:   -1.35 KCAL/MOL
REMARK 927      BINDING AFFINITY PREDICTED BY RF-SCORE:    0.00 PKD
ROOT
HETATM    1  C   UNL     1     -10.296  18.134  67.980  1.00  0.00    -0.405 C  
HETATM    2  C   UNL     1     -11.028  16.802  68.059  1.00  0.00    -0.296 C  
ENDROOT
BRANCH   2   3
HETATM    3  C   UNL     1     -10.048  15.643  67.893  1.00  0.00    -0.225 C  
BRANCH   3   4
HETATM    4  C   UNL     1     -10.488  14.346  68.588  1.00  0.00    -0.247 C  
BRANCH   4   5
HETATM    5  N   UNL     1     -10.723  13.158  67.737  1.00  0.00    -0.236 NA 
BRANCH   5   6
HETATM    6  C   UNL     1     -10.308  13.398  66.337  1.00  0.00    -0.288 C  
BRANCH   6   7
HETATM    7  C   UNL     1     -11.259  12.860  65.245  1.00  0.00    -0.319 C  
BRANCH   7   8
HETATM    8  C   UNL     1     -12.692  13.397  65.297  1.00  0.00    -0.481 C  
HETATM    9  C   UNL     1     -13.022  14.344  64.156  1.00  0.00     0.699 C  
ENDBRANCH   7   8
ENDBRANCH   6   7
ENDBRANCH   5   6
BRANCH   5  10
HETATM   10  C   UNL     1      -9.981  12.000  68.310  1.00  0.00    -0.203 C  
BRANCH  10  11
HETATM   11  C   UNL     1     -10.835  10.784  68.790  1.00  0.00    -0.221 C  
HETATM   12  O   UNL     1     -11.619  10.211  67.744  1.00  0.00    -0.627 OA 
HETATM   13  H   UNL     1     -12.138   9.471  68.036  1.00  0.00     0.000 HD 
BRANCH  11  14
HETATM   14  C   UNL     1      -9.978   9.729  69.473  1.00  0.00    -0.230 A  
HETATM   15  C   UNL     1      -8.982   8.952  68.855  1.00  0.00    -0.137 A  
HETATM   16 CL   UNL     1      -6.097   8.432  63.655  1.00  0.00    -0.072 Cl 
HETATM   17  C   UNL     1      -6.600   7.878  66.247  1.00  0.00    -0.050 A  
HETATM   18  C   UNL     1      -8.182   8.081  69.658  1.00  0.00    -0.121 A  
HETATM   19  C   UNL     1      -7.210   7.424  68.748  1.00  0.00    -0.090 C  
HETATM   20  C   UNL     1      -8.346   7.990  71.033  1.00  0.00    -0.120 A  
HETATM   21  C   UNL     1      -6.424   6.354  68.973  1.00  0.00    -0.043 C  
HETATM   22  C   UNL     1      -7.351   8.030  67.404  1.00  0.00    -0.089 A  
HETATM   23  C   UNL     1      -9.366   8.713  71.627  1.00  0.00    -0.263 A  
HETATM   24  C   UNL     1      -8.486   8.877  67.467  1.00  0.00    -0.116 A  
HETATM   25  C   UNL     1      -7.019   8.548  65.102  1.00  0.00    -0.075 A  
HETATM   26 CL   UNL     1      -9.618   8.598  73.328  1.00  0.00     0.121 Cl 
HETATM   27  C   UNL     1     -10.173   9.562  70.867  1.00  0.00    -0.356 A  
HETATM   28  C   UNL     1      -8.186   9.318  65.114  1.00  0.00    -0.143 A  
HETATM   29  C   UNL     1      -8.926   9.470  66.291  1.00  0.00    -0.188 A  
BRANCH  21  30
HETATM   30  C   UNL     1      -6.379   5.593  70.222  1.00  0.00    -0.027 A  
HETATM   31  C   UNL     1      -6.127   3.943  72.456  1.00  0.00    -0.009 A  
HETATM   32 CL   UNL     1      -5.926   2.866  73.781  1.00  0.00    -0.003 Cl 
HETATM   33  C   UNL     1      -7.217   3.789  71.599  1.00  0.00    -0.039 A  
HETATM   34  C   UNL     1      -5.313   5.775  71.114  1.00  0.00    -0.013 A  
HETATM   35  C   UNL     1      -5.185   4.942  72.227  1.00  0.00    -0.005 A  
HETATM   36  C   UNL     1      -7.347   4.618  70.481  1.00  0.00    -0.050 A  
ENDBRANCH  21  30
ENDBRANCH  11  14
ENDBRANCH  10  11
ENDBRANCH   5  10
ENDBRANCH   4   5
ENDBRANCH   3   4
ENDBRANCH   2   3
TORSDOF 10
ENDMDL
MODEL      120
REMARK 921   NORMALIZED FREE ENERGY PREDICTED BY IDOCK:   -2.59 KCAL/MOL
REMARK 922        TOTAL FREE ENERGY PREDICTED BY IDOCK:   -6.18 KCAL/MOL
REMARK 923 INTER-LIGAND FREE ENERGY PREDICTED BY IDOCK:   -6.03 KCAL/MOL
REMARK 924 INTRA-LIGAND FREE ENERGY PREDICTED BY IDOCK:   -0.15 KCAL/MOL
REMARK 927      BINDING AFFINITY PREDICTED BY RF-SCORE:    0.00 PKD
ROOT
HETATM    1  C   UNL     1      -6.451  16.488  69.459  1.00  0.00    -0.223 C  
HETATM    2  C   UNL     1      -6.157  15.831  68.118  1.00  0.00    -0.133 C  
ENDROOT
BRANCH   2   3
HETATM    3  C   UNL     1      -6.553  14.357  68.147  1.00  0.00    -0.133 C  
BRANCH   3   4
HETATM    4  C   UNL     1      -8.067  14.116  68.245  1.00  0.00    -0.146 C  
BRANCH   4   5
HETATM    5  N   UNL     1      -8.593  12.836  67.723  1.00  0.00    -0.172 NA 
BRANCH   5   6
HETATM    6  C   UNL     1      -9.338  13.025  66.460  1.00  0.00    -0.217 C  
BRANCH   6   7
HETATM    7  C   UNL     1     -10.197  11.830  65.991  1.00  0.00    -0.265 C  
BRANCH   7   8
HETATM    8  C   UNL     1     -11.314  12.171  65.000  1.00  0.00    -0.379 C  
HETATM    9  C   UNL     1     -11.349  11.250  63.792  1.00  0.00    -0.153 C  
ENDBRANCH   7   8
ENDBRANCH   6   7
ENDBRANCH   5   6
BRANCH   5  10
HETATM   10  C   UNL     1      -7.456  11.893  67.522  1.00  0.00    -0.136 C  
BRANCH  10  11
HETATM   11  C   UNL     1      -7.399  10.648  68.462  1.00  0.00    -0.090 C  
HETATM   12  O   UNL     1      -8.312  10.737  69.555  1.00  0.00    -0.365 OA 
HETATM   13  H   UNL     1      -8.277   9.979  70.127  1.00  0.00     0.000 HD 
BRANCH  11  14
HETATM   14  C   UNL     1      -7.593   9.351  67.691  1.00  0.00    -0.088 A  
HETATM   15  C   UNL     1      -8.481   8.315  68.034  1.00  0.00    -0.132 A  
HETATM   16 CL   UNL     1     -12.831   7.066  71.926  1.00  0.00    -0.335 Cl 
HETATM   17  C   UNL     1     -11.253   6.618  69.785  1.00  0.00    -0.413 A  
HETATM   18  C   UNL     1      -8.634   7.207  67.145  1.00  0.00    -0.121 A  
HETATM   19  C   UNL     1      -9.644   6.302  67.749  1.00  0.00    -0.118 C  
HETATM   20  C   UNL     1      -7.945   7.128  65.943  1.00  0.00    -0.116 A  
HETATM   21  C   UNL     1      -9.945   5.029  67.430  1.00  0.00    -0.214 C  
HETATM   22  C   UNL     1     -10.200   6.966  68.951  1.00  0.00    -0.184 A  
HETATM   23  C   UNL     1      -7.030   8.121  65.638  1.00  0.00    -0.066 A  
HETATM   24  C   UNL     1      -9.419   8.130  69.159  1.00  0.00    -0.155 A  
HETATM   25  C   UNL     1     -11.508   7.425  70.889  1.00  0.00    -0.286 A  
HETATM   26 CL   UNL     1      -6.135   8.037  64.168  1.00  0.00    -0.057 Cl 
HETATM   27  C   UNL     1      -6.849   9.210  66.493  1.00  0.00    -0.080 A  
HETATM   28  C   UNL     1     -10.696   8.529  71.167  1.00  0.00    -0.290 A  
HETATM   29  C   UNL     1      -9.645   8.872  70.311  1.00  0.00    -0.212 A  
BRANCH  21  30
HETATM   30  C   UNL     1      -9.296   4.253  66.372  1.00  0.00    -0.170 A  
HETATM   31  C   UNL     1      -7.903   3.019  64.295  1.00  0.00    -0.078 A  
HETATM   32 CL   UNL     1      -7.004   2.337  62.998  1.00  0.00    -0.031 Cl 
HETATM   33  C   UNL     1      -9.127   3.638  64.039  1.00  0.00    -0.119 A  
HETATM   34  C   UNL     1      -8.092   3.585  66.633  1.00  0.00    -0.092 A  
HETATM   35  C   UNL     1      -7.393   2.975  65.589  1.00  0.00    -0.072 A  
HETATM   36  C   UNL     1      -9.828   4.254  65.079  1.00  0.00    -0.198 A  
ENDBRANCH  21  30
ENDBRANCH  11  14
ENDBRANCH  10  11
ENDBRANCH   5  10
ENDBRANCH   4   5
ENDBRANCH   3   4
ENDBRANCH   2   3
TORSDOF 10
ENDMDL
MODEL      121
REMARK 921   NORMALIZED FREE ENERGY PREDICTED BY IDOCK:   -2.58 KCAL/MOL
REMARK 922        TOTAL FREE ENERGY PREDICTED BY IDOCK:   -6.17 KCAL/MOL
REMARK 923 INTER-LIGAND FREE ENERGY PREDICTED BY IDOCK:   -4.20 KCAL/MOL
REMARK 924 INTRA-LIGAND FREE ENERGY PREDICTED BY IDOCK:   -1.97 KCAL/MOL
REMARK 927      BINDING AFFINITY PREDICTED BY RF-SCORE:    0.00 PKD
ROOT
HETATM    1  C   UNL     1     -13.752   8.572  73.304  1.00  0.00     0.883 C  
HETATM    2  C   UNL     1     -14.290   9.092  71.978  1.00  0.00    -0.327 C  
ENDROOT
BRANCH   2   3
HETATM    3  C   UNL     1     -13.636  10.425  71.622  1.00  0.00    -0.211 C  
BRANCH   3   4
HETATM    4  C   UNL     1     -13.407  10.628  70.117  1.00  0.00     0.487 C  
BRANCH   4   5
HETATM    5  N   UNL     1     -12.173  11.328  69.699  1.00  0.00    -0.298 NA 
BRANCH   5   6
HETATM    6  C   UNL     1     -11.131  10.378  69.251  1.00  0.00    -0.253 C  
BRANCH   6   7
HETATM    7  C   UNL     1     -10.237   9.776  70.357  1.00  0.00    -0.343 C  
BRANCH   7   8
HETATM    8  C   UNL     1      -9.087   8.893  69.867  1.00  0.00    -0.166 C  
HETATM    9  C   UNL     1      -7.769   9.172  70.570  1.00  0.00    -0.142 C  
ENDBRANCH   7   8
ENDBRANCH   6   7
ENDBRANCH   5   6
BRANCH   5  10
HETATM   10  C   UNL     1     -12.506  12.288  68.610  1.00  0.00     0.677 C  
BRANCH  10  11
HETATM   11  C   UNL     1     -11.455  12.449  67.467  1.00  0.00    -0.346 C  
HETATM   12  O   UNL     1     -12.042  12.837  66.225  1.00  0.00    -0.466 OA 
HETATM   13  H   UNL     1     -11.402  12.936  65.530  1.00  0.00     0.000 HD 
BRANCH  11  14
HETATM   14  C   UNL     1     -10.334  13.399  67.862  1.00  0.00    -0.238 A  
HETATM   15  C   UNL     1      -8.957  13.127  67.777  1.00  0.00    -0.194 A  
HETATM   16 CL   UNL     1      -5.191   8.981  65.711  1.00  0.00    -0.039 Cl 
HETATM   17  C   UNL     1      -5.869  11.351  66.806  1.00  0.00    -0.135 A  
HETATM   18  C   UNL     1      -8.023  14.165  68.079  1.00  0.00    -0.149 A  
HETATM   19  C   UNL     1      -6.665  13.599  67.875  1.00  0.00    -0.156 C  
HETATM   20  C   UNL     1      -8.433  15.441  68.439  1.00  0.00    -0.160 A  
HETATM   21  C   UNL     1      -5.473  14.091  68.262  1.00  0.00    -0.112 C  
HETATM   22  C   UNL     1      -6.811  12.241  67.303  1.00  0.00    -0.140 A  
HETATM   23  C   UNL     1      -9.788  15.687  68.577  1.00  0.00    -0.205 A  
HETATM   24  C   UNL     1      -8.194  11.939  67.343  1.00  0.00    -0.164 A  
HETATM   25  C   UNL     1      -6.310  10.102  66.381  1.00  0.00    -0.077 A  
HETATM   26 CL   UNL     1     -10.329  17.252  69.055  1.00  0.00    -0.343 Cl 
HETATM   27  C   UNL     1     -10.724  14.688  68.302  1.00  0.00    -0.240 A  
HETATM   28  C   UNL     1      -7.658   9.746  66.492  1.00  0.00    -0.098 A  
HETATM   29  C   UNL     1      -8.595  10.659  66.986  1.00  0.00    -0.128 A  
BRANCH  21  30
HETATM   30  C   UNL     1      -5.278  15.339  69.000  1.00  0.00    -0.098 A  
HETATM   31  C   UNL     1      -5.203  17.739  70.418  1.00  0.00    -0.262 A  
HETATM   32 CL   UNL     1      -5.248  19.223  71.287  1.00  0.00    -0.281 Cl 
HETATM   33  C   UNL     1      -5.173  17.756  69.023  1.00  0.00    -0.176 A  
HETATM   34  C   UNL     1      -5.256  15.328  70.402  1.00  0.00    -0.124 A  
HETATM   35  C   UNL     1      -5.227  16.532  71.108  1.00  0.00    -0.073 A  
HETATM   36  C   UNL     1      -5.206  16.554  68.311  1.00  0.00    -0.105 A  
ENDBRANCH  21  30
ENDBRANCH  11  14
ENDBRANCH  10  11
ENDBRANCH   5  10
ENDBRANCH   4   5
ENDBRANCH   3   4
ENDBRANCH   2   3
TORSDOF 10
ENDMDL
MODEL      122
REMARK 921   NORMALIZED FREE ENERGY PREDICTED BY IDOCK:   -2.54 KCAL/MOL
REMARK 922        TOTAL FREE ENERGY PREDICTED BY IDOCK:   -6.11 KCAL/MOL
REMARK 923 INTER-LIGAND FREE ENERGY PREDICTED BY IDOCK:   -4.34 KCAL/MOL
REMARK 924 INTRA-LIGAND FREE ENERGY PREDICTED BY IDOCK:   -1.76 KCAL/MOL
REMARK 927      BINDING AFFINITY PREDICTED BY RF-SCORE:    0.00 PKD
ROOT
HETATM    1  C   UNL     1     -14.332   9.682  70.460  1.00  0.00     1.123 C  
HETATM    2  C   UNL     1     -13.411   9.646  71.672  1.00  0.00    -0.455 C  
ENDROOT
BRANCH   2   3
HETATM    3  C   UNL     1     -12.030   9.125  71.280  1.00  0.00    -0.394 C  
BRANCH   3   4
HETATM    4  C   UNL     1     -11.972   7.606  71.067  1.00  0.00    -0.273 C  
BRANCH   4   5
HETATM    5  N   UNL     1     -10.970   7.086  70.110  1.00  0.00    -0.262 NA 
BRANCH   5   6
HETATM    6  C   UNL     1     -10.675   5.656  70.351  1.00  0.00    -0.282 C  
BRANCH   6   7
HETATM    7  C   UNL     1      -9.944   5.326  71.671  1.00  0.00    -0.236 C  
BRANCH   7   8
HETATM    8  C   UNL     1      -9.414   3.895  71.790  1.00  0.00    -0.210 C  
HETATM    9  C   UNL     1      -7.976   3.823  72.278  1.00  0.00    -0.069 C  
ENDBRANCH   7   8
ENDBRANCH   6   7
ENDBRANCH   5   6
BRANCH   5  10
HETATM   10  C   UNL     1     -11.478   7.287  68.723  1.00  0.00     0.523 C  
BRANCH  10  11
HETATM   11  C   UNL     1     -10.412   7.569  67.618  1.00  0.00    -0.250 C  
HETATM   12  O   UNL     1     -10.752   6.989  66.359  1.00  0.00    -0.464 OA 
HETATM   13  H   UNL     1     -10.104   7.161  65.686  1.00  0.00     0.000 HD 
BRANCH  11  14
HETATM   14  C   UNL     1     -10.129   9.057  67.475  1.00  0.00    -0.285 A  
HETATM   15  C   UNL     1      -9.238   9.805  68.266  1.00  0.00    -0.130 A  
HETATM   16 CL   UNL     1      -5.128   9.074  72.533  1.00  0.00    -0.054 Cl 
HETATM   17  C   UNL     1      -6.544  10.461  70.704  1.00  0.00    -0.002 A  
HETATM   18  C   UNL     1      -8.995  11.173  67.935  1.00  0.00    -0.143 A  
HETATM   19  C   UNL     1      -8.002  11.686  68.914  1.00  0.00    -0.026 C  
HETATM   20  C   UNL     1      -9.598  11.785  66.846  1.00  0.00    -0.204 A  
HETATM   21  C   UNL     1      -7.645  12.958  69.175  1.00  0.00     0.259 C  
HETATM   22  C   UNL     1      -7.548  10.551  69.750  1.00  0.00    -0.102 A  
HETATM   23  C   UNL     1     -10.517  11.061  66.106  1.00  0.00    -0.244 A  
HETATM   24  C   UNL     1      -8.373   9.451  69.409  1.00  0.00    -0.125 A  
HETATM   25  C   UNL     1      -6.388   9.254  71.377  1.00  0.00    -0.053 A  
HETATM   26 CL   UNL     1     -11.309  11.802  64.765  1.00  0.00    -0.345 Cl 
HETATM   27  C   UNL     1     -10.786   9.727  66.413  1.00  0.00     0.118 A  
HETATM   28  C   UNL     1      -7.247   8.180  71.123  1.00  0.00    -0.060 A  
HETATM   29  C   UNL     1      -8.247   8.284  70.151  1.00  0.00    -0.118 A  
BRANCH  21  30
HETATM   30  C   UNL     1      -8.199  14.139  68.512  1.00  0.00    -0.146 A  
HETATM   31  C   UNL     1      -9.439  16.205  67.109  1.00  0.00    -0.223 A  
HETATM   32 CL   UNL     1     -10.254  17.417  66.200  1.00  0.00    -0.346 Cl 
HETATM   33  C   UNL     1      -8.301  15.594  66.582  1.00  0.00    -0.310 A  
HETATM   34  C   UNL     1      -9.312  14.792  69.059  1.00  0.00    -0.160 A  
HETATM   35  C   UNL     1      -9.936  15.820  68.350  1.00  0.00    -0.217 A  
HETATM   36  C   UNL     1      -7.676  14.561  67.286  1.00  0.00    -0.177 A  
ENDBRANCH  21  30
ENDBRANCH  11  14
ENDBRANCH  10  11
ENDBRANCH   5  10
ENDBRANCH   4   5
ENDBRANCH   3   4
ENDBRANCH   2   3
TORSDOF 10
ENDMDL
MODEL      123
REMARK 921   NORMALIZED FREE ENERGY PREDICTED BY IDOCK:   -2.52 KCAL/MOL
REMARK 922        TOTAL FREE ENERGY PREDICTED BY IDOCK:   -6.08 KCAL/MOL
REMARK 923 INTER-LIGAND FREE ENERGY PREDICTED BY IDOCK:   -7.14 KCAL/MOL
REMARK 924 INTRA-LIGAND FREE ENERGY PREDICTED BY IDOCK:    1.05 KCAL/MOL
REMARK 927      BINDING AFFINITY PREDICTED BY RF-SCORE:    0.00 PKD
ROOT
HETATM    1  C   UNL     1     -13.319  15.586  71.331  1.00  0.00    -0.592 C  
HETATM    2  C   UNL     1     -12.897  14.428  70.438  1.00  0.00    -0.301 C  
ENDROOT
BRANCH   2   3
HETATM    3  C   UNL     1     -11.390  14.200  70.535  1.00  0.00    -0.002 C  
BRANCH   3   4
HETATM    4  C   UNL     1     -10.590  14.801  69.370  1.00  0.00    -0.218 C  
BRANCH   4   5
HETATM    5  N   UNL     1     -11.216  15.899  68.602  1.00  0.00    -0.339 NA 
BRANCH   5   6
HETATM    6  C   UNL     1     -10.565  17.199  68.877  1.00  0.00    -0.314 C  
BRANCH   6   7
HETATM    7  C   UNL     1     -10.895  18.345  67.896  1.00  0.00    -0.234 C  
BRANCH   7   8
HETATM    8  C   UNL     1     -10.132  19.652  68.131  1.00  0.00    -0.556 C  
HETATM    9  C   UNL     1      -9.200  20.019  66.988  1.00  0.00    -0.491 C  
ENDBRANCH   7   8
ENDBRANCH   6   7
ENDBRANCH   5   6
BRANCH   5  10
HETATM   10  C   UNL     1     -11.143  15.576  67.149  1.00  0.00    -0.256 C  
BRANCH  10  11
HETATM   11  C   UNL     1      -9.719  15.355  66.548  1.00  0.00    -0.272 C  
HETATM   12  O   UNL     1      -8.685  15.926  67.348  1.00  0.00    -0.174 OA 
HETATM   13  H   UNL     1      -7.819  15.791  66.982  1.00  0.00     0.000 HD 
BRANCH  11  14
HETATM   14  C   UNL     1      -9.447  13.884  66.271  1.00  0.00    -0.235 A  
HETATM   15  C   UNL     1      -8.577  13.056  67.002  1.00  0.00    -0.165 A  
HETATM   16 CL   UNL     1      -5.209  13.114  71.931  1.00  0.00    -0.126 Cl 
HETATM   17  C   UNL     1      -6.375  11.996  69.770  1.00  0.00    -0.110 A  
HETATM   18  C   UNL     1      -8.515  11.663  66.690  1.00  0.00    -0.165 A  
HETATM   19  C   UNL     1      -7.548  11.050  67.635  1.00  0.00    -0.104 C  
HETATM   20  C   UNL     1      -9.300  11.097  65.696  1.00  0.00    -0.243 A  
HETATM   21  C   UNL     1      -6.965   9.837  67.586  1.00  0.00    -0.086 C  
HETATM   22  C   UNL     1      -7.140  12.082  68.615  1.00  0.00    -0.103 A  
HETATM   23  C   UNL     1     -10.112  11.926  64.941  1.00  0.00    -0.263 A  
HETATM   24  C   UNL     1      -7.695  13.304  68.160  1.00  0.00    -0.143 A  
HETATM   25  C   UNL     1      -6.111  13.171  70.468  1.00  0.00    -0.017 A  
HETATM   26 CL   UNL     1     -11.076  11.259  63.677  1.00  0.00    -0.407 Cl 
HETATM   27  C   UNL     1     -10.184  13.293  65.214  1.00  0.00    -0.303 A  
HETATM   28  C   UNL     1      -6.571  14.402  69.991  1.00  0.00    -0.116 A  
HETATM   29  C   UNL     1      -7.349  14.469  68.831  1.00  0.00    -0.128 A  
BRANCH  21  30
HETATM   30  C   UNL     1      -7.183   8.841  66.536  1.00  0.00    -0.081 A  
HETATM   31  C   UNL     1      -7.785   7.140  64.410  1.00  0.00    -0.117 A  
HETATM   32 CL   UNL     1      -8.217   6.152  63.070  1.00  0.00    -0.078 Cl 
HETATM   33  C   UNL     1      -8.521   7.060  65.593  1.00  0.00    -0.144 A  
HETATM   34  C   UNL     1      -6.415   8.881  65.364  1.00  0.00    -0.067 A  
HETATM   35  C   UNL     1      -6.725   8.033  64.298  1.00  0.00    -0.065 A  
HETATM   36  C   UNL     1      -8.218   7.909  66.661  1.00  0.00    -0.119 A  
ENDBRANCH  21  30
ENDBRANCH  11  14
ENDBRANCH  10  11
ENDBRANCH   5  10
ENDBRANCH   4   5
ENDBRANCH   3   4
ENDBRANCH   2   3
TORSDOF 10
ENDMDL
MODEL      124
REMARK 921   NORMALIZED FREE ENERGY PREDICTED BY IDOCK:   -2.41 KCAL/MOL
REMARK 922        TOTAL FREE ENERGY PREDICTED BY IDOCK:   -5.90 KCAL/MOL
REMARK 923 INTER-LIGAND FREE ENERGY PREDICTED BY IDOCK:   -5.00 KCAL/MOL
REMARK 924 INTRA-LIGAND FREE ENERGY PREDICTED BY IDOCK:   -0.90 KCAL/MOL
REMARK 927      BINDING AFFINITY PREDICTED BY RF-SCORE:    0.00 PKD
ROOT
HETATM    1  C   UNL     1      -9.460   9.991  65.120  1.00  0.00    -0.331 C  
HETATM    2  C   UNL     1      -8.266   9.417  64.370  1.00  0.00    -0.147 C  
ENDROOT
BRANCH   2   3
HETATM    3  C   UNL     1      -7.987   7.985  64.824  1.00  0.00    -0.143 C  
BRANCH   3   4
HETATM    4  C   UNL     1      -6.583   7.776  65.409  1.00  0.00    -0.044 C  
BRANCH   4   5
HETATM    5  N   UNL     1      -6.356   6.567  66.231  1.00  0.00    -0.041 NA 
BRANCH   5   6
HETATM    6  C   UNL     1      -5.256   5.738  65.691  1.00  0.00    -0.009 C  
BRANCH   6   7
HETATM    7  C   UNL     1      -5.582   4.918  64.423  1.00  0.00    -0.014 C  
BRANCH   7   8
HETATM    8  C   UNL     1      -5.882   3.435  64.657  1.00  0.00    -0.018 C  
HETATM    9  C   UNL     1      -5.541   2.966  66.062  1.00  0.00    -0.017 C  
ENDBRANCH   7   8
ENDBRANCH   6   7
ENDBRANCH   5   6
BRANCH   5  10
HETATM   10  C   UNL     1      -6.057   6.983  67.630  1.00  0.00    -0.033 C  
BRANCH  10  11
HETATM   11  C   UNL     1      -7.157   6.697  68.701  1.00  0.00    -0.083 C  
HETATM   12  O   UNL     1      -6.618   6.232  69.938  1.00  0.00    -0.044 OA 
HETATM   13  H   UNL     1      -7.287   6.059  70.589  1.00  0.00     0.000 HD 
BRANCH  11  14
HETATM   14  C   UNL     1      -8.060   7.901  68.916  1.00  0.00    -0.125 A  
HETATM   15  C   UNL     1      -9.235   7.921  69.688  1.00  0.00    -0.153 A  
HETATM   16 CL   UNL     1     -12.365   4.466  73.417  1.00  0.00     0.291 Cl 
HETATM   17  C   UNL     1     -11.767   6.746  72.105  1.00  0.00    -0.332 A  
HETATM   18  C   UNL     1      -9.915   9.162  69.889  1.00  0.00    -0.213 A  
HETATM   19  C   UNL     1     -11.086   8.879  70.757  1.00  0.00    -0.312 C  
HETATM   20  C   UNL     1      -9.443  10.354  69.358  1.00  0.00    -0.204 A  
HETATM   21  C   UNL     1     -12.156   9.654  71.020  1.00  0.00    -0.421 C  
HETATM   22  C   UNL     1     -11.010   7.465  71.191  1.00  0.00    -0.265 A  
HETATM   23  C   UNL     1      -8.319  10.319  68.551  1.00  0.00    -0.116 A  
HETATM   24  C   UNL     1      -9.945   6.882  70.461  1.00  0.00    -0.194 A  
HETATM   25  C   UNL     1     -11.489   5.392  72.262  1.00  0.00    -0.090 A  
HETATM   26 CL   UNL     1      -7.724  11.777  67.849  1.00  0.00    -0.116 Cl 
HETATM   27  C   UNL     1      -7.640   9.120  68.326  1.00  0.00    -0.083 A  
HETATM   28  C   UNL     1     -10.503   4.772  71.489  1.00  0.00    -0.142 A  
HETATM   29  C   UNL     1      -9.743   5.514  70.579  1.00  0.00    -0.241 A  
BRANCH  21  30
HETATM   30  C   UNL     1     -12.382  10.990  70.468  1.00  0.00    -0.462 A  
HETATM   31  C   UNL     1     -12.524  13.589  69.467  1.00  0.00    -0.005 A  
HETATM   32 CL   UNL     1     -12.524  15.203  68.872  1.00  0.00     0.012 Cl 
HETATM   33  C   UNL     1     -12.797  13.348  70.814  1.00  0.00    -0.221 A  
HETATM   34  C   UNL     1     -12.159  11.232  69.106  1.00  0.00    -0.348 A  
HETATM   35  C   UNL     1     -12.222  12.535  68.609  1.00  0.00     0.041 A  
HETATM   36  C   UNL     1     -12.731  12.046  71.316  1.00  0.00    -0.382 A  
ENDBRANCH  21  30
ENDBRANCH  11  14
ENDBRANCH  10  11
ENDBRANCH   5  10
ENDBRANCH   4   5
ENDBRANCH   3   4
ENDBRANCH   2   3
TORSDOF 10
ENDMDL
MODEL      125
REMARK 921   NORMALIZED FREE ENERGY PREDICTED BY IDOCK:   -2.32 KCAL/MOL
REMARK 922        TOTAL FREE ENERGY PREDICTED BY IDOCK:   -5.76 KCAL/MOL
REMARK 923 INTER-LIGAND FREE ENERGY PREDICTED BY IDOCK:   -4.68 KCAL/MOL
REMARK 924 INTRA-LIGAND FREE ENERGY PREDICTED BY IDOCK:   -1.07 KCAL/MOL
REMARK 927      BINDING AFFINITY PREDICTED BY RF-SCORE:    0.00 PKD
ROOT
HETATM    1  C   UNL     1     -10.283  15.145  69.823  1.00  0.00    -0.200 C  
HETATM    2  C   UNL     1     -10.834  13.778  69.443  1.00  0.00    -0.081 C  
ENDROOT
BRANCH   2   3
HETATM    3  C   UNL     1     -10.475  13.440  67.997  1.00  0.00    -0.243 C  
BRANCH   3   4
HETATM    4  C   UNL     1      -9.128  14.015  67.536  1.00  0.00    -0.196 C  
BRANCH   4   5
HETATM    5  N   UNL     1      -7.957  13.110  67.544  1.00  0.00    -0.168 NA 
BRANCH   5   6
HETATM    6  C   UNL     1      -7.862  12.353  68.812  1.00  0.00     0.020 C  
BRANCH   6   7
HETATM    7  C   UNL     1      -6.828  11.205  68.841  1.00  0.00    -0.086 C  
BRANCH   7   8
HETATM    8  C   UNL     1      -6.310  10.821  70.230  1.00  0.00    -0.142 C  
HETATM    9  C   UNL     1      -6.467   9.343  70.544  1.00  0.00    -0.078 C  
ENDBRANCH   7   8
ENDBRANCH   6   7
ENDBRANCH   5   6
BRANCH   5  10
HETATM   10  C   UNL     1      -8.058  12.178  66.386  1.00  0.00     0.215 C  
BRANCH  10  11
HETATM   11  C   UNL     1      -9.400  11.396  66.227  1.00  0.00    -0.212 C  
HETATM   12  O   UNL     1     -10.298  12.017  65.307  1.00  0.00    -0.257 OA 
HETATM   13  H   UNL     1     -11.114  11.540  65.210  1.00  0.00     0.000 HD 
BRANCH  11  14
HETATM   14  C   UNL     1      -9.162   9.939  65.860  1.00  0.00    -0.223 A  
HETATM   15  C   UNL     1      -9.451   8.828  66.672  1.00  0.00    -0.263 A  
HETATM   16 CL   UNL     1     -12.092   7.457  71.847  1.00  0.00    -0.325 Cl 
HETATM   17  C   UNL     1     -10.883   6.927  69.494  1.00  0.00    -0.287 A  
HETATM   18  C   UNL     1      -9.277   7.513  66.140  1.00  0.00    -0.156 A  
HETATM   19  C   UNL     1      -9.684   6.558  67.202  1.00  0.00    -0.176 C  
HETATM   20  C   UNL     1      -8.847   7.297  64.839  1.00  0.00     0.391 A  
HETATM   21  C   UNL     1      -9.470   5.231  67.279  1.00  0.00    -0.134 C  
HETATM   22  C   UNL     1     -10.244   7.334  68.332  1.00  0.00    -0.203 A  
HETATM   23  C   UNL     1      -8.509   8.393  64.063  1.00  0.00     0.012 A  
HETATM   24  C   UNL     1     -10.006   8.699  68.034  1.00  0.00    -0.221 A  
HETATM   25  C   UNL     1     -11.254   7.904  70.414  1.00  0.00    -0.234 A  
HETATM   26 CL   UNL     1      -7.940   8.159  62.453  1.00  0.00    -0.149 Cl 
HETATM   27  C   UNL     1      -8.655   9.689  64.560  1.00  0.00    -0.205 A  
HETATM   28  C   UNL     1     -10.950   9.249  70.185  1.00  0.00    -0.278 A  
HETATM   29  C   UNL     1     -10.314   9.644  69.004  1.00  0.00    -0.218 A  
BRANCH  21  30
HETATM   30  C   UNL     1      -8.754   4.436  66.281  1.00  0.00    -0.113 A  
HETATM   31  C   UNL     1      -7.504   2.680  64.512  1.00  0.00    -0.067 A  
HETATM   32 CL   UNL     1      -6.766   1.528  63.469  1.00  0.00    -0.021 Cl 
HETATM   33  C   UNL     1      -6.834   3.103  65.660  1.00  0.00    -0.049 A  
HETATM   34  C   UNL     1      -9.401   4.048  65.100  1.00  0.00    -0.163 A  
HETATM   35  C   UNL     1      -8.776   3.162  64.221  1.00  0.00    -0.094 A  
HETATM   36  C   UNL     1      -7.457   3.986  66.546  1.00  0.00    -0.084 A  
ENDBRANCH  21  30
ENDBRANCH  11  14
ENDBRANCH  10  11
ENDBRANCH   5  10
ENDBRANCH   4   5
ENDBRANCH   3   4
ENDBRANCH   2   3
TORSDOF 10
ENDMDL
MODEL      126
REMARK 921   NORMALIZED FREE ENERGY PREDICTED BY IDOCK:   -2.28 KCAL/MOL
REMARK 922        TOTAL FREE ENERGY PREDICTED BY IDOCK:   -5.70 KCAL/MOL
REMARK 923 INTER-LIGAND FREE ENERGY PREDICTED BY IDOCK:   -7.03 KCAL/MOL
REMARK 924 INTRA-LIGAND FREE ENERGY PREDICTED BY IDOCK:    1.33 KCAL/MOL
REMARK 927      BINDING AFFINITY PREDICTED BY RF-SCORE:    0.00 PKD
ROOT
HETATM    1  C   UNL     1     -11.916   9.171  71.595  1.00  0.00    -0.437 C  
HETATM    2  C   UNL     1     -11.449   9.271  70.150  1.00  0.00    -0.138 C  
ENDROOT
BRANCH   2   3
HETATM    3  C   UNL     1      -9.978   9.677  70.090  1.00  0.00    -0.309 C  
BRANCH   3   4
HETATM    4  C   UNL     1      -9.055   8.820  70.969  1.00  0.00    -0.218 C  
BRANCH   4   5
HETATM    5  N   UNL     1      -8.077   7.945  70.286  1.00  0.00    -0.112 NA 
BRANCH   5   6
HETATM    6  C   UNL     1      -8.726   7.087  69.271  1.00  0.00    -0.136 C  
BRANCH   6   7
HETATM    7  C   UNL     1      -8.665   5.565  69.526  1.00  0.00    -0.105 C  
BRANCH   7   8
HETATM    8  C   UNL     1      -8.879   5.133  70.979  1.00  0.00    -0.151 C  
HETATM    9  C   UNL     1     -10.073   4.211  71.164  1.00  0.00    -0.145 C  
ENDBRANCH   7   8
ENDBRANCH   6   7
ENDBRANCH   5   6
BRANCH   5  10
HETATM   10  C   UNL     1      -7.026   8.794  69.657  1.00  0.00    -0.050 C  
BRANCH  10  11
HETATM   11  C   UNL     1      -7.385   9.463  68.292  1.00  0.00    -0.078 C  
HETATM   12  O   UNL     1      -8.631   9.010  67.765  1.00  0.00    -0.121 OA 
HETATM   13  H   UNL     1      -8.850   9.417  66.935  1.00  0.00     0.000 HD 
BRANCH  11  14
HETATM   14  C   UNL     1      -7.350  10.981  68.383  1.00  0.00    -0.096 A  
HETATM   15  C   UNL     1      -8.076  11.871  67.571  1.00  0.00    -0.156 A  
HETATM   16 CL   UNL     1     -12.307  11.870  63.360  1.00  0.00    -0.647 Cl 
HETATM   17  C   UNL     1     -10.607  12.993  65.129  1.00  0.00    -0.327 A  
HETATM   18  C   UNL     1      -8.024  13.270  67.855  1.00  0.00    -0.159 A  
HETATM   19  C   UNL     1      -8.901  13.946  66.865  1.00  0.00    -0.210 C  
HETATM   20  C   UNL     1      -7.292  13.779  68.917  1.00  0.00    -0.076 A  
HETATM   21  C   UNL     1      -8.989  15.254  66.560  1.00  0.00    -0.340 C  
HETATM   22  C   UNL     1      -9.593  12.903  66.072  1.00  0.00    -0.172 A  
HETATM   23  C   UNL     1      -6.533  12.905  69.677  1.00  0.00    -0.044 A  
HETATM   24  C   UNL     1      -9.011  11.667  66.447  1.00  0.00    -0.198 A  
HETATM   25  C   UNL     1     -11.021  11.822  64.501  1.00  0.00    -0.324 A  
HETATM   26 CL   UNL     1      -5.587  13.509  70.985  1.00  0.00    -0.196 Cl 
HETATM   27  C   UNL     1      -6.553  11.534  69.416  1.00  0.00    -0.117 A  
HETATM   28  C   UNL     1     -10.401  10.602  64.788  1.00  0.00    -0.353 A  
HETATM   29  C   UNL     1      -9.388  10.528  65.749  1.00  0.00    -0.229 A  
BRANCH  21  30
HETATM   30  C   UNL     1      -8.192  16.316  67.176  1.00  0.00    -0.219 A  
HETATM   31  C   UNL     1      -6.537  18.124  68.506  1.00  0.00    -0.218 A  
HETATM   32 CL   UNL     1      -5.484  19.170  69.374  1.00  0.00    -0.204 Cl 
HETATM   33  C   UNL     1      -7.793  17.817  69.030  1.00  0.00    -0.100 A  
HETATM   34  C   UNL     1      -6.951  16.667  66.629  1.00  0.00    -0.243 A  
HETATM   35  C   UNL     1      -6.121  17.567  67.301  1.00  0.00    -0.162 A  
HETATM   36  C   UNL     1      -8.625  16.915  68.363  1.00  0.00    -0.240 A  
ENDBRANCH  21  30
ENDBRANCH  11  14
ENDBRANCH  10  11
ENDBRANCH   5  10
ENDBRANCH   4   5
ENDBRANCH   3   4
ENDBRANCH   2   3
TORSDOF 10
ENDMDL
MODEL      127
REMARK 921   NORMALIZED FREE ENERGY PREDICTED BY IDOCK:   -2.15 KCAL/MOL
REMARK 922        TOTAL FREE ENERGY PREDICTED BY IDOCK:   -5.50 KCAL/MOL
REMARK 923 INTER-LIGAND FREE ENERGY PREDICTED BY IDOCK:   -4.76 KCAL/MOL
REMARK 924 INTRA-LIGAND FREE ENERGY PREDICTED BY IDOCK:   -0.74 KCAL/MOL
REMARK 927      BINDING AFFINITY PREDICTED BY RF-SCORE:    0.00 PKD
ROOT
HETATM    1  C   UNL     1     -11.334   6.479  67.623  1.00  0.00    -0.094 C  
HETATM    2  C   UNL     1     -10.366   6.203  68.765  1.00  0.00    -0.256 C  
ENDROOT
BRANCH   2   3
HETATM    3  C   UNL     1      -8.927   6.452  68.317  1.00  0.00    -0.116 C  
BRANCH   3   4
HETATM    4  C   UNL     1      -8.661   6.109  66.845  1.00  0.00    -0.109 C  
BRANCH   4   5
HETATM    5  N   UNL     1      -7.480   5.271  66.539  1.00  0.00    -0.086 NA 
BRANCH   5   6
HETATM    6  C   UNL     1      -7.384   4.969  65.094  1.00  0.00    -0.071 C  
BRANCH   6   7
HETATM    7  C   UNL     1      -8.676   4.458  64.418  1.00  0.00    -0.145 C  
BRANCH   7   8
HETATM    8  C   UNL     1      -8.783   2.939  64.269  1.00  0.00    -0.095 C  
HETATM    9  C   UNL     1      -7.434   2.241  64.219  1.00  0.00    -0.059 C  
ENDBRANCH   7   8
ENDBRANCH   6   7
ENDBRANCH   5   6
BRANCH   5  10
HETATM   10  C   UNL     1      -6.254   5.977  67.007  1.00  0.00    -0.026 C  
BRANCH  10  11
HETATM   11  C   UNL     1      -5.664   7.068  66.059  1.00  0.00    -0.031 C  
HETATM   12  O   UNL     1      -5.326   6.558  64.770  1.00  0.00    -0.021 OA 
HETATM   13  H   UNL     1      -4.968   7.222  64.193  1.00  0.00     0.000 HD 
BRANCH  11  14
HETATM   14  C   UNL     1      -6.586   8.273  65.945  1.00  0.00    -0.053 A  
HETATM   15  C   UNL     1      -6.859   9.199  66.968  1.00  0.00    -0.080 A  
HETATM   16 CL   UNL     1      -5.125  10.604  72.505  1.00  0.00     0.093 Cl 
HETATM   17  C   UNL     1      -6.481  10.947  70.198  1.00  0.00    -0.145 A  
HETATM   18  C   UNL     1      -7.658  10.346  66.673  1.00  0.00    -0.114 A  
HETATM   19  C   UNL     1      -7.748  11.146  67.921  1.00  0.00    -0.105 C  
HETATM   20  C   UNL     1      -8.162  10.584  65.402  1.00  0.00    -0.152 A  
HETATM   21  C   UNL     1      -8.578  12.162  68.222  1.00  0.00    -0.175 C  
HETATM   22  C   UNL     1      -6.862  10.525  68.933  1.00  0.00    -0.063 A  
HETATM   23  C   UNL     1      -7.939   9.640  64.414  1.00  0.00    -0.138 A  
HETATM   24  C   UNL     1      -6.413   9.303  68.372  1.00  0.00    -0.054 A  
HETATM   25  C   UNL     1      -5.667  10.106  70.950  1.00  0.00    -0.089 A  
HETATM   26 CL   UNL     1      -8.578   9.889  62.833  1.00  0.00    -0.174 Cl 
HETATM   27  C   UNL     1      -7.173   8.503  64.676  1.00  0.00    -0.086 A  
HETATM   28  C   UNL     1      -5.282   8.856  70.456  1.00  0.00    -0.020 A  
HETATM   29  C   UNL     1      -5.668   8.450  69.174  1.00  0.00    -0.038 A  
BRANCH  21  30
HETATM   30  C   UNL     1      -9.607  12.698  67.330  1.00  0.00    -0.194 A  
HETATM   31  C   UNL     1     -11.444  13.557  65.416  1.00  0.00    -0.302 A  
HETATM   32 CL   UNL     1     -12.532  14.038  64.173  1.00  0.00    -0.351 Cl 
HETATM   33  C   UNL     1     -10.281  14.293  65.640  1.00  0.00    -0.366 A  
HETATM   34  C   UNL     1     -10.802  11.992  67.135  1.00  0.00    -0.297 A  
HETATM   35  C   UNL     1     -11.716  12.419  66.170  1.00  0.00    -0.460 A  
HETATM   36  C   UNL     1      -9.361  13.866  66.602  1.00  0.00    -0.282 A  
ENDBRANCH  21  30
ENDBRANCH  11  14
ENDBRANCH  10  11
ENDBRANCH   5  10
ENDBRANCH   4   5
ENDBRANCH   3   4
ENDBRANCH   2   3
TORSDOF 10
ENDMDL
MODEL      128
REMARK 921   NORMALIZED FREE ENERGY PREDICTED BY IDOCK:   -2.14 KCAL/MOL
REMARK 922        TOTAL FREE ENERGY PREDICTED BY IDOCK:   -5.48 KCAL/MOL
REMARK 923 INTER-LIGAND FREE ENERGY PREDICTED BY IDOCK:   -5.91 KCAL/MOL
REMARK 924 INTRA-LIGAND FREE ENERGY PREDICTED BY IDOCK:    0.43 KCAL/MOL
REMARK 927      BINDING AFFINITY PREDICTED BY RF-SCORE:    0.00 PKD
ROOT
HETATM    1  C   UNL     1     -11.555  10.491  70.485  1.00  0.00    -0.441 C  
HETATM    2  C   UNL     1     -11.753  11.036  69.078  1.00  0.00    -0.402 C  
ENDROOT
BRANCH   2   3
HETATM    3  C   UNL     1     -10.763  12.165  68.798  1.00  0.00    -0.252 C  
BRANCH   3   4
HETATM    4  C   UNL     1     -10.417  12.340  67.312  1.00  0.00    -0.218 C  
BRANCH   4   5
HETATM    5  N   UNL     1     -11.318  11.713  66.320  1.00  0.00    -0.340 NA 
BRANCH   5   6
HETATM    6  C   UNL     1     -12.310  12.678  65.796  1.00  0.00    -0.253 C  
BRANCH   6   7
HETATM    7  C   UNL     1     -11.826  13.595  64.651  1.00  0.00    -0.427 C  
BRANCH   7   8
HETATM    8  C   UNL     1     -11.876  12.980  63.249  1.00  0.00    -0.432 C  
HETATM    9  C   UNL     1     -13.020  11.996  63.064  1.00  0.00     0.166 C  
ENDBRANCH   7   8
ENDBRANCH   6   7
ENDBRANCH   5   6
BRANCH   5  10
HETATM   10  C   UNL     1     -10.499  11.152  65.209  1.00  0.00    -0.263 C  
BRANCH  10  11
HETATM   11  C   UNL     1      -9.079  10.619  65.582  1.00  0.00    -0.183 C  
HETATM   12  O   UNL     1      -8.191  11.654  66.001  1.00  0.00    -0.374 OA 
HETATM   13  H   UNL     1      -7.328  11.330  66.228  1.00  0.00     0.000 HD 
BRANCH  11  14
HETATM   14  C   UNL     1      -9.149   9.506  66.616  1.00  0.00    -0.179 A  
HETATM   15  C   UNL     1      -8.489   9.494  67.858  1.00  0.00    -0.119 A  
HETATM   16 CL   UNL     1      -5.193  13.025  71.366  1.00  0.00    -0.176 Cl 
HETATM   17  C   UNL     1      -6.584  10.800  70.738  1.00  0.00     0.391 A  
HETATM   18  C   UNL     1      -8.746   8.426  68.772  1.00  0.00    -0.136 A  
HETATM   19  C   UNL     1      -7.943   8.696  69.991  1.00  0.00    -0.106 C  
HETATM   20  C   UNL     1      -9.640   7.406  68.479  1.00  0.00    -0.146 A  
HETATM   21  C   UNL     1      -7.651   7.873  71.016  1.00  0.00    -0.082 C  
HETATM   22  C   UNL     1      -7.310  10.027  69.843  1.00  0.00    -0.163 A  
HETATM   23  C   UNL     1     -10.242   7.392  67.232  1.00  0.00    -0.260 A  
HETATM   24  C   UNL     1      -7.573  10.446  68.515  1.00  0.00    -0.095 A  
HETATM   25  C   UNL     1      -6.059  12.006  70.284  1.00  0.00    -0.091 A  
HETATM   26 CL   UNL     1     -11.333   6.121  66.825  1.00  0.00    -0.109 Cl 
HETATM   27  C   UNL     1     -10.001   8.414  66.313  1.00  0.00    -0.216 A  
HETATM   28  C   UNL     1      -6.227  12.401  68.953  1.00  0.00    -0.079 A  
HETATM   29  C   UNL     1      -6.971  11.614  68.067  1.00  0.00    -0.078 A  
BRANCH  21  30
HETATM   30  C   UNL     1      -8.090   6.482  71.129  1.00  0.00    -0.116 A  
HETATM   31  C   UNL     1      -8.807   3.831  71.614  1.00  0.00    -0.100 A  
HETATM   32 CL   UNL     1      -9.205   2.201  71.993  1.00  0.00    -0.133 Cl 
HETATM   33  C   UNL     1      -7.596   4.119  70.984  1.00  0.00    -0.055 A  
HETATM   34  C   UNL     1      -9.328   6.184  71.715  1.00  0.00    -0.159 A  
HETATM   35  C   UNL     1      -9.680   4.856  71.965  1.00  0.00    -0.219 A  
HETATM   36  C   UNL     1      -7.237   5.446  70.736  1.00  0.00    -0.070 A  
ENDBRANCH  21  30
ENDBRANCH  11  14
ENDBRANCH  10  11
ENDBRANCH   5  10
ENDBRANCH   4   5
ENDBRANCH   3   4
ENDBRANCH   2   3
TORSDOF 10
ENDMDL
MODEL      129
REMARK 921   NORMALIZED FREE ENERGY PREDICTED BY IDOCK:   -2.05 KCAL/MOL
REMARK 922        TOTAL FREE ENERGY PREDICTED BY IDOCK:   -5.34 KCAL/MOL
REMARK 923 INTER-LIGAND FREE ENERGY PREDICTED BY IDOCK:   -3.24 KCAL/MOL
REMARK 924 INTRA-LIGAND FREE ENERGY PREDICTED BY IDOCK:   -2.10 KCAL/MOL
REMARK 927      BINDING AFFINITY PREDICTED BY RF-SCORE:    0.00 PKD
ROOT
HETATM    1  C   UNL     1      -6.252  17.490  69.457  1.00  0.00    -0.246 C  
HETATM    2  C   UNL     1      -5.624  16.570  68.420  1.00  0.00    -0.117 C  
ENDROOT
BRANCH   2   3
HETATM    3  C   UNL     1      -5.847  15.107  68.797  1.00  0.00    -0.089 C  
BRANCH   3   4
HETATM    4  C   UNL     1      -6.676  14.316  67.775  1.00  0.00    -0.176 C  
BRANCH   4   5
HETATM    5  N   UNL     1      -6.589  12.840  67.816  1.00  0.00    -0.117 NA 
BRANCH   5   6
HETATM    6  C   UNL     1      -5.273  12.357  67.341  1.00  0.00    -0.092 C  
BRANCH   6   7
HETATM    7  C   UNL     1      -5.302  11.190  66.329  1.00  0.00    -0.136 C  
BRANCH   7   8
HETATM    8  C   UNL     1      -5.152   9.791  66.933  1.00  0.00    -0.041 C  
HETATM    9  C   UNL     1      -5.285   8.676  65.909  1.00  0.00    -0.030 C  
ENDBRANCH   7   8
ENDBRANCH   6   7
ENDBRANCH   5   6
BRANCH   5  10
HETATM   10  C   UNL     1      -6.840  12.380  69.211  1.00  0.00    -0.028 C  
BRANCH  10  11
HETATM   11  C   UNL     1      -8.233  11.735  69.500  1.00  0.00     0.897 C  
HETATM   12  O   UNL     1      -9.297  12.377  68.798  1.00  0.00    -0.396 OA 
HETATM   13  H   UNL     1     -10.143  11.984  68.973  1.00  0.00     0.000 HD 
BRANCH  11  14
HETATM   14  C   UNL     1      -8.226  10.238  69.232  1.00  0.00    -0.164 A  
HETATM   15  C   UNL     1      -8.574   9.617  68.019  1.00  0.00    -0.119 A  
HETATM   16 CL   UNL     1      -9.983  10.974  62.379  1.00  0.00     0.030 Cl 
HETATM   17  C   UNL     1      -9.389   9.325  64.431  1.00  0.00     0.102 A  
HETATM   18  C   UNL     1      -8.406   8.204  67.888  1.00  0.00    -0.129 A  
HETATM   19  C   UNL     1      -8.821   7.845  66.508  1.00  0.00    -0.175 C  
HETATM   20  C   UNL     1      -7.895   7.425  68.916  1.00  0.00    -0.117 A  
HETATM   21  C   UNL     1      -9.081   6.630  65.988  1.00  0.00    -0.104 C  
HETATM   22  C   UNL     1      -9.105   9.096  65.769  1.00  0.00    -0.265 A  
HETATM   23  C   UNL     1      -7.608   8.032  70.126  1.00  0.00    -0.081 A  
HETATM   24  C   UNL     1      -9.044  10.143  66.722  1.00  0.00    -0.159 A  
HETATM   25  C   UNL     1      -9.672  10.629  64.035  1.00  0.00    -0.315 A  
HETATM   26 CL   UNL     1      -7.001   7.088  71.434  1.00  0.00    -0.064 Cl 
HETATM   27  C   UNL     1      -7.774   9.409  70.289  1.00  0.00    -0.151 A  
HETATM   28  C   UNL     1      -9.706  11.666  64.972  1.00  0.00    -0.237 A  
HETATM   29  C   UNL     1      -9.407  11.420  66.316  1.00  0.00    -0.228 A  
BRANCH  21  30
HETATM   30  C   UNL     1      -9.003   5.367  66.722  1.00  0.00    -0.112 A  
HETATM   31  C   UNL     1      -8.764   3.120  68.356  1.00  0.00    -0.105 A  
HETATM   32 CL   UNL     1      -8.585   1.788  69.429  1.00  0.00    -0.084 Cl 
HETATM   33  C   UNL     1      -7.688   3.520  67.564  1.00  0.00    -0.077 A  
HETATM   34  C   UNL     1     -10.097   4.930  67.482  1.00  0.00    -0.184 A  
HETATM   35  C   UNL     1      -9.972   3.810  68.305  1.00  0.00     0.165 A  
HETATM   36  C   UNL     1      -7.807   4.643  66.742  1.00  0.00    -0.099 A  
ENDBRANCH  21  30
ENDBRANCH  11  14
ENDBRANCH  10  11
ENDBRANCH   5  10
ENDBRANCH   4   5
ENDBRANCH   3   4
ENDBRANCH   2   3
TORSDOF 10
ENDMDL
MODEL      130
REMARK 921   NORMALIZED FREE ENERGY PREDICTED BY IDOCK:   -1.94 KCAL/MOL
REMARK 922        TOTAL FREE ENERGY PREDICTED BY IDOCK:   -5.16 KCAL/MOL
REMARK 923 INTER-LIGAND FREE ENERGY PREDICTED BY IDOCK:   -4.25 KCAL/MOL
REMARK 924 INTRA-LIGAND FREE ENERGY PREDICTED BY IDOCK:   -0.91 KCAL/MOL
REMARK 927      BINDING AFFINITY PREDICTED BY RF-SCORE:    0.00 PKD
ROOT
HETATM    1  C   UNL     1      -7.806  15.931  67.655  1.00  0.00    -0.164 C  
HETATM    2  C   UNL     1      -9.199  16.017  67.049  1.00  0.00    -0.229 C  
ENDROOT
BRANCH   2   3
HETATM    3  C   UNL     1      -9.454  14.828  66.124  1.00  0.00    -0.324 C  
BRANCH   3   4
HETATM    4  C   UNL     1      -9.318  13.461  66.811  1.00  0.00    -0.256 C  
BRANCH   4   5
HETATM    5  N   UNL     1      -9.755  12.268  66.054  1.00  0.00    -0.245 NA 
BRANCH   5   6
HETATM    6  C   UNL     1     -11.011  12.520  65.313  1.00  0.00    -0.293 C  
BRANCH   6   7
HETATM    7  C   UNL     1     -12.256  12.830  66.173  1.00  0.00    -0.340 C  
BRANCH   7   8
HETATM    8  C   UNL     1     -12.214  12.299  67.609  1.00  0.00     0.250 C  
HETATM    9  C   UNL     1     -12.086  13.395  68.653  1.00  0.00    -0.281 C  
ENDBRANCH   7   8
ENDBRANCH   6   7
ENDBRANCH   5   6
BRANCH   5  10
HETATM   10  C   UNL     1      -8.669  11.866  65.116  1.00  0.00     0.647 C  
BRANCH  10  11
HETATM   11  C   UNL     1      -8.420  10.334  64.942  1.00  0.00    -0.177 C  
HETATM   12  O   UNL     1      -7.075  10.030  64.575  1.00  0.00    -0.133 OA 
HETATM   13  H   UNL     1      -6.923   9.098  64.469  1.00  0.00     0.000 HD 
BRANCH  11  14
HETATM   14  C   UNL     1      -8.839   9.552  66.178  1.00  0.00    -0.177 A  
HETATM   15  C   UNL     1      -8.397   9.790  67.491  1.00  0.00    -0.114 A  
HETATM   16 CL   UNL     1      -5.154  13.695  70.633  1.00  0.00    -0.101 Cl 
HETATM   17  C   UNL     1      -6.782  11.570  70.293  1.00  0.00     0.398 A  
HETATM   18  C   UNL     1      -8.971   9.042  68.565  1.00  0.00    -0.133 A  
HETATM   19  C   UNL     1      -8.338   9.526  69.818  1.00  0.00    -0.170 C  
HETATM   20  C   UNL     1      -9.966   8.097  68.354  1.00  0.00    -0.210 A  
HETATM   21  C   UNL     1      -8.356   8.975  71.047  1.00  0.00    -0.237 C  
HETATM   22  C   UNL     1      -7.476  10.682  69.484  1.00  0.00    -0.132 A  
HETATM   23  C   UNL     1     -10.356   7.826  67.053  1.00  0.00    -0.334 A  
HETATM   24  C   UNL     1      -7.450  10.763  68.070  1.00  0.00    -0.090 A  
HETATM   25  C   UNL     1      -5.996  12.539  69.677  1.00  0.00    -0.123 A  
HETATM   26 CL   UNL     1     -11.566   6.636  66.754  1.00  0.00     0.400 Cl 
HETATM   27  C   UNL     1      -9.803   8.532  65.983  1.00  0.00    -0.135 A  
HETATM   28  C   UNL     1      -5.882  12.585  68.284  1.00  0.00    -0.062 A  
HETATM   29  C   UNL     1      -6.597  11.689  67.483  1.00  0.00    -0.093 A  
BRANCH  21  30
HETATM   30  C   UNL     1      -9.035   7.727  71.399  1.00  0.00    -0.151 A  
HETATM   31  C   UNL     1     -10.229   5.392  72.347  1.00  0.00    -0.195 A  
HETATM   32 CL   UNL     1     -10.927   3.969  73.012  1.00  0.00    -0.237 Cl 
HETATM   33  C   UNL     1      -8.944   5.344  71.804  1.00  0.00    -0.146 A  
HETATM   34  C   UNL     1     -10.344   7.760  71.898  1.00  0.00    -0.256 A  
HETATM   35  C   UNL     1     -10.936   6.590  72.380  1.00  0.00    -0.279 A  
HETATM   36  C   UNL     1      -8.346   6.512  71.325  1.00  0.00    -0.125 A  
ENDBRANCH  21  30
ENDBRANCH  11  14
ENDBRANCH  10  11
ENDBRANCH   5  10
ENDBRANCH   4   5
ENDBRANCH   3   4
ENDBRANCH   2   3
TORSDOF 10
ENDMDL
MODEL      131
REMARK 921   NORMALIZED FREE ENERGY PREDICTED BY IDOCK:   -1.86 KCAL/MOL
REMARK 922        TOTAL FREE ENERGY PREDICTED BY IDOCK:   -5.03 KCAL/MOL
REMARK 923 INTER-LIGAND FREE ENERGY PREDICTED BY IDOCK:   -7.90 KCAL/MOL
REMARK 924 INTRA-LIGAND FREE ENERGY PREDICTED BY IDOCK:    2.88 KCAL/MOL
REMARK 927      BINDING AFFINITY PREDICTED BY RF-SCORE:    0.00 PKD
ROOT
HETATM    1  C   UNL     1      -9.208  18.625  68.737  1.00  0.00    -0.318 C  
HETATM    2  C   UNL     1      -9.188  17.115  68.931  1.00  0.00    -0.200 C  
ENDROOT
BRANCH   2   3
HETATM    3  C   UNL     1     -10.595  16.539  68.794  1.00  0.00    -0.322 C  
BRANCH   3   4
HETATM    4  C   UNL     1     -10.926  15.444  69.819  1.00  0.00    -0.287 C  
BRANCH   4   5
HETATM    5  N   UNL     1     -11.013  14.051  69.330  1.00  0.00    -0.201 NA 
BRANCH   5   6
HETATM    6  C   UNL     1     -11.838  13.209  70.224  1.00  0.00    -0.224 C  
BRANCH   6   7
HETATM    7  C   UNL     1     -12.872  13.953  71.096  1.00  0.00    -0.423 C  
BRANCH   7   8
HETATM    8  C   UNL     1     -12.338  14.514  72.417  1.00  0.00    -0.305 C  
HETATM    9  C   UNL     1     -13.364  15.331  73.184  1.00  0.00    -0.585 C  
ENDBRANCH   7   8
ENDBRANCH   6   7
ENDBRANCH   5   6
BRANCH   5  10
HETATM   10  C   UNL     1     -11.578  14.058  67.951  1.00  0.00    -0.343 C  
BRANCH  10  11
HETATM   11  C   UNL     1     -12.480  12.846  67.554  1.00  0.00     0.561 C  
HETATM   12  O   UNL     1     -12.766  12.804  66.157  1.00  0.00    -0.296 OA 
HETATM   13  H   UNL     1     -13.314  12.067  65.915  1.00  0.00     0.000 HD 
BRANCH  11  14
HETATM   14  C   UNL     1     -11.894  11.527  68.033  1.00  0.00    -0.287 A  
HETATM   15  C   UNL     1     -10.975  10.730  67.327  1.00  0.00    -0.359 A  
HETATM   16 CL   UNL     1      -7.636  10.821  62.379  1.00  0.00    -0.171 Cl 
HETATM   17  C   UNL     1      -8.519   9.822  64.725  1.00  0.00    -0.172 A  
HETATM   18  C   UNL     1     -10.428   9.572  67.960  1.00  0.00    -0.279 A  
HETATM   19  C   UNL     1      -9.479   8.959  66.997  1.00  0.00    -0.215 C  
HETATM   20  C   UNL     1     -10.762   9.217  69.259  1.00  0.00    -0.211 A  
HETATM   21  C   UNL     1      -8.912   7.737  67.023  1.00  0.00    -0.145 C  
HETATM   22  C   UNL     1      -9.363   9.857  65.825  1.00  0.00    -0.259 A  
HETATM   23  C   UNL     1     -11.710   9.972  69.929  1.00  0.00    -0.125 A  
HETATM   24  C   UNL     1     -10.342  10.867  66.000  1.00  0.00    -0.304 A  
HETATM   25  C   UNL     1      -8.686  10.791  63.741  1.00  0.00    -0.082 A  
HETATM   26 CL   UNL     1     -12.172   9.539  71.532  1.00  0.00    -0.439 Cl 
HETATM   27  C   UNL     1     -12.273  11.101  69.331  1.00  0.00    -0.329 A  
HETATM   28  C   UNL     1      -9.704  11.745  63.845  1.00  0.00    -0.226 A  
HETATM   29  C   UNL     1     -10.539  11.772  64.967  1.00  0.00    -0.338 A  
BRANCH  21  30
HETATM   30  C   UNL     1      -9.137   6.728  68.059  1.00  0.00    -0.119 A  
HETATM   31  C   UNL     1      -9.327   4.665  69.925  1.00  0.00    -0.144 A  
HETATM   32 CL   UNL     1      -9.374   3.352  71.035  1.00  0.00    -0.199 Cl 
HETATM   33  C   UNL     1     -10.022   4.576  68.719  1.00  0.00    -0.120 A  
HETATM   34  C   UNL     1      -8.483   6.835  69.293  1.00  0.00    -0.129 A  
HETATM   35  C   UNL     1      -8.573   5.796  70.222  1.00  0.00    -0.133 A  
HETATM   36  C   UNL     1      -9.931   5.611  67.784  1.00  0.00    -0.175 A  
ENDBRANCH  21  30
ENDBRANCH  11  14
ENDBRANCH  10  11
ENDBRANCH   5  10
ENDBRANCH   4   5
ENDBRANCH   3   4
ENDBRANCH   2   3
TORSDOF 10
ENDMDL
MODEL      132
REMARK 921   NORMALIZED FREE ENERGY PREDICTED BY IDOCK:   -1.80 KCAL/MOL
REMARK 922        TOTAL FREE ENERGY PREDICTED BY IDOCK:   -4.94 KCAL/MOL
REMARK 923 INTER-LIGAND FREE ENERGY PREDICTED BY IDOCK:   -5.22 KCAL/MOL
REMARK 924 INTRA-LIGAND FREE ENERGY PREDICTED BY IDOCK:    0.28 KCAL/MOL
REMARK 927      BINDING AFFINITY PREDICTED BY RF-SCORE:    0.00 PKD
ROOT
HETATM    1  C   UNL     1     -11.234   4.361  73.610  1.00  0.00    -0.335 C  
HETATM    2  C   UNL     1     -10.104   4.038  72.642  1.00  0.00    -0.225 C  
ENDROOT
BRANCH   2   3
HETATM    3  C   UNL     1      -9.023   5.115  72.705  1.00  0.00    -0.123 C  
BRANCH   3   4
HETATM    4  C   UNL     1      -8.755   5.813  71.364  1.00  0.00    -0.133 C  
BRANCH   4   5
HETATM    5  N   UNL     1      -8.267   4.981  70.243  1.00  0.00    -0.087 NA 
BRANCH   5   6
HETATM    6  C   UNL     1      -9.288   4.840  69.181  1.00  0.00    -0.135 C  
BRANCH   6   7
HETATM    7  C   UNL     1      -8.758   4.514  67.768  1.00  0.00    -0.112 C  
BRANCH   7   8
HETATM    8  C   UNL     1      -8.201   3.100  67.583  1.00  0.00    -0.086 C  
HETATM    9  C   UNL     1      -9.183   2.009  67.978  1.00  0.00    -0.235 C  
ENDBRANCH   7   8
ENDBRANCH   6   7
ENDBRANCH   5   6
BRANCH   5  10
HETATM   10  C   UNL     1      -7.024   5.592  69.693  1.00  0.00    -0.062 C  
BRANCH  10  11
HETATM   11  C   UNL     1      -6.742   7.079  70.076  1.00  0.00    -0.055 C  
HETATM   12  O   UNL     1      -5.365   7.432  69.948  1.00  0.00    -0.022 OA 
HETATM   13  H   UNL     1      -5.194   8.337  70.181  1.00  0.00     0.000 HD 
BRANCH  11  14
HETATM   14  C   UNL     1      -7.627   8.039  69.297  1.00  0.00    -0.096 A  
HETATM   15  C   UNL     1      -7.625   8.212  67.901  1.00  0.00    -0.102 A  
HETATM   16 CL   UNL     1      -5.223   5.865  62.965  1.00  0.00    -0.016 Cl 
HETATM   17  C   UNL     1      -6.857   7.495  64.362  1.00  0.00    -0.054 A  
HETATM   18  C   UNL     1      -8.599   9.070  67.305  1.00  0.00    -0.115 A  
HETATM   19  C   UNL     1      -8.372   9.030  65.837  1.00  0.00    -0.129 C  
HETATM   20  C   UNL     1      -9.559   9.729  68.059  1.00  0.00    -0.160 A  
HETATM   21  C   UNL     1      -8.854   9.845  64.880  1.00  0.00    -0.223 C  
HETATM   22  C   UNL     1      -7.331   8.015  65.558  1.00  0.00    -0.075 A  
HETATM   23  C   UNL     1      -9.521   9.601  69.437  1.00  0.00    -0.192 A  
HETATM   24  C   UNL     1      -6.828   7.604  66.817  1.00  0.00    -0.067 A  
HETATM   25  C   UNL     1      -5.815   6.575  64.415  1.00  0.00    -0.030 A  
HETATM   26 CL   UNL     1     -10.680  10.431  70.405  1.00  0.00    -0.275 Cl 
HETATM   27  C   UNL     1      -8.573   8.780  70.049  1.00  0.00    -0.136 A  
HETATM   28  C   UNL     1      -5.240   6.221  65.640  1.00  0.00    -0.013 A  
HETATM   29  C   UNL     1      -5.737   6.746  66.837  1.00  0.00    -0.014 A  
BRANCH  21  30
HETATM   30  C   UNL     1      -9.738  10.987  65.116  1.00  0.00    -0.302 A  
HETATM   31  C   UNL     1     -11.608  13.041  65.367  1.00  0.00    -0.341 A  
HETATM   32 CL   UNL     1     -12.810  14.268  65.457  1.00  0.00    -0.439 Cl 
HETATM   33  C   UNL     1     -10.566  13.160  64.446  1.00  0.00    -0.441 A  
HETATM   34  C   UNL     1     -10.757  10.898  66.074  1.00  0.00    -0.208 A  
HETATM   35  C   UNL     1     -11.696  11.924  66.191  1.00  0.00    -0.217 A  
HETATM   36  C   UNL     1      -9.626  12.133  64.322  1.00  0.00     0.037 A  
ENDBRANCH  21  30
ENDBRANCH  11  14
ENDBRANCH  10  11
ENDBRANCH   5  10
ENDBRANCH   4   5
ENDBRANCH   3   4
ENDBRANCH   2   3
TORSDOF 10
ENDMDL
MODEL      133
REMARK 921   NORMALIZED FREE ENERGY PREDICTED BY IDOCK:   -1.55 KCAL/MOL
REMARK 922        TOTAL FREE ENERGY PREDICTED BY IDOCK:   -4.54 KCAL/MOL
REMARK 923 INTER-LIGAND FREE ENERGY PREDICTED BY IDOCK:   -4.72 KCAL/MOL
REMARK 924 INTRA-LIGAND FREE ENERGY PREDICTED BY IDOCK:    0.18 KCAL/MOL
REMARK 927      BINDING AFFINITY PREDICTED BY RF-SCORE:    0.00 PKD
ROOT
HETATM    1  C   UNL     1      -7.992   4.739  70.639  1.00  0.00    -0.073 C  
HETATM    2  C   UNL     1      -7.341   5.939  69.967  1.00  0.00    -0.074 C  
ENDROOT
BRANCH   2   3
HETATM    3  C   UNL     1      -7.991   6.211  68.612  1.00  0.00    -0.101 C  
BRANCH   3   4
HETATM    4  C   UNL     1      -7.580   7.547  67.977  1.00  0.00    -0.110 C  
BRANCH   4   5
HETATM    5  N   UNL     1      -8.643   8.549  67.739  1.00  0.00    -0.133 NA 
BRANCH   5   6
HETATM    6  C   UNL     1      -9.932   7.907  67.400  1.00  0.00    -0.198 C  
BRANCH   6   7
HETATM    7  C   UNL     1      -9.888   6.842  66.283  1.00  0.00    -0.011 C  
BRANCH   7   8
HETATM    8  C   UNL     1     -10.923   5.720  66.401  1.00  0.00    -0.062 C  
HETATM    9  C   UNL     1     -10.329   4.397  66.854  1.00  0.00     0.059 C  
ENDBRANCH   7   8
ENDBRANCH   6   7
ENDBRANCH   5   6
BRANCH   5  10
HETATM   10  C   UNL     1      -8.787   9.398  68.956  1.00  0.00    -0.141 C  
BRANCH  10  11
HETATM   11  C   UNL     1      -9.921  10.471  68.935  1.00  0.00    -0.204 C  
HETATM   12  O   UNL     1     -10.688  10.490  70.138  1.00  0.00    -0.394 OA 
HETATM   13  H   UNL     1     -11.377  11.144  70.125  1.00  0.00     0.000 HD 
BRANCH  11  14
HETATM   14  C   UNL     1      -9.379  11.855  68.609  1.00  0.00    -0.076 A  
HETATM   15  C   UNL     1      -9.934  13.076  69.033  1.00  0.00     0.214 A  
HETATM   16 CL   UNL     1     -14.222  15.207  72.598  1.00  0.00    -0.433 Cl 
HETATM   17  C   UNL     1     -12.091  15.377  70.952  1.00  0.00    -0.413 A  
HETATM   18  C   UNL     1      -9.243  14.292  68.741  1.00  0.00    -0.112 A  
HETATM   19  C   UNL     1     -10.042  15.397  69.330  1.00  0.00    -0.269 C  
HETATM   20  C   UNL     1      -8.031  14.306  68.065  1.00  0.00    -0.142 A  
HETATM   21  C   UNL     1      -9.947  16.723  69.115  1.00  0.00    -0.252 C  
HETATM   22  C   UNL     1     -11.153  14.801  70.107  1.00  0.00    -0.208 A  
HETATM   23  C   UNL     1      -7.519  13.107  67.601  1.00  0.00    -0.164 A  
HETATM   24  C   UNL     1     -11.127  13.411  69.836  1.00  0.00     0.161 A  
HETATM   25  C   UNL     1     -13.065  14.553  71.506  1.00  0.00    -0.343 A  
HETATM   26 CL   UNL     1      -6.032  13.092  66.730  1.00  0.00     1.038 Cl 
HETATM   27  C   UNL     1      -8.178  11.903  67.859  1.00  0.00    -0.150 A  
HETATM   28  C   UNL     1     -13.116  13.193  71.184  1.00  0.00    -0.202 A  
HETATM   29  C   UNL     1     -12.156  12.627  70.339  1.00  0.00    -0.381 A  
BRANCH  21  30
HETATM   30  C   UNL     1      -8.991  17.361  68.209  1.00  0.00    -0.268 A  
HETATM   31  C   UNL     1      -7.302  18.835  66.551  1.00  0.00    -0.236 A  
HETATM   32 CL   UNL     1      -6.309  19.818  65.549  1.00  0.00    -0.242 Cl 
HETATM   33  C   UNL     1      -8.470  18.276  66.031  1.00  0.00    -0.035 A  
HETATM   34  C   UNL     1      -7.792  17.883  68.712  1.00  0.00    -0.258 A  
HETATM   35  C   UNL     1      -6.952  18.627  67.882  1.00  0.00    -0.231 A  
HETATM   36  C   UNL     1      -9.315  17.533  66.860  1.00  0.00    -0.275 A  
ENDBRANCH  21  30
ENDBRANCH  11  14
ENDBRANCH  10  11
ENDBRANCH   5  10
ENDBRANCH   4   5
ENDBRANCH   3   4
ENDBRANCH   2   3
TORSDOF 10
ENDMDL
MODEL      134
REMARK 921   NORMALIZED FREE ENERGY PREDICTED BY IDOCK:   -1.47 KCAL/MOL
REMARK 922        TOTAL FREE ENERGY PREDICTED BY IDOCK:   -4.42 KCAL/MOL
REMARK 923 INTER-LIGAND FREE ENERGY PREDICTED BY IDOCK:   -4.54 KCAL/MOL
REMARK 924 INTRA-LIGAND FREE ENERGY PREDICTED BY IDOCK:    0.12 KCAL/MOL
REMARK 927      BINDING AFFINITY PREDICTED BY RF-SCORE:    0.00 PKD
ROOT
HETATM    1  C   UNL     1      -6.820  18.016  69.268  1.00  0.00    -0.183 C  
HETATM    2  C   UNL     1      -7.870  19.026  68.827  1.00  0.00    -0.378 C  
ENDROOT
BRANCH   2   3
HETATM    3  C   UNL     1      -7.735  19.322  67.335  1.00  0.00    -0.273 C  
BRANCH   3   4
HETATM    4  C   UNL     1      -8.584  18.410  66.437  1.00  0.00    -0.247 C  
BRANCH   4   5
HETATM    5  N   UNL     1      -7.989  17.127  66.003  1.00  0.00    -0.497 NA 
BRANCH   5   6
HETATM    6  C   UNL     1      -6.651  16.917  66.599  1.00  0.00    -0.217 C  
BRANCH   6   7
HETATM    7  C   UNL     1      -5.444  17.241  65.692  1.00  0.00     0.511 C  
BRANCH   7   8
HETATM    8  C   UNL     1      -5.127  18.729  65.524  1.00  0.00    -0.185 C  
HETATM    9  C   UNL     1      -5.145  19.190  64.076  1.00  0.00    -0.249 C  
ENDBRANCH   7   8
ENDBRANCH   6   7
ENDBRANCH   5   6
BRANCH   5  10
HETATM   10  C   UNL     1      -8.908  16.016  66.380  1.00  0.00    -0.328 C  
BRANCH  10  11
HETATM   11  C   UNL     1      -8.582  15.251  67.702  1.00  0.00    -0.169 C  
HETATM   12  O   UNL     1      -9.620  15.360  68.675  1.00  0.00    -0.191 OA 
HETATM   13  H   UNL     1      -9.422  14.894  69.479  1.00  0.00     0.000 HD 
BRANCH  11  14
HETATM   14  C   UNL     1      -8.232  13.795  67.437  1.00  0.00    -0.194 A  
HETATM   15  C   UNL     1      -8.922  12.926  66.573  1.00  0.00    -0.086 A  
HETATM   16 CL   UNL     1     -13.320  12.967  62.536  1.00  0.00     2.290 Cl 
HETATM   17  C   UNL     1     -11.285  11.881  63.936  1.00  0.00    -0.497 A  
HETATM   18  C   UNL     1      -8.401  11.616  66.342  1.00  0.00    -0.084 A  
HETATM   19  C   UNL     1      -9.312  10.951  65.376  1.00  0.00    -0.240 C  
HETATM   20  C   UNL     1      -7.224  11.178  66.932  1.00  0.00    -0.138 A  
HETATM   21  C   UNL     1      -9.393   9.649  65.042  1.00  0.00    -0.319 C  
HETATM   22  C   UNL     1     -10.311  11.946  64.923  1.00  0.00    -0.328 A  
HETATM   23  C   UNL     1      -6.580  12.015  67.827  1.00  0.00    -0.093 A  
HETATM   24  C   UNL     1     -10.119  13.097  65.725  1.00  0.00    -0.290 A  
HETATM   25  C   UNL     1     -12.128  12.976  63.776  1.00  0.00    -0.502 A  
HETATM   26 CL   UNL     1      -5.134  11.489  68.602  1.00  0.00    -0.043 Cl 
HETATM   27  C   UNL     1      -7.073  13.296  68.083  1.00  0.00    -0.111 A  
HETATM   28  C   UNL     1     -12.017  14.089  64.615  1.00  0.00    -0.449 A  
HETATM   29  C   UNL     1     -11.023  14.143  65.598  1.00  0.00    -0.308 A  
BRANCH  21  30
HETATM   30  C   UNL     1      -8.557   8.585  65.599  1.00  0.00    -0.200 A  
HETATM   31  C   UNL     1      -7.090   6.376  66.461  1.00  0.00    -0.068 A  
HETATM   32 CL   UNL     1      -6.232   4.962  66.933  1.00  0.00    -0.031 Cl 
HETATM   33  C   UNL     1      -8.306   6.683  67.073  1.00  0.00    -0.113 A  
HETATM   34  C   UNL     1      -7.312   8.300  65.023  1.00  0.00    -0.086 A  
HETATM   35  C   UNL     1      -6.584   7.188  65.451  1.00  0.00    -0.047 A  
HETATM   36  C   UNL     1      -9.040   7.793  66.645  1.00  0.00    -0.195 A  
ENDBRANCH  21  30
ENDBRANCH  11  14
ENDBRANCH  10  11
ENDBRANCH   5  10
ENDBRANCH   4   5
ENDBRANCH   3   4
ENDBRANCH   2   3
TORSDOF 10
ENDMDL
MODEL      135
REMARK 921   NORMALIZED FREE ENERGY PREDICTED BY IDOCK:   -1.35 KCAL/MOL
REMARK 922        TOTAL FREE ENERGY PREDICTED BY IDOCK:   -4.22 KCAL/MOL
REMARK 923 INTER-LIGAND FREE ENERGY PREDICTED BY IDOCK:   -3.46 KCAL/MOL
REMARK 924 INTRA-LIGAND FREE ENERGY PREDICTED BY IDOCK:   -0.77 KCAL/MOL
REMARK 927      BINDING AFFINITY PREDICTED BY RF-SCORE:    0.00 PKD
ROOT
HETATM    1  C   UNL     1     -13.235   9.081  73.309  1.00  0.00     1.095 C  
HETATM    2  C   UNL     1     -14.280   9.322  72.229  1.00  0.00    -0.287 C  
ENDROOT
BRANCH   2   3
HETATM    3  C   UNL     1     -13.609   9.546  70.875  1.00  0.00    -0.049 C  
BRANCH   3   4
HETATM    4  C   UNL     1     -12.449  10.551  70.911  1.00  0.00    -0.390 C  
BRANCH   4   5
HETATM    5  N   UNL     1     -12.648  11.853  70.236  1.00  0.00    -0.083 NA 
BRANCH   5   6
HETATM    6  C   UNL     1     -12.460  12.986  71.168  1.00  0.00    -0.271 C  
BRANCH   6   7
HETATM    7  C   UNL     1     -11.368  14.009  70.784  1.00  0.00     0.261 C  
BRANCH   7   8
HETATM    8  C   UNL     1     -11.386  15.319  71.576  1.00  0.00    -0.432 C  
HETATM    9  C   UNL     1     -12.761  15.964  71.645  1.00  0.00    -0.448 C  
ENDBRANCH   7   8
ENDBRANCH   6   7
ENDBRANCH   5   6
BRANCH   5  10
HETATM   10  C   UNL     1     -11.697  11.955  69.093  1.00  0.00    -0.319 C  
BRANCH  10  11
HETATM   11  C   UNL     1     -11.655  10.748  68.102  1.00  0.00    -0.197 C  
HETATM   12  O   UNL     1     -11.467  11.152  66.746  1.00  0.00    -0.380 OA 
HETATM   13  H   UNL     1     -11.441  10.418  66.144  1.00  0.00     0.000 HD 
BRANCH  11  14
HETATM   14  C   UNL     1     -10.616   9.717  68.515  1.00  0.00    -0.252 A  
HETATM   15  C   UNL     1      -9.268   9.982  68.816  1.00  0.00    -0.159 A  
HETATM   16 CL   UNL     1      -5.520  14.569  69.555  1.00  0.00    -0.090 Cl 
HETATM   17  C   UNL     1      -6.258  11.975  69.589  1.00  0.00    -0.131 A  
HETATM   18  C   UNL     1      -8.442   8.922  69.301  1.00  0.00    -0.121 A  
HETATM   19  C   UNL     1      -7.099   9.501  69.556  1.00  0.00    -0.068 C  
HETATM   20  C   UNL     1      -8.933   7.639  69.500  1.00  0.00    -0.139 A  
HETATM   21  C   UNL     1      -5.929   8.870  69.776  1.00  0.00    -0.032 C  
HETATM   22  C   UNL     1      -7.179  10.965  69.350  1.00  0.00    -0.126 A  
HETATM   23  C   UNL     1     -10.245   7.370  69.148  1.00  0.00    -0.196 A  
HETATM   24  C   UNL     1      -8.465  11.221  68.813  1.00  0.00    -0.112 A  
HETATM   25  C   UNL     1      -6.606  13.274  69.236  1.00  0.00    -0.093 A  
HETATM   26 CL   UNL     1     -10.876   5.780  69.352  1.00  0.00    -0.403 Cl 
HETATM   27  C   UNL     1     -11.072   8.383  68.659  1.00  0.00     0.299 A  
HETATM   28  C   UNL     1      -7.833  13.541  68.621  1.00  0.00    -0.084 A  
HETATM   29  C   UNL     1      -8.754  12.513  68.397  1.00  0.00    -0.122 A  
BRANCH  21  30
HETATM   30  C   UNL     1      -5.749   7.418  69.802  1.00  0.00    -0.023 A  
HETATM   31  C   UNL     1      -5.703   4.631  69.873  1.00  0.00    -0.013 A  
HETATM   32 CL   UNL     1      -5.764   2.913  69.928  1.00  0.00    -0.017 Cl 
HETATM   33  C   UNL     1      -5.590   5.357  71.059  1.00  0.00    -0.009 A  
HETATM   34  C   UNL     1      -5.811   6.683  68.610  1.00  0.00    -0.021 A  
HETATM   35  C   UNL     1      -5.796   5.288  68.650  1.00  0.00    -0.016 A  
HETATM   36  C   UNL     1      -5.609   6.754  71.025  1.00  0.00    -0.027 A  
ENDBRANCH  21  30
ENDBRANCH  11  14
ENDBRANCH  10  11
ENDBRANCH   5  10
ENDBRANCH   4   5
ENDBRANCH   3   4
ENDBRANCH   2   3
TORSDOF 10
ENDMDL
MODEL      136
REMARK 921   NORMALIZED FREE ENERGY PREDICTED BY IDOCK:   -1.30 KCAL/MOL
REMARK 922        TOTAL FREE ENERGY PREDICTED BY IDOCK:   -4.14 KCAL/MOL
REMARK 923 INTER-LIGAND FREE ENERGY PREDICTED BY IDOCK:   -3.61 KCAL/MOL
REMARK 924 INTRA-LIGAND FREE ENERGY PREDICTED BY IDOCK:   -0.53 KCAL/MOL
REMARK 927      BINDING AFFINITY PREDICTED BY RF-SCORE:    0.00 PKD
ROOT
HETATM    1  C   UNL     1      -6.443  11.464  62.447  1.00  0.00     0.414 C  
HETATM    2  C   UNL     1      -6.864  10.504  63.550  1.00  0.00     0.067 C  
ENDROOT
BRANCH   2   3
HETATM    3  C   UNL     1      -7.860   9.478  63.014  1.00  0.00    -0.126 C  
BRANCH   3   4
HETATM    4  C   UNL     1      -8.189   8.349  64.002  1.00  0.00    -0.113 C  
BRANCH   4   5
HETATM    5  N   UNL     1      -8.789   8.727  65.300  1.00  0.00    -0.187 NA 
BRANCH   5   6
HETATM    6  C   UNL     1      -9.966   9.607  65.122  1.00  0.00    -0.012 C  
BRANCH   6   7
HETATM    7  C   UNL     1     -10.019  10.861  66.023  1.00  0.00    -0.290 C  
BRANCH   7   8
HETATM    8  C   UNL     1     -10.356  12.172  65.306  1.00  0.00    -0.310 C  
HETATM    9  C   UNL     1     -10.735  11.981  63.847  1.00  0.00    -0.450 C  
ENDBRANCH   7   8
ENDBRANCH   6   7
ENDBRANCH   5   6
BRANCH   5  10
HETATM   10  C   UNL     1      -9.172   7.488  66.035  1.00  0.00    -0.049 C  
BRANCH  10  11
HETATM   11  C   UNL     1      -9.577   7.655  67.534  1.00  0.00    -0.143 C  
HETATM   12  O   UNL     1     -10.990   7.714  67.722  1.00  0.00    -0.483 OA 
HETATM   13  H   UNL     1     -11.237   7.815  68.634  1.00  0.00     0.000 HD 
BRANCH  11  14
HETATM   14  C   UNL     1      -8.953   6.579  68.409  1.00  0.00    -0.125 A  
HETATM   15  C   UNL     1      -8.769   5.232  68.050  1.00  0.00    -0.102 A  
HETATM   16 CL   UNL     1      -9.308   1.591  63.350  1.00  0.00    -0.092 Cl 
HETATM   17  C   UNL     1      -8.607   2.258  65.869  1.00  0.00    -0.111 A  
HETATM   18  C   UNL     1      -8.061   4.366  68.940  1.00  0.00    -0.072 A  
HETATM   19  C   UNL     1      -7.998   3.033  68.289  1.00  0.00    -0.066 C  
HETATM   20  C   UNL     1      -7.534   4.817  70.142  1.00  0.00    -0.054 A  
HETATM   21  C   UNL     1      -7.665   1.842  68.822  1.00  0.00    -0.046 C  
HETATM   22  C   UNL     1      -8.559   3.157  66.924  1.00  0.00    -0.120 A  
HETATM   23  C   UNL     1      -7.768   6.129  70.516  1.00  0.00    -0.101 A  
HETATM   24  C   UNL     1      -9.104   4.462  66.836  1.00  0.00    -0.136 A  
HETATM   25  C   UNL     1      -9.262   2.649  64.705  1.00  0.00    -0.137 A  
HETATM   26 CL   UNL     1      -7.155   6.713  72.017  1.00  0.00    -0.079 Cl 
HETATM   27  C   UNL     1      -8.468   6.996  69.674  1.00  0.00    -0.134 A  
HETATM   28  C   UNL     1      -9.886   3.898  64.624  1.00  0.00    -0.193 A  
HETATM   29  C   UNL     1      -9.819   4.797  65.694  1.00  0.00    -0.193 A  
BRANCH  21  30
HETATM   30  C   UNL     1      -7.283   1.622  70.217  1.00  0.00    -0.033 A  
HETATM   31  C   UNL     1      -6.549   1.500  72.905  1.00  0.00    -0.014 A  
HETATM   32 CL   UNL     1      -6.091   1.515  74.562  1.00  0.00    -0.004 Cl 
HETATM   33  C   UNL     1      -5.566   1.486  71.915  1.00  0.00    -0.004 A  
HETATM   34  C   UNL     1      -8.268   1.584  71.214  1.00  0.00    -0.054 A  
HETATM   35  C   UNL     1      -7.897   1.532  72.559  1.00  0.00    -0.044 A  
HETATM   36  C   UNL     1      -5.932   1.543  70.568  1.00  0.00    -0.018 A  
ENDBRANCH  21  30
ENDBRANCH  11  14
ENDBRANCH  10  11
ENDBRANCH   5  10
ENDBRANCH   4   5
ENDBRANCH   3   4
ENDBRANCH   2   3
TORSDOF 10
ENDMDL
MODEL      137
REMARK 921   NORMALIZED FREE ENERGY PREDICTED BY IDOCK:   -1.07 KCAL/MOL
REMARK 922        TOTAL FREE ENERGY PREDICTED BY IDOCK:   -3.78 KCAL/MOL
REMARK 923 INTER-LIGAND FREE ENERGY PREDICTED BY IDOCK:   -3.63 KCAL/MOL
REMARK 924 INTRA-LIGAND FREE ENERGY PREDICTED BY IDOCK:   -0.15 KCAL/MOL
REMARK 927      BINDING AFFINITY PREDICTED BY RF-SCORE:    0.00 PKD
ROOT
HETATM    1  C   UNL     1     -14.353   9.585  70.609  1.00  0.00     0.796 C  
HETATM    2  C   UNL     1     -13.556   9.562  71.906  1.00  0.00    -0.468 C  
ENDROOT
BRANCH   2   3
HETATM    3  C   UNL     1     -12.131   9.078  71.649  1.00  0.00    -0.422 C  
BRANCH   3   4
HETATM    4  C   UNL     1     -12.004   7.555  71.496  1.00  0.00    -0.307 C  
BRANCH   4   5
HETATM    5  N   UNL     1     -10.910   7.041  70.644  1.00  0.00    -0.238 NA 
BRANCH   5   6
HETATM    6  C   UNL     1     -10.638   5.610  70.908  1.00  0.00    -0.258 C  
BRANCH   6   7
HETATM    7  C   UNL     1     -11.011   5.096  72.316  1.00  0.00    -0.209 C  
BRANCH   7   8
HETATM    8  C   UNL     1     -10.578   3.661  72.628  1.00  0.00    -0.140 C  
HETATM    9  C   UNL     1      -9.919   2.961  71.451  1.00  0.00    -0.068 C  
ENDBRANCH   7   8
ENDBRANCH   6   7
ENDBRANCH   5   6
BRANCH   5  10
HETATM   10  C   UNL     1     -11.274   7.247  69.213  1.00  0.00     0.058 C  
BRANCH  10  11
HETATM   11  C   UNL     1     -10.100   7.261  68.183  1.00  0.00    -0.173 C  
HETATM   12  O   UNL     1     -10.537   7.037  66.843  1.00  0.00    -0.333 OA 
HETATM   13  H   UNL     1      -9.824   7.046  66.217  1.00  0.00     0.000 HD 
BRANCH  11  14
HETATM   14  C   UNL     1      -9.278   8.536  68.284  1.00  0.00    -0.140 A  
HETATM   15  C   UNL     1      -8.259   8.786  69.221  1.00  0.00    -0.108 A  
HETATM   16 CL   UNL     1      -5.156   6.027  73.510  1.00  0.00    -0.023 Cl 
HETATM   17  C   UNL     1      -5.772   8.065  71.853  1.00  0.00    -0.036 A  
HETATM   18  C   UNL     1      -7.497   9.990  69.116  1.00  0.00    -0.092 A  
HETATM   19  C   UNL     1      -6.490   9.963  70.206  1.00  0.00    -0.103 C  
HETATM   20  C   UNL     1      -7.720  10.916  68.106  1.00  0.00    -0.103 A  
HETATM   21  C   UNL     1      -5.718  10.962  70.676  1.00  0.00    -0.123 C  
HETATM   22  C   UNL     1      -6.571   8.646  70.879  1.00  0.00    -0.049 A  
HETATM   23  C   UNL     1      -8.762  10.693  67.222  1.00  0.00    -0.129 A  
HETATM   24  C   UNL     1      -7.704   7.992  70.335  1.00  0.00    -0.085 A  
HETATM   25  C   UNL     1      -6.139   6.813  72.338  1.00  0.00    -0.042 A  
HETATM   26 CL   UNL     1      -9.087  11.839  65.977  1.00  0.00    -0.193 Cl 
HETATM   27  C   UNL     1      -9.532   9.532  67.308  1.00  0.00    -0.170 A  
HETATM   28  C   UNL     1      -7.303   6.185  71.883  1.00  0.00    -0.093 A  
HETATM   29  C   UNL     1      -8.091   6.781  70.894  1.00  0.00    -0.118 A  
BRANCH  21  30
HETATM   30  C   UNL     1      -5.729  12.338  70.178  1.00  0.00    -0.153 A  
HETATM   31  C   UNL     1      -6.021  14.902  69.122  1.00  0.00    -0.101 A  
HETATM   32 CL   UNL     1      -6.281  16.458  68.436  1.00  0.00    -0.124 Cl 
HETATM   33  C   UNL     1      -5.421  13.901  68.357  1.00  0.00    -0.101 A  
HETATM   34  C   UNL     1      -6.285  13.361  70.958  1.00  0.00     0.396 A  
HETATM   35  C   UNL     1      -6.437  14.641  70.424  1.00  0.00    -0.110 A  
HETATM   36  C   UNL     1      -5.270  12.616  68.887  1.00  0.00    -0.062 A  
ENDBRANCH  21  30
ENDBRANCH  11  14
ENDBRANCH  10  11
ENDBRANCH   5  10
ENDBRANCH   4   5
ENDBRANCH   3   4
ENDBRANCH   2   3
TORSDOF 10
ENDMDL
MODEL      138
REMARK 921   NORMALIZED FREE ENERGY PREDICTED BY IDOCK:   -1.03 KCAL/MOL
REMARK 922        TOTAL FREE ENERGY PREDICTED BY IDOCK:   -3.72 KCAL/MOL
REMARK 923 INTER-LIGAND FREE ENERGY PREDICTED BY IDOCK:   -5.57 KCAL/MOL
REMARK 924 INTRA-LIGAND FREE ENERGY PREDICTED BY IDOCK:    1.84 KCAL/MOL
REMARK 927      BINDING AFFINITY PREDICTED BY RF-SCORE:    0.00 PKD
ROOT
HETATM    1  C   UNL     1     -10.815   4.610  65.146  1.00  0.00    -0.025 C  
HETATM    2  C   UNL     1      -9.500   4.207  65.797  1.00  0.00    -0.177 C  
ENDROOT
BRANCH   2   3
HETATM    3  C   UNL     1      -9.180   5.129  66.971  1.00  0.00    -0.117 C  
BRANCH   3   4
HETATM    4  C   UNL     1      -8.196   4.530  67.987  1.00  0.00    -0.094 C  
BRANCH   4   5
HETATM    5  N   UNL     1      -8.043   5.224  69.285  1.00  0.00    -0.091 NA 
BRANCH   5   6
HETATM    6  C   UNL     1      -6.697   5.015  69.861  1.00  0.00    -0.040 C  
BRANCH   6   7
HETATM    7  C   UNL     1      -5.799   3.988  69.137  1.00  0.00    -0.022 C  
BRANCH   7   8
HETATM    8  C   UNL     1      -5.280   2.839  70.006  1.00  0.00    -0.008 C  
HETATM    9  C   UNL     1      -5.918   1.499  69.677  1.00  0.00    -0.023 C  
ENDBRANCH   7   8
ENDBRANCH   6   7
ENDBRANCH   5   6
BRANCH   5  10
HETATM   10  C   UNL     1      -8.307   6.677  69.089  1.00  0.00    -0.124 C  
BRANCH  10  11
HETATM   11  C   UNL     1      -9.631   7.060  68.354  1.00  0.00    -0.135 C  
HETATM   12  O   UNL     1     -10.789   6.499  68.971  1.00  0.00    -0.250 OA 
HETATM   13  H   UNL     1     -11.594   6.732  68.524  1.00  0.00     0.000 HD 
BRANCH  11  14
HETATM   14  C   UNL     1      -9.771   8.566  68.196  1.00  0.00    -0.175 A  
HETATM   15  C   UNL     1     -10.635   9.394  68.934  1.00  0.00    -0.231 A  
HETATM   16 CL   UNL     1     -14.385   9.181  73.574  1.00  0.00     1.247 Cl 
HETATM   17  C   UNL     1     -12.969  10.384  71.618  1.00  0.00    -0.581 A  
HETATM   18  C   UNL     1     -10.569  10.810  68.748  1.00  0.00    -0.229 A  
HETATM   19  C   UNL     1     -11.562  11.415  69.672  1.00  0.00    -0.399 C  
HETATM   20  C   UNL     1      -9.667  11.395  67.872  1.00  0.00    -0.186 A  
HETATM   21  C   UNL     1     -12.049  12.670  69.692  1.00  0.00    -0.277 C  
HETATM   22  C   UNL     1     -12.122  10.338  70.520  1.00  0.00    -0.401 A  
HETATM   23  C   UNL     1      -8.860  10.572  67.105  1.00  0.00    -0.136 A  
HETATM   24  C   UNL     1     -11.623   9.120  69.996  1.00  0.00     0.036 A  
HETATM   25  C   UNL     1     -13.374   9.179  72.182  1.00  0.00    -0.463 A  
HETATM   26 CL   UNL     1      -7.751  11.267  65.983  1.00  0.00    -0.007 Cl 
HETATM   27  C   UNL     1      -8.911   9.185  67.255  1.00  0.00    -0.132 A  
HETATM   28  C   UNL     1     -12.969   7.960  71.629  1.00  0.00    -0.359 A  
HETATM   29  C   UNL     1     -12.106   7.932  70.529  1.00  0.00     0.104 A  
BRANCH  21  30
HETATM   30  C   UNL     1     -11.675  13.732  68.758  1.00  0.00    -0.391 A  
HETATM   31  C   UNL     1     -10.730  15.585  66.900  1.00  0.00    -0.317 A  
HETATM   32 CL   UNL     1     -10.076  16.673  65.740  1.00  0.00    -0.329 Cl 
HETATM   33  C   UNL     1     -10.329  15.673  68.233  1.00  0.00    -0.244 A  
HETATM   34  C   UNL     1     -12.113  13.681  67.428  1.00  0.00    -0.375 A  
HETATM   35  C   UNL     1     -11.632  14.605  66.498  1.00  0.00    -0.350 A  
HETATM   36  C   UNL     1     -10.804  14.748  69.166  1.00  0.00    -0.267 A  
ENDBRANCH  21  30
ENDBRANCH  11  14
ENDBRANCH  10  11
ENDBRANCH   5  10
ENDBRANCH   4   5
ENDBRANCH   3   4
ENDBRANCH   2   3
TORSDOF 10
ENDMDL
MODEL      139
REMARK 921   NORMALIZED FREE ENERGY PREDICTED BY IDOCK:   -1.02 KCAL/MOL
REMARK 922        TOTAL FREE ENERGY PREDICTED BY IDOCK:   -3.71 KCAL/MOL
REMARK 923 INTER-LIGAND FREE ENERGY PREDICTED BY IDOCK:   -5.38 KCAL/MOL
REMARK 924 INTRA-LIGAND FREE ENERGY PREDICTED BY IDOCK:    1.67 KCAL/MOL
REMARK 927      BINDING AFFINITY PREDICTED BY RF-SCORE:    0.00 PKD
ROOT
HETATM    1  C   UNL     1      -7.162   7.899  71.392  1.00  0.00    -0.065 C  
HETATM    2  C   UNL     1      -6.882   7.304  70.020  1.00  0.00    -0.055 C  
ENDROOT
BRANCH   2   3
HETATM    3  C   UNL     1      -6.864   5.779  70.092  1.00  0.00    -0.053 C  
BRANCH   3   4
HETATM    4  C   UNL     1      -7.714   5.091  69.014  1.00  0.00    -0.080 C  
BRANCH   4   5
HETATM    5  N   UNL     1      -9.089   5.593  68.802  1.00  0.00    -0.117 NA 
BRANCH   5   6
HETATM    6  C   UNL     1     -10.001   4.518  68.354  1.00  0.00    -0.033 C  
BRANCH   6   7
HETATM    7  C   UNL     1      -9.907   3.182  69.123  1.00  0.00     0.253 C  
BRANCH   7   8
HETATM    8  C   UNL     1      -9.180   2.051  68.389  1.00  0.00    -0.234 C  
HETATM    9  C   UNL     1      -7.669   2.104  68.546  1.00  0.00    -0.053 C  
ENDBRANCH   7   8
ENDBRANCH   6   7
ENDBRANCH   5   6
BRANCH   5  10
HETATM   10  C   UNL     1      -9.583   6.200  70.071  1.00  0.00    -0.160 C  
BRANCH  10  11
HETATM   11  C   UNL     1     -11.128   6.376  70.212  1.00  0.00    -0.354 C  
HETATM   12  O   UNL     1     -11.700   5.490  71.174  1.00  0.00     0.272 OA 
HETATM   13  H   UNL     1     -12.640   5.597  71.261  1.00  0.00     0.000 HD 
BRANCH  11  14
HETATM   14  C   UNL     1     -11.506   7.819  70.506  1.00  0.00    -0.219 A  
HETATM   15  C   UNL     1     -11.132   8.939  69.742  1.00  0.00    -0.099 A  
HETATM   16 CL   UNL     1      -8.401  10.327  64.619  1.00  0.00    -0.166 Cl 
HETATM   17  C   UNL     1      -9.795  10.837  66.871  1.00  0.00    -0.224 A  
HETATM   18  C   UNL     1     -11.663  10.222  70.082  1.00  0.00    -0.364 A  
HETATM   19  C   UNL     1     -11.123  11.190  69.095  1.00  0.00    -0.306 C  
HETATM   20  C   UNL     1     -12.550  10.395  71.134  1.00  0.00    -0.512 A  
HETATM   21  C   UNL     1     -11.124  12.536  69.136  1.00  0.00    -0.254 C  
HETATM   22  C   UNL     1     -10.370  10.434  68.068  1.00  0.00    -0.212 A  
HETATM   23  C   UNL     1     -12.870   9.300  71.918  1.00  0.00    -0.404 A  
HETATM   24  C   UNL     1     -10.307   9.095  68.528  1.00  0.00    -0.236 A  
HETATM   25  C   UNL     1      -9.092   9.891  66.132  1.00  0.00    -0.158 A  
HETATM   26 CL   UNL     1     -13.944   9.487  73.253  1.00  0.00     0.757 Cl 
HETATM   27  C   UNL     1     -12.356   8.036  71.619  1.00  0.00    -0.344 A  
HETATM   28  C   UNL     1      -8.938   8.585  66.607  1.00  0.00    -0.178 A  
HETATM   29  C   UNL     1      -9.533   8.193  67.811  1.00  0.00    -0.164 A  
BRANCH  21  30
HETATM   30  C   UNL     1     -11.685  13.343  70.220  1.00  0.00    -0.231 A  
HETATM   31  C   UNL     1     -12.864  15.060  72.075  1.00  0.00    -0.333 A  
HETATM   32 CL   UNL     1     -13.617  16.171  73.150  1.00  0.00    -0.558 Cl 
HETATM   33  C   UNL     1     -11.543  15.267  71.680  1.00  0.00    -0.473 A  
HETATM   34  C   UNL     1     -12.995  13.110  70.660  1.00  0.00     0.010 A  
HETATM   35  C   UNL     1     -13.586  13.976  71.582  1.00  0.00    -0.430 A  
HETATM   36  C   UNL     1     -10.949  14.405  70.753  1.00  0.00     0.402 A  
ENDBRANCH  21  30
ENDBRANCH  11  14
ENDBRANCH  10  11
ENDBRANCH   5  10
ENDBRANCH   4   5
ENDBRANCH   3   4
ENDBRANCH   2   3
TORSDOF 10
ENDMDL
MODEL      140
REMARK 921   NORMALIZED FREE ENERGY PREDICTED BY IDOCK:   -1.01 KCAL/MOL
REMARK 922        TOTAL FREE ENERGY PREDICTED BY IDOCK:   -3.69 KCAL/MOL
REMARK 923 INTER-LIGAND FREE ENERGY PREDICTED BY IDOCK:   -3.62 KCAL/MOL
REMARK 924 INTRA-LIGAND FREE ENERGY PREDICTED BY IDOCK:   -0.07 KCAL/MOL
REMARK 927      BINDING AFFINITY PREDICTED BY RF-SCORE:    0.00 PKD
ROOT
HETATM    1  C   UNL     1      -5.174   7.229  71.308  1.00  0.00    -0.027 C  
HETATM    2  C   UNL     1      -5.675   7.349  69.876  1.00  0.00    -0.023 C  
ENDROOT
BRANCH   2   3
HETATM    3  C   UNL     1      -7.201   7.356  69.842  1.00  0.00    -0.081 C  
BRANCH   3   4
HETATM    4  C   UNL     1      -7.824   8.755  69.950  1.00  0.00    -0.093 C  
BRANCH   4   5
HETATM    5  N   UNL     1      -8.323   9.382  68.706  1.00  0.00    -0.115 NA 
BRANCH   5   6
HETATM    6  C   UNL     1      -9.138   8.439  67.908  1.00  0.00    -0.133 C  
BRANCH   6   7
HETATM    7  C   UNL     1      -8.614   8.118  66.491  1.00  0.00    -0.146 C  
BRANCH   7   8
HETATM    8  C   UNL     1      -7.145   8.468  66.238  1.00  0.00    -0.078 C  
HETATM    9  C   UNL     1      -6.753   8.399  64.771  1.00  0.00    -0.068 C  
ENDBRANCH   7   8
ENDBRANCH   6   7
ENDBRANCH   5   6
BRANCH   5  10
HETATM   10  C   UNL     1      -9.121  10.590  69.060  1.00  0.00    -0.181 C  
BRANCH  10  11
HETATM   11  C   UNL     1      -9.776  11.372  67.878  1.00  0.00    -0.180 C  
HETATM   12  O   UNL     1     -11.194  11.214  67.828  1.00  0.00    -0.257 OA 
HETATM   13  H   UNL     1     -11.592  11.690  67.109  1.00  0.00     0.000 HD 
BRANCH  11  14
HETATM   14  C   UNL     1      -9.390  12.842  67.893  1.00  0.00    -0.208 A  
HETATM   15  C   UNL     1     -10.050  13.859  68.606  1.00  0.00    -0.203 A  
HETATM   16 CL   UNL     1     -14.402  14.598  72.626  1.00  0.00    -0.182 Cl 
HETATM   17  C   UNL     1     -12.359  15.386  71.049  1.00  0.00    -0.449 A  
HETATM   18  C   UNL     1      -9.497  15.177  68.611  1.00  0.00    -0.206 A  
HETATM   19  C   UNL     1     -10.382  16.015  69.460  1.00  0.00    -0.278 C  
HETATM   20  C   UNL     1      -8.318  15.482  67.947  1.00  0.00    -0.148 A  
HETATM   21  C   UNL     1     -10.430  17.356  69.572  1.00  0.00     0.028 C  
HETATM   22  C   UNL     1     -11.399  15.134  70.080  1.00  0.00    -0.304 A  
HETATM   23  C   UNL     1      -7.704  14.492  67.200  1.00  0.00    -0.062 A  
HETATM   24  C   UNL     1     -11.241  13.861  69.479  1.00  0.00    -0.237 A  
HETATM   25  C   UNL     1     -13.225  14.353  71.396  1.00  0.00    -0.348 A  
HETATM   26 CL   UNL     1      -6.255  14.847  66.337  1.00  0.00     2.902 Cl 
HETATM   27  C   UNL     1      -8.227  13.199  67.165  1.00  0.00    -0.127 A  
HETATM   28  C   UNL     1     -13.148  13.113  70.753  1.00  0.00     0.042 A  
HETATM   29  C   UNL     1     -12.167  12.873  69.786  1.00  0.00    -0.227 A  
BRANCH  21  30
HETATM   30  C   UNL     1      -9.577  18.292  68.840  1.00  0.00    -0.268 A  
HETATM   31  C   UNL     1      -7.956  19.880  67.219  1.00  0.00    -0.302 A  
HETATM   32 CL   UNL     1      -6.957  20.793  66.158  1.00  0.00    -0.207 Cl 
HETATM   33  C   UNL     1      -7.375  18.975  68.108  1.00  0.00    -0.298 A  
HETATM   34  C   UNL     1     -10.153  19.239  67.982  1.00  0.00    -0.496 A  
HETATM   35  C   UNL     1      -9.338  20.027  67.166  1.00  0.00    -0.502 A  
HETATM   36  C   UNL     1      -8.186  18.181  68.924  1.00  0.00    -0.160 A  
ENDBRANCH  21  30
ENDBRANCH  11  14
ENDBRANCH  10  11
ENDBRANCH   5  10
ENDBRANCH   4   5
ENDBRANCH   3   4
ENDBRANCH   2   3
TORSDOF 10
ENDMDL
MODEL      141
REMARK 921   NORMALIZED FREE ENERGY PREDICTED BY IDOCK:   -0.79 KCAL/MOL
REMARK 922        TOTAL FREE ENERGY PREDICTED BY IDOCK:   -3.34 KCAL/MOL
REMARK 923 INTER-LIGAND FREE ENERGY PREDICTED BY IDOCK:   -3.04 KCAL/MOL
REMARK 924 INTRA-LIGAND FREE ENERGY PREDICTED BY IDOCK:   -0.30 KCAL/MOL
REMARK 927      BINDING AFFINITY PREDICTED BY RF-SCORE:    0.00 PKD
ROOT
HETATM    1  C   UNL     1     -13.678  10.974  70.486  1.00  0.00     1.367 C  
HETATM    2  C   UNL     1     -12.611  11.627  69.619  1.00  0.00     0.093 C  
ENDROOT
BRANCH   2   3
HETATM    3  C   UNL     1     -11.216  11.233  70.100  1.00  0.00    -0.151 C  
BRANCH   3   4
HETATM    4  C   UNL     1     -11.215  10.274  71.299  1.00  0.00     0.090 C  
BRANCH   4   5
HETATM    5  N   UNL     1     -10.640   8.926  71.098  1.00  0.00    -0.241 NA 
BRANCH   5   6
HETATM    6  C   UNL     1     -11.237   8.247  69.927  1.00  0.00    -0.028 C  
BRANCH   6   7
HETATM    7  C   UNL     1     -11.806   6.833  70.178  1.00  0.00    -0.321 C  
BRANCH   7   8
HETATM    8  C   UNL     1     -12.517   6.639  71.520  1.00  0.00    -0.326 C  
HETATM    9  C   UNL     1     -13.923   7.217  71.547  1.00  0.00    -0.440 C  
ENDBRANCH   7   8
ENDBRANCH   6   7
ENDBRANCH   5   6
BRANCH   5  10
HETATM   10  C   UNL     1      -9.164   9.050  70.933  1.00  0.00    -0.259 C  
BRANCH  10  11
HETATM   11  C   UNL     1      -8.303   7.818  71.358  1.00  0.00    -0.111 C  
HETATM   12  O   UNL     1      -8.788   7.184  72.540  1.00  0.00    -0.123 OA 
HETATM   13  H   UNL     1      -8.264   6.435  72.798  1.00  0.00     0.000 HD 
BRANCH  11  14
HETATM   14  C   UNL     1      -8.153   6.818  70.222  1.00  0.00    -0.120 A  
HETATM   15  C   UNL     1      -8.484   5.452  70.279  1.00  0.00    -0.119 A  
HETATM   16 CL   UNL     1     -11.082   1.482  73.902  1.00  0.00    -0.220 Cl 
HETATM   17  C   UNL     1      -9.955   2.337  71.605  1.00  0.00    -0.176 A  
HETATM   18  C   UNL     1      -8.394   4.664  69.091  1.00  0.00    -0.085 A  
HETATM   19  C   UNL     1      -8.830   3.290  69.448  1.00  0.00    -0.153 C  
HETATM   20  C   UNL     1      -8.005   5.208  67.875  1.00  0.00    -0.095 A  
HETATM   21  C   UNL     1      -8.686   2.146  68.753  1.00  0.00    -0.126 C  
HETATM   22  C   UNL     1      -9.320   3.308  70.845  1.00  0.00    -0.220 A  
HETATM   23  C   UNL     1      -7.625   6.539  67.837  1.00  0.00    -0.103 A  
HETATM   24  C   UNL     1      -9.015   4.594  71.357  1.00  0.00    -0.163 A  
HETATM   25  C   UNL     1     -10.252   2.633  72.931  1.00  0.00    -0.149 A  
HETATM   26 CL   UNL     1      -7.105   7.237  66.349  1.00  0.00    -0.075 Cl 
HETATM   27  C   UNL     1      -7.689   7.331  68.985  1.00  0.00    -0.112 A  
HETATM   28  C   UNL     1      -9.880   3.862  73.487  1.00  0.00    -0.156 A  
HETATM   29  C   UNL     1      -9.249   4.834  72.704  1.00  0.00    -0.143 A  
BRANCH  21  30
HETATM   30  C   UNL     1      -8.037   2.032  67.446  1.00  0.00    -0.067 A  
HETATM   31  C   UNL     1      -6.905   2.087  64.898  1.00  0.00    -0.042 A  
HETATM   32 CL   UNL     1      -6.247   2.201  63.313  1.00  0.00    -0.010 Cl 
HETATM   33  C   UNL     1      -8.179   1.547  65.080  1.00  0.00    -0.076 A  
HETATM   34  C   UNL     1      -6.738   2.525  67.264  1.00  0.00    -0.040 A  
HETATM   35  C   UNL     1      -6.178   2.559  65.986  1.00  0.00    -0.024 A  
HETATM   36  C   UNL     1      -8.746   1.515  66.357  1.00  0.00    -0.115 A  
ENDBRANCH  21  30
ENDBRANCH  11  14
ENDBRANCH  10  11
ENDBRANCH   5  10
ENDBRANCH   4   5
ENDBRANCH   3   4
ENDBRANCH   2   3
TORSDOF 10
ENDMDL
MODEL      142
REMARK 921   NORMALIZED FREE ENERGY PREDICTED BY IDOCK:   -0.75 KCAL/MOL
REMARK 922        TOTAL FREE ENERGY PREDICTED BY IDOCK:   -3.28 KCAL/MOL
REMARK 923 INTER-LIGAND FREE ENERGY PREDICTED BY IDOCK:   -4.38 KCAL/MOL
REMARK 924 INTRA-LIGAND FREE ENERGY PREDICTED BY IDOCK:    1.10 KCAL/MOL
REMARK 927      BINDING AFFINITY PREDICTED BY RF-SCORE:    0.00 PKD
ROOT
HETATM    1  C   UNL     1     -10.497   4.472  67.385  1.00  0.00     0.212 C  
HETATM    2  C   UNL     1      -9.894   5.868  67.325  1.00  0.00    -0.155 C  
ENDROOT
BRANCH   2   3
HETATM    3  C   UNL     1      -8.840   5.948  66.223  1.00  0.00    -0.143 C  
BRANCH   3   4
HETATM    4  C   UNL     1      -7.505   6.559  66.675  1.00  0.00    -0.079 C  
BRANCH   4   5
HETATM    5  N   UNL     1      -7.015   7.750  65.947  1.00  0.00    -0.060 NA 
BRANCH   5   6
HETATM    6  C   UNL     1      -7.970   8.877  66.038  1.00  0.00    -0.106 C  
BRANCH   6   7
HETATM    7  C   UNL     1      -7.634  10.122  65.189  1.00  0.00    -0.141 C  
BRANCH   7   8
HETATM    8  C   UNL     1      -8.512  10.331  63.952  1.00  0.00    -0.179 C  
HETATM    9  C   UNL     1      -9.984  10.515  64.281  1.00  0.00    -0.398 C  
ENDBRANCH   7   8
ENDBRANCH   6   7
ENDBRANCH   5   6
BRANCH   5  10
HETATM   10  C   UNL     1      -5.689   8.143  66.502  1.00  0.00    -0.040 C  
BRANCH  10  11
HETATM   11  C   UNL     1      -5.671   8.680  67.968  1.00  0.00    -0.035 C  
HETATM   12  O   UNL     1      -6.128  10.027  68.071  1.00  0.00    -0.049 OA 
HETATM   13  H   UNL     1      -6.118  10.354  68.963  1.00  0.00     0.000 HD 
BRANCH  11  14
HETATM   14  C   UNL     1      -6.440   7.768  68.911  1.00  0.00    -0.040 A  
HETATM   15  C   UNL     1      -7.684   8.055  69.502  1.00  0.00    -0.103 A  
HETATM   16 CL   UNL     1     -12.026  12.149  69.353  1.00  0.00    -0.351 Cl 
HETATM   17  C   UNL     1     -10.870   9.826  70.090  1.00  0.00    -0.340 A  
HETATM   18  C   UNL     1      -8.336   7.047  70.276  1.00  0.00    -0.133 A  
HETATM   19  C   UNL     1      -9.625   7.621  70.739  1.00  0.00    -0.166 C  
HETATM   20  C   UNL     1      -7.788   5.785  70.451  1.00  0.00    -0.104 A  
HETATM   21  C   UNL     1     -10.466   7.167  71.688  1.00  0.00    -0.218 C  
HETATM   22  C   UNL     1      -9.795   8.948  70.103  1.00  0.00    -0.199 A  
HETATM   23  C   UNL     1      -6.537   5.526  69.917  1.00  0.00    -0.046 A  
HETATM   24  C   UNL     1      -8.575   9.231  69.440  1.00  0.00    -0.142 A  
HETATM   25  C   UNL     1     -10.710  11.046  69.440  1.00  0.00    -0.205 A  
HETATM   26 CL   UNL     1      -5.813   3.978  70.144  1.00  0.00    -0.017 Cl 
HETATM   27  C   UNL     1      -5.870   6.496  69.167  1.00  0.00    -0.021 A  
HETATM   28  C   UNL     1      -9.486  11.387  68.856  1.00  0.00    -0.064 A  
HETATM   29  C   UNL     1      -8.417  10.486  68.869  1.00  0.00    -0.152 A  
BRANCH  21  30
HETATM   30  C   UNL     1     -10.258   5.960  72.487  1.00  0.00    -0.214 A  
HETATM   31  C   UNL     1      -9.656   3.580  73.811  1.00  0.00    -0.102 A  
HETATM   32 CL   UNL     1      -9.227   2.093  74.560  1.00  0.00    -0.087 Cl 
HETATM   33  C   UNL     1     -10.684   3.609  72.868  1.00  0.00    -0.192 A  
HETATM   34  C   UNL     1      -9.261   5.936  73.472  1.00  0.00    -0.131 A  
HETATM   35  C   UNL     1      -8.956   4.741  74.127  1.00  0.00    -0.112 A  
HETATM   36  C   UNL     1     -10.990   4.802  72.207  1.00  0.00    -0.067 A  
ENDBRANCH  21  30
ENDBRANCH  11  14
ENDBRANCH  10  11
ENDBRANCH   5  10
ENDBRANCH   4   5
ENDBRANCH   3   4
ENDBRANCH   2   3
TORSDOF 10
ENDMDL
MODEL      143
REMARK 921   NORMALIZED FREE ENERGY PREDICTED BY IDOCK:   -0.69 KCAL/MOL
REMARK 922        TOTAL FREE ENERGY PREDICTED BY IDOCK:   -3.18 KCAL/MOL
REMARK 923 INTER-LIGAND FREE ENERGY PREDICTED BY IDOCK:   -3.48 KCAL/MOL
REMARK 924 INTRA-LIGAND FREE ENERGY PREDICTED BY IDOCK:    0.30 KCAL/MOL
REMARK 927      BINDING AFFINITY PREDICTED BY RF-SCORE:    0.00 PKD
ROOT
HETATM    1  C   UNL     1      -8.279   8.435  64.558  1.00  0.00    -0.149 C  
HETATM    2  C   UNL     1      -7.112   9.379  64.301  1.00  0.00    -0.102 C  
ENDROOT
BRANCH   2   3
HETATM    3  C   UNL     1      -6.973  10.381  65.445  1.00  0.00    -0.118 C  
BRANCH   3   4
HETATM    4  C   UNL     1      -6.304   9.807  66.702  1.00  0.00    -0.066 C  
BRANCH   4   5
HETATM    5  N   UNL     1      -7.183   9.246  67.751  1.00  0.00    -0.082 NA 
BRANCH   5   6
HETATM    6  C   UNL     1      -6.417   8.456  68.741  1.00  0.00    -0.053 C  
BRANCH   6   7
HETATM    7  C   UNL     1      -7.114   7.190  69.286  1.00  0.00    -0.079 C  
BRANCH   7   8
HETATM    8  C   UNL     1      -8.163   6.566  68.361  1.00  0.00    -0.114 C  
HETATM    9  C   UNL     1      -8.270   5.057  68.504  1.00  0.00    -0.085 C  
ENDBRANCH   7   8
ENDBRANCH   6   7
ENDBRANCH   5   6
BRANCH   5  10
HETATM   10  C   UNL     1      -7.907  10.361  68.423  1.00  0.00    -0.104 C  
BRANCH  10  11
HETATM   11  C   UNL     1      -8.776  11.286  67.512  1.00  0.00    -0.138 C  
HETATM   12  O   UNL     1     -10.176  11.071  67.680  1.00  0.00    -0.174 OA 
HETATM   13  H   UNL     1     -10.704  11.634  67.126  1.00  0.00     0.000 HD 
BRANCH  11  14
HETATM   14  C   UNL     1      -8.422  12.753  67.699  1.00  0.00    -0.178 A  
HETATM   15  C   UNL     1      -9.016  13.836  67.026  1.00  0.00    -0.247 A  
HETATM   16 CL   UNL     1     -13.501  15.034  63.273  1.00  0.00     3.307 Cl 
HETATM   17  C   UNL     1     -11.462  15.641  64.932  1.00  0.00    -0.245 A  
HETATM   18  C   UNL     1      -8.655  15.168  67.395  1.00  0.00    -0.201 A  
HETATM   19  C   UNL     1      -9.456  16.086  66.546  1.00  0.00    -0.297 C  
HETATM   20  C   UNL     1      -7.745  15.429  68.410  1.00  0.00    -0.120 A  
HETATM   21  C   UNL     1      -9.298  17.407  66.339  1.00  0.00    -0.272 C  
HETATM   22  C   UNL     1     -10.412  15.273  65.760  1.00  0.00    -0.365 A  
HETATM   23  C   UNL     1      -7.120  14.360  69.029  1.00  0.00    -0.120 A  
HETATM   24  C   UNL     1     -10.066  13.918  65.991  1.00  0.00    -0.324 A  
HETATM   25  C   UNL     1     -12.160  14.634  64.273  1.00  0.00    -0.415 A  
HETATM   26 CL   UNL     1      -5.961  14.650  70.272  1.00  0.00    -0.149 Cl 
HETATM   27  C   UNL     1      -7.443  13.047  68.681  1.00  0.00    -0.093 A  
HETATM   28  C   UNL     1     -11.782  13.295  64.413  1.00  0.00    -0.433 A  
HETATM   29  C   UNL     1     -10.727  12.940  65.260  1.00  0.00    -0.318 A  
BRANCH  21  30
HETATM   30  C   UNL     1      -8.251  18.233  66.941  1.00  0.00    -0.260 A  
HETATM   31  C   UNL     1      -6.320  19.673  68.346  1.00  0.00    -0.254 A  
HETATM   32 CL   UNL     1      -5.157  20.520  69.288  1.00  0.00    -0.265 Cl 
HETATM   33  C   UNL     1      -7.606  20.194  68.202  1.00  0.00    -0.240 A  
HETATM   34  C   UNL     1      -6.944  17.739  67.046  1.00  0.00    -0.205 A  
HETATM   35  C   UNL     1      -5.981  18.458  67.757  1.00  0.00    -0.174 A  
HETATM   36  C   UNL     1      -8.574  19.476  67.495  1.00  0.00    -0.348 A  
ENDBRANCH  21  30
ENDBRANCH  11  14
ENDBRANCH  10  11
ENDBRANCH   5  10
ENDBRANCH   4   5
ENDBRANCH   3   4
ENDBRANCH   2   3
TORSDOF 10
ENDMDL
MODEL      144
REMARK 921   NORMALIZED FREE ENERGY PREDICTED BY IDOCK:   -0.59 KCAL/MOL
REMARK 922        TOTAL FREE ENERGY PREDICTED BY IDOCK:   -3.03 KCAL/MOL
REMARK 923 INTER-LIGAND FREE ENERGY PREDICTED BY IDOCK:   -5.23 KCAL/MOL
REMARK 924 INTRA-LIGAND FREE ENERGY PREDICTED BY IDOCK:    2.21 KCAL/MOL
REMARK 927      BINDING AFFINITY PREDICTED BY RF-SCORE:    0.00 PKD
ROOT
HETATM    1  C   UNL     1      -6.352   6.056  67.029  1.00  0.00    -0.042 C  
HETATM    2  C   UNL     1      -6.735   5.072  65.933  1.00  0.00    -0.053 C  
ENDROOT
BRANCH   2   3
HETATM    3  C   UNL     1      -6.896   3.666  66.509  1.00  0.00    -0.054 C  
BRANCH   3   4
HETATM    4  C   UNL     1      -6.281   3.487  67.905  1.00  0.00    -0.032 C  
BRANCH   4   5
HETATM    5  N   UNL     1      -6.645   4.474  68.945  1.00  0.00    -0.044 NA 
BRANCH   5   6
HETATM    6  C   UNL     1      -7.969   5.080  68.685  1.00  0.00    -0.085 C  
BRANCH   6   7
HETATM    7  C   UNL     1      -9.172   4.110  68.681  1.00  0.00    -0.203 C  
BRANCH   7   8
HETATM    8  C   UNL     1     -10.405   4.594  67.913  1.00  0.00     0.067 C  
HETATM    9  C   UNL     1     -11.013   5.863  68.488  1.00  0.00    -0.277 C  
ENDBRANCH   7   8
ENDBRANCH   6   7
ENDBRANCH   5   6
BRANCH   5  10
HETATM   10  C   UNL     1      -6.632   3.800  70.275  1.00  0.00    -0.033 C  
BRANCH  10  11
HETATM   11  C   UNL     1      -6.499   4.721  71.529  1.00  0.00    -0.023 C  
HETATM   12  O   UNL     1      -5.170   5.205  71.722  1.00  0.00    -0.004 OA 
HETATM   13  H   UNL     1      -5.089   5.765  72.484  1.00  0.00     0.000 HD 
BRANCH  11  14
HETATM   14  C   UNL     1      -7.499   5.866  71.496  1.00  0.00    -0.094 A  
HETATM   15  C   UNL     1      -8.874   5.766  71.778  1.00  0.00    -0.136 A  
HETATM   16 CL   UNL     1     -12.901   1.840  73.777  1.00  0.00     0.058 Cl 
HETATM   17  C   UNL     1     -12.025   4.263  72.977  1.00  0.00     0.223 A  
HETATM   18  C   UNL     1      -9.664   6.956  71.817  1.00  0.00    -0.163 A  
HETATM   19  C   UNL     1     -11.048   6.546  72.163  1.00  0.00    -0.296 C  
HETATM   20  C   UNL     1      -9.114   8.211  71.601  1.00  0.00    -0.214 A  
HETATM   21  C   UNL     1     -12.191   7.253  72.076  1.00  0.00    -0.312 C  
HETATM   22  C   UNL     1     -11.039   5.098  72.473  1.00  0.00    -0.257 A  
HETATM   23  C   UNL     1      -7.773   8.298  71.268  1.00  0.00    -0.099 A  
HETATM   24  C   UNL     1      -9.743   4.629  72.142  1.00  0.00    -0.219 A  
HETATM   25  C   UNL     1     -11.731   2.909  73.111  1.00  0.00     0.280 A  
HETATM   26 CL   UNL     1      -7.066   9.840  70.962  1.00  0.00     0.025 Cl 
HETATM   27  C   UNL     1      -6.979   7.152  71.209  1.00  0.00    -0.060 A  
HETATM   28  C   UNL     1     -10.490   2.406  72.708  1.00  0.00    -0.232 A  
HETATM   29  C   UNL     1      -9.504   3.264  72.210  1.00  0.00    -0.186 A  
BRANCH  21  30
HETATM   30  C   UNL     1     -12.292   8.631  71.596  1.00  0.00    -0.384 A  
HETATM   31  C   UNL     1     -12.246  11.318  70.848  1.00  0.00    -0.356 A  
HETATM   32 CL   UNL     1     -12.148  12.987  70.444  1.00  0.00    -0.428 Cl 
HETATM   33  C   UNL     1     -13.017  10.914  71.938  1.00  0.00    -0.502 A  
HETATM   34  C   UNL     1     -11.560   9.036  70.471  1.00  0.00    -0.209 A  
HETATM   35  C   UNL     1     -11.532  10.383  70.104  1.00  0.00    -0.396 A  
HETATM   36  C   UNL     1     -13.045   9.567  72.311  1.00  0.00    -0.492 A  
ENDBRANCH  21  30
ENDBRANCH  11  14
ENDBRANCH  10  11
ENDBRANCH   5  10
ENDBRANCH   4   5
ENDBRANCH   3   4
ENDBRANCH   2   3
TORSDOF 10
ENDMDL
MODEL      145
REMARK 921   NORMALIZED FREE ENERGY PREDICTED BY IDOCK:   -0.52 KCAL/MOL
REMARK 922        TOTAL FREE ENERGY PREDICTED BY IDOCK:   -2.91 KCAL/MOL
REMARK 923 INTER-LIGAND FREE ENERGY PREDICTED BY IDOCK:   -3.77 KCAL/MOL
REMARK 924 INTRA-LIGAND FREE ENERGY PREDICTED BY IDOCK:    0.86 KCAL/MOL
REMARK 927      BINDING AFFINITY PREDICTED BY RF-SCORE:    0.00 PKD
ROOT
HETATM    1  C   UNL     1      -8.939   9.017  64.249  1.00  0.00     0.000 C  
HETATM    2  C   UNL     1      -7.798   9.993  64.003  1.00  0.00    -0.150 C  
ENDROOT
BRANCH   2   3
HETATM    3  C   UNL     1      -7.672  10.974  65.168  1.00  0.00     0.335 C  
BRANCH   3   4
HETATM    4  C   UNL     1      -6.892  10.422  66.370  1.00  0.00    -0.112 C  
BRANCH   4   5
HETATM    5  N   UNL     1      -7.670   9.816  67.472  1.00  0.00    -0.095 NA 
BRANCH   5   6
HETATM    6  C   UNL     1      -6.805   9.041  68.390  1.00  0.00    -0.064 C  
BRANCH   6   7
HETATM    7  C   UNL     1      -7.137   7.539  68.531  1.00  0.00    -0.081 C  
BRANCH   7   8
HETATM    8  C   UNL     1      -7.621   7.100  69.915  1.00  0.00    -0.098 C  
HETATM    9  C   UNL     1      -8.884   7.815  70.367  1.00  0.00    -0.146 C  
ENDBRANCH   7   8
ENDBRANCH   6   7
ENDBRANCH   5   6
BRANCH   5  10
HETATM   10  C   UNL     1      -8.380  10.896  68.214  1.00  0.00    -0.129 C  
BRANCH  10  11
HETATM   11  C   UNL     1      -9.309  11.831  67.376  1.00  0.00    -0.174 C  
HETATM   12  O   UNL     1     -10.695  11.595  67.618  1.00  0.00    -0.192 OA 
HETATM   13  H   UNL     1     -11.260  12.164  67.109  1.00  0.00     0.000 HD 
BRANCH  11  14
HETATM   14  C   UNL     1      -8.961  13.298  67.578  1.00  0.00    -0.208 A  
HETATM   15  C   UNL     1      -9.692  14.219  68.349  1.00  0.00    -0.225 A  
HETATM   16 CL   UNL     1     -14.322  14.438  72.111  1.00  0.00    -0.611 Cl 
HETATM   17  C   UNL     1     -12.198  15.429  70.776  1.00  0.00    -0.430 A  
HETATM   18  C   UNL     1      -9.173  15.537  68.536  1.00  0.00    -0.197 A  
HETATM   19  C   UNL     1     -10.134  16.262  69.406  1.00  0.00    -0.253 C  
HETATM   20  C   UNL     1      -7.960  15.933  67.993  1.00  0.00    -0.141 A  
HETATM   21  C   UNL     1     -10.222  17.581  69.660  1.00  0.00     0.173 C  
HETATM   22  C   UNL     1     -11.168  15.301  69.855  1.00  0.00    -0.305 A  
HETATM   23  C   UNL     1      -7.272  15.042  67.187  1.00  0.00    -0.016 A  
HETATM   24  C   UNL     1     -10.939  14.104  69.132  1.00  0.00    -0.280 A  
HETATM   25  C   UNL     1     -13.059  14.349  70.948  1.00  0.00    -0.328 A  
HETATM   26 CL   UNL     1      -5.777  15.514  66.471  1.00  0.00     1.594 Cl 
HETATM   27  C   UNL     1      -7.761  13.751  66.975  1.00  0.00     0.163 A  
HETATM   28  C   UNL     1     -12.909  13.189  70.181  1.00  0.00     0.229 A  
HETATM   29  C   UNL     1     -11.859  13.074  69.265  1.00  0.00    -0.370 A  
BRANCH  21  30
HETATM   30  C   UNL     1      -9.345  18.606  69.094  1.00  0.00    -0.078 A  
HETATM   31  C   UNL     1      -7.584  20.354  67.820  1.00  0.00    -0.252 A  
HETATM   32 CL   UNL     1      -6.473  21.364  66.981  1.00  0.00    -0.386 Cl 
HETATM   33  C   UNL     1      -7.151  19.611  68.918  1.00  0.00    -0.388 A  
HETATM   34  C   UNL     1      -9.788  19.394  68.023  1.00  0.00    -0.465 A  
HETATM   35  C   UNL     1      -8.902  20.262  67.382  1.00  0.00    -0.442 A  
HETATM   36  C   UNL     1      -8.033  18.738  69.560  1.00  0.00     0.350 A  
ENDBRANCH  21  30
ENDBRANCH  11  14
ENDBRANCH  10  11
ENDBRANCH   5  10
ENDBRANCH   4   5
ENDBRANCH   3   4
ENDBRANCH   2   3
TORSDOF 10
ENDMDL
MODEL      146
REMARK 921   NORMALIZED FREE ENERGY PREDICTED BY IDOCK:   -0.43 KCAL/MOL
REMARK 922        TOTAL FREE ENERGY PREDICTED BY IDOCK:   -2.77 KCAL/MOL
REMARK 923 INTER-LIGAND FREE ENERGY PREDICTED BY IDOCK:   -4.93 KCAL/MOL
REMARK 924 INTRA-LIGAND FREE ENERGY PREDICTED BY IDOCK:    2.16 KCAL/MOL
REMARK 927      BINDING AFFINITY PREDICTED BY RF-SCORE:    0.00 PKD
ROOT
HETATM    1  C   UNL     1      -8.056  17.605  66.258  1.00  0.00    -0.281 C  
HETATM    2  C   UNL     1      -8.308  16.128  66.525  1.00  0.00    -0.352 C  
ENDROOT
BRANCH   2   3
HETATM    3  C   UNL     1      -9.396  15.595  65.595  1.00  0.00    -0.207 C  
BRANCH   3   4
HETATM    4  C   UNL     1      -9.455  14.063  65.515  1.00  0.00     0.151 C  
BRANCH   4   5
HETATM    5  N   UNL     1     -10.677  13.397  66.017  1.00  0.00    -0.276 NA 
BRANCH   5   6
HETATM    6  C   UNL     1     -11.636  13.119  64.925  1.00  0.00    -0.323 C  
BRANCH   6   7
HETATM    7  C   UNL     1     -12.246  14.354  64.225  1.00  0.00    -0.450 C  
BRANCH   7   8
HETATM    8  C   UNL     1     -11.311  15.559  64.084  1.00  0.00    -0.004 C  
HETATM    9  C   UNL     1     -11.883  16.837  64.675  1.00  0.00     1.074 C  
ENDBRANCH   7   8
ENDBRANCH   6   7
ENDBRANCH   5   6
BRANCH   5  10
HETATM   10  C   UNL     1     -10.291  12.133  66.705  1.00  0.00    -0.213 C  
BRANCH  10  11
HETATM   11  C   UNL     1      -8.945  12.146  67.497  1.00  0.00    -0.177 C  
HETATM   12  O   UNL     1      -8.967  13.037  68.612  1.00  0.00    -0.363 OA 
HETATM   13  H   UNL     1      -8.149  13.044  69.094  1.00  0.00     0.000 HD 
BRANCH  11  14
HETATM   14  C   UNL     1      -8.530  10.746  67.924  1.00  0.00    -0.122 A  
HETATM   15  C   UNL     1      -9.175   9.956  68.892  1.00  0.00    -0.160 A  
HETATM   16 CL   UNL     1     -14.064   9.930  72.317  1.00  0.00    -0.052 Cl 
HETATM   17  C   UNL     1     -11.816   8.895  71.244  1.00  0.00    -0.371 A  
HETATM   18  C   UNL     1      -8.733   8.613  69.101  1.00  0.00    -0.136 A  
HETATM   19  C   UNL     1      -9.609   8.026  70.146  1.00  0.00    -0.175 C  
HETATM   20  C   UNL     1      -7.695   8.058  68.366  1.00  0.00    -0.117 A  
HETATM   21  C   UNL     1      -9.443   6.895  70.858  1.00  0.00    -0.157 C  
HETATM   22  C   UNL     1     -10.679   9.002  70.455  1.00  0.00    -0.285 A  
HETATM   23  C   UNL     1      -7.026   8.858  67.456  1.00  0.00    -0.075 A  
HETATM   24  C   UNL     1     -10.344  10.191  69.762  1.00  0.00    -0.297 A  
HETATM   25  C   UNL     1     -12.619  10.022  71.390  1.00  0.00    -0.415 A  
HETATM   26 CL   UNL     1      -5.712   8.208  66.550  1.00  0.00    -0.039 Cl 
HETATM   27  C   UNL     1      -7.427  10.178  67.240  1.00  0.00    -0.091 A  
HETATM   28  C   UNL     1     -12.263  11.234  70.789  1.00  0.00    -0.479 A  
HETATM   29  C   UNL     1     -11.119  11.321  69.989  1.00  0.00    -0.114 A  
BRANCH  21  30
HETATM   30  C   UNL     1      -8.305   5.983  70.732  1.00  0.00    -0.126 A  
HETATM   31  C   UNL     1      -6.311   4.037  70.618  1.00  0.00    -0.023 A  
HETATM   32 CL   UNL     1      -5.137   2.781  70.591  1.00  0.00    -0.004 Cl 
HETATM   33  C   UNL     1      -6.391   4.885  71.723  1.00  0.00    -0.030 A  
HETATM   34  C   UNL     1      -8.188   5.162  69.603  1.00  0.00    -0.093 A  
HETATM   35  C   UNL     1      -7.193   4.183  69.552  1.00  0.00    -0.050 A  
HETATM   36  C   UNL     1      -7.387   5.864  71.780  1.00  0.00    -0.093 A  
ENDBRANCH  21  30
ENDBRANCH  11  14
ENDBRANCH  10  11
ENDBRANCH   5  10
ENDBRANCH   4   5
ENDBRANCH   3   4
ENDBRANCH   2   3
TORSDOF 10
ENDMDL
MODEL      147
REMARK 921   NORMALIZED FREE ENERGY PREDICTED BY IDOCK:    0.49 KCAL/MOL
REMARK 922        TOTAL FREE ENERGY PREDICTED BY IDOCK:   -1.31 KCAL/MOL
REMARK 923 INTER-LIGAND FREE ENERGY PREDICTED BY IDOCK:   -3.34 KCAL/MOL
REMARK 924 INTRA-LIGAND FREE ENERGY PREDICTED BY IDOCK:    2.02 KCAL/MOL
REMARK 927      BINDING AFFINITY PREDICTED BY RF-SCORE:    0.00 PKD
ROOT
HETATM    1  C   UNL     1      -7.161  17.528  68.512  1.00  0.00    -0.226 C  
HETATM    2  C   UNL     1      -6.508  16.189  68.824  1.00  0.00    -0.122 C  
ENDROOT
BRANCH   2   3
HETATM    3  C   UNL     1      -6.336  15.368  67.547  1.00  0.00    -0.148 C  
BRANCH   3   4
HETATM    4  C   UNL     1      -5.874  13.923  67.790  1.00  0.00    -0.089 C  
BRANCH   4   5
HETATM    5  N   UNL     1      -6.690  13.085  68.695  1.00  0.00    -0.089 NA 
BRANCH   5   6
HETATM    6  C   UNL     1      -8.055  12.876  68.164  1.00  0.00    -0.158 C  
BRANCH   6   7
HETATM    7  C   UNL     1      -8.941  14.136  68.051  1.00  0.00    -0.183 C  
BRANCH   7   8
HETATM    8  C   UNL     1     -10.230  14.111  68.878  1.00  0.00    -0.181 C  
HETATM    9  C   UNL     1     -11.214  15.204  68.495  1.00  0.00    -0.301 C  
ENDBRANCH   7   8
ENDBRANCH   6   7
ENDBRANCH   5   6
BRANCH   5  10
HETATM   10  C   UNL     1      -6.003  11.778  68.895  1.00  0.00    -0.051 C  
BRANCH  10  11
HETATM   11  C   UNL     1      -5.684  11.368  70.368  1.00  0.00    -0.151 C  
HETATM   12  O   UNL     1      -6.311  12.219  71.327  1.00  0.00    -0.055 OA 
HETATM   13  H   UNL     1      -6.117  11.969  72.223  1.00  0.00     0.000 HD 
BRANCH  11  14
HETATM   14  C   UNL     1      -6.018   9.908  70.630  1.00  0.00    -0.087 A  
HETATM   15  C   UNL     1      -6.423   8.970  69.663  1.00  0.00    -0.042 A  
HETATM   16 CL   UNL     1      -7.084   8.423  63.756  1.00  0.00    -0.087 Cl 
HETATM   17  C   UNL     1      -7.042   7.556  66.310  1.00  0.00    -0.070 A  
HETATM   18  C   UNL     1      -6.590   7.604  70.047  1.00  0.00    -0.038 A  
HETATM   19  C   UNL     1      -6.986   6.856  68.827  1.00  0.00    -0.075 C  
HETATM   20  C   UNL     1      -6.350   7.169  71.343  1.00  0.00    -0.037 A  
HETATM   21  C   UNL     1      -7.494   5.613  68.719  1.00  0.00    -0.084 C  
HETATM   22  C   UNL     1      -6.911   7.780  67.673  1.00  0.00    -0.069 A  
HETATM   23  C   UNL     1      -6.009   8.106  72.303  1.00  0.00    -0.048 A  
HETATM   24  C   UNL     1      -6.665   9.068  68.210  1.00  0.00    -0.061 A  
HETATM   25  C   UNL     1      -6.976   8.653  65.457  1.00  0.00    -0.078 A  
HETATM   26 CL   UNL     1      -5.735   7.604  73.929  1.00  0.00    -0.056 Cl 
HETATM   27  C   UNL     1      -5.851   9.450  71.961  1.00  0.00     0.010 A  
HETATM   28  C   UNL     1      -6.823   9.945  65.968  1.00  0.00    -0.099 A  
HETATM   29  C   UNL     1      -6.683  10.153  67.344  1.00  0.00    -0.073 A  
BRANCH  21  30
HETATM   30  C   UNL     1      -7.770   4.718  69.843  1.00  0.00    -0.055 A  
HETATM   31  C   UNL     1      -8.204   3.231  72.162  1.00  0.00    -0.067 A  
HETATM   32 CL   UNL     1      -8.437   2.383  73.640  1.00  0.00    -0.063 Cl 
HETATM   33  C   UNL     1      -6.981   3.140  71.497  1.00  0.00    -0.031 A  
HETATM   34  C   UNL     1      -9.015   4.765  70.486  1.00  0.00    -0.159 A  
HETATM   35  C   UNL     1      -9.226   4.026  71.652  1.00  0.00    -0.186 A  
HETATM   36  C   UNL     1      -6.763   3.881  70.333  1.00  0.00    -0.033 A  
ENDBRANCH  21  30
ENDBRANCH  11  14
ENDBRANCH  10  11
ENDBRANCH   5  10
ENDBRANCH   4   5
ENDBRANCH   3   4
ENDBRANCH   2   3
TORSDOF 10
ENDMDL
MODEL      148
REMARK 921   NORMALIZED FREE ENERGY PREDICTED BY IDOCK:    0.52 KCAL/MOL
REMARK 922        TOTAL FREE ENERGY PREDICTED BY IDOCK:   -1.27 KCAL/MOL
REMARK 923 INTER-LIGAND FREE ENERGY PREDICTED BY IDOCK:   -2.93 KCAL/MOL
REMARK 924 INTRA-LIGAND FREE ENERGY PREDICTED BY IDOCK:    1.66 KCAL/MOL
REMARK 927      BINDING AFFINITY PREDICTED BY RF-SCORE:    0.00 PKD
ROOT
HETATM    1  C   UNL     1      -9.765  10.101  66.095  1.00  0.00    -0.275 C  
HETATM    2  C   UNL     1     -10.888   9.181  66.552  1.00  0.00     0.231 C  
ENDROOT
BRANCH   2   3
HETATM    3  C   UNL     1     -11.144   9.350  68.048  1.00  0.00    -0.004 C  
BRANCH   3   4
HETATM    4  C   UNL     1     -11.111   8.036  68.842  1.00  0.00     0.285 C  
BRANCH   4   5
HETATM    5  N   UNL     1      -9.787   7.506  69.235  1.00  0.00    -0.167 NA 
BRANCH   5   6
HETATM    6  C   UNL     1      -9.823   6.887  70.578  1.00  0.00    -0.179 C  
BRANCH   6   7
HETATM    7  C   UNL     1     -11.026   7.267  71.470  1.00  0.00    -0.259 C  
BRANCH   7   8
HETATM    8  C   UNL     1     -10.682   8.048  72.741  1.00  0.00    -0.431 C  
HETATM    9  C   UNL     1      -9.663   7.346  73.623  1.00  0.00    -0.349 C  
ENDBRANCH   7   8
ENDBRANCH   6   7
ENDBRANCH   5   6
BRANCH   5  10
HETATM   10  C   UNL     1      -9.342   6.513  68.215  1.00  0.00    -0.118 C  
BRANCH  10  11
HETATM   11  C   UNL     1      -7.879   6.653  67.688  1.00  0.00    -0.111 C  
HETATM   12  O   UNL     1      -7.763   6.364  66.296  1.00  0.00    -0.095 OA 
HETATM   13  H   UNL     1      -6.873   6.449  65.975  1.00  0.00     0.000 HD 
BRANCH  11  14
HETATM   14  C   UNL     1      -7.291   8.018  68.014  1.00  0.00    -0.096 A  
HETATM   15  C   UNL     1      -6.733   8.399  69.247  1.00  0.00    -0.046 A  
HETATM   16 CL   UNL     1      -5.213   6.090  74.538  1.00  0.00    -0.032 Cl 
HETATM   17  C   UNL     1      -5.363   8.015  72.654  1.00  0.00    -0.037 A  
HETATM   18  C   UNL     1      -6.116   9.683  69.363  1.00  0.00    -0.036 A  
HETATM   19  C   UNL     1      -5.597   9.790  70.751  1.00  0.00    -0.066 C  
HETATM   20  C   UNL     1      -6.035  10.560  68.292  1.00  0.00    -0.043 A  
HETATM   21  C   UNL     1      -5.167  10.880  71.415  1.00  0.00    -0.047 C  
HETATM   22  C   UNL     1      -5.791   8.484  71.420  1.00  0.00    -0.040 A  
HETATM   23  C   UNL     1      -6.637  10.203  67.097  1.00  0.00    -0.069 A  
HETATM   24  C   UNL     1      -6.561   7.693  70.532  1.00  0.00    -0.038 A  
HETATM   25  C   UNL     1      -5.756   6.737  73.040  1.00  0.00    -0.042 A  
HETATM   26 CL   UNL     1      -6.583  11.284  65.756  1.00  0.00     0.168 Cl 
HETATM   27  C   UNL     1      -7.259   8.961  66.957  1.00  0.00    -0.079 A  
HETATM   28  C   UNL     1      -6.591   5.970  72.221  1.00  0.00    -0.063 A  
HETATM   29  C   UNL     1      -7.004   6.454  70.976  1.00  0.00    -0.068 A  
BRANCH  21  30
HETATM   30  C   UNL     1      -5.130  12.237  70.870  1.00  0.00    -0.141 A  
HETATM   31  C   UNL     1      -5.357  14.819  69.840  1.00  0.00    -0.097 A  
HETATM   32 CL   UNL     1      -5.586  16.401  69.206  1.00  0.00    -0.127 Cl 
HETATM   33  C   UNL     1      -5.290  13.729  68.972  1.00  0.00    -0.076 A  
HETATM   34  C   UNL     1      -5.146  13.340  71.734  1.00  0.00    -0.165 A  
HETATM   35  C   UNL     1      -5.268  14.631  71.216  1.00  0.00    -0.143 A  
HETATM   36  C   UNL     1      -5.172  12.435  69.486  1.00  0.00    -0.072 A  
ENDBRANCH  21  30
ENDBRANCH  11  14
ENDBRANCH  10  11
ENDBRANCH   5  10
ENDBRANCH   4   5
ENDBRANCH   3   4
ENDBRANCH   2   3
TORSDOF 10
ENDMDL
MODEL      149
REMARK 921   NORMALIZED FREE ENERGY PREDICTED BY IDOCK:    0.54 KCAL/MOL
REMARK 922        TOTAL FREE ENERGY PREDICTED BY IDOCK:   -1.24 KCAL/MOL
REMARK 923 INTER-LIGAND FREE ENERGY PREDICTED BY IDOCK:   -1.78 KCAL/MOL
REMARK 924 INTRA-LIGAND FREE ENERGY PREDICTED BY IDOCK:    0.55 KCAL/MOL
REMARK 927      BINDING AFFINITY PREDICTED BY RF-SCORE:    0.00 PKD
ROOT
HETATM    1  C   UNL     1     -11.489   7.178  71.133  1.00  0.00    -0.322 C  
HETATM    2  C   UNL     1     -11.114   8.015  69.918  1.00  0.00    -0.108 C  
ENDROOT
BRANCH   2   3
HETATM    3  C   UNL     1      -9.779   8.722  70.147  1.00  0.00    -0.188 C  
BRANCH   3   4
HETATM    4  C   UNL     1      -8.668   8.289  69.179  1.00  0.00    -0.143 C  
BRANCH   4   5
HETATM    5  N   UNL     1      -8.248   9.256  68.141  1.00  0.00    -0.118 NA 
BRANCH   5   6
HETATM    6  C   UNL     1      -9.101   9.168  66.936  1.00  0.00    -0.135 C  
BRANCH   6   7
HETATM    7  C   UNL     1      -8.515   9.776  65.642  1.00  0.00    -0.147 C  
BRANCH   7   8
HETATM    8  C   UNL     1      -9.003   9.142  64.337  1.00  0.00    -0.104 C  
HETATM    9  C   UNL     1      -8.816  10.039  63.124  1.00  0.00    -0.244 C  
ENDBRANCH   7   8
ENDBRANCH   6   7
ENDBRANCH   5   6
BRANCH   5  10
HETATM   10  C   UNL     1      -8.295  10.631  68.714  1.00  0.00    -0.144 C  
BRANCH  10  11
HETATM   11  C   UNL     1      -9.702  11.301  68.822  1.00  0.00    -0.174 C  
HETATM   12  O   UNL     1     -10.325  11.079  70.086  1.00  0.00    -0.323 OA 
HETATM   13  H   UNL     1     -11.180  11.487  70.152  1.00  0.00     0.000 HD 
BRANCH  11  14
HETATM   14  C   UNL     1      -9.645  12.785  68.493  1.00  0.00    -0.113 A  
HETATM   15  C   UNL     1     -10.205  13.398  67.358  1.00  0.00    -0.237 A  
HETATM   16 CL   UNL     1     -13.676  12.132  62.669  1.00  0.00     2.096 Cl 
HETATM   17  C   UNL     1     -12.267  13.739  64.315  1.00  0.00    -0.444 A  
HETATM   18  C   UNL     1     -10.167  14.822  67.247  1.00  0.00    -0.241 A  
HETATM   19  C   UNL     1     -10.851  15.176  65.977  1.00  0.00    -0.335 C  
HETATM   20  C   UNL     1      -9.610  15.622  68.233  1.00  0.00    -0.200 A  
HETATM   21  C   UNL     1     -10.855  16.346  65.311  1.00  0.00    -0.271 C  
HETATM   22  C   UNL     1     -11.427  13.939  65.401  1.00  0.00    -0.316 A  
HETATM   23  C   UNL     1      -9.009  15.011  69.321  1.00  0.00    -0.158 A  
HETATM   24  C   UNL     1     -10.945  12.869  66.195  1.00  0.00    -0.304 A  
HETATM   25  C   UNL     1     -12.599  12.431  63.976  1.00  0.00    -0.412 A  
HETATM   26 CL   UNL     1      -8.279  15.975  70.548  1.00  0.00     1.831 Cl 
HETATM   27  C   UNL     1      -9.018  13.621  69.450  1.00  0.00     0.891 A  
HETATM   28  C   UNL     1     -12.065  11.353  64.688  1.00  0.00     0.418 A  
HETATM   29  C   UNL     1     -11.227  11.572  65.787  1.00  0.00    -0.228 A  
BRANCH  21  30
HETATM   30  C   UNL     1     -10.147  17.555  65.733  1.00  0.00    -0.119 A  
HETATM   31  C   UNL     1      -8.825  19.759  66.816  1.00  0.00    -0.347 A  
HETATM   32 CL   UNL     1      -8.027  21.085  67.566  1.00  0.00    -0.181 Cl 
HETATM   33  C   UNL     1     -10.204  19.810  66.607  1.00  0.00    -0.595 A  
HETATM   34  C   UNL     1      -8.755  17.530  65.898  1.00  0.00     0.057 A  
HETATM   35  C   UNL     1      -8.098  18.632  66.448  1.00  0.00    -0.300 A  
HETATM   36  C   UNL     1     -10.867  18.708  66.061  1.00  0.00    -0.125 A  
ENDBRANCH  21  30
ENDBRANCH  11  14
ENDBRANCH  10  11
ENDBRANCH   5  10
ENDBRANCH   4   5
ENDBRANCH   3   4
ENDBRANCH   2   3
TORSDOF 10
ENDMDL
MODEL      150
REMARK 921   NORMALIZED FREE ENERGY PREDICTED BY IDOCK:    1.61 KCAL/MOL
REMARK 922        TOTAL FREE ENERGY PREDICTED BY IDOCK:    0.47 KCAL/MOL
REMARK 923 INTER-LIGAND FREE ENERGY PREDICTED BY IDOCK:   -2.93 KCAL/MOL
REMARK 924 INTRA-LIGAND FREE ENERGY PREDICTED BY IDOCK:    3.40 KCAL/MOL
REMARK 927      BINDING AFFINITY PREDICTED BY RF-SCORE:    0.00 PKD
ROOT
HETATM    1  C   UNL     1      -5.959   8.456  67.057  1.00  0.00    -0.053 C  
HETATM    2  C   UNL     1      -7.380   8.507  67.601  1.00  0.00    -0.089 C  
ENDROOT
BRANCH   2   3
HETATM    3  C   UNL     1      -7.637   7.326  68.535  1.00  0.00    -0.118 C  
BRANCH   3   4
HETATM    4  C   UNL     1      -9.040   7.317  69.160  1.00  0.00    -0.137 C  
BRANCH   4   5
HETATM    5  N   UNL     1     -10.183   7.007  68.274  1.00  0.00    -0.174 NA 
BRANCH   5   6
HETATM    6  C   UNL     1     -10.159   5.598  67.823  1.00  0.00    -0.171 C  
BRANCH   6   7
HETATM    7  C   UNL     1      -9.859   4.541  68.909  1.00  0.00    -0.190 C  
BRANCH   7   8
HETATM    8  C   UNL     1      -8.580   3.726  68.699  1.00  0.00    -0.121 C  
HETATM    9  C   UNL     1      -8.447   2.555  69.659  1.00  0.00    -0.091 C  
ENDBRANCH   7   8
ENDBRANCH   6   7
ENDBRANCH   5   6
BRANCH   5  10
HETATM   10  C   UNL     1     -11.451   7.299  69.001  1.00  0.00     0.402 C  
BRANCH  10  11
HETATM   11  C   UNL     1     -11.376   8.352  70.151  1.00  0.00    -0.065 C  
HETATM   12  O   UNL     1     -11.107   7.764  71.423  1.00  0.00    -0.234 OA 
HETATM   13  H   UNL     1     -11.061   8.405  72.123  1.00  0.00     0.000 HD 
BRANCH  11  14
HETATM   14  C   UNL     1     -10.380   9.458  69.838  1.00  0.00    -0.252 A  
HETATM   15  C   UNL     1      -9.082   9.571  70.369  1.00  0.00    -0.296 A  
HETATM   16 CL   UNL     1      -5.199   6.545  73.746  1.00  0.00    -0.040 Cl 
HETATM   17  C   UNL     1      -6.006   8.560  72.143  1.00  0.00    -0.062 A  
HETATM   18  C   UNL     1      -8.222  10.605  69.889  1.00  0.00     0.316 A  
HETATM   19  C   UNL     1      -6.926  10.457  70.600  1.00  0.00     0.247 C  
HETATM   20  C   UNL     1      -8.621  11.495  68.902  1.00  0.00     0.024 A  
HETATM   21  C   UNL     1      -5.898  11.323  70.683  1.00  0.00    -0.097 C  
HETATM   22  C   UNL     1      -6.983   9.220  71.412  1.00  0.00     0.022 A  
HETATM   23  C   UNL     1      -9.918  11.416  68.425  1.00  0.00    -0.204 A  
HETATM   24  C   UNL     1      -8.319   8.755  71.334  1.00  0.00    -0.222 A  
HETATM   25  C   UNL     1      -6.380   7.428  72.862  1.00  0.00    -0.059 A  
HETATM   26 CL   UNL     1     -10.456  12.527  67.222  1.00  0.00    -0.227 Cl 
HETATM   27  C   UNL     1     -10.786  10.424  68.884  1.00  0.00    -0.273 A  
HETATM   28  C   UNL     1      -7.711   7.000  72.875  1.00  0.00    -0.089 A  
HETATM   29  C   UNL     1      -8.681   7.671  72.123  1.00  0.00    -0.154 A  
BRANCH  21  30
HETATM   30  C   UNL     1      -5.861  12.645  70.057  1.00  0.00    -0.151 A  
HETATM   31  C   UNL     1      -6.046  15.093  68.734  1.00  0.00    -0.087 A  
HETATM   32 CL   UNL     1      -6.236  16.572  67.878  1.00  0.00    -0.136 Cl 
HETATM   33  C   UNL     1      -5.355  14.035  68.143  1.00  0.00    -0.120 A  
HETATM   34  C   UNL     1      -6.509  13.727  70.668  1.00  0.00     0.199 A  
HETATM   35  C   UNL     1      -6.608  14.949  69.999  1.00  0.00    -0.162 A  
HETATM   36  C   UNL     1      -5.257  12.809  68.806  1.00  0.00    -0.063 A  
ENDBRANCH  21  30
ENDBRANCH  11  14
ENDBRANCH  10  11
ENDBRANCH   5  10
ENDBRANCH   4   5
ENDBRANCH   3   4
ENDBRANCH   2   3
TORSDOF 10
ENDMDL
MODEL      151
REMARK 921   NORMALIZED FREE ENERGY PREDICTED BY IDOCK:    1.78 KCAL/MOL
REMARK 922        TOTAL FREE ENERGY PREDICTED BY IDOCK:    0.74 KCAL/MOL
REMARK 923 INTER-LIGAND FREE ENERGY PREDICTED BY IDOCK:   -5.22 KCAL/MOL
REMARK 924 INTRA-LIGAND FREE ENERGY PREDICTED BY IDOCK:    5.96 KCAL/MOL
REMARK 927      BINDING AFFINITY PREDICTED BY RF-SCORE:    0.00 PKD
ROOT
HETATM    1  C   UNL     1     -10.629   6.548  71.895  1.00  0.00    -0.239 C  
HETATM    2  C   UNL     1      -9.129   6.695  71.681  1.00  0.00    -0.142 C  
ENDROOT
BRANCH   2   3
HETATM    3  C   UNL     1      -8.361   6.105  72.862  1.00  0.00    -0.116 C  
BRANCH   3   4
HETATM    4  C   UNL     1      -7.053   5.403  72.470  1.00  0.00    -0.088 C  
BRANCH   4   5
HETATM    5  N   UNL     1      -7.102   4.439  71.349  1.00  0.00    -0.042 NA 
BRANCH   5   6
HETATM    6  C   UNL     1      -8.307   3.583  71.416  1.00  0.00    -0.068 C  
BRANCH   6   7
HETATM    7  C   UNL     1      -8.772   3.174  72.831  1.00  0.00    -0.090 C  
BRANCH   7   8
HETATM    8  C   UNL     1     -10.282   2.984  72.998  1.00  0.00    -0.229 C  
HETATM    9  C   UNL     1     -10.897   3.916  74.030  1.00  0.00    -0.276 C  
ENDBRANCH   7   8
ENDBRANCH   6   7
ENDBRANCH   5   6
BRANCH   5  10
HETATM   10  C   UNL     1      -7.069   5.191  70.063  1.00  0.00    -0.058 C  
BRANCH  10  11
HETATM   11  C   UNL     1      -8.300   5.024  69.117  1.00  0.00    -0.086 C  
HETATM   12  O   UNL     1      -9.367   4.294  69.720  1.00  0.00    -0.125 OA 
HETATM   13  H   UNL     1     -10.116   4.193  69.145  1.00  0.00     0.000 HD 
BRANCH  11  14
HETATM   14  C   UNL     1      -8.786   6.363  68.583  1.00  0.00    -0.122 A  
HETATM   15  C   UNL     1      -8.432   6.933  67.347  1.00  0.00    -0.121 A  
HETATM   16 CL   UNL     1      -5.456   5.621  62.341  1.00  0.00    -0.014 Cl 
HETATM   17  C   UNL     1      -7.027   7.124  63.938  1.00  0.00    -0.057 A  
HETATM   18  C   UNL     1      -9.063   8.147  66.935  1.00  0.00    -0.185 A  
HETATM   19  C   UNL     1      -8.519   8.486  65.596  1.00  0.00    -0.170 C  
HETATM   20  C   UNL     1     -10.028   8.774  67.711  1.00  0.00    -0.243 A  
HETATM   21  C   UNL     1      -8.607   9.642  64.910  1.00  0.00    -0.188 C  
HETATM   22  C   UNL     1      -7.654   7.369  65.151  1.00  0.00    -0.104 A  
HETATM   23  C   UNL     1     -10.330   8.240  68.951  1.00  0.00    -0.215 A  
HETATM   24  C   UNL     1      -7.539   6.492  66.258  1.00  0.00    -0.090 A  
HETATM   25  C   UNL     1      -6.218   5.997  63.837  1.00  0.00    -0.029 A  
HETATM   26 CL   UNL     1     -11.500   9.012  69.953  1.00  0.00    -0.018 Cl 
HETATM   27  C   UNL     1      -9.720   7.062  69.387  1.00  0.00    -0.159 A  
HETATM   28  C   UNL     1      -6.015   5.163  64.941  1.00  0.00    -0.022 A  
HETATM   29  C   UNL     1      -6.663   5.419  66.153  1.00  0.00    -0.057 A  
BRANCH  21  30
HETATM   30  C   UNL     1      -9.289  10.848  65.381  1.00  0.00    -0.240 A  
HETATM   31  C   UNL     1     -10.335  13.293  66.222  1.00  0.00    -0.290 A  
HETATM   32 CL   UNL     1     -10.898  14.837  66.726  1.00  0.00    -0.310 Cl 
HETATM   33  C   UNL     1      -9.736  12.438  67.148  1.00  0.00    -0.207 A  
HETATM   34  C   UNL     1      -9.936  11.689  64.465  1.00  0.00    -0.290 A  
HETATM   35  C   UNL     1     -10.451  12.916  64.887  1.00  0.00    -0.351 A  
HETATM   36  C   UNL     1      -9.216  11.211  66.729  1.00  0.00    -0.183 A  
ENDBRANCH  21  30
ENDBRANCH  11  14
ENDBRANCH  10  11
ENDBRANCH   5  10
ENDBRANCH   4   5
ENDBRANCH   3   4
ENDBRANCH   2   3
TORSDOF 10
ENDMDL
MODEL      152
REMARK 921   NORMALIZED FREE ENERGY PREDICTED BY IDOCK:    2.53 KCAL/MOL
REMARK 922        TOTAL FREE ENERGY PREDICTED BY IDOCK:    1.92 KCAL/MOL
REMARK 923 INTER-LIGAND FREE ENERGY PREDICTED BY IDOCK:   -0.84 KCAL/MOL
REMARK 924 INTRA-LIGAND FREE ENERGY PREDICTED BY IDOCK:    2.75 KCAL/MOL
REMARK 927      BINDING AFFINITY PREDICTED BY RF-SCORE:    0.00 PKD
ROOT
HETATM    1  C   UNL     1     -13.280  15.912  70.085  1.00  0.00     0.875 C  
HETATM    2  C   UNL     1     -13.256  14.417  69.801  1.00  0.00     0.840 C  
ENDROOT
BRANCH   2   3
HETATM    3  C   UNL     1     -11.831  13.950  69.514  1.00  0.00    -0.383 C  
BRANCH   3   4
HETATM    4  C   UNL     1     -11.209  14.572  68.255  1.00  0.00    -0.277 C  
BRANCH   4   5
HETATM    5  N   UNL     1     -11.793  15.837  67.756  1.00  0.00     0.018 NA 
BRANCH   5   6
HETATM    6  C   UNL     1     -10.916  16.994  68.042  1.00  0.00    -0.252 C  
BRANCH   6   7
HETATM    7  C   UNL     1     -10.405  17.118  69.494  1.00  0.00    -0.117 C  
BRANCH   7   8
HETATM    8  C   UNL     1     -10.426  18.532  70.081  1.00  0.00     1.490 C  
HETATM    9  C   UNL     1     -10.479  19.622  69.023  1.00  0.00    -0.036 C  
ENDBRANCH   7   8
ENDBRANCH   6   7
ENDBRANCH   5   6
BRANCH   5  10
HETATM   10  C   UNL     1     -12.033  15.713  66.291  1.00  0.00     0.773 C  
BRANCH  10  11
HETATM   11  C   UNL     1     -10.783  15.443  65.394  1.00  0.00    -0.400 C  
HETATM   12  O   UNL     1      -9.900  16.561  65.323  1.00  0.00    -0.488 OA 
HETATM   13  H   UNL     1      -9.140  16.396  64.778  1.00  0.00     0.000 HD 
BRANCH  11  14
HETATM   14  C   UNL     1     -10.042  14.187  65.824  1.00  0.00    -0.352 A  
HETATM   15  C   UNL     1      -8.885  14.147  66.622  1.00  0.00    -0.141 A  
HETATM   16 CL   UNL     1      -5.367  17.747  69.832  1.00  0.00    -0.206 Cl 
HETATM   17  C   UNL     1      -6.241  15.376  68.888  1.00  0.00    -0.098 A  
HETATM   18  C   UNL     1      -8.370  12.881  67.038  1.00  0.00    -0.112 A  
HETATM   19  C   UNL     1      -7.178  13.153  67.882  1.00  0.00    -0.133 C  
HETATM   20  C   UNL     1      -8.986  11.687  66.693  1.00  0.00    -0.189 A  
HETATM   21  C   UNL     1      -6.217  12.305  68.296  1.00  0.00    -0.054 C  
HETATM   22  C   UNL     1      -7.077  14.617  68.081  1.00  0.00    -0.127 A  
HETATM   23  C   UNL     1     -10.091  11.729  65.860  1.00  0.00    -0.234 A  
HETATM   24  C   UNL     1      -8.054  15.201  67.237  1.00  0.00    -0.228 A  
HETATM   25  C   UNL     1      -6.345  16.762  68.818  1.00  0.00    -0.158 A  
HETATM   26 CL   UNL     1     -10.861  10.261  65.386  1.00  0.00     0.153 Cl 
HETATM   27  C   UNL     1     -10.609  12.950  65.427  1.00  0.00    -0.308 A  
HETATM   28  C   UNL     1      -7.239  17.365  67.927  1.00  0.00    -0.193 A  
HETATM   29  C   UNL     1      -8.081  16.585  67.128  1.00  0.00    -0.213 A  
BRANCH  21  30
HETATM   30  C   UNL     1      -6.160  10.879  67.973  1.00  0.00    -0.049 A  
HETATM   31  C   UNL     1      -5.806   8.149  67.527  1.00  0.00    -0.039 A  
HETATM   32 CL   UNL     1      -5.511   6.470  67.302  1.00  0.00    -0.012 Cl 
HETATM   33  C   UNL     1      -5.244   9.075  66.647  1.00  0.00    -0.038 A  
HETATM   34  C   UNL     1      -6.763   9.944  68.824  1.00  0.00    -0.050 A  
HETATM   35  C   UNL     1      -6.577   8.578  68.603  1.00  0.00    -0.055 A  
HETATM   36  C   UNL     1      -5.424  10.443  66.866  1.00  0.00    -0.042 A  
ENDBRANCH  21  30
ENDBRANCH  11  14
ENDBRANCH  10  11
ENDBRANCH   5  10
ENDBRANCH   4   5
ENDBRANCH   3   4
ENDBRANCH   2   3
TORSDOF 10
ENDMDL
MODEL      153
REMARK 921   NORMALIZED FREE ENERGY PREDICTED BY IDOCK:    3.57 KCAL/MOL
REMARK 922        TOTAL FREE ENERGY PREDICTED BY IDOCK:    3.57 KCAL/MOL
REMARK 923 INTER-LIGAND FREE ENERGY PREDICTED BY IDOCK:    2.47 KCAL/MOL
REMARK 924 INTRA-LIGAND FREE ENERGY PREDICTED BY IDOCK:    1.10 KCAL/MOL
REMARK 927      BINDING AFFINITY PREDICTED BY RF-SCORE:    0.00 PKD
ROOT
HETATM    1  C   UNL     1      -8.340  20.454  71.665  1.00  0.00     2.166 C  
HETATM    2  C   UNL     1      -7.608  20.869  70.397  1.00  0.00     2.899 C  
ENDROOT
BRANCH   2   3
HETATM    3  C   UNL     1      -8.577  20.936  69.218  1.00  0.00     2.165 C  
BRANCH   3   4
HETATM    4  C   UNL     1      -9.109  19.568  68.766  1.00  0.00    -0.328 C  
BRANCH   4   5
HETATM    5  N   UNL     1      -8.136  18.608  68.199  1.00  0.00    -0.285 NA 
BRANCH   5   6
HETATM    6  C   UNL     1      -7.157  18.159  69.213  1.00  0.00    -0.119 C  
BRANCH   6   7
HETATM    7  C   UNL     1      -5.735  17.850  68.695  1.00  0.00    -0.175 C  
BRANCH   7   8
HETATM    8  C   UNL     1      -5.466  18.237  67.238  1.00  0.00    -0.145 C  
HETATM    9  C   UNL     1      -5.883  19.661  66.907  1.00  0.00    -0.173 C  
ENDBRANCH   7   8
ENDBRANCH   6   7
ENDBRANCH   5   6
BRANCH   5  10
HETATM   10  C   UNL     1      -8.877  17.443  67.638  1.00  0.00    -0.225 C  
BRANCH  10  11
HETATM   11  C   UNL     1      -9.433  16.403  68.661  1.00  0.00    -0.239 C  
HETATM   12  O   UNL     1     -10.855  16.293  68.621  1.00  0.00    -0.284 OA 
HETATM   13  H   UNL     1     -11.193  15.660  69.243  1.00  0.00     0.000 HD 
BRANCH  11  14
HETATM   14  C   UNL     1      -8.774  15.043  68.495  1.00  0.00    -0.175 A  
HETATM   15  C   UNL     1      -9.090  14.090  67.510  1.00  0.00    -0.196 A  
HETATM   16 CL   UNL     1     -12.440  13.456  62.610  1.00  0.00     0.760 Cl 
HETATM   17  C   UNL     1     -10.594  12.714  64.432  1.00  0.00    -0.388 A  
HETATM   18  C   UNL     1      -8.301  12.903  67.412  1.00  0.00    -0.190 A  
HETATM   19  C   UNL     1      -8.844  12.113  66.277  1.00  0.00    -0.040 C  
HETATM   20  C   UNL     1      -7.220  12.666  68.250  1.00  0.00    -0.113 A  
HETATM   21  C   UNL     1      -8.612  10.828  65.948  1.00  0.00    -0.182 C  
HETATM   22  C   UNL     1      -9.886  12.924  65.606  1.00  0.00    -0.185 A  
HETATM   23  C   UNL     1      -6.950  13.579  69.255  1.00  0.00    -0.008 A  
HETATM   24  C   UNL     1     -10.085  14.067  66.420  1.00  0.00    -0.299 A  
HETATM   25  C   UNL     1     -11.567  13.644  64.080  1.00  0.00    -0.317 A  
HETATM   26 CL   UNL     1      -5.635  13.300  70.333  1.00  0.00    -0.143 Cl 
HETATM   27  C   UNL     1      -7.711  14.742  69.383  1.00  0.00    -0.104 A  
HETATM   28  C   UNL     1     -11.846  14.733  64.911  1.00  0.00    -0.377 A  
HETATM   29  C   UNL     1     -11.115  14.936  66.086  1.00  0.00    -0.335 A  
BRANCH  21  30
HETATM   30  C   UNL     1      -7.737   9.916  66.685  1.00  0.00    -0.106 A  
HETATM   31  C   UNL     1      -6.184   8.295  68.339  1.00  0.00    -0.050 A  
HETATM   32 CL   UNL     1      -5.261   7.338  69.430  1.00  0.00    -0.015 Cl 
HETATM   33  C   UNL     1      -5.683   9.520  67.899  1.00  0.00    -0.041 A  
HETATM   34  C   UNL     1      -8.214   8.662  67.089  1.00  0.00    -0.107 A  
HETATM   35  C   UNL     1      -7.438   7.856  67.924  1.00  0.00    -0.104 A  
HETATM   36  C   UNL     1      -6.458  10.332  67.067  1.00  0.00    -0.073 A  
ENDBRANCH  21  30
ENDBRANCH  11  14
ENDBRANCH  10  11
ENDBRANCH   5  10
ENDBRANCH   4   5
ENDBRANCH   3   4
ENDBRANCH   2   3
TORSDOF 10
ENDMDL
MODEL      154
REMARK 921   NORMALIZED FREE ENERGY PREDICTED BY IDOCK:    3.93 KCAL/MOL
REMARK 922        TOTAL FREE ENERGY PREDICTED BY IDOCK:    4.14 KCAL/MOL
REMARK 923 INTER-LIGAND FREE ENERGY PREDICTED BY IDOCK:   -0.93 KCAL/MOL
REMARK 924 INTRA-LIGAND FREE ENERGY PREDICTED BY IDOCK:    5.07 KCAL/MOL
REMARK 927      BINDING AFFINITY PREDICTED BY RF-SCORE:    0.00 PKD
ROOT
HETATM    1  C   UNL     1      -8.370  10.981  64.799  1.00  0.00     0.202 C  
HETATM    2  C   UNL     1      -8.624  12.378  65.347  1.00  0.00     1.182 C  
ENDROOT
BRANCH   2   3
HETATM    3  C   UNL     1     -10.051  12.492  65.880  1.00  0.00    -0.270 C  
BRANCH   3   4
HETATM    4  C   UNL     1     -10.563  13.935  65.996  1.00  0.00    -0.293 C  
BRANCH   4   5
HETATM    5  N   UNL     1     -11.927  14.220  65.500  1.00  0.00    -0.375 NA 
BRANCH   5   6
HETATM    6  C   UNL     1     -12.677  12.977  65.217  1.00  0.00    -0.368 C  
BRANCH   6   7
HETATM    7  C   UNL     1     -11.848  11.791  64.675  1.00  0.00    -0.203 C  
BRANCH   7   8
HETATM    8  C   UNL     1     -11.952  11.551  63.167  1.00  0.00     0.040 C  
HETATM    9  C   UNL     1     -10.611  11.270  62.507  1.00  0.00     0.706 C  
ENDBRANCH   7   8
ENDBRANCH   6   7
ENDBRANCH   5   6
BRANCH   5  10
HETATM   10  C   UNL     1     -12.647  15.044  66.512  1.00  0.00     0.824 C  
BRANCH  10  11
HETATM   11  C   UNL     1     -11.872  15.380  67.826  1.00  0.00    -0.030 C  
HETATM   12  O   UNL     1     -12.737  15.750  68.899  1.00  0.00    -0.238 OA 
HETATM   13  H   UNL     1     -12.267  15.954  69.699  1.00  0.00     0.000 HD 
BRANCH  11  14
HETATM   14  C   UNL     1     -10.944  14.248  68.237  1.00  0.00    -0.261 A  
HETATM   15  C   UNL     1      -9.555  14.351  68.429  1.00  0.00    -0.219 A  
HETATM   16 CL   UNL     1      -5.213  18.444  68.605  1.00  0.00    -0.175 Cl 
HETATM   17  C   UNL     1      -6.268  15.975  68.864  1.00  0.00    -0.126 A  
HETATM   18  C   UNL     1      -8.836  13.222  68.929  1.00  0.00     0.281 A  
HETATM   19  C   UNL     1      -7.414  13.634  69.055  1.00  0.00     0.021 C  
HETATM   20  C   UNL     1      -9.468  12.029  69.246  1.00  0.00     0.647 A  
HETATM   21  C   UNL     1      -6.321  12.870  69.238  1.00  0.00    -0.108 C  
HETATM   22  C   UNL     1      -7.324  15.082  68.756  1.00  0.00    -0.125 A  
HETATM   23  C   UNL     1     -10.826  11.913  69.001  1.00  0.00    -0.190 A  
HETATM   24  C   UNL     1      -8.604  15.472  68.289  1.00  0.00    -0.161 A  
HETATM   25  C   UNL     1      -6.474  17.286  68.448  1.00  0.00    -0.164 A  
HETATM   26 CL   UNL     1     -11.636  10.434  69.354  1.00  0.00    -0.290 Cl 
HETATM   27  C   UNL     1     -11.553  12.995  68.501  1.00  0.00    -0.363 A  
HETATM   28  C   UNL     1      -7.701  17.675  67.899  1.00  0.00    -0.216 A  
HETATM   29  C   UNL     1      -8.758  16.765  67.807  1.00  0.00    -0.210 A  
BRANCH  21  30
HETATM   30  C   UNL     1      -6.324  11.411  69.350  1.00  0.00    -0.100 A  
HETATM   31  C   UNL     1      -6.619   8.653  69.635  1.00  0.00    -0.039 A  
HETATM   32 CL   UNL     1      -6.886   6.966  69.837  1.00  0.00    -0.049 Cl 
HETATM   33  C   UNL     1      -6.208   9.423  70.724  1.00  0.00    -0.072 A  
HETATM   34  C   UNL     1      -6.687  10.625  68.248  1.00  0.00    -0.063 A  
HETATM   35  C   UNL     1      -6.842   9.245  68.396  1.00  0.00    -0.063 A  
HETATM   36  C   UNL     1      -6.056  10.805  70.581  1.00  0.00    -0.066 A  
ENDBRANCH  21  30
ENDBRANCH  11  14
ENDBRANCH  10  11
ENDBRANCH   5  10
ENDBRANCH   4   5
ENDBRANCH   3   4
ENDBRANCH   2   3
TORSDOF 10
ENDMDL
MODEL      155
REMARK 921   NORMALIZED FREE ENERGY PREDICTED BY IDOCK:    4.01 KCAL/MOL
REMARK 922        TOTAL FREE ENERGY PREDICTED BY IDOCK:    4.27 KCAL/MOL
REMARK 923 INTER-LIGAND FREE ENERGY PREDICTED BY IDOCK:   -2.65 KCAL/MOL
REMARK 924 INTRA-LIGAND FREE ENERGY PREDICTED BY IDOCK:    6.92 KCAL/MOL
REMARK 927      BINDING AFFINITY PREDICTED BY RF-SCORE:    0.00 PKD
ROOT
HETATM    1  C   UNL     1      -9.169   8.982  64.127  1.00  0.00     0.323 C  
HETATM    2  C   UNL     1      -8.319  10.222  64.364  1.00  0.00    -0.166 C  
ENDROOT
BRANCH   2   3
HETATM    3  C   UNL     1      -8.464  10.702  65.807  1.00  0.00    -0.179 C  
BRANCH   3   4
HETATM    4  C   UNL     1      -7.787   9.791  66.841  1.00  0.00    -0.102 C  
BRANCH   4   5
HETATM    5  N   UNL     1      -8.562   8.638  67.349  1.00  0.00    -0.133 NA 
BRANCH   5   6
HETATM    6  C   UNL     1      -7.713   7.710  68.129  1.00  0.00    -0.119 C  
BRANCH   6   7
HETATM    7  C   UNL     1      -8.403   6.982  69.304  1.00  0.00    -0.129 C  
BRANCH   7   8
HETATM    8  C   UNL     1      -8.463   5.456  69.188  1.00  0.00    -0.103 C  
HETATM    9  C   UNL     1      -9.313   4.973  68.025  1.00  0.00    -0.152 C  
ENDBRANCH   7   8
ENDBRANCH   6   7
ENDBRANCH   5   6
BRANCH   5  10
HETATM   10  C   UNL     1      -9.687   9.143  68.185  1.00  0.00    -0.154 C  
BRANCH  10  11
HETATM   11  C   UNL     1     -10.673  10.147  67.507  1.00  0.00    -0.290 C  
HETATM   12  O   UNL     1     -11.944  10.195  68.153  1.00  0.00    -0.546 OA 
HETATM   13  H   UNL     1     -12.543  10.806  67.741  1.00  0.00     0.000 HD 
BRANCH  11  14
HETATM   14  C   UNL     1     -10.066  11.536  67.387  1.00  0.00    -0.213 A  
HETATM   15  C   UNL     1      -9.027  12.052  68.182  1.00  0.00    -0.190 A  
HETATM   16 CL   UNL     1      -5.157  10.345  72.394  1.00  0.00     0.009 Cl 
HETATM   17  C   UNL     1      -6.240  12.047  70.603  1.00  0.00     0.358 A  
HETATM   18  C   UNL     1      -8.486  13.338  67.871  1.00  0.00    -0.177 A  
HETATM   19  C   UNL     1      -7.398  13.598  68.848  1.00  0.00    -0.060 C  
HETATM   20  C   UNL     1      -8.944  14.089  66.798  1.00  0.00    -0.217 A  
HETATM   21  C   UNL     1      -6.766  14.754  69.127  1.00  0.00    -0.123 C  
HETATM   22  C   UNL     1      -7.204  12.376  69.661  1.00  0.00     0.481 A  
HETATM   23  C   UNL     1     -10.006  13.602  66.055  1.00  0.00    -0.302 A  
HETATM   24  C   UNL     1      -8.255  11.493  69.310  1.00  0.00     0.283 A  
HETATM   25  C   UNL     1      -6.352  10.822  71.254  1.00  0.00     0.788 A  
HETATM   26 CL   UNL     1     -10.621  14.525  64.736  1.00  0.00    -0.441 Cl 
HETATM   27  C   UNL     1     -10.564  12.355  66.343  1.00  0.00    -0.271 A  
HETATM   28  C   UNL     1      -7.430   9.972  70.991  1.00  0.00     0.708 A  
HETATM   29  C   UNL     1      -8.388  10.314  70.031  1.00  0.00     0.068 A  
BRANCH  21  30
HETATM   30  C   UNL     1      -7.046  16.041  68.490  1.00  0.00    -0.132 A  
HETATM   31  C   UNL     1      -7.845  18.381  67.202  1.00  0.00    -0.229 A  
HETATM   32 CL   UNL     1      -8.415  19.783  66.384  1.00  0.00    -0.373 Cl 
HETATM   33  C   UNL     1      -7.145  17.404  66.494  1.00  0.00    -0.300 A  
HETATM   34  C   UNL     1      -7.705  17.048  69.208  1.00  0.00    -0.019 A  
HETATM   35  C   UNL     1      -8.111  18.215  68.558  1.00  0.00    -0.314 A  
HETATM   36  C   UNL     1      -6.740  16.232  67.139  1.00  0.00    -0.237 A  
ENDBRANCH  21  30
ENDBRANCH  11  14
ENDBRANCH  10  11
ENDBRANCH   5  10
ENDBRANCH   4   5
ENDBRANCH   3   4
ENDBRANCH   2   3
TORSDOF 10
ENDMDL
MODEL      156
REMARK 921   NORMALIZED FREE ENERGY PREDICTED BY IDOCK:    4.31 KCAL/MOL
REMARK 922        TOTAL FREE ENERGY PREDICTED BY IDOCK:    4.74 KCAL/MOL
REMARK 923 INTER-LIGAND FREE ENERGY PREDICTED BY IDOCK:    4.08 KCAL/MOL
REMARK 924 INTRA-LIGAND FREE ENERGY PREDICTED BY IDOCK:    0.67 KCAL/MOL
REMARK 927      BINDING AFFINITY PREDICTED BY RF-SCORE:    0.00 PKD
ROOT
HETATM    1  C   UNL     1     -13.628  15.967  70.871  1.00  0.00     0.604 C  
HETATM    2  C   UNL     1     -13.854  16.176  69.380  1.00  0.00     4.375 C  
ENDROOT
BRANCH   2   3
HETATM    3  C   UNL     1     -12.642  15.700  68.583  1.00  0.00     0.760 C  
BRANCH   3   4
HETATM    4  C   UNL     1     -11.317  15.770  69.357  1.00  0.00    -0.348 C  
BRANCH   4   5
HETATM    5  N   UNL     1     -10.079  15.414  68.629  1.00  0.00    -0.207 NA 
BRANCH   5   6
HETATM    6  C   UNL     1      -9.762  16.401  67.574  1.00  0.00    -0.231 C  
BRANCH   6   7
HETATM    7  C   UNL     1      -9.707  17.879  68.020  1.00  0.00    -0.303 C  
BRANCH   7   8
HETATM    8  C   UNL     1     -10.279  18.889  67.021  1.00  0.00    -0.437 C  
HETATM    9  C   UNL     1      -9.740  20.298  67.214  1.00  0.00    -0.590 C  
ENDBRANCH   7   8
ENDBRANCH   6   7
ENDBRANCH   5   6
BRANCH   5  10
HETATM   10  C   UNL     1      -8.957  15.316  69.605  1.00  0.00    -0.115 C  
BRANCH  10  11
HETATM   11  C   UNL     1      -7.587  14.809  69.054  1.00  0.00    -0.141 C  
HETATM   12  O   UNL     1      -6.599  14.664  70.074  1.00  0.00    -0.163 OA 
HETATM   13  H   UNL     1      -5.766  14.355  69.738  1.00  0.00     0.000 HD 
BRANCH  11  14
HETATM   14  C   UNL     1      -7.742  13.523  68.257  1.00  0.00    -0.137 A  
HETATM   15  C   UNL     1      -7.339  12.242  68.674  1.00  0.00    -0.106 A  
HETATM   16 CL   UNL     1      -5.170   9.421  73.468  1.00  0.00    -0.107 Cl 
HETATM   17  C   UNL     1      -6.176   9.595  70.970  1.00  0.00    -0.069 A  
HETATM   18  C   UNL     1      -7.659  11.112  67.860  1.00  0.00    -0.099 A  
HETATM   19  C   UNL     1      -7.140   9.911  68.562  1.00  0.00    -0.071 C  
HETATM   20  C   UNL     1      -8.369  11.237  66.674  1.00  0.00    -0.163 A  
HETATM   21  C   UNL     1      -6.971   8.659  68.094  1.00  0.00    -0.074 C  
HETATM   22  C   UNL     1      -6.631  10.333  69.887  1.00  0.00    -0.114 A  
HETATM   23  C   UNL     1      -8.712  12.506  66.239  1.00  0.00     0.150 A  
HETATM   24  C   UNL     1      -6.672  11.749  69.895  1.00  0.00     0.081 A  
HETATM   25  C   UNL     1      -5.700  10.287  72.079  1.00  0.00     0.380 A  
HETATM   26 CL   UNL     1      -9.566  12.699  64.755  1.00  0.00     0.089 Cl 
HETATM   27  C   UNL     1      -8.402  13.630  67.007  1.00  0.00    -0.099 A  
HETATM   28  C   UNL     1      -5.645  11.684  72.078  1.00  0.00     0.796 A  
HETATM   29  C   UNL     1      -6.117  12.413  70.981  1.00  0.00     0.659 A  
BRANCH  21  30
HETATM   30  C   UNL     1      -7.279   8.223  66.732  1.00  0.00    -0.082 A  
HETATM   31  C   UNL     1      -7.974   7.664  64.089  1.00  0.00    -0.105 A  
HETATM   32 CL   UNL     1      -8.439   7.403  62.454  1.00  0.00    -0.021 Cl 
HETATM   33  C   UNL     1      -8.875   7.388  65.118  1.00  0.00     0.221 A  
HETATM   34  C   UNL     1      -6.359   8.451  65.699  1.00  0.00    -0.052 A  
HETATM   35  C   UNL     1      -6.713   8.178  64.376  1.00  0.00    -0.065 A  
HETATM   36  C   UNL     1      -8.527   7.663  66.443  1.00  0.00    -0.137 A  
ENDBRANCH  21  30
ENDBRANCH  11  14
ENDBRANCH  10  11
ENDBRANCH   5  10
ENDBRANCH   4   5
ENDBRANCH   3   4
ENDBRANCH   2   3
TORSDOF 10
ENDMDL
MODEL      157
REMARK 921   NORMALIZED FREE ENERGY PREDICTED BY IDOCK:    4.39 KCAL/MOL
REMARK 922        TOTAL FREE ENERGY PREDICTED BY IDOCK:    4.87 KCAL/MOL
REMARK 923 INTER-LIGAND FREE ENERGY PREDICTED BY IDOCK:    2.13 KCAL/MOL
REMARK 924 INTRA-LIGAND FREE ENERGY PREDICTED BY IDOCK:    2.75 KCAL/MOL
REMARK 927      BINDING AFFINITY PREDICTED BY RF-SCORE:    0.00 PKD
ROOT
HETATM    1  C   UNL     1     -11.526   3.627  65.520  1.00  0.00     3.075 C  
HETATM    2  C   UNL     1     -11.000   3.768  66.942  1.00  0.00     3.224 C  
ENDROOT
BRANCH   2   3
HETATM    3  C   UNL     1     -10.394   5.155  67.153  1.00  0.00    -0.246 C  
BRANCH   3   4
HETATM    4  C   UNL     1     -10.028   5.882  65.851  1.00  0.00     0.203 C  
BRANCH   4   5
HETATM    5  N   UNL     1      -8.597   5.949  65.482  1.00  0.00    -0.154 NA 
BRANCH   5   6
HETATM    6  C   UNL     1      -8.224   7.289  64.979  1.00  0.00    -0.098 C  
BRANCH   6   7
HETATM    7  C   UNL     1      -7.564   7.331  63.582  1.00  0.00    -0.114 C  
BRANCH   7   8
HETATM    8  C   UNL     1      -6.248   6.561  63.453  1.00  0.00    -0.034 C  
HETATM    9  C   UNL     1      -5.134   7.374  62.813  1.00  0.00    -0.034 C  
ENDBRANCH   7   8
ENDBRANCH   6   7
ENDBRANCH   5   6
BRANCH   5  10
HETATM   10  C   UNL     1      -7.774   5.592  66.673  1.00  0.00    -0.100 C  
BRANCH  10  11
HETATM   11  C   UNL     1      -6.699   6.631  67.123  1.00  0.00    -0.063 C  
HETATM   12  O   UNL     1      -5.501   6.559  66.351  1.00  0.00    -0.013 OA 
HETATM   13  H   UNL     1      -4.848   7.192  66.625  1.00  0.00     0.000 HD 
BRANCH  11  14
HETATM   14  C   UNL     1      -7.256   8.047  67.138  1.00  0.00    -0.087 A  
HETATM   15  C   UNL     1      -8.339   8.497  67.914  1.00  0.00    -0.126 A  
HETATM   16 CL   UNL     1     -12.003   6.634  72.244  1.00  0.00    -0.296 Cl 
HETATM   17  C   UNL     1     -10.932   8.432  70.541  1.00  0.00    -0.258 A  
HETATM   18  C   UNL     1      -8.672   9.886  67.904  1.00  0.00    -0.129 A  
HETATM   19  C   UNL     1      -9.821  10.063  68.828  1.00  0.00    -0.173 C  
HETATM   20  C   UNL     1      -7.949  10.811  67.164  1.00  0.00    -0.124 A  
HETATM   21  C   UNL     1     -10.644  11.120  68.968  1.00  0.00    -0.251 C  
HETATM   22  C   UNL     1     -10.077   8.770  69.502  1.00  0.00    -0.202 A  
HETATM   23  C   UNL     1      -6.921  10.354  66.358  1.00  0.00    -0.114 A  
HETATM   24  C   UNL     1      -9.239   7.819  68.869  1.00  0.00    -0.140 A  
HETATM   25  C   UNL     1     -10.995   7.098  70.930  1.00  0.00    -0.251 A  
HETATM   26 CL   UNL     1      -6.023  11.472  65.401  1.00  0.00     0.823 Cl 
HETATM   27  C   UNL     1      -6.581   9.000  66.336  1.00  0.00    -0.067 A  
HETATM   28  C   UNL     1     -10.245   6.125  70.261  1.00  0.00    -0.254 A  
HETATM   29  C   UNL     1      -9.380   6.484  69.223  1.00  0.00    -0.141 A  
BRANCH  21  30
HETATM   30  C   UNL     1     -10.560  12.359  68.194  1.00  0.00    -0.232 A  
HETATM   31  C   UNL     1     -10.122  14.640  66.651  1.00  0.00    -0.273 A  
HETATM   32 CL   UNL     1      -9.766  16.020  65.688  1.00  0.00    -0.331 Cl 
HETATM   33  C   UNL     1      -9.869  14.671  68.023  1.00  0.00    -0.216 A  
HETATM   34  C   UNL     1     -10.861  12.351  66.825  1.00  0.00    -0.283 A  
HETATM   35  C   UNL     1     -10.632  13.492  66.054  1.00  0.00    -0.285 A  
HETATM   36  C   UNL     1     -10.092  13.530  68.798  1.00  0.00    -0.111 A  
ENDBRANCH  21  30
ENDBRANCH  11  14
ENDBRANCH  10  11
ENDBRANCH   5  10
ENDBRANCH   4   5
ENDBRANCH   3   4
ENDBRANCH   2   3
TORSDOF 10
ENDMDL
MODEL      158
REMARK 921   NORMALIZED FREE ENERGY PREDICTED BY IDOCK:    4.54 KCAL/MOL
REMARK 922        TOTAL FREE ENERGY PREDICTED BY IDOCK:    5.11 KCAL/MOL
REMARK 923 INTER-LIGAND FREE ENERGY PREDICTED BY IDOCK:    4.85 KCAL/MOL
REMARK 924 INTRA-LIGAND FREE ENERGY PREDICTED BY IDOCK:    0.26 KCAL/MOL
REMARK 927      BINDING AFFINITY PREDICTED BY RF-SCORE:    0.00 PKD
ROOT
HETATM    1  C   UNL     1     -12.322   7.752  68.352  1.00  0.00     4.477 C  
HETATM    2  C   UNL     1     -11.115   8.676  68.423  1.00  0.00     0.283 C  
ENDROOT
BRANCH   2   3
HETATM    3  C   UNL     1     -10.465   8.813  67.048  1.00  0.00    -0.338 C  
BRANCH   3   4
HETATM    4  C   UNL     1      -9.261   9.767  67.017  1.00  0.00    -0.142 C  
BRANCH   4   5
HETATM    5  N   UNL     1      -9.515  11.178  66.654  1.00  0.00    -0.179 NA 
BRANCH   5   6
HETATM    6  C   UNL     1      -9.696  11.343  65.195  1.00  0.00    -0.244 C  
BRANCH   6   7
HETATM    7  C   UNL     1      -8.438  11.125  64.325  1.00  0.00     0.341 C  
BRANCH   7   8
HETATM    8  C   UNL     1      -8.465   9.885  63.428  1.00  0.00    -0.182 C  
HETATM    9  C   UNL     1      -7.405   9.905  62.339  1.00  0.00    -0.127 C  
ENDBRANCH   7   8
ENDBRANCH   6   7
ENDBRANCH   5   6
BRANCH   5  10
HETATM   10  C   UNL     1     -10.722  11.656  67.386  1.00  0.00    -0.234 C  
BRANCH  10  11
HETATM   11  C   UNL     1     -11.454  12.903  66.797  1.00  0.00    -0.340 C  
HETATM   12  O   UNL     1     -12.784  13.050  67.295  1.00  0.00     0.154 OA 
HETATM   13  H   UNL     1     -13.230  13.809  66.937  1.00  0.00     0.000 HD 
BRANCH  11  14
HETATM   14  C   UNL     1     -10.650  14.178  67.002  1.00  0.00    -0.276 A  
HETATM   15  C   UNL     1     -10.719  15.024  68.123  1.00  0.00    -0.256 A  
HETATM   16 CL   UNL     1     -13.209  15.308  73.542  1.00  0.00    -0.528 Cl 
HETATM   17  C   UNL     1     -11.599  16.123  71.536  1.00  0.00    -0.502 A  
HETATM   18  C   UNL     1      -9.814  16.125  68.221  1.00  0.00    -0.224 A  
HETATM   19  C   UNL     1     -10.101  16.809  69.508  1.00  0.00    -0.107 C  
HETATM   20  C   UNL     1      -8.857  16.378  67.249  1.00  0.00    -0.203 A  
HETATM   21  C   UNL     1      -9.699  18.021  69.934  1.00  0.00     0.966 C  
HETATM   22  C   UNL     1     -11.101  16.005  70.246  1.00  0.00    -0.380 A  
HETATM   23  C   UNL     1      -8.831  15.577  66.120  1.00  0.00    -0.238 A  
HETATM   24  C   UNL     1     -11.530  14.989  69.356  1.00  0.00    -0.320 A  
HETATM   25  C   UNL     1     -12.592  15.235  71.938  1.00  0.00    -0.353 A  
HETATM   26 CL   UNL     1      -7.674  15.885  64.880  1.00  0.00     6.440 Cl 
HETATM   27  C   UNL     1      -9.711  14.502  65.991  1.00  0.00    -0.331 A  
HETATM   28  C   UNL     1     -13.097  14.281  71.049  1.00  0.00    -0.394 A  
HETATM   29  C   UNL     1     -12.577  14.169  69.756  1.00  0.00    -0.151 A  
BRANCH  21  30
HETATM   30  C   UNL     1      -8.862  18.946  69.168  1.00  0.00    -0.060 A  
HETATM   31  C   UNL     1      -7.162  20.471  67.567  1.00  0.00    -0.325 A  
HETATM   32 CL   UNL     1      -6.082  21.333  66.544  1.00  0.00    -0.344 Cl 
HETATM   33  C   UNL     1      -6.726  20.024  68.815  1.00  0.00    -0.344 A  
HETATM   34  C   UNL     1      -9.312  19.441  67.936  1.00  0.00    -0.397 A  
HETATM   35  C   UNL     1      -8.456  20.196  67.133  1.00  0.00    -0.403 A  
HETATM   36  C   UNL     1      -7.578  19.264  69.620  1.00  0.00     0.113 A  
ENDBRANCH  21  30
ENDBRANCH  11  14
ENDBRANCH  10  11
ENDBRANCH   5  10
ENDBRANCH   4   5
ENDBRANCH   3   4
ENDBRANCH   2   3
TORSDOF 10
ENDMDL
MODEL      159
REMARK 921   NORMALIZED FREE ENERGY PREDICTED BY IDOCK:    5.91 KCAL/MOL
REMARK 922        TOTAL FREE ENERGY PREDICTED BY IDOCK:    7.28 KCAL/MOL
REMARK 923 INTER-LIGAND FREE ENERGY PREDICTED BY IDOCK:    2.81 KCAL/MOL
REMARK 924 INTRA-LIGAND FREE ENERGY PREDICTED BY IDOCK:    4.48 KCAL/MOL
REMARK 927      BINDING AFFINITY PREDICTED BY RF-SCORE:    0.00 PKD
ROOT
HETATM    1  C   UNL     1      -9.746  15.478  68.719  1.00  0.00    -0.213 C  
HETATM    2  C   UNL     1      -9.283  14.486  67.661  1.00  0.00    -0.195 C  
ENDROOT
BRANCH   2   3
HETATM    3  C   UNL     1      -7.912  14.884  67.118  1.00  0.00    -0.227 C  
BRANCH   3   4
HETATM    4  C   UNL     1      -6.843  15.082  68.202  1.00  0.00    -0.131 C  
BRANCH   4   5
HETATM    5  N   UNL     1      -5.963  13.934  68.514  1.00  0.00    -0.084 NA 
BRANCH   5   6
HETATM    6  C   UNL     1      -6.364  13.265  69.772  1.00  0.00    -0.073 C  
BRANCH   6   7
HETATM    7  C   UNL     1      -5.526  13.610  71.022  1.00  0.00    -0.195 C  
BRANCH   7   8
HETATM    8  C   UNL     1      -6.211  13.351  72.366  1.00  0.00     1.784 C  
HETATM    9  C   UNL     1      -5.250  13.351  73.544  1.00  0.00    -0.004 C  
ENDBRANCH   7   8
ENDBRANCH   6   7
ENDBRANCH   5   6
BRANCH   5  10
HETATM   10  C   UNL     1      -6.002  12.972  67.377  1.00  0.00    -0.039 C  
BRANCH  10  11
HETATM   11  C   UNL     1      -7.402  12.677  66.751  1.00  0.00     0.368 C  
HETATM   12  O   UNL     1      -7.645  13.427  65.561  1.00  0.00     3.214 OA 
HETATM   13  H   UNL     1      -8.496  13.247  65.180  1.00  0.00     0.000 HD 
BRANCH  11  14
HETATM   14  C   UNL     1      -7.610  11.190  66.512  1.00  0.00    -0.135 A  
HETATM   15  C   UNL     1      -8.652  10.409  67.044  1.00  0.00    -0.130 A  
HETATM   16 CL   UNL     1     -13.700  10.970  70.180  1.00  0.00     1.340 Cl 
HETATM   17  C   UNL     1     -11.849   9.651  68.728  1.00  0.00     0.802 A  
HETATM   18  C   UNL     1      -8.779   9.046  66.634  1.00  0.00    -0.140 A  
HETATM   19  C   UNL     1      -9.971   8.494  67.327  1.00  0.00    -0.289 C  
HETATM   20  C   UNL     1      -7.914   8.471  65.714  1.00  0.00    -0.107 A  
HETATM   21  C   UNL     1     -10.354   7.211  67.465  1.00  0.00    -0.303 C  
HETATM   22  C   UNL     1     -10.640   9.600  68.049  1.00  0.00    -0.292 A  
HETATM   23  C   UNL     1      -6.855   9.227  65.239  1.00  0.00    -0.081 A  
HETATM   24  C   UNL     1      -9.779  10.721  67.945  1.00  0.00    -0.181 A  
HETATM   25  C   UNL     1     -12.191  10.838  69.366  1.00  0.00    -0.171 A  
HETATM   26 CL   UNL     1      -5.744   8.533  64.120  1.00  0.00    -0.064 Cl 
HETATM   27  C   UNL     1      -6.698  10.557  65.631  1.00  0.00    -0.110 A  
HETATM   28  C   UNL     1     -11.318  11.931  69.355  1.00  0.00    -0.327 A  
HETATM   29  C   UNL     1     -10.108  11.866  68.658  1.00  0.00    -0.186 A  
BRANCH  21  30
HETATM   30  C   UNL     1      -9.631   6.055  66.935  1.00  0.00    -0.158 A  
HETATM   31  C   UNL     1      -8.301   3.721  66.185  1.00  0.00    -0.109 A  
HETATM   32 CL   UNL     1      -7.495   2.249  65.807  1.00  0.00    -0.066 Cl 
HETATM   33  C   UNL     1      -7.586   4.773  66.758  1.00  0.00    -0.087 A  
HETATM   34  C   UNL     1     -10.333   5.014  66.313  1.00  0.00    -0.332 A  
HETATM   35  C   UNL     1      -9.666   3.843  65.946  1.00  0.00    -0.168 A  
HETATM   36  C   UNL     1      -8.250   5.945  67.130  1.00  0.00    -0.105 A  
ENDBRANCH  21  30
ENDBRANCH  11  14
ENDBRANCH  10  11
ENDBRANCH   5  10
ENDBRANCH   4   5
ENDBRANCH   3   4
ENDBRANCH   2   3
TORSDOF 10
ENDMDL
MODEL      160
REMARK 921   NORMALIZED FREE ENERGY PREDICTED BY IDOCK:    6.39 KCAL/MOL
REMARK 922        TOTAL FREE ENERGY PREDICTED BY IDOCK:    8.04 KCAL/MOL
REMARK 923 INTER-LIGAND FREE ENERGY PREDICTED BY IDOCK:   -0.43 KCAL/MOL
REMARK 924 INTRA-LIGAND FREE ENERGY PREDICTED BY IDOCK:    8.47 KCAL/MOL
REMARK 927      BINDING AFFINITY PREDICTED BY RF-SCORE:    0.00 PKD
ROOT
HETATM    1  C   UNL     1      -7.945  15.863  67.728  1.00  0.00    -0.154 C  
HETATM    2  C   UNL     1      -8.502  15.381  66.396  1.00  0.00    -0.169 C  
ENDROOT
BRANCH   2   3
HETATM    3  C   UNL     1      -9.069  13.969  66.533  1.00  0.00    -0.173 C  
BRANCH   3   4
HETATM    4  C   UNL     1      -9.655  13.400  65.233  1.00  0.00     0.170 C  
BRANCH   4   5
HETATM    5  N   UNL     1      -9.008  12.201  64.657  1.00  0.00     0.664 NA 
BRANCH   5   6
HETATM    6  C   UNL     1      -8.609  11.238  65.707  1.00  0.00    -0.067 C  
BRANCH   6   7
HETATM    7  C   UNL     1      -8.743   9.742  65.343  1.00  0.00    -0.176 C  
BRANCH   7   8
HETATM    8  C   UNL     1      -7.570   8.855  65.767  1.00  0.00    -0.090 C  
HETATM    9  C   UNL     1      -6.268   9.199  65.062  1.00  0.00    -0.065 C  
ENDBRANCH   7   8
ENDBRANCH   6   7
ENDBRANCH   5   6
BRANCH   5  10
HETATM   10  C   UNL     1      -9.946  11.562  63.692  1.00  0.00    -0.376 C  
BRANCH  10  11
HETATM   11  C   UNL     1     -11.445  11.473  64.121  1.00  0.00    -0.216 C  
HETATM   12  O   UNL     1     -11.989  10.162  63.966  1.00  0.00     3.421 OA 
HETATM   13  H   UNL     1     -12.900  10.108  64.228  1.00  0.00     0.000 HD 
BRANCH  11  14
HETATM   14  C   UNL     1     -11.657  11.988  65.536  1.00  0.00    -0.352 A  
HETATM   15  C   UNL     1     -11.476  11.247  66.718  1.00  0.00    -0.077 A  
HETATM   16 CL   UNL     1      -9.460   5.944  68.575  1.00  0.00    -0.125 Cl 
HETATM   17  C   UNL     1     -10.398   8.455  68.879  1.00  0.00    -0.231 A  
HETATM   18  C   UNL     1     -11.603  11.906  67.979  1.00  0.00    -0.401 A  
HETATM   19  C   UNL     1     -11.331  10.891  69.029  1.00  0.00    -0.348 C  
HETATM   20  C   UNL     1     -11.884  13.262  68.076  1.00  0.00    -0.392 A  
HETATM   21  C   UNL     1     -11.569  10.953  70.353  1.00  0.00    -0.418 C  
HETATM   22  C   UNL     1     -10.896   9.642  68.363  1.00  0.00    -0.212 A  
HETATM   23  C   UNL     1     -12.118  13.973  66.912  1.00  0.00    -0.430 A  
HETATM   24  C   UNL     1     -11.082   9.847  66.973  1.00  0.00     0.042 A  
HETATM   25  C   UNL     1     -10.124   7.419  67.992  1.00  0.00    -0.179 A  
HETATM   26 CL   UNL     1     -12.502  15.651  66.998  1.00  0.00     1.318 Cl 
HETATM   27  C   UNL     1     -12.014  13.354  65.665  1.00  0.00    -0.439 A  
HETATM   28  C   UNL     1     -10.384   7.564  66.625  1.00  0.00    -0.252 A  
HETATM   29  C   UNL     1     -10.876   8.771  66.120  1.00  0.00     1.266 A  
BRANCH  21  30
HETATM   30  C   UNL     1     -12.175  12.090  71.046  1.00  0.00    -0.245 A  
HETATM   31  C   UNL     1     -13.506  14.289  72.128  1.00  0.00    -0.433 A  
HETATM   32 CL   UNL     1     -14.373  15.651  72.719  1.00  0.00    -0.312 Cl 
HETATM   33  C   UNL     1     -12.338  14.479  71.390  1.00  0.00    -0.425 A  
HETATM   34  C   UNL     1     -13.320  11.902  71.831  1.00  0.00    -0.405 A  
HETATM   35  C   UNL     1     -13.989  13.005  72.365  1.00  0.00    -0.426 A  
HETATM   36  C   UNL     1     -11.667  13.378  70.850  1.00  0.00     0.274 A  
ENDBRANCH  21  30
ENDBRANCH  11  14
ENDBRANCH  10  11
ENDBRANCH   5  10
ENDBRANCH   4   5
ENDBRANCH   3   4
ENDBRANCH   2   3
TORSDOF 10
ENDMDL
MODEL      161
REMARK 921   NORMALIZED FREE ENERGY PREDICTED BY IDOCK:    6.57 KCAL/MOL
REMARK 922        TOTAL FREE ENERGY PREDICTED BY IDOCK:    8.32 KCAL/MOL
REMARK 923 INTER-LIGAND FREE ENERGY PREDICTED BY IDOCK:   -0.07 KCAL/MOL
REMARK 924 INTRA-LIGAND FREE ENERGY PREDICTED BY IDOCK:    8.39 KCAL/MOL
REMARK 927      BINDING AFFINITY PREDICTED BY RF-SCORE:    0.00 PKD
ROOT
HETATM    1  C   UNL     1      -8.577  12.361  68.819  1.00  0.00     0.147 C  
HETATM    2  C   UNL     1      -8.310  11.692  70.160  1.00  0.00     2.795 C  
ENDROOT
BRANCH   2   3
HETATM    3  C   UNL     1      -6.943  11.010  70.154  1.00  0.00     0.162 C  
BRANCH   3   4
HETATM    4  C   UNL     1      -6.011  11.486  69.030  1.00  0.00    -0.052 C  
BRANCH   4   5
HETATM    5  N   UNL     1      -5.173  10.468  68.358  1.00  0.00    -0.034 NA 
BRANCH   5   6
HETATM    6  C   UNL     1      -5.488   9.102  68.831  1.00  0.00    -0.037 C  
BRANCH   6   7
HETATM    7  C   UNL     1      -6.943   8.860  69.291  1.00  0.00    -0.057 C  
BRANCH   7   8
HETATM    8  C   UNL     1      -7.681   7.729  68.570  1.00  0.00    -0.118 C  
HETATM    9  C   UNL     1      -8.123   6.610  69.499  1.00  0.00    -0.126 C  
ENDBRANCH   7   8
ENDBRANCH   6   7
ENDBRANCH   5   6
BRANCH   5  10
HETATM   10  C   UNL     1      -5.378  10.570  66.885  1.00  0.00    -0.043 C  
BRANCH  10  11
HETATM   11  C   UNL     1      -6.802  10.991  66.400  1.00  0.00    -0.118 C  
HETATM   12  O   UNL     1      -7.838  10.181  66.954  1.00  0.00    -0.105 OA 
HETATM   13  H   UNL     1      -8.703  10.437  66.659  1.00  0.00     0.000 HD 
BRANCH  11  14
HETATM   14  C   UNL     1      -7.069  12.467  66.650  1.00  0.00     0.440 A  
HETATM   15  C   UNL     1      -8.182  13.192  66.189  1.00  0.00     1.179 A  
HETATM   16 CL   UNL     1     -13.392  12.364  63.395  1.00  0.00     0.371 Cl 
HETATM   17  C   UNL     1     -11.517  13.781  64.720  1.00  0.00    -0.366 A  
HETATM   18  C   UNL     1      -8.350  14.548  66.605  1.00  0.00     0.094 A  
HETATM   19  C   UNL     1      -9.611  15.037  65.992  1.00  0.00    -0.359 C  
HETATM   20  C   UNL     1      -7.456  15.170  67.464  1.00  0.00    -0.223 A  
HETATM   21  C   UNL     1     -10.068  16.299  65.878  1.00  0.00    -0.381 C  
HETATM   22  C   UNL     1     -10.270  13.896  65.316  1.00  0.00    -0.366 A  
HETATM   23  C   UNL     1      -6.331  14.471  67.869  1.00  0.00    -0.161 A  
HETATM   24  C   UNL     1      -9.349  12.820  65.364  1.00  0.00     0.290 A  
HETATM   25  C   UNL     1     -11.841  12.575  64.107  1.00  0.00    -0.411 A  
HETATM   26 CL   UNL     1      -5.184  15.225  68.911  1.00  0.00    -0.098 Cl 
HETATM   27  C   UNL     1      -6.133  13.148  67.468  1.00  0.00    -0.112 A  
HETATM   28  C   UNL     1     -10.915  11.528  64.061  1.00  0.00    -0.454 A  
HETATM   29  C   UNL     1      -9.666  11.656  64.676  1.00  0.00    -0.210 A  
BRANCH  21  30
HETATM   30  C   UNL     1      -9.370  17.492  66.358  1.00  0.00    -0.265 A  
HETATM   31  C   UNL     1      -7.906  19.588  67.472  1.00  0.00    -0.264 A  
HETATM   32 CL   UNL     1      -6.970  20.822  68.220  1.00  0.00    -0.174 Cl 
HETATM   33  C   UNL     1      -9.184  19.301  67.953  1.00  0.00    -0.372 A  
HETATM   34  C   UNL     1      -8.107  17.818  65.846  1.00  0.00    -0.027 A  
HETATM   35  C   UNL     1      -7.373  18.862  66.411  1.00  0.00    -0.267 A  
HETATM   36  C   UNL     1      -9.920  18.254  67.393  1.00  0.00    -0.344 A  
ENDBRANCH  21  30
ENDBRANCH  11  14
ENDBRANCH  10  11
ENDBRANCH   5  10
ENDBRANCH   4   5
ENDBRANCH   3   4
ENDBRANCH   2   3
TORSDOF 10
ENDMDL
MODEL      162
REMARK 921   NORMALIZED FREE ENERGY PREDICTED BY IDOCK:    7.42 KCAL/MOL
REMARK 922        TOTAL FREE ENERGY PREDICTED BY IDOCK:    9.67 KCAL/MOL
REMARK 923 INTER-LIGAND FREE ENERGY PREDICTED BY IDOCK:    4.98 KCAL/MOL
REMARK 924 INTRA-LIGAND FREE ENERGY PREDICTED BY IDOCK:    4.69 KCAL/MOL
REMARK 927      BINDING AFFINITY PREDICTED BY RF-SCORE:    0.00 PKD
ROOT
HETATM    1  C   UNL     1     -10.014   6.833  73.558  1.00  0.00    -0.269 C  
HETATM    2  C   UNL     1      -9.971   7.777  72.364  1.00  0.00    -0.272 C  
ENDROOT
BRANCH   2   3
HETATM    3  C   UNL     1      -9.496   9.162  72.796  1.00  0.00     1.253 C  
BRANCH   3   4
HETATM    4  C   UNL     1      -8.534   9.832  71.804  1.00  0.00     2.060 C  
BRANCH   4   5
HETATM    5  N   UNL     1      -7.183  10.186  72.291  1.00  0.00     2.004 NA 
BRANCH   5   6
HETATM    6  C   UNL     1      -6.283   9.012  72.306  1.00  0.00     0.019 C  
BRANCH   6   7
HETATM    7  C   UNL     1      -5.407   8.843  73.567  1.00  0.00    -0.099 C  
BRANCH   7   8
HETATM    8  C   UNL     1      -5.384   7.436  74.169  1.00  0.00    -0.053 C  
HETATM    9  C   UNL     1      -6.674   6.664  73.946  1.00  0.00    -0.073 C  
ENDBRANCH   7   8
ENDBRANCH   6   7
ENDBRANCH   5   6
BRANCH   5  10
HETATM   10  C   UNL     1      -6.623  11.261  71.424  1.00  0.00     2.371 C  
BRANCH  10  11
HETATM   11  C   UNL     1      -7.097  11.285  69.937  1.00  0.00     0.161 C  
HETATM   12  O   UNL     1      -6.193  11.979  69.078  1.00  0.00    -0.066 OA 
HETATM   13  H   UNL     1      -6.482  11.993  68.173  1.00  0.00     0.000 HD 
BRANCH  11  14
HETATM   14  C   UNL     1      -7.382   9.885  69.414  1.00  0.00    -0.091 A  
HETATM   15  C   UNL     1      -8.037   9.575  68.209  1.00  0.00    -0.102 A  
HETATM   16 CL   UNL     1     -10.186  12.222  63.308  1.00  0.00    -0.371 Cl 
HETATM   17  C   UNL     1      -9.514  10.127  64.871  1.00  0.00    -0.349 A  
HETATM   18  C   UNL     1      -8.128   8.209  67.799  1.00  0.00    -0.127 A  
HETATM   19  C   UNL     1      -8.835   8.194  66.492  1.00  0.00    -0.173 C  
HETATM   20  C   UNL     1      -7.576   7.178  68.545  1.00  0.00    -0.115 A  
HETATM   21  C   UNL     1      -9.378   7.154  65.831  1.00  0.00     0.067 C  
HETATM   22  C   UNL     1      -9.037   9.596  66.060  1.00  0.00    -0.212 A  
HETATM   23  C   UNL     1      -6.983   7.484  69.759  1.00  0.00    -0.055 A  
HETATM   24  C   UNL     1      -8.637  10.410  67.149  1.00  0.00    -0.130 A  
HETATM   25  C   UNL     1      -9.645  11.509  64.777  1.00  0.00    -0.174 A  
HETATM   26 CL   UNL     1      -6.316   6.224  70.726  1.00  0.00    -0.039 Cl 
HETATM   27  C   UNL     1      -6.891   8.808  70.192  1.00  0.00    -0.040 A  
HETATM   28  C   UNL     1      -9.343  12.329  65.869  1.00  0.00    -0.098 A  
HETATM   29  C   UNL     1      -8.854  11.778  67.058  1.00  0.00    -0.182 A  
BRANCH  21  30
HETATM   30  C   UNL     1      -9.377   5.768  66.300  1.00  0.00    -0.171 A  
HETATM   31  C   UNL     1      -9.313   3.234  67.463  1.00  0.00    -0.206 A  
HETATM   32 CL   UNL     1      -9.249   1.711  68.258  1.00  0.00    -0.197 Cl 
HETATM   33  C   UNL     1      -8.157   3.764  66.889  1.00  0.00    -0.095 A  
HETATM   34  C   UNL     1     -10.547   5.209  66.832  1.00  0.00    -0.234 A  
HETATM   35  C   UNL     1     -10.509   3.943  67.421  1.00  0.00     1.152 A  
HETATM   36  C   UNL     1      -8.188   5.032  66.302  1.00  0.00    -0.108 A  
ENDBRANCH  21  30
ENDBRANCH  11  14
ENDBRANCH  10  11
ENDBRANCH   5  10
ENDBRANCH   4   5
ENDBRANCH   3   4
ENDBRANCH   2   3
TORSDOF 10
ENDMDL
MODEL      163
REMARK 921   NORMALIZED FREE ENERGY PREDICTED BY IDOCK:    7.56 KCAL/MOL
REMARK 922        TOTAL FREE ENERGY PREDICTED BY IDOCK:    9.90 KCAL/MOL
REMARK 923 INTER-LIGAND FREE ENERGY PREDICTED BY IDOCK:    8.30 KCAL/MOL
REMARK 924 INTRA-LIGAND FREE ENERGY PREDICTED BY IDOCK:    1.60 KCAL/MOL
REMARK 927      BINDING AFFINITY PREDICTED BY RF-SCORE:    0.00 PKD
ROOT
HETATM    1  C   UNL     1      -5.129  18.273  71.324  1.00  0.00    -0.218 C  
HETATM    2  C   UNL     1      -6.324  19.212  71.398  1.00  0.00     0.834 C  
ENDROOT
BRANCH   2   3
HETATM    3  C   UNL     1      -6.698  19.714  70.005  1.00  0.00    -0.185 C  
BRANCH   3   4
HETATM    4  C   UNL     1      -8.072  19.234  69.514  1.00  0.00     0.217 C  
BRANCH   4   5
HETATM    5  N   UNL     1      -8.134  17.931  68.817  1.00  0.00    -0.271 NA 
BRANCH   5   6
HETATM    6  C   UNL     1      -6.808  17.277  68.762  1.00  0.00    -0.219 C  
BRANCH   6   7
HETATM    7  C   UNL     1      -6.155  17.180  67.365  1.00  0.00    -0.172 C  
BRANCH   7   8
HETATM    8  C   UNL     1      -6.099  18.489  66.573  1.00  0.00    -0.187 C  
HETATM    9  C   UNL     1      -7.343  18.740  65.736  1.00  0.00    -0.199 C  
ENDBRANCH   7   8
ENDBRANCH   6   7
ENDBRANCH   5   6
BRANCH   5  10
HETATM   10  C   UNL     1      -9.118  17.056  69.514  1.00  0.00     0.420 C  
BRANCH  10  11
HETATM   11  C   UNL     1      -8.583  15.699  70.073  1.00  0.00     0.464 C  
HETATM   12  O   UNL     1      -9.327  15.231  71.197  1.00  0.00     0.952 OA 
HETATM   13  H   UNL     1      -9.002  14.406  71.536  1.00  0.00     0.000 HD 
BRANCH  11  14
HETATM   14  C   UNL     1      -8.503  14.636  68.988  1.00  0.00    -0.095 A  
HETATM   15  C   UNL     1      -9.056  14.732  67.699  1.00  0.00    -0.185 A  
HETATM   16 CL   UNL     1     -11.801  18.658  64.137  1.00  0.00     6.486 Cl 
HETATM   17  C   UNL     1     -10.622  16.311  64.752  1.00  0.00    -0.004 A  
HETATM   18  C   UNL     1      -8.797  13.694  66.751  1.00  0.00    -0.150 A  
HETATM   19  C   UNL     1      -9.476  14.081  65.488  1.00  0.00     0.116 C  
HETATM   20  C   UNL     1      -8.002  12.600  67.059  1.00  0.00    -0.063 A  
HETATM   21  C   UNL     1      -9.736  13.332  64.400  1.00  0.00     0.380 C  
HETATM   22  C   UNL     1     -10.027  15.445  65.658  1.00  0.00    -0.396 A  
HETATM   23  C   UNL     1      -7.508  12.481  68.346  1.00  0.00    -0.127 A  
HETATM   24  C   UNL     1      -9.848  15.779  67.023  1.00  0.00    -0.238 A  
HETATM   25  C   UNL     1     -11.099  17.528  65.227  1.00  0.00     0.403 A  
HETATM   26 CL   UNL     1      -6.543  11.117  68.770  1.00  0.00    -0.055 Cl 
HETATM   27  C   UNL     1      -7.755  13.472  69.298  1.00  0.00     0.343 A  
HETATM   28  C   UNL     1     -11.016  17.845  66.586  1.00  0.00     0.193 A  
HETATM   29  C   UNL     1     -10.404  16.965  67.485  1.00  0.00    -0.318 A  
BRANCH  21  30
HETATM   30  C   UNL     1      -9.384  11.920  64.247  1.00  0.00     0.184 A  
HETATM   31  C   UNL     1      -8.939   9.210  63.763  1.00  0.00     0.047 A  
HETATM   32 CL   UNL     1      -8.738   7.539  63.411  1.00  0.00     0.485 Cl 
HETATM   33  C   UNL     1      -9.769   9.600  64.815  1.00  0.00    -0.108 A  
HETATM   34  C   UNL     1      -8.512  11.522  63.225  1.00  0.00     0.496 A  
HETATM   35  C   UNL     1      -8.298  10.165  62.980  1.00  0.00    -0.169 A  
HETATM   36  C   UNL     1      -9.989  10.958  65.062  1.00  0.00    -0.356 A  
ENDBRANCH  21  30
ENDBRANCH  11  14
ENDBRANCH  10  11
ENDBRANCH   5  10
ENDBRANCH   4   5
ENDBRANCH   3   4
ENDBRANCH   2   3
TORSDOF 10
ENDMDL
MODEL      164
REMARK 921   NORMALIZED FREE ENERGY PREDICTED BY IDOCK:    7.60 KCAL/MOL
REMARK 922        TOTAL FREE ENERGY PREDICTED BY IDOCK:    9.95 KCAL/MOL
REMARK 923 INTER-LIGAND FREE ENERGY PREDICTED BY IDOCK:   -2.47 KCAL/MOL
REMARK 924 INTRA-LIGAND FREE ENERGY PREDICTED BY IDOCK:   12.42 KCAL/MOL
REMARK 927      BINDING AFFINITY PREDICTED BY RF-SCORE:    0.00 PKD
ROOT
HETATM    1  C   UNL     1      -8.605  12.415  69.309  1.00  0.00     0.879 C  
HETATM    2  C   UNL     1      -7.197  11.909  69.032  1.00  0.00    -0.068 C  
ENDROOT
BRANCH   2   3
HETATM    3  C   UNL     1      -6.504  12.795  67.999  1.00  0.00    -0.099 C  
BRANCH   3   4
HETATM    4  C   UNL     1      -6.707  12.339  66.546  1.00  0.00     0.656 C  
BRANCH   4   5
HETATM    5  N   UNL     1      -7.204  10.964  66.323  1.00  0.00    -0.140 NA 
BRANCH   5   6
HETATM    6  C   UNL     1      -7.678  10.773  64.934  1.00  0.00     0.175 C  
BRANCH   6   7
HETATM    7  C   UNL     1      -9.208  10.693  64.743  1.00  0.00    -0.255 C  
BRANCH   7   8
HETATM    8  C   UNL     1      -9.683  10.515  63.299  1.00  0.00    -0.361 C  
HETATM    9  C   UNL     1      -9.270  11.655  62.383  1.00  0.00     0.374 C  
ENDBRANCH   7   8
ENDBRANCH   6   7
ENDBRANCH   5   6
BRANCH   5  10
HETATM   10  C   UNL     1      -6.113   9.999  66.639  1.00  0.00    -0.064 C  
BRANCH  10  11
HETATM   11  C   UNL     1      -6.349   8.510  66.230  1.00  0.00    -0.057 C  
HETATM   12  O   UNL     1      -5.143   7.835  65.877  1.00  0.00    -0.024 OA 
HETATM   13  H   UNL     1      -5.287   6.929  65.629  1.00  0.00     0.000 HD 
BRANCH  11  14
HETATM   14  C   UNL     1      -7.110   7.746  67.303  1.00  0.00    -0.086 A  
HETATM   15  C   UNL     1      -8.299   8.167  67.926  1.00  0.00    -0.129 A  
HETATM   16 CL   UNL     1     -12.412  12.479  67.585  1.00  0.00     0.495 Cl 
HETATM   17  C   UNL     1     -11.343  10.176  68.496  1.00  0.00    -0.172 A  
HETATM   18  C   UNL     1      -8.958   7.283  68.835  1.00  0.00    -0.133 A  
HETATM   19  C   UNL     1     -10.184   7.978  69.304  1.00  0.00    -0.214 C  
HETATM   20  C   UNL     1      -8.470   6.014  69.111  1.00  0.00    -0.114 A  
HETATM   21  C   UNL     1     -10.990   7.674  70.338  1.00  0.00    -0.256 C  
HETATM   22  C   UNL     1     -10.319   9.241  68.543  1.00  0.00    -0.237 A  
HETATM   23  C   UNL     1      -7.269   5.627  68.540  1.00  0.00    -0.075 A  
HETATM   24  C   UNL     1      -9.127   9.382  67.790  1.00  0.00    -0.134 A  
HETATM   25  C   UNL     1     -11.155  11.313  67.716  1.00  0.00    -0.271 A  
HETATM   26 CL   UNL     1      -6.619   4.070  68.887  1.00  0.00    -0.040 Cl 
HETATM   27  C   UNL     1      -6.596   6.474  67.658  1.00  0.00    -0.061 A  
HETATM   28  C   UNL     1      -9.952  11.519  67.034  1.00  0.00    -0.225 A  
HETATM   29  C   UNL     1      -8.934  10.561  67.084  1.00  0.00    -0.147 A  
BRANCH  21  30
HETATM   30  C   UNL     1     -10.801   6.542  71.247  1.00  0.00    -0.294 A  
HETATM   31  C   UNL     1     -10.709   4.292  72.892  1.00  0.00    -0.167 A  
HETATM   32 CL   UNL     1     -10.736   2.885  73.879  1.00  0.00    -0.264 Cl 
HETATM   33  C   UNL     1     -11.204   5.497  73.391  1.00  0.00    -0.212 A  
HETATM   34  C   UNL     1     -10.257   5.343  70.768  1.00  0.00    -0.313 A  
HETATM   35  C   UNL     1     -10.220   4.216  71.591  1.00  0.00    -0.133 A  
HETATM   36  C   UNL     1     -11.247   6.627  72.569  1.00  0.00    -0.302 A  
ENDBRANCH  21  30
ENDBRANCH  11  14
ENDBRANCH  10  11
ENDBRANCH   5  10
ENDBRANCH   4   5
ENDBRANCH   3   4
ENDBRANCH   2   3
TORSDOF 10
ENDMDL
MODEL      165
REMARK 921   NORMALIZED FREE ENERGY PREDICTED BY IDOCK:    7.65 KCAL/MOL
REMARK 922        TOTAL FREE ENERGY PREDICTED BY IDOCK:   10.03 KCAL/MOL
REMARK 923 INTER-LIGAND FREE ENERGY PREDICTED BY IDOCK:    4.45 KCAL/MOL
REMARK 924 INTRA-LIGAND FREE ENERGY PREDICTED BY IDOCK:    5.58 KCAL/MOL
REMARK 927      BINDING AFFINITY PREDICTED BY RF-SCORE:    0.00 PKD
ROOT
HETATM    1  C   UNL     1     -10.708  12.975  70.160  1.00  0.00     1.298 C  
HETATM    2  C   UNL     1     -11.136  14.132  69.269  1.00  0.00    -0.286 C  
ENDROOT
BRANCH   2   3
HETATM    3  C   UNL     1      -9.991  14.549  68.348  1.00  0.00    -0.241 C  
BRANCH   3   4
HETATM    4  C   UNL     1      -9.800  13.632  67.131  1.00  0.00    -0.242 C  
BRANCH   4   5
HETATM    5  N   UNL     1     -11.016  13.151  66.438  1.00  0.00    -0.286 NA 
BRANCH   5   6
HETATM    6  C   UNL     1     -11.982  14.247  66.206  1.00  0.00    -0.412 C  
BRANCH   6   7
HETATM    7  C   UNL     1     -13.406  13.821  65.787  1.00  0.00     0.518 C  
BRANCH   7   8
HETATM    8  C   UNL     1     -13.580  13.476  64.305  1.00  0.00     2.315 C  
HETATM    9  C   UNL     1     -13.531  11.983  64.024  1.00  0.00     0.618 C  
ENDBRANCH   7   8
ENDBRANCH   6   7
ENDBRANCH   5   6
BRANCH   5  10
HETATM   10  C   UNL     1     -10.618  12.524  65.146  1.00  0.00    -0.293 C  
BRANCH  10  11
HETATM   11  C   UNL     1      -9.143  12.027  65.029  1.00  0.00     0.404 C  
HETATM   12  O   UNL     1      -8.197  13.096  65.040  1.00  0.00     2.752 OA 
HETATM   13  H   UNL     1      -7.299  12.794  64.969  1.00  0.00     0.000 HD 
BRANCH  11  14
HETATM   14  C   UNL     1      -8.811  10.991  66.092  1.00  0.00    -0.197 A  
HETATM   15  C   UNL     1      -8.155  11.243  67.310  1.00  0.00    -0.140 A  
HETATM   16 CL   UNL     1      -6.142  15.790  70.613  1.00  0.00     0.098 Cl 
HETATM   17  C   UNL     1      -6.725  13.209  70.088  1.00  0.00     0.417 A  
HETATM   18  C   UNL     1      -8.017  10.183  68.258  1.00  0.00    -0.101 A  
HETATM   19  C   UNL     1      -7.320  10.748  69.442  1.00  0.00    -0.128 C  
HETATM   20  C   UNL     1      -8.526   8.914  68.021  1.00  0.00    -0.126 A  
HETATM   21  C   UNL     1      -6.745  10.105  70.476  1.00  0.00    -0.100 C  
HETATM   22  C   UNL     1      -7.173  12.207  69.239  1.00  0.00     0.097 A  
HETATM   23  C   UNL     1      -9.119   8.656  66.798  1.00  0.00    -0.149 A  
HETATM   24  C   UNL     1      -7.593  12.469  67.911  1.00  0.00    -0.133 A  
HETATM   25  C   UNL     1      -6.644  14.504  69.587  1.00  0.00    -0.153 A  
HETATM   26 CL   UNL     1      -9.733   7.082  66.459  1.00  0.00    -0.216 Cl 
HETATM   27  C   UNL     1      -9.256   9.668  65.846  1.00  0.00    -0.246 A  
HETATM   28  C   UNL     1      -6.968  14.774  68.254  1.00  0.00    -0.119 A  
HETATM   29  C   UNL     1      -7.427  13.754  67.414  1.00  0.00    -0.142 A  
BRANCH  21  30
HETATM   30  C   UNL     1      -6.691   8.652  70.637  1.00  0.00    -0.043 A  
HETATM   31  C   UNL     1      -6.748   5.864  70.695  1.00  0.00    -0.053 A  
HETATM   32 CL   UNL     1      -6.837   4.147  70.656  1.00  0.00    -0.032 Cl 
HETATM   33  C   UNL     1      -7.732   6.593  71.365  1.00  0.00    -0.094 A  
HETATM   34  C   UNL     1      -5.678   7.915  70.009  1.00  0.00    -0.023 A  
HETATM   35  C   UNL     1      -5.714   6.519  70.033  1.00  0.00    -0.018 A  
HETATM   36  C   UNL     1      -7.702   7.990  71.341  1.00  0.00    -0.092 A  
ENDBRANCH  21  30
ENDBRANCH  11  14
ENDBRANCH  10  11
ENDBRANCH   5  10
ENDBRANCH   4   5
ENDBRANCH   3   4
ENDBRANCH   2   3
TORSDOF 10
ENDMDL
MODEL      166
REMARK 921   NORMALIZED FREE ENERGY PREDICTED BY IDOCK:    9.43 KCAL/MOL
REMARK 922        TOTAL FREE ENERGY PREDICTED BY IDOCK:   12.85 KCAL/MOL
REMARK 923 INTER-LIGAND FREE ENERGY PREDICTED BY IDOCK:    7.31 KCAL/MOL
REMARK 924 INTRA-LIGAND FREE ENERGY PREDICTED BY IDOCK:    5.55 KCAL/MOL
REMARK 927      BINDING AFFINITY PREDICTED BY RF-SCORE:    0.00 PKD
ROOT
HETATM    1  C   UNL     1     -11.789  16.277  64.840  1.00  0.00     0.487 C  
HETATM    2  C   UNL     1     -10.919  17.503  65.075  1.00  0.00     0.458 C  
ENDROOT
BRANCH   2   3
HETATM    3  C   UNL     1      -9.817  17.191  66.085  1.00  0.00    -0.280 C  
BRANCH   3   4
HETATM    4  C   UNL     1     -10.142  16.020  67.025  1.00  0.00    -0.271 C  
BRANCH   4   5
HETATM    5  N   UNL     1     -10.607  14.758  66.411  1.00  0.00    -0.293 NA 
BRANCH   5   6
HETATM    6  C   UNL     1      -9.505  14.040  65.733  1.00  0.00    -0.009 C  
BRANCH   6   7
HETATM    7  C   UNL     1      -9.865  12.674  65.109  1.00  0.00    -0.112 C  
BRANCH   7   8
HETATM    8  C   UNL     1     -10.871  12.722  63.956  1.00  0.00    -0.458 C  
HETATM    9  C   UNL     1     -12.233  13.256  64.367  1.00  0.00    -0.449 C  
ENDBRANCH   7   8
ENDBRANCH   6   7
ENDBRANCH   5   6
BRANCH   5  10
HETATM   10  C   UNL     1     -11.214  13.901  67.469  1.00  0.00    -0.303 C  
BRANCH  10  11
HETATM   11  C   UNL     1     -10.230  13.070  68.352  1.00  0.00    -0.245 C  
HETATM   12  O   UNL     1     -10.671  12.943  69.703  1.00  0.00    -0.400 OA 
HETATM   13  H   UNL     1     -10.073  12.437  70.240  1.00  0.00     0.000 HD 
BRANCH  11  14
HETATM   14  C   UNL     1      -9.940  11.707  67.741  1.00  0.00    -0.191 A  
HETATM   15  C   UNL     1      -8.981  10.787  68.200  1.00  0.00    -0.140 A  
HETATM   16 CL   UNL     1      -5.176   9.960  72.725  1.00  0.00    -0.016 Cl 
HETATM   17  C   UNL     1      -6.502   9.272  70.478  1.00  0.00    -0.067 A  
HETATM   18  C   UNL     1      -8.906   9.497  67.590  1.00  0.00    -0.121 A  
HETATM   19  C   UNL     1      -7.837   8.745  68.295  1.00  0.00    -0.101 C  
HETATM   20  C   UNL     1      -9.761   9.117  66.566  1.00  0.00    -0.306 A  
HETATM   21  C   UNL     1      -7.224   7.601  67.935  1.00  0.00    -0.094 C  
HETATM   22  C   UNL     1      -7.372   9.564  69.438  1.00  0.00    -0.084 A  
HETATM   23  C   UNL     1     -10.664  10.047  66.078  1.00  0.00     0.148 A  
HETATM   24  C   UNL     1      -8.003  10.825  69.306  1.00  0.00    -0.110 A  
HETATM   25  C   UNL     1      -6.210  10.282  71.390  1.00  0.00     0.352 A  
HETATM   26 CL   UNL     1     -11.720   9.618  64.785  1.00  0.00     6.316 Cl 
HETATM   27  C   UNL     1     -10.752  11.319  66.646  1.00  0.00    -0.321 A  
HETATM   28  C   UNL     1      -6.750  11.563  71.231  1.00  0.00     2.779 A  
HETATM   29  C   UNL     1      -7.633  11.837  70.182  1.00  0.00     1.855 A  
BRANCH  21  30
HETATM   30  C   UNL     1      -7.508   6.843  66.716  1.00  0.00    -0.082 A  
HETATM   31  C   UNL     1      -8.228   5.621  64.315  1.00  0.00    -0.117 A  
HETATM   32 CL   UNL     1      -8.730   4.936  62.820  1.00  0.00    -0.126 Cl 
HETATM   33  C   UNL     1      -8.944   5.340  65.479  1.00  0.00    -0.158 A  
HETATM   34  C   UNL     1      -6.761   7.081  65.554  1.00  0.00    -0.052 A  
HETATM   35  C   UNL     1      -7.130   6.475  64.352  1.00  0.00    -0.064 A  
HETATM   36  C   UNL     1      -8.582   5.948  66.684  1.00  0.00    -0.119 A  
ENDBRANCH  21  30
ENDBRANCH  11  14
ENDBRANCH  10  11
ENDBRANCH   5  10
ENDBRANCH   4   5
ENDBRANCH   3   4
ENDBRANCH   2   3
TORSDOF 10
ENDMDL
MODEL      167
REMARK 921   NORMALIZED FREE ENERGY PREDICTED BY IDOCK:    9.85 KCAL/MOL
REMARK 922        TOTAL FREE ENERGY PREDICTED BY IDOCK:   13.52 KCAL/MOL
REMARK 923 INTER-LIGAND FREE ENERGY PREDICTED BY IDOCK:    3.78 KCAL/MOL
REMARK 924 INTRA-LIGAND FREE ENERGY PREDICTED BY IDOCK:    9.74 KCAL/MOL
REMARK 927      BINDING AFFINITY PREDICTED BY RF-SCORE:    0.00 PKD
ROOT
HETATM    1  C   UNL     1     -10.935   3.178  68.238  1.00  0.00     5.754 C  
HETATM    2  C   UNL     1     -10.049   4.262  67.643  1.00  0.00     0.008 C  
ENDROOT
BRANCH   2   3
HETATM    3  C   UNL     1      -9.788   3.987  66.163  1.00  0.00    -0.176 C  
BRANCH   3   4
HETATM    4  C   UNL     1      -8.349   4.280  65.716  1.00  0.00    -0.109 C  
BRANCH   4   5
HETATM    5  N   UNL     1      -8.138   5.403  64.775  1.00  0.00    -0.117 NA 
BRANCH   5   6
HETATM    6  C   UNL     1      -8.782   6.645  65.255  1.00  0.00     0.062 C  
BRANCH   6   7
HETATM    7  C   UNL     1      -8.282   7.960  64.617  1.00  0.00    -0.094 C  
BRANCH   7   8
HETATM    8  C   UNL     1      -9.300   8.697  63.743  1.00  0.00     1.273 C  
HETATM    9  C   UNL     1      -9.583  10.115  64.212  1.00  0.00    -0.354 C  
ENDBRANCH   7   8
ENDBRANCH   6   7
ENDBRANCH   5   6
BRANCH   5  10
HETATM   10  C   UNL     1      -6.674   5.611  64.592  1.00  0.00    -0.046 C  
BRANCH  10  11
HETATM   11  C   UNL     1      -5.893   6.219  65.800  1.00  0.00    -0.025 C  
HETATM   12  O   UNL     1      -5.346   7.506  65.515  1.00  0.00    -0.028 OA 
HETATM   13  H   UNL     1      -4.871   7.876  66.250  1.00  0.00     0.000 HD 
BRANCH  11  14
HETATM   14  C   UNL     1      -6.744   6.254  67.061  1.00  0.00    -0.061 A  
HETATM   15  C   UNL     1      -7.344   7.397  67.617  1.00  0.00    -0.092 A  
HETATM   16 CL   UNL     1      -8.246  13.177  66.428  1.00  0.00     0.471 Cl 
HETATM   17  C   UNL     1      -8.536  10.885  67.822  1.00  0.00    -0.124 A  
HETATM   18  C   UNL     1      -8.211   7.249  68.743  1.00  0.00    -0.129 A  
HETATM   19  C   UNL     1      -8.713   8.605  69.085  1.00  0.00    -0.136 C  
HETATM   20  C   UNL     1      -8.493   6.009  69.297  1.00  0.00    -0.115 A  
HETATM   21  C   UNL     1      -9.345   9.021  70.199  1.00  0.00    -0.213 C  
HETATM   22  C   UNL     1      -8.239   9.549  68.047  1.00  0.00    -0.114 A  
HETATM   23  C   UNL     1      -7.854   4.894  68.782  1.00  0.00    -0.077 A  
HETATM   24  C   UNL     1      -7.340   8.822  67.229  1.00  0.00    -0.081 A  
HETATM   25  C   UNL     1      -7.880  11.534  66.780  1.00  0.00    -0.146 A  
HETATM   26 CL   UNL     1      -8.157   3.342  69.467  1.00  0.00    -0.058 Cl 
HETATM   27  C   UNL     1      -6.991   5.008  67.690  1.00  0.00    -0.061 A  
HETATM   28  C   UNL     1      -6.921  10.864  66.014  1.00  0.00    -0.066 A  
HETATM   29  C   UNL     1      -6.642   9.514  66.248  1.00  0.00    -0.071 A  
BRANCH  21  30
HETATM   30  C   UNL     1      -9.673   8.174  71.345  1.00  0.00    -0.219 A  
HETATM   31  C   UNL     1     -10.355   6.342  73.335  1.00  0.00    -0.250 A  
HETATM   32 CL   UNL     1     -10.796   5.153  74.497  1.00  0.00     0.039 Cl 
HETATM   33  C   UNL     1     -11.330   7.190  72.808  1.00  0.00    -0.285 A  
HETATM   34  C   UNL     1      -8.689   7.355  71.915  1.00  0.00    -0.127 A  
HETATM   35  C   UNL     1      -9.035   6.433  72.905  1.00  0.00    -0.132 A  
HETATM   36  C   UNL     1     -10.989   8.111  71.814  1.00  0.00    -0.322 A  
ENDBRANCH  21  30
ENDBRANCH  11  14
ENDBRANCH  10  11
ENDBRANCH   5  10
ENDBRANCH   4   5
ENDBRANCH   3   4
ENDBRANCH   2   3
TORSDOF 10
ENDMDL
MODEL      168
REMARK 921   NORMALIZED FREE ENERGY PREDICTED BY IDOCK:    9.94 KCAL/MOL
REMARK 922        TOTAL FREE ENERGY PREDICTED BY IDOCK:   13.66 KCAL/MOL
REMARK 923 INTER-LIGAND FREE ENERGY PREDICTED BY IDOCK:    9.18 KCAL/MOL
REMARK 924 INTRA-LIGAND FREE ENERGY PREDICTED BY IDOCK:    4.48 KCAL/MOL
REMARK 927      BINDING AFFINITY PREDICTED BY RF-SCORE:    0.00 PKD
ROOT
HETATM    1  C   UNL     1     -10.521  11.223  65.507  1.00  0.00    -0.323 C  
HETATM    2  C   UNL     1      -9.596  11.023  66.699  1.00  0.00    -0.216 C  
ENDROOT
BRANCH   2   3
HETATM    3  C   UNL     1      -8.243  11.684  66.444  1.00  0.00    -0.052 C  
BRANCH   3   4
HETATM    4  C   UNL     1      -7.904  12.814  67.427  1.00  0.00    -0.172 C  
BRANCH   4   5
HETATM    5  N   UNL     1      -6.474  13.104  67.671  1.00  0.00    -0.155 NA 
BRANCH   5   6
HETATM    6  C   UNL     1      -5.636  11.896  67.504  1.00  0.00    -0.096 C  
BRANCH   6   7
HETATM    7  C   UNL     1      -6.032  10.670  68.357  1.00  0.00    -0.046 C  
BRANCH   7   8
HETATM    8  C   UNL     1      -6.026   9.327  67.621  1.00  0.00    -0.053 C  
HETATM    9  C   UNL     1      -5.859   8.134  68.547  1.00  0.00    -0.040 C  
ENDBRANCH   7   8
ENDBRANCH   6   7
ENDBRANCH   5   6
BRANCH   5  10
HETATM   10  C   UNL     1      -6.032  14.178  66.737  1.00  0.00     2.222 C  
BRANCH  10  11
HETATM   11  C   UNL     1      -6.978  15.410  66.584  1.00  0.00     0.911 C  
HETATM   12  O   UNL     1      -7.569  15.497  65.287  1.00  0.00     3.349 OA 
HETATM   13  H   UNL     1      -8.145  16.246  65.194  1.00  0.00     0.000 HD 
BRANCH  11  14
HETATM   14  C   UNL     1      -8.041  15.443  67.672  1.00  0.00    -0.166 A  
HETATM   15  C   UNL     1      -9.400  15.123  67.505  1.00  0.00    -0.198 A  
HETATM   16 CL   UNL     1     -13.155  12.927  63.416  1.00  0.00     0.358 Cl 
HETATM   17  C   UNL     1     -12.433  13.806  65.863  1.00  0.00    -0.512 A  
HETATM   18  C   UNL     1     -10.253  15.091  68.651  1.00  0.00    -0.231 A  
HETATM   19  C   UNL     1     -11.604  14.698  68.175  1.00  0.00    -0.362 C  
HETATM   20  C   UNL     1      -9.778  15.350  69.928  1.00  0.00    -0.154 A  
HETATM   21  C   UNL     1     -12.785  14.771  68.816  1.00  0.00     0.576 C  
HETATM   22  C   UNL     1     -11.507  14.356  66.737  1.00  0.00    -0.381 A  
HETATM   23  C   UNL     1      -8.453  15.721  70.080  1.00  0.00     0.571 A  
HETATM   24  C   UNL     1     -10.196  14.710  66.332  1.00  0.00    -0.296 A  
HETATM   25  C   UNL     1     -12.062  13.649  64.531  1.00  0.00    -0.419 A  
HETATM   26 CL   UNL     1      -7.840  16.081  71.649  1.00  0.00     5.819 Cl 
HETATM   27  C   UNL     1      -7.599  15.774  68.977  1.00  0.00    -0.191 A  
HETATM   28  C   UNL     1     -10.806  14.073  64.086  1.00  0.00     0.064 A  
HETATM   29  C   UNL     1      -9.881  14.616  64.983  1.00  0.00    -0.065 A  
BRANCH  21  30
HETATM   30  C   UNL     1     -12.974  15.281  70.175  1.00  0.00    -0.128 A  
HETATM   31  C   UNL     1     -13.143  16.040  72.853  1.00  0.00    -0.458 A  
HETATM   32 CL   UNL     1     -13.194  16.438  74.525  1.00  0.00     0.469 Cl 
HETATM   33  C   UNL     1     -14.055  15.121  72.333  1.00  0.00    -0.593 A  
HETATM   34  C   UNL     1     -12.093  16.241  70.691  1.00  0.00     0.103 A  
HETATM   35  C   UNL     1     -12.175  16.613  72.034  1.00  0.00     0.277 A  
HETATM   36  C   UNL     1     -13.974  14.743  70.990  1.00  0.00    -0.231 A  
ENDBRANCH  21  30
ENDBRANCH  11  14
ENDBRANCH  10  11
ENDBRANCH   5  10
ENDBRANCH   4   5
ENDBRANCH   3   4
ENDBRANCH   2   3
TORSDOF 10
ENDMDL
MODEL      169
REMARK 921   NORMALIZED FREE ENERGY PREDICTED BY IDOCK:   10.24 KCAL/MOL
REMARK 922        TOTAL FREE ENERGY PREDICTED BY IDOCK:   14.15 KCAL/MOL
REMARK 923 INTER-LIGAND FREE ENERGY PREDICTED BY IDOCK:   -0.69 KCAL/MOL
REMARK 924 INTRA-LIGAND FREE ENERGY PREDICTED BY IDOCK:   14.83 KCAL/MOL
REMARK 927      BINDING AFFINITY PREDICTED BY RF-SCORE:    0.00 PKD
ROOT
HETATM    1  C   UNL     1      -7.133  16.141  66.847  1.00  0.00    -0.222 C  
HETATM    2  C   UNL     1      -8.155  15.503  65.917  1.00  0.00     1.301 C  
ENDROOT
BRANCH   2   3
HETATM    3  C   UNL     1      -9.013  14.494  66.677  1.00  0.00    -0.247 C  
BRANCH   3   4
HETATM    4  C   UNL     1     -10.454  14.961  66.929  1.00  0.00    -0.280 C  
BRANCH   4   5
HETATM    5  N   UNL     1     -11.358  15.054  65.761  1.00  0.00    -0.317 NA 
BRANCH   5   6
HETATM    6  C   UNL     1     -10.660  14.716  64.501  1.00  0.00    -0.062 C  
BRANCH   6   7
HETATM    7  C   UNL     1     -10.652  13.223  64.108  1.00  0.00    -0.331 C  
BRANCH   7   8
HETATM    8  C   UNL     1     -11.883  12.739  63.337  1.00  0.00    -0.591 C  
HETATM    9  C   UNL     1     -11.834  11.260  62.989  1.00  0.00     0.595 C  
ENDBRANCH   7   8
ENDBRANCH   6   7
ENDBRANCH   5   6
BRANCH   5  10
HETATM   10  C   UNL     1     -12.519  14.144  65.975  1.00  0.00    -0.425 C  
BRANCH  10  11
HETATM   11  C   UNL     1     -12.388  13.094  67.123  1.00  0.00    -0.031 C  
HETATM   12  O   UNL     1     -12.476  11.748  66.655  1.00  0.00     0.304 OA 
HETATM   13  H   UNL     1     -12.396  11.110  67.354  1.00  0.00     0.000 HD 
BRANCH  11  14
HETATM   14  C   UNL     1     -11.122  13.307  67.940  1.00  0.00    -0.287 A  
HETATM   15  C   UNL     1      -9.961  12.516  67.879  1.00  0.00    -0.212 A  
HETATM   16 CL   UNL     1      -7.603   8.011  64.752  1.00  0.00    -0.098 Cl 
HETATM   17  C   UNL     1      -7.601   9.987  66.589  1.00  0.00    -0.104 A  
HETATM   18  C   UNL     1      -8.810  12.913  68.627  1.00  0.00     0.065 A  
HETATM   19  C   UNL     1      -7.745  11.917  68.345  1.00  0.00    -0.131 C  
HETATM   20  C   UNL     1      -8.796  14.066  69.399  1.00  0.00     0.604 A  
HETATM   21  C   UNL     1      -6.581  11.712  68.990  1.00  0.00    -0.092 C  
HETATM   22  C   UNL     1      -8.240  10.994  67.298  1.00  0.00    -0.125 A  
HETATM   23  C   UNL     1      -9.959  14.808  69.501  1.00  0.00    -0.020 A  
HETATM   24  C   UNL     1      -9.607  11.312  67.101  1.00  0.00    -0.194 A  
HETATM   25  C   UNL     1      -8.357   9.239  65.691  1.00  0.00    -0.123 A  
HETATM   26 CL   UNL     1      -9.985  16.227  70.479  1.00  0.00     0.779 Cl 
HETATM   27  C   UNL     1     -11.104  14.438  68.793  1.00  0.00    -0.275 A  
HETATM   28  C   UNL     1      -9.727   9.473  65.545  1.00  0.00    -0.344 A  
HETATM   29  C   UNL     1     -10.353  10.499  66.260  1.00  0.00    -0.276 A  
BRANCH  21  30
HETATM   30  C   UNL     1      -6.120  12.469  70.154  1.00  0.00    -0.099 A  
HETATM   31  C   UNL     1      -5.518  13.884  72.481  1.00  0.00    -0.127 A  
HETATM   32 CL   UNL     1      -5.234  14.748  73.940  1.00  0.00     0.211 Cl 
HETATM   33  C   UNL     1      -5.946  14.568  71.343  1.00  0.00    -0.003 A  
HETATM   34  C   UNL     1      -5.641  11.793  71.284  1.00  0.00     0.133 A  
HETATM   35  C   UNL     1      -5.348  12.503  72.450  1.00  0.00     0.455 A  
HETATM   36  C   UNL     1      -6.244  13.862  70.175  1.00  0.00    -0.123 A  
ENDBRANCH  21  30
ENDBRANCH  11  14
ENDBRANCH  10  11
ENDBRANCH   5  10
ENDBRANCH   4   5
ENDBRANCH   3   4
ENDBRANCH   2   3
TORSDOF 10
ENDMDL
MODEL      170
REMARK 921   NORMALIZED FREE ENERGY PREDICTED BY IDOCK:   10.26 KCAL/MOL
REMARK 922        TOTAL FREE ENERGY PREDICTED BY IDOCK:   14.17 KCAL/MOL
REMARK 923 INTER-LIGAND FREE ENERGY PREDICTED BY IDOCK:    1.55 KCAL/MOL
REMARK 924 INTRA-LIGAND FREE ENERGY PREDICTED BY IDOCK:   12.62 KCAL/MOL
REMARK 927      BINDING AFFINITY PREDICTED BY RF-SCORE:    0.00 PKD
ROOT
HETATM    1  C   UNL     1      -6.946  17.484  69.567  1.00  0.00     0.000 C  
HETATM    2  C   UNL     1      -7.278  17.284  68.095  1.00  0.00    -0.196 C  
ENDROOT
BRANCH   2   3
HETATM    3  C   UNL     1      -6.932  15.862  67.658  1.00  0.00    -0.187 C  
BRANCH   3   4
HETATM    4  C   UNL     1      -8.153  14.946  67.487  1.00  0.00    -0.182 C  
BRANCH   4   5
HETATM    5  N   UNL     1      -7.927  13.485  67.542  1.00  0.00    -0.171 NA 
BRANCH   5   6
HETATM    6  C   UNL     1      -6.861  13.062  66.607  1.00  0.00     1.344 C  
BRANCH   6   7
HETATM    7  C   UNL     1      -5.510  13.800  66.737  1.00  0.00     2.009 C  
BRANCH   7   8
HETATM    8  C   UNL     1      -5.251  14.466  68.091  1.00  0.00    -0.118 C  
HETATM    9  C   UNL     1      -5.262  15.985  68.028  1.00  0.00    -0.127 C  
ENDBRANCH   7   8
ENDBRANCH   6   7
ENDBRANCH   5   6
BRANCH   5  10
HETATM   10  C   UNL     1      -7.577  13.103  68.939  1.00  0.00     0.040 C  
BRANCH  10  11
HETATM   11  C   UNL     1      -8.464  12.009  69.613  1.00  0.00     1.595 C  
HETATM   12  O   UNL     1      -9.858  12.203  69.376  1.00  0.00    -0.182 OA 
HETATM   13  H   UNL     1     -10.397  11.537  69.785  1.00  0.00     0.000 HD 
BRANCH  11  14
HETATM   14  C   UNL     1      -8.030  10.607  69.212  1.00  0.00    -0.139 A  
HETATM   15  C   UNL     1      -8.329   9.971  67.994  1.00  0.00    -0.117 A  
HETATM   16 CL   UNL     1     -10.831  11.094  62.692  1.00  0.00     0.449 Cl 
HETATM   17  C   UNL     1      -9.488   9.618  64.506  1.00  0.00    -0.182 A  
HETATM   18  C   UNL     1      -7.752   8.693  67.717  1.00  0.00    -0.102 A  
HETATM   19  C   UNL     1      -8.217   8.291  66.365  1.00  0.00    -0.107 C  
HETATM   20  C   UNL     1      -6.892   8.066  68.607  1.00  0.00    -0.067 A  
HETATM   21  C   UNL     1      -8.156   7.085  65.769  1.00  0.00    -0.123 C  
HETATM   22  C   UNL     1      -8.970   9.424  65.779  1.00  0.00    -0.227 A  
HETATM   23  C   UNL     1      -6.647   8.670  69.828  1.00  0.00    -0.042 A  
HETATM   24  C   UNL     1      -9.108  10.386  66.810  1.00  0.00    -0.161 A  
HETATM   25  C   UNL     1     -10.209  10.782  64.264  1.00  0.00    -0.354 A  
HETATM   26 CL   UNL     1      -5.609   7.903  70.969  1.00  0.00    -0.033 Cl 
HETATM   27  C   UNL     1      -7.207   9.912  70.133  1.00  0.00    -0.159 A  
HETATM   28  C   UNL     1     -10.437  11.706  65.290  1.00  0.00    -0.323 A  
HETATM   29  C   UNL     1      -9.899  11.500  66.564  1.00  0.00    -0.228 A  
BRANCH  21  30
HETATM   30  C   UNL     1      -7.594   5.877  66.373  1.00  0.00    -0.091 A  
HETATM   31  C   UNL     1      -6.254   3.695  67.479  1.00  0.00    -0.036 A  
HETATM   32 CL   UNL     1      -5.349   2.390  68.139  1.00  0.00    -0.013 Cl 
HETATM   33  C   UNL     1      -6.575   3.697  66.121  1.00  0.00    -0.037 A  
HETATM   34  C   UNL     1      -7.313   5.846  67.746  1.00  0.00    -0.077 A  
HETATM   35  C   UNL     1      -6.635   4.756  68.295  1.00  0.00    -0.042 A  
HETATM   36  C   UNL     1      -7.250   4.788  65.566  1.00  0.00    -0.071 A  
ENDBRANCH  21  30
ENDBRANCH  11  14
ENDBRANCH  10  11
ENDBRANCH   5  10
ENDBRANCH   4   5
ENDBRANCH   3   4
ENDBRANCH   2   3
TORSDOF 10
ENDMDL
MODEL      171
REMARK 921   NORMALIZED FREE ENERGY PREDICTED BY IDOCK:   11.93 KCAL/MOL
REMARK 922        TOTAL FREE ENERGY PREDICTED BY IDOCK:   16.81 KCAL/MOL
REMARK 923 INTER-LIGAND FREE ENERGY PREDICTED BY IDOCK:   16.34 KCAL/MOL
REMARK 924 INTRA-LIGAND FREE ENERGY PREDICTED BY IDOCK:    0.48 KCAL/MOL
REMARK 927      BINDING AFFINITY PREDICTED BY RF-SCORE:    0.00 PKD
ROOT
HETATM    1  C   UNL     1     -11.673   2.466  70.761  1.00  0.00     7.563 C  
HETATM    2  C   UNL     1     -11.768   3.362  69.534  1.00  0.00    12.059 C  
ENDROOT
BRANCH   2   3
HETATM    3  C   UNL     1     -10.388   3.894  69.152  1.00  0.00     0.980 C  
BRANCH   3   4
HETATM    4  C   UNL     1      -9.733   4.768  70.232  1.00  0.00    -0.225 C  
BRANCH   4   5
HETATM    5  N   UNL     1     -10.387   6.053  70.563  1.00  0.00    -0.208 NA 
BRANCH   5   6
HETATM    6  C   UNL     1     -10.092   6.474  71.951  1.00  0.00    -0.182 C  
BRANCH   6   7
HETATM    7  C   UNL     1      -8.640   6.262  72.431  1.00  0.00    -0.121 C  
BRANCH   7   8
HETATM    8  C   UNL     1      -8.437   5.118  73.428  1.00  0.00    -0.110 C  
HETATM    9  C   UNL     1      -7.041   5.082  74.028  1.00  0.00    -0.082 C  
ENDBRANCH   7   8
ENDBRANCH   6   7
ENDBRANCH   5   6
BRANCH   5  10
HETATM   10  C   UNL     1      -9.932   7.091  69.595  1.00  0.00    -0.173 C  
BRANCH  10  11
HETATM   11  C   UNL     1      -9.195   8.332  70.190  1.00  0.00    -0.155 C  
HETATM   12  O   UNL     1      -7.774   8.198  70.163  1.00  0.00    -0.081 OA 
HETATM   13  H   UNL     1      -7.326   8.954  70.524  1.00  0.00     0.000 HD 
BRANCH  11  14
HETATM   14  C   UNL     1      -9.634   9.623  69.516  1.00  0.00    -0.211 A  
HETATM   15  C   UNL     1      -9.425   9.961  68.167  1.00  0.00    -0.149 A  
HETATM   16 CL   UNL     1      -7.382   7.593  63.082  1.00  0.00    -0.090 Cl 
HETATM   17  C   UNL     1      -8.547   9.485  64.613  1.00  0.00    -0.207 A  
HETATM   18  C   UNL     1     -10.000  11.164  67.654  1.00  0.00    -0.195 A  
HETATM   19  C   UNL     1      -9.639  11.237  66.215  1.00  0.00    -0.235 C  
HETATM   20  C   UNL     1     -10.774  12.004  68.441  1.00  0.00    -0.255 A  
HETATM   21  C   UNL     1      -9.727  12.281  65.369  1.00  0.00    -0.150 C  
HETATM   22  C   UNL     1      -8.957   9.976  65.844  1.00  0.00    -0.182 A  
HETATM   23  C   UNL     1     -10.929  11.697  69.782  1.00  0.00     0.068 A  
HETATM   24  C   UNL     1      -8.752   9.265  67.052  1.00  0.00    -0.131 A  
HETATM   25  C   UNL     1      -7.868   8.271  64.586  1.00  0.00    -0.132 A  
HETATM   26 CL   UNL     1     -11.857  12.736  70.796  1.00  0.00    -0.082 Cl 
HETATM   27  C   UNL     1     -10.368  10.535  70.316  1.00  0.00     0.105 A  
HETATM   28  C   UNL     1      -7.575   7.592  65.773  1.00  0.00    -0.093 A  
HETATM   29  C   UNL     1      -8.004   8.097  67.005  1.00  0.00    -0.104 A  
BRANCH  21  30
HETATM   30  C   UNL     1     -10.217  13.613  65.725  1.00  0.00    -0.317 A  
HETATM   31  C   UNL     1     -10.916  16.259  66.259  1.00  0.00     0.008 A  
HETATM   32 CL   UNL     1     -11.269  17.917  66.548  1.00  0.00     0.534 Cl 
HETATM   33  C   UNL     1     -10.133  15.550  67.171  1.00  0.00    -0.254 A  
HETATM   34  C   UNL     1     -11.045  14.314  64.838  1.00  0.00    -0.396 A  
HETATM   35  C   UNL     1     -11.386  15.642  65.104  1.00  0.00    -0.198 A  
HETATM   36  C   UNL     1      -9.786  14.222  66.907  1.00  0.00    -0.264 A  
ENDBRANCH  21  30
ENDBRANCH  11  14
ENDBRANCH  10  11
ENDBRANCH   5  10
ENDBRANCH   4   5
ENDBRANCH   3   4
ENDBRANCH   2   3
TORSDOF 10
ENDMDL
MODEL      172
REMARK 921   NORMALIZED FREE ENERGY PREDICTED BY IDOCK:   13.12 KCAL/MOL
REMARK 922        TOTAL FREE ENERGY PREDICTED BY IDOCK:   18.71 KCAL/MOL
REMARK 923 INTER-LIGAND FREE ENERGY PREDICTED BY IDOCK:    0.93 KCAL/MOL
REMARK 924 INTRA-LIGAND FREE ENERGY PREDICTED BY IDOCK:   17.78 KCAL/MOL
REMARK 927      BINDING AFFINITY PREDICTED BY RF-SCORE:    0.00 PKD
ROOT
HETATM    1  C   UNL     1      -6.723   4.803  70.321  1.00  0.00    -0.036 C  
HETATM    2  C   UNL     1      -7.862   5.159  69.377  1.00  0.00    -0.080 C  
ENDROOT
BRANCH   2   3
HETATM    3  C   UNL     1      -8.569   6.429  69.846  1.00  0.00    -0.138 C  
BRANCH   3   4
HETATM    4  C   UNL     1     -10.098   6.305  69.916  1.00  0.00    -0.173 C  
BRANCH   4   5
HETATM    5  N   UNL     1     -10.794   7.021  71.007  1.00  0.00    -0.233 NA 
BRANCH   5   6
HETATM    6  C   UNL     1      -9.954   8.097  71.579  1.00  0.00    -0.182 C  
BRANCH   6   7
HETATM    7  C   UNL     1     -10.419   9.543  71.299  1.00  0.00    -0.320 C  
BRANCH   7   8
HETATM    8  C   UNL     1      -9.417  10.421  70.545  1.00  0.00     0.907 C  
HETATM    9  C   UNL     1      -8.781   9.724  69.354  1.00  0.00    -0.178 C  
ENDBRANCH   7   8
ENDBRANCH   6   7
ENDBRANCH   5   6
BRANCH   5  10
HETATM   10  C   UNL     1     -12.071   7.581  70.480  1.00  0.00    -0.001 C  
BRANCH  10  11
HETATM   11  C   UNL     1     -12.625   8.858  71.188  1.00  0.00    -0.185 C  
HETATM   12  O   UNL     1     -12.122   9.018  72.513  1.00  0.00    -0.284 OA 
HETATM   13  H   UNL     1     -12.459   9.795  72.944  1.00  0.00     0.000 HD 
BRANCH  11  14
HETATM   14  C   UNL     1     -12.388  10.109  70.357  1.00  0.00    -0.268 A  
HETATM   15  C   UNL     1     -11.818  10.148  69.072  1.00  0.00     0.107 A  
HETATM   16 CL   UNL     1      -9.976   6.491  64.728  1.00  0.00     2.402 Cl 
HETATM   17  C   UNL     1     -10.561   8.878  65.841  1.00  0.00     1.074 A  
HETATM   18  C   UNL     1     -11.766  11.392  68.371  1.00  0.00    -0.373 A  
HETATM   19  C   UNL     1     -11.148  11.120  67.049  1.00  0.00    -0.339 C  
HETATM   20  C   UNL     1     -12.277  12.563  68.913  1.00  0.00    -0.002 A  
HETATM   21  C   UNL     1     -10.659  11.989  66.144  1.00  0.00    -0.298 C  
HETATM   22  C   UNL     1     -10.962   9.657  66.917  1.00  0.00     0.028 A  
HETATM   23  C   UNL     1     -12.784  12.531  70.201  1.00  0.00     0.263 A  
HETATM   24  C   UNL     1     -11.282   9.100  68.181  1.00  0.00     0.286 A  
HETATM   25  C   UNL     1     -10.424   7.508  66.041  1.00  0.00     1.233 A  
HETATM   26 CL   UNL     1     -13.397  13.975  70.915  1.00  0.00    -0.252 Cl 
HETATM   27  C   UNL     1     -12.836  11.333  70.915  1.00  0.00    -0.343 A  
HETATM   28  C   UNL     1     -10.646   6.945  67.302  1.00  0.00    -0.393 A  
HETATM   29  C   UNL     1     -11.060   7.743  68.373  1.00  0.00     0.273 A  
BRANCH  21  30
HETATM   30  C   UNL     1     -10.641  13.444  66.301  1.00  0.00    -0.292 A  
HETATM   31  C   UNL     1     -10.841  16.223  66.417  1.00  0.00    -0.100 A  
HETATM   32 CL   UNL     1     -11.032  17.932  66.429  1.00  0.00     0.095 Cl 
HETATM   33  C   UNL     1     -10.016  15.626  65.464  1.00  0.00    -0.364 A  
HETATM   34  C   UNL     1     -11.428  14.052  67.288  1.00  0.00    -0.372 A  
HETATM   35  C   UNL     1     -11.532  15.443  67.339  1.00  0.00    -0.197 A  
HETATM   36  C   UNL     1      -9.911  14.233  65.407  1.00  0.00    -0.334 A  
ENDBRANCH  21  30
ENDBRANCH  11  14
ENDBRANCH  10  11
ENDBRANCH   5  10
ENDBRANCH   4   5
ENDBRANCH   3   4
ENDBRANCH   2   3
TORSDOF 10
ENDMDL
MODEL      173
REMARK 921   NORMALIZED FREE ENERGY PREDICTED BY IDOCK:   13.76 KCAL/MOL
REMARK 922        TOTAL FREE ENERGY PREDICTED BY IDOCK:   19.72 KCAL/MOL
REMARK 923 INTER-LIGAND FREE ENERGY PREDICTED BY IDOCK:   13.27 KCAL/MOL
REMARK 924 INTRA-LIGAND FREE ENERGY PREDICTED BY IDOCK:    6.45 KCAL/MOL
REMARK 927      BINDING AFFINITY PREDICTED BY RF-SCORE:    0.00 PKD
ROOT
HETATM    1  C   UNL     1     -10.815   8.688  67.816  1.00  0.00    -0.075 C  
HETATM    2  C   UNL     1     -10.876  10.042  68.509  1.00  0.00    -0.270 C  
ENDROOT
BRANCH   2   3
HETATM    3  C   UNL     1      -9.744  10.173  69.527  1.00  0.00    -0.251 C  
BRANCH   3   4
HETATM    4  C   UNL     1      -9.851   9.201  70.711  1.00  0.00    -0.270 C  
BRANCH   4   5
HETATM    5  N   UNL     1      -9.551   9.728  72.060  1.00  0.00     1.238 NA 
BRANCH   5   6
HETATM    6  C   UNL     1     -10.750  10.319  72.695  1.00  0.00     5.891 C  
BRANCH   6   7
HETATM    7  C   UNL     1     -11.957  10.572  71.765  1.00  0.00     0.138 C  
BRANCH   7   8
HETATM    8  C   UNL     1     -13.326  10.226  72.355  1.00  0.00    -0.136 C  
HETATM    9  C   UNL     1     -13.915   8.940  71.800  1.00  0.00    -0.448 C  
ENDBRANCH   7   8
ENDBRANCH   6   7
ENDBRANCH   5   6
BRANCH   5  10
HETATM   10  C   UNL     1      -9.007   8.624  72.900  1.00  0.00     0.059 C  
BRANCH  10  11
HETATM   11  C   UNL     1      -7.850   7.775  72.285  1.00  0.00    -0.108 C  
HETATM   12  O   UNL     1      -7.934   6.393  72.629  1.00  0.00    -0.104 OA 
HETATM   13  H   UNL     1      -7.231   5.876  72.254  1.00  0.00     0.000 HD 
BRANCH  11  14
HETATM   14  C   UNL     1      -7.758   7.959  70.778  1.00  0.00    -0.083 A  
HETATM   15  C   UNL     1      -7.376   9.139  70.115  1.00  0.00    -0.077 A  
HETATM   16 CL   UNL     1      -5.240  14.594  71.264  1.00  0.00    -0.136 Cl 
HETATM   17  C   UNL     1      -6.002  12.539  69.690  1.00  0.00    -0.123 A  
HETATM   18  C   UNL     1      -7.225   9.121  68.694  1.00  0.00    -0.075 A  
HETATM   19  C   UNL     1      -6.791  10.481  68.286  1.00  0.00    -0.068 C  
HETATM   20  C   UNL     1      -7.429   7.969  67.947  1.00  0.00    -0.094 A  
HETATM   21  C   UNL     1      -6.760  11.031  67.057  1.00  0.00    -0.108 C  
HETATM   22  C   UNL     1      -6.545  11.275  69.512  1.00  0.00    -0.129 A  
HETATM   23  C   UNL     1      -7.861   6.826  68.598  1.00  0.00    -0.118 A  
HETATM   24  C   UNL     1      -6.994  10.481  70.596  1.00  0.00     0.384 A  
HETATM   25  C   UNL     1      -5.949  13.052  70.982  1.00  0.00     0.210 A  
HETATM   26 CL   UNL     1      -8.155   5.387  67.696  1.00  0.00    -0.100 Cl 
HETATM   27  C   UNL     1      -8.030   6.817  69.984  1.00  0.00    -0.116 A  
HETATM   28  C   UNL     1      -6.467  12.326  72.059  1.00  0.00     4.123 A  
HETATM   29  C   UNL     1      -7.002  11.049  71.863  1.00  0.00     4.601 A  
BRANCH  21  30
HETATM   30  C   UNL     1      -7.172  10.358  65.825  1.00  0.00    -0.143 A  
HETATM   31  C   UNL     1      -8.172   8.946  63.638  1.00  0.00    -0.172 A  
HETATM   32 CL   UNL     1      -8.848   8.036  62.345  1.00  0.00     0.120 Cl 
HETATM   33  C   UNL     1      -7.146   8.398  64.407  1.00  0.00    -0.081 A  
HETATM   34  C   UNL     1      -8.168  10.925  65.017  1.00  0.00     0.081 A  
HETATM   35  C   UNL     1      -8.672  10.212  63.928  1.00  0.00    -0.220 A  
HETATM   36  C   UNL     1      -6.641   9.106  65.501  1.00  0.00    -0.068 A  
ENDBRANCH  21  30
ENDBRANCH  11  14
ENDBRANCH  10  11
ENDBRANCH   5  10
ENDBRANCH   4   5
ENDBRANCH   3   4
ENDBRANCH   2   3
TORSDOF 10
ENDMDL
MODEL      174
REMARK 921   NORMALIZED FREE ENERGY PREDICTED BY IDOCK:   13.80 KCAL/MOL
REMARK 922        TOTAL FREE ENERGY PREDICTED BY IDOCK:   19.79 KCAL/MOL
REMARK 923 INTER-LIGAND FREE ENERGY PREDICTED BY IDOCK:   20.69 KCAL/MOL
REMARK 924 INTRA-LIGAND FREE ENERGY PREDICTED BY IDOCK:   -0.90 KCAL/MOL
REMARK 927      BINDING AFFINITY PREDICTED BY RF-SCORE:    0.00 PKD
ROOT
HETATM    1  C   UNL     1      -8.817  11.246  65.782  1.00  0.00    -0.154 C  
HETATM    2  C   UNL     1      -7.706  10.531  65.026  1.00  0.00    -0.039 C  
ENDROOT
BRANCH   2   3
HETATM    3  C   UNL     1      -7.645   9.060  65.432  1.00  0.00    -0.090 C  
BRANCH   3   4
HETATM    4  C   UNL     1      -6.310   8.640  66.066  1.00  0.00    -0.053 C  
BRANCH   4   5
HETATM    5  N   UNL     1      -6.195   7.253  66.565  1.00  0.00    -0.039 NA 
BRANCH   5   6
HETATM    6  C   UNL     1      -5.127   6.506  65.865  1.00  0.00    -0.017 C  
BRANCH   6   7
HETATM    7  C   UNL     1      -5.273   6.388  64.332  1.00  0.00    -0.021 C  
BRANCH   7   8
HETATM    8  C   UNL     1      -6.710   6.404  63.805  1.00  0.00    -0.040 C  
HETATM    9  C   UNL     1      -7.333   5.021  63.708  1.00  0.00    -0.051 C  
ENDBRANCH   7   8
ENDBRANCH   6   7
ENDBRANCH   5   6
BRANCH   5  10
HETATM   10  C   UNL     1      -5.932   7.288  68.032  1.00  0.00    -0.034 C  
BRANCH  10  11
HETATM   11  C   UNL     1      -7.007   6.633  68.956  1.00  0.00    -0.086 C  
HETATM   12  O   UNL     1      -6.443   5.734  69.910  1.00  0.00    -0.035 OA 
HETATM   13  H   UNL     1      -7.097   5.336  70.473  1.00  0.00     0.000 HD 
BRANCH  11  14
HETATM   14  C   UNL     1      -7.875   7.679  69.638  1.00  0.00    -0.108 A  
HETATM   15  C   UNL     1      -8.944   7.418  70.513  1.00  0.00    -0.156 A  
HETATM   16 CL   UNL     1     -11.586   2.874  73.343  1.00  0.00    -0.193 Cl 
HETATM   17  C   UNL     1     -11.155   5.466  72.735  1.00  0.00    -0.349 A  
HETATM   18  C   UNL     1      -9.593   8.512  71.165  1.00  0.00    -0.248 A  
HETATM   19  C   UNL     1     -10.646   7.933  72.038  1.00  0.00    -0.296 C  
HETATM   20  C   UNL     1      -9.190   9.825  70.975  1.00  0.00     0.434 A  
HETATM   21  C   UNL     1     -11.674   8.549  72.652  1.00  0.00    -0.301 C  
HETATM   22  C   UNL     1     -10.518   6.458  72.003  1.00  0.00    -0.236 A  
HETATM   23  C   UNL     1      -8.175  10.082  70.068  1.00  0.00    -0.116 A  
HETATM   24  C   UNL     1      -9.553   6.167  71.007  1.00  0.00    -0.194 A  
HETATM   25  C   UNL     1     -10.861   4.140  72.434  1.00  0.00     0.107 A  
HETATM   26 CL   UNL     1      -7.672  11.705  69.784  1.00  0.00     0.626 Cl 
HETATM   27  C   UNL     1      -7.532   9.035  69.406  1.00  0.00    -0.077 A  
HETATM   28  C   UNL     1      -9.980   3.824  71.395  1.00  0.00    -0.178 A  
HETATM   29  C   UNL     1      -9.338   4.836  70.674  1.00  0.00    -0.218 A  
BRANCH  21  30
HETATM   30  C   UNL     1     -11.966   9.981  72.570  1.00  0.00     1.320 A  
HETATM   31  C   UNL     1     -12.722  12.665  72.629  1.00  0.00     0.982 A  
HETATM   32 CL   UNL     1     -13.251  14.298  72.728  1.00  0.00    -0.587 Cl 
HETATM   33  C   UNL     1     -13.355  11.784  71.751  1.00  0.00    -0.342 A  
HETATM   34  C   UNL     1     -11.300  10.881  73.413  1.00  0.00    12.017 A  
HETATM   35  C   UNL     1     -11.686  12.222  73.446  1.00  0.00    10.038 A  
HETATM   36  C   UNL     1     -12.974  10.440  71.717  1.00  0.00    -0.580 A  
ENDBRANCH  21  30
ENDBRANCH  11  14
ENDBRANCH  10  11
ENDBRANCH   5  10
ENDBRANCH   4   5
ENDBRANCH   3   4
ENDBRANCH   2   3
TORSDOF 10
ENDMDL
MODEL      175
REMARK 921   NORMALIZED FREE ENERGY PREDICTED BY IDOCK:   14.55 KCAL/MOL
REMARK 922        TOTAL FREE ENERGY PREDICTED BY IDOCK:   20.97 KCAL/MOL
REMARK 923 INTER-LIGAND FREE ENERGY PREDICTED BY IDOCK:   14.08 KCAL/MOL
REMARK 924 INTRA-LIGAND FREE ENERGY PREDICTED BY IDOCK:    6.88 KCAL/MOL
REMARK 927      BINDING AFFINITY PREDICTED BY RF-SCORE:    0.00 PKD
ROOT
HETATM    1  C   UNL     1      -6.897  13.877  67.125  1.00  0.00     0.420 C  
HETATM    2  C   UNL     1      -8.027  14.341  68.034  1.00  0.00    -0.142 C  
ENDROOT
BRANCH   2   3
HETATM    3  C   UNL     1      -9.378  13.902  67.474  1.00  0.00    -0.217 C  
BRANCH   3   4
HETATM    4  C   UNL     1     -10.216  13.060  68.447  1.00  0.00    -0.245 C  
BRANCH   4   5
HETATM    5  N   UNL     1     -10.738  11.764  67.960  1.00  0.00    -0.200 NA 
BRANCH   5   6
HETATM    6  C   UNL     1      -9.973  10.625  68.512  1.00  0.00    -0.167 C  
BRANCH   6   7
HETATM    7  C   UNL     1      -8.499  10.908  68.877  1.00  0.00    -0.142 C  
BRANCH   7   8
HETATM    8  C   UNL     1      -7.951  10.114  70.066  1.00  0.00    -0.108 C  
HETATM    9  C   UNL     1      -8.583   8.739  70.215  1.00  0.00    -0.158 C  
ENDBRANCH   7   8
ENDBRANCH   6   7
ENDBRANCH   5   6
BRANCH   5  10
HETATM   10  C   UNL     1     -12.177  11.653  68.328  1.00  0.00     0.238 C  
BRANCH  10  11
HETATM   11  C   UNL     1     -13.131  12.762  67.781  1.00  0.00     3.646 C  
HETATM   12  O   UNL     1     -14.132  13.145  68.724  1.00  0.00     6.269 OA 
HETATM   13  H   UNL     1     -14.712  13.820  68.391  1.00  0.00     0.000 HD 
BRANCH  11  14
HETATM   14  C   UNL     1     -12.359  13.973  67.281  1.00  0.00    -0.195 A  
HETATM   15  C   UNL     1     -11.897  15.039  68.073  1.00  0.00    -0.266 A  
HETATM   16 CL   UNL     1     -11.458  16.686  73.794  1.00  0.00     0.449 Cl 
HETATM   17  C   UNL     1     -11.040  16.910  71.138  1.00  0.00     0.665 A  
HETATM   18  C   UNL     1     -11.084  16.050  67.473  1.00  0.00    -0.207 A  
HETATM   19  C   UNL     1     -10.728  17.013  68.546  1.00  0.00    -0.352 C  
HETATM   20  C   UNL     1     -10.722  16.004  66.134  1.00  0.00    -0.246 A  
HETATM   21  C   UNL     1     -10.199  18.247  68.439  1.00  0.00    -0.402 C  
HETATM   22  C   UNL     1     -11.226  16.477  69.833  1.00  0.00    -0.159 A  
HETATM   23  C   UNL     1     -11.228  14.984  65.346  1.00  0.00    -0.356 A  
HETATM   24  C   UNL     1     -12.008  15.340  69.514  1.00  0.00    -0.356 A  
HETATM   25  C   UNL     1     -11.693  16.220  72.155  1.00  0.00    -0.441 A  
HETATM   26 CL   UNL     1     -10.824  14.916  63.672  1.00  0.00     1.782 Cl 
HETATM   27  C   UNL     1     -12.035  13.990  65.901  1.00  0.00    -0.424 A  
HETATM   28  C   UNL     1     -12.543  15.150  71.859  1.00  0.00    -0.417 A  
HETATM   29  C   UNL     1     -12.711  14.720  70.539  1.00  0.00    -0.397 A  
BRANCH  21  30
HETATM   30  C   UNL     1      -9.860  18.909  67.179  1.00  0.00    -0.368 A  
HETATM   31  C   UNL     1      -9.409  20.383  64.855  1.00  0.00     1.769 A  
HETATM   32 CL   UNL     1      -9.196  21.350  63.448  1.00  0.00     3.486 Cl 
HETATM   33  C   UNL     1     -10.371  19.372  64.860  1.00  0.00     1.820 A  
HETATM   34  C   UNL     1      -8.860  19.892  67.152  1.00  0.00    -0.407 A  
HETATM   35  C   UNL     1      -8.643  20.633  65.989  1.00  0.00     0.323 A  
HETATM   36  C   UNL     1     -10.595  18.630  66.023  1.00  0.00    -0.410 A  
ENDBRANCH  21  30
ENDBRANCH  11  14
ENDBRANCH  10  11
ENDBRANCH   5  10
ENDBRANCH   4   5
ENDBRANCH   3   4
ENDBRANCH   2   3
TORSDOF 10
ENDMDL
MODEL      176
REMARK 921   NORMALIZED FREE ENERGY PREDICTED BY IDOCK:   15.68 KCAL/MOL
REMARK 922        TOTAL FREE ENERGY PREDICTED BY IDOCK:   22.77 KCAL/MOL
REMARK 923 INTER-LIGAND FREE ENERGY PREDICTED BY IDOCK:   19.31 KCAL/MOL
REMARK 924 INTRA-LIGAND FREE ENERGY PREDICTED BY IDOCK:    3.46 KCAL/MOL
REMARK 927      BINDING AFFINITY PREDICTED BY RF-SCORE:    0.00 PKD
ROOT
HETATM    1  C   UNL     1      -9.157   9.079  64.806  1.00  0.00    -0.088 C  
HETATM    2  C   UNL     1      -8.691  10.513  65.016  1.00  0.00    -0.193 C  
ENDROOT
BRANCH   2   3
HETATM    3  C   UNL     1      -9.121  11.018  66.391  1.00  0.00    -0.191 C  
BRANCH   3   4
HETATM    4  C   UNL     1      -8.216  10.550  67.541  1.00  0.00    -0.114 C  
BRANCH   4   5
HETATM    5  N   UNL     1      -8.864   9.911  68.707  1.00  0.00    -0.131 NA 
BRANCH   5   6
HETATM    6  C   UNL     1      -7.871   9.299  69.617  1.00  0.00    -0.090 C  
BRANCH   6   7
HETATM    7  C   UNL     1      -8.292   9.175  71.098  1.00  0.00    -0.157 C  
BRANCH   7   8
HETATM    8  C   UNL     1      -7.355   8.346  71.981  1.00  0.00    -0.122 C  
HETATM    9  C   UNL     1      -8.088   7.502  73.011  1.00  0.00    -0.141 C  
ENDBRANCH   7   8
ENDBRANCH   6   7
ENDBRANCH   5   6
BRANCH   5  10
HETATM   10  C   UNL     1      -9.674  10.932  69.430  1.00  0.00     0.009 C  
BRANCH  10  11
HETATM   11  C   UNL     1     -10.742  11.706  68.593  1.00  0.00    -0.212 C  
HETATM   12  O   UNL     1     -11.934  11.975  69.329  1.00  0.00    -0.302 OA 
HETATM   13  H   UNL     1     -12.583  12.445  68.820  1.00  0.00     0.000 HD 
BRANCH  11  14
HETATM   14  C   UNL     1     -10.170  12.981  67.992  1.00  0.00    -0.233 A  
HETATM   15  C   UNL     1      -9.137  13.760  68.544  1.00  0.00    -0.133 A  
HETATM   16 CL   UNL     1      -5.195  13.686  73.026  1.00  0.00    -0.148 Cl 
HETATM   17  C   UNL     1      -6.332  14.645  70.776  1.00  0.00     0.002 A  
HETATM   18  C   UNL     1      -8.631  14.870  67.802  1.00  0.00    -0.171 A  
HETATM   19  C   UNL     1      -7.542  15.473  68.612  1.00  0.00    -0.141 C  
HETATM   20  C   UNL     1      -9.115  15.196  66.543  1.00  0.00    -0.328 A  
HETATM   21  C   UNL     1      -6.935  16.667  68.467  1.00  0.00    -0.161 C  
HETATM   22  C   UNL     1      -7.311  14.610  69.793  1.00  0.00    -0.014 A  
HETATM   23  C   UNL     1     -10.171  14.462  66.030  1.00  0.00    -0.315 A  
HETATM   24  C   UNL     1      -8.344  13.640  69.784  1.00  0.00     1.547 A  
HETATM   25  C   UNL     1      -6.410  13.717  71.810  1.00  0.00     1.120 A  
HETATM   26 CL   UNL     1     -10.818  14.861  64.483  1.00  0.00    -0.269 Cl 
HETATM   27  C   UNL     1     -10.696  13.380  66.738  1.00  0.00    -0.277 A  
HETATM   28  C   UNL     1      -7.469  12.807  71.872  1.00  0.00     9.565 A  
HETATM   29  C   UNL     1      -8.442  12.779  70.868  1.00  0.00     9.100 A  
BRANCH  21  30
HETATM   30  C   UNL     1      -7.252  17.649  67.430  1.00  0.00    -0.198 A  
HETATM   31  C   UNL     1      -7.562  19.539  65.403  1.00  0.00     0.177 A  
HETATM   32 CL   UNL     1      -7.663  20.709  64.146  1.00  0.00     1.249 Cl 
HETATM   33  C   UNL     1      -7.438  19.957  66.728  1.00  0.00    -0.280 A  
HETATM   34  C   UNL     1      -7.428  17.235  66.103  1.00  0.00    -0.321 A  
HETATM   35  C   UNL     1      -7.575  18.183  65.089  1.00  0.00     1.529 A  
HETATM   36  C   UNL     1      -7.287  19.011  67.746  1.00  0.00    -0.261 A  
ENDBRANCH  21  30
ENDBRANCH  11  14
ENDBRANCH  10  11
ENDBRANCH   5  10
ENDBRANCH   4   5
ENDBRANCH   3   4
ENDBRANCH   2   3
TORSDOF 10
ENDMDL
MODEL      177
REMARK 921   NORMALIZED FREE ENERGY PREDICTED BY IDOCK:   16.02 KCAL/MOL
REMARK 922        TOTAL FREE ENERGY PREDICTED BY IDOCK:   23.30 KCAL/MOL
REMARK 923 INTER-LIGAND FREE ENERGY PREDICTED BY IDOCK:   19.17 KCAL/MOL
REMARK 924 INTRA-LIGAND FREE ENERGY PREDICTED BY IDOCK:    4.13 KCAL/MOL
REMARK 927      BINDING AFFINITY PREDICTED BY RF-SCORE:    0.00 PKD
ROOT
HETATM    1  C   UNL     1     -13.590   6.469  65.336  1.00  0.00    12.099 C  
HETATM    2  C   UNL     1     -12.082   6.471  65.545  1.00  0.00     6.594 C  
ENDROOT
BRANCH   2   3
HETATM    3  C   UNL     1     -11.714   7.307  66.769  1.00  0.00     2.311 C  
BRANCH   3   4
HETATM    4  C   UNL     1     -11.056   6.504  67.901  1.00  0.00    -0.255 C  
BRANCH   4   5
HETATM    5  N   UNL     1     -10.348   7.260  68.957  1.00  0.00    -0.201 NA 
BRANCH   5   6
HETATM    6  C   UNL     1      -9.658   6.359  69.906  1.00  0.00    -0.153 C  
BRANCH   6   7
HETATM    7  C   UNL     1      -9.645   6.809  71.383  1.00  0.00    -0.170 C  
BRANCH   7   8
HETATM    8  C   UNL     1      -8.958   5.848  72.358  1.00  0.00    -0.137 C  
HETATM    9  C   UNL     1      -9.009   4.396  71.909  1.00  0.00    -0.154 C  
ENDBRANCH   7   8
ENDBRANCH   6   7
ENDBRANCH   5   6
BRANCH   5  10
HETATM   10  C   UNL     1      -9.374   8.188  68.316  1.00  0.00    -0.134 C  
BRANCH  10  11
HETATM   11  C   UNL     1      -9.857   8.944  67.038  1.00  0.00    -0.214 C  
HETATM   12  O   UNL     1     -11.279   9.035  66.953  1.00  0.00    -0.025 OA 
HETATM   13  H   UNL     1     -11.573   9.495  66.176  1.00  0.00     0.000 HD 
BRANCH  11  14
HETATM   14  C   UNL     1      -9.213  10.317  66.919  1.00  0.00    -0.171 A  
HETATM   15  C   UNL     1      -9.640  11.485  67.575  1.00  0.00    -0.179 A  
HETATM   16 CL   UNL     1     -13.554  13.292  71.704  1.00  0.00    -0.342 Cl 
HETATM   17  C   UNL     1     -11.496  13.579  69.984  1.00  0.00    -0.141 A  
HETATM   18  C   UNL     1      -8.860  12.676  67.452  1.00  0.00    -0.189 A  
HETATM   19  C   UNL     1      -9.531  13.721  68.267  1.00  0.00    -0.214 C  
HETATM   20  C   UNL     1      -7.684  12.713  66.716  1.00  0.00     0.208 A  
HETATM   21  C   UNL     1      -9.332  15.052  68.273  1.00  0.00    -0.192 C  
HETATM   22  C   UNL     1     -10.652  13.087  68.998  1.00  0.00    -0.079 A  
HETATM   23  C   UNL     1      -7.300  11.576  66.025  1.00  0.00     0.335 A  
HETATM   24  C   UNL     1     -10.760  11.767  68.495  1.00  0.00    -0.251 A  
HETATM   25  C   UNL     1     -12.511  12.749  70.449  1.00  0.00    -0.156 A  
HETATM   26 CL   UNL     1      -5.862  11.597  65.075  1.00  0.00     1.641 Cl 
HETATM   27  C   UNL     1      -8.049  10.401  66.116  1.00  0.00    -0.139 A  
HETATM   28  C   UNL     1     -12.695  11.474  69.905  1.00  0.00     0.089 A  
HETATM   29  C   UNL     1     -11.829  10.990  68.920  1.00  0.00    -0.378 A  
BRANCH  21  30
HETATM   30  C   UNL     1      -8.367  15.762  67.432  1.00  0.00    -0.189 A  
HETATM   31  C   UNL     1      -6.605  17.360  65.977  1.00  0.00    -0.141 A  
HETATM   32 CL   UNL     1      -5.550  18.418  65.125  1.00  0.00    -0.225 Cl 
HETATM   33  C   UNL     1      -7.900  17.145  65.504  1.00  0.00     1.053 A  
HETATM   34  C   UNL     1      -7.050  15.941  67.876  1.00  0.00    -0.147 A  
HETATM   35  C   UNL     1      -6.173  16.749  67.150  1.00  0.00    -0.216 A  
HETATM   36  C   UNL     1      -8.782  16.341  66.229  1.00  0.00    -0.370 A  
ENDBRANCH  21  30
ENDBRANCH  11  14
ENDBRANCH  10  11
ENDBRANCH   5  10
ENDBRANCH   4   5
ENDBRANCH   3   4
ENDBRANCH   2   3
TORSDOF 10
ENDMDL
MODEL      178
REMARK 921   NORMALIZED FREE ENERGY PREDICTED BY IDOCK:   16.14 KCAL/MOL
REMARK 922        TOTAL FREE ENERGY PREDICTED BY IDOCK:   23.50 KCAL/MOL
REMARK 923 INTER-LIGAND FREE ENERGY PREDICTED BY IDOCK:   18.08 KCAL/MOL
REMARK 924 INTRA-LIGAND FREE ENERGY PREDICTED BY IDOCK:    5.42 KCAL/MOL
REMARK 927      BINDING AFFINITY PREDICTED BY RF-SCORE:    0.00 PKD
ROOT
HETATM    1  C   UNL     1     -13.555  16.013  70.104  1.00  0.00     1.998 C  
HETATM    2  C   UNL     1     -13.942  14.628  69.608  1.00  0.00     3.397 C  
ENDROOT
BRANCH   2   3
HETATM    3  C   UNL     1     -12.748  13.946  68.941  1.00  0.00     0.729 C  
BRANCH   3   4
HETATM    4  C   UNL     1     -11.784  14.915  68.242  1.00  0.00    -0.315 C  
BRANCH   4   5
HETATM    5  N   UNL     1     -11.863  16.345  68.610  1.00  0.00    -0.045 NA 
BRANCH   5   6
HETATM    6  C   UNL     1     -10.814  16.717  69.586  1.00  0.00    -0.282 C  
BRANCH   6   7
HETATM    7  C   UNL     1     -10.889  16.019  70.962  1.00  0.00     0.062 C  
BRANCH   7   8
HETATM    8  C   UNL     1     -10.559  16.903  72.168  1.00  0.00     3.333 C  
HETATM    9  C   UNL     1      -9.249  17.660  72.019  1.00  0.00    12.089 C  
ENDBRANCH   7   8
ENDBRANCH   6   7
ENDBRANCH   5   6
BRANCH   5  10
HETATM   10  C   UNL     1     -11.740  17.170  67.375  1.00  0.00     1.205 C  
BRANCH  10  11
HETATM   11  C   UNL     1     -10.474  16.932  66.492  1.00  0.00    -0.253 C  
HETATM   12  O   UNL     1      -9.313  17.587  67.002  1.00  0.00    -0.247 OA 
HETATM   13  H   UNL     1      -8.543  17.442  66.466  1.00  0.00     0.000 HD 
BRANCH  11  14
HETATM   14  C   UNL     1     -10.212  15.450  66.270  1.00  0.00    -0.303 A  
HETATM   15  C   UNL     1      -9.305  14.657  66.995  1.00  0.00    -0.244 A  
HETATM   16 CL   UNL     1      -5.697  14.941  71.743  1.00  0.00     0.125 Cl 
HETATM   17  C   UNL     1      -6.966  13.726  69.696  1.00  0.00     0.119 A  
HETATM   18  C   UNL     1      -9.256  13.251  66.744  1.00  0.00    -0.237 A  
HETATM   19  C   UNL     1      -8.241  12.682  67.667  1.00  0.00    -0.174 C  
HETATM   20  C   UNL     1     -10.087  12.640  65.818  1.00  0.00    -0.284 A  
HETATM   21  C   UNL     1      -7.658  11.468  67.645  1.00  0.00    -0.115 C  
HETATM   22  C   UNL     1      -7.787  13.758  68.578  1.00  0.00    -0.132 A  
HETATM   23  C   UNL     1     -10.937  13.433  65.066  1.00  0.00    -0.316 A  
HETATM   24  C   UNL     1      -8.367  14.957  68.095  1.00  0.00    -0.144 A  
HETATM   25  C   UNL     1      -6.670  14.931  70.325  1.00  0.00    -0.046 A  
HETATM   26 CL   UNL     1     -11.961  12.709  63.884  1.00  0.00    -0.511 Cl 
HETATM   27  C   UNL     1     -10.999  14.811  65.279  1.00  0.00    -0.382 A  
HETATM   28  C   UNL     1      -7.157  16.139  69.816  1.00  0.00     0.048 A  
HETATM   29  C   UNL     1      -7.991  16.152  68.694  1.00  0.00    -0.201 A  
BRANCH  21  30
HETATM   30  C   UNL     1      -7.926  10.425  66.654  1.00  0.00    -0.120 A  
HETATM   31  C   UNL     1      -8.249   8.266  64.919  1.00  0.00    -0.151 A  
HETATM   32 CL   UNL     1      -8.386   6.888  63.898  1.00  0.00     0.101 Cl 
HETATM   33  C   UNL     1      -7.272   9.227  64.657  1.00  0.00    -0.100 A  
HETATM   34  C   UNL     1      -8.938   9.484  66.884  1.00  0.00    -0.148 A  
HETATM   35  C   UNL     1      -9.092   8.399  66.018  1.00  0.00    -0.235 A  
HETATM   36  C   UNL     1      -7.112  10.312  65.523  1.00  0.00    -0.142 A  
ENDBRANCH  21  30
ENDBRANCH  11  14
ENDBRANCH  10  11
ENDBRANCH   5  10
ENDBRANCH   4   5
ENDBRANCH   3   4
ENDBRANCH   2   3
TORSDOF 10
ENDMDL
MODEL      179
REMARK 921   NORMALIZED FREE ENERGY PREDICTED BY IDOCK:   16.55 KCAL/MOL
REMARK 922        TOTAL FREE ENERGY PREDICTED BY IDOCK:   24.14 KCAL/MOL
REMARK 923 INTER-LIGAND FREE ENERGY PREDICTED BY IDOCK:   23.35 KCAL/MOL
REMARK 924 INTRA-LIGAND FREE ENERGY PREDICTED BY IDOCK:    0.78 KCAL/MOL
REMARK 927      BINDING AFFINITY PREDICTED BY RF-SCORE:    0.00 PKD
ROOT
HETATM    1  C   UNL     1      -5.236  13.704  63.797  1.00  0.00    15.276 C  
HETATM    2  C   UNL     1      -6.188  12.814  64.584  1.00  0.00    10.315 C  
ENDROOT
BRANCH   2   3
HETATM    3  C   UNL     1      -6.873  11.813  63.657  1.00  0.00     3.385 C  
BRANCH   3   4
HETATM    4  C   UNL     1      -7.518  10.625  64.385  1.00  0.00     0.201 C  
BRANCH   4   5
HETATM    5  N   UNL     1      -8.238  10.903  65.647  1.00  0.00    -0.127 NA 
BRANCH   5   6
HETATM    6  C   UNL     1      -9.429  11.752  65.420  1.00  0.00    -0.140 C  
BRANCH   6   7
HETATM    7  C   UNL     1     -10.149  11.566  64.066  1.00  0.00    -0.366 C  
BRANCH   7   8
HETATM    8  C   UNL     1     -11.592  12.074  64.014  1.00  0.00    -0.495 C  
HETATM    9  C   UNL     1     -11.696  13.586  63.902  1.00  0.00    -0.415 C  
ENDBRANCH   7   8
ENDBRANCH   6   7
ENDBRANCH   5   6
BRANCH   5  10
HETATM   10  C   UNL     1      -8.633   9.610  66.273  1.00  0.00    -0.127 C  
BRANCH  10  11
HETATM   11  C   UNL     1      -9.077   9.659  67.770  1.00  0.00    -0.124 C  
HETATM   12  O   UNL     1     -10.448  10.021  67.929  1.00  0.00    -0.199 OA 
HETATM   13  H   UNL     1     -10.718  10.050  68.839  1.00  0.00     0.000 HD 
BRANCH  11  14
HETATM   14  C   UNL     1      -8.768   8.356  68.491  1.00  0.00    -0.136 A  
HETATM   15  C   UNL     1      -9.477   7.835  69.589  1.00  0.00    -0.156 A  
HETATM   16 CL   UNL     1     -14.384   8.874  72.826  1.00  0.00    -0.253 Cl 
HETATM   17  C   UNL     1     -12.207   7.482  72.048  1.00  0.00    -0.314 A  
HETATM   18  C   UNL     1      -9.135   6.540  70.086  1.00  0.00    -0.155 A  
HETATM   19  C   UNL     1     -10.061   6.249  71.210  1.00  0.00    -0.222 C  
HETATM   20  C   UNL     1      -8.135   5.771  69.509  1.00  0.00    -0.108 A  
HETATM   21  C   UNL     1      -9.983   5.286  72.148  1.00  0.00    -0.232 C  
HETATM   22  C   UNL     1     -11.060   7.340  71.282  1.00  0.00    -0.270 A  
HETATM   23  C   UNL     1      -7.402   6.312  68.467  1.00  0.00    -0.086 A  
HETATM   24  C   UNL     1     -10.633   8.330  70.361  1.00  0.00    -0.231 A  
HETATM   25  C   UNL     1     -12.928   8.667  71.934  1.00  0.00    -0.372 A  
HETATM   26 CL   UNL     1      -6.131   5.395  67.749  1.00  0.00    -0.025 Cl 
HETATM   27  C   UNL     1      -7.703   7.580  67.968  1.00  0.00    -0.116 A  
HETATM   28  C   UNL     1     -12.479   9.696  71.101  1.00  0.00    -0.421 A  
HETATM   29  C   UNL     1     -11.326   9.533  70.327  1.00  0.00    -0.284 A  
BRANCH  21  30
HETATM   30  C   UNL     1      -8.914   4.291  72.244  1.00  0.00    -0.138 A  
HETATM   31  C   UNL     1      -6.701   2.595  72.296  1.00  0.00    -0.015 A  
HETATM   32 CL   UNL     1      -5.289   1.613  72.282  1.00  0.00     0.000 Cl 
HETATM   33  C   UNL     1      -7.590   2.544  71.221  1.00  0.00    -0.040 A  
HETATM   34  C   UNL     1      -8.046   4.301  73.344  1.00  0.00    -0.090 A  
HETATM   35  C   UNL     1      -6.934   3.457  73.363  1.00  0.00    -0.041 A  
HETATM   36  C   UNL     1      -8.702   3.390  71.196  1.00  0.00    -0.124 A  
ENDBRANCH  21  30
ENDBRANCH  11  14
ENDBRANCH  10  11
ENDBRANCH   5  10
ENDBRANCH   4   5
ENDBRANCH   3   4
ENDBRANCH   2   3
TORSDOF 10
ENDMDL
MODEL      180
REMARK 921   NORMALIZED FREE ENERGY PREDICTED BY IDOCK:   19.34 KCAL/MOL
REMARK 922        TOTAL FREE ENERGY PREDICTED BY IDOCK:   28.57 KCAL/MOL
REMARK 923 INTER-LIGAND FREE ENERGY PREDICTED BY IDOCK:   16.92 KCAL/MOL
REMARK 924 INTRA-LIGAND FREE ENERGY PREDICTED BY IDOCK:   11.64 KCAL/MOL
REMARK 927      BINDING AFFINITY PREDICTED BY RF-SCORE:    0.00 PKD
ROOT
HETATM    1  C   UNL     1     -10.361  11.096  66.174  1.00  0.00    -0.302 C  
HETATM    2  C   UNL     1      -9.415  10.861  67.343  1.00  0.00    -0.170 C  
ENDROOT
BRANCH   2   3
HETATM    3  C   UNL     1      -7.963  10.979  66.887  1.00  0.00    -0.143 C  
BRANCH   3   4
HETATM    4  C   UNL     1      -7.290  12.304  67.276  1.00  0.00    -0.140 C  
BRANCH   4   5
HETATM    5  N   UNL     1      -5.820  12.306  67.434  1.00  0.00    -0.132 NA 
BRANCH   5   6
HETATM    6  C   UNL     1      -5.148  12.967  66.294  1.00  0.00     2.385 C  
BRANCH   6   7
HETATM    7  C   UNL     1      -5.598  14.411  65.984  1.00  0.00     6.771 C  
BRANCH   7   8
HETATM    8  C   UNL     1      -6.798  14.914  66.792  1.00  0.00     1.165 C  
HETATM    9  C   UNL     1      -7.804  15.689  65.957  1.00  0.00     1.181 C  
ENDBRANCH   7   8
ENDBRANCH   6   7
ENDBRANCH   5   6
BRANCH   5  10
HETATM   10  C   UNL     1      -5.472  12.990  68.712  1.00  0.00    -0.072 C  
BRANCH  10  11
HETATM   11  C   UNL     1      -6.391  12.697  69.940  1.00  0.00    -0.031 C  
HETATM   12  O   UNL     1      -7.414  13.677  70.112  1.00  0.00     0.217 OA 
HETATM   13  H   UNL     1      -7.973  13.499  70.859  1.00  0.00     0.000 HD 
BRANCH  11  14
HETATM   14  C   UNL     1      -6.980  11.296  69.881  1.00  0.00     0.056 A  
HETATM   15  C   UNL     1      -8.346  10.983  69.762  1.00  0.00     0.633 A  
HETATM   16 CL   UNL     1     -13.627  13.622  68.877  1.00  0.00     4.067 Cl 
HETATM   17  C   UNL     1     -11.948  11.530  69.162  1.00  0.00    -0.386 A  
HETATM   18  C   UNL     1      -8.735   9.617  69.603  1.00  0.00    -0.206 A  
HETATM   19  C   UNL     1     -10.214   9.600  69.474  1.00  0.00    -0.233 C  
HETATM   20  C   UNL     1      -7.805   8.589  69.546  1.00  0.00    -0.097 A  
HETATM   21  C   UNL     1     -11.062   8.557  69.556  1.00  0.00     0.039 C  
HETATM   22  C   UNL     1     -10.690  11.001  69.415  1.00  0.00    -0.247 A  
HETATM   23  C   UNL     1      -6.466   8.897  69.721  1.00  0.00    -0.035 A  
HETATM   24  C   UNL     1      -9.563  11.815  69.686  1.00  0.00     1.230 A  
HETATM   25  C   UNL     1     -12.101  12.911  69.230  1.00  0.00    -0.182 A  
HETATM   26 CL   UNL     1      -5.288   7.640  69.688  1.00  0.00    -0.023 Cl 
HETATM   27  C   UNL     1      -6.057  10.221  69.892  1.00  0.00    -0.062 A  
HETATM   28  C   UNL     1     -11.025  13.732  69.584  1.00  0.00    -0.017 A  
HETATM   29  C   UNL     1      -9.762  13.182  69.825  1.00  0.00     1.890 A  
BRANCH  21  30
HETATM   30  C   UNL     1     -10.667   7.170  69.805  1.00  0.00    -0.257 A  
HETATM   31  C   UNL     1      -9.726   4.556  70.049  1.00  0.00    -0.213 A  
HETATM   32 CL   UNL     1      -9.094   2.958  70.126  1.00  0.00    -0.173 Cl 
HETATM   33  C   UNL     1     -10.849   4.819  69.263  1.00  0.00     1.051 A  
HETATM   34  C   UNL     1      -9.571   6.892  70.633  1.00  0.00    -0.171 A  
HETATM   35  C   UNL     1      -9.097   5.583  70.746  1.00  0.00    -0.168 A  
HETATM   36  C   UNL     1     -11.324   6.128  69.143  1.00  0.00    -0.303 A  
ENDBRANCH  21  30
ENDBRANCH  11  14
ENDBRANCH  10  11
ENDBRANCH   5  10
ENDBRANCH   4   5
ENDBRANCH   3   4
ENDBRANCH   2   3
TORSDOF 10
ENDMDL
MODEL      181
REMARK 921   NORMALIZED FREE ENERGY PREDICTED BY IDOCK:   19.98 KCAL/MOL
REMARK 922        TOTAL FREE ENERGY PREDICTED BY IDOCK:   29.58 KCAL/MOL
REMARK 923 INTER-LIGAND FREE ENERGY PREDICTED BY IDOCK:   11.08 KCAL/MOL
REMARK 924 INTRA-LIGAND FREE ENERGY PREDICTED BY IDOCK:   18.50 KCAL/MOL
REMARK 927      BINDING AFFINITY PREDICTED BY RF-SCORE:    0.00 PKD
ROOT
HETATM    1  C   UNL     1     -10.325  11.183  65.961  1.00  0.00    -0.308 C  
HETATM    2  C   UNL     1      -9.311  10.906  67.061  1.00  0.00    -0.180 C  
ENDROOT
BRANCH   2   3
HETATM    3  C   UNL     1      -7.901  11.257  66.590  1.00  0.00    -0.152 C  
BRANCH   3   4
HETATM    4  C   UNL     1      -7.236  12.387  67.390  1.00  0.00    -0.148 C  
BRANCH   4   5
HETATM    5  N   UNL     1      -5.761  12.369  67.506  1.00  0.00    -0.125 NA 
BRANCH   5   6
HETATM    6  C   UNL     1      -5.149  13.555  66.867  1.00  0.00     1.249 C  
BRANCH   6   7
HETATM    7  C   UNL     1      -5.617  14.929  67.396  1.00  0.00     0.286 C  
BRANCH   7   8
HETATM    8  C   UNL     1      -6.798  14.892  68.368  1.00  0.00    -0.110 C  
HETATM    9  C   UNL     1      -7.829  15.978  68.106  1.00  0.00    -0.142 C  
ENDBRANCH   7   8
ENDBRANCH   6   7
ENDBRANCH   5   6
BRANCH   5  10
HETATM   10  C   UNL     1      -5.391  12.303  68.948  1.00  0.00    -0.054 C  
BRANCH  10  11
HETATM   11  C   UNL     1      -6.146  11.251  69.821  1.00  0.00    -0.112 C  
HETATM   12  O   UNL     1      -7.105  11.844  70.696  1.00  0.00     0.431 OA 
HETATM   13  H   UNL     1      -7.565  11.205  71.226  1.00  0.00     0.000 HD 
BRANCH  11  14
HETATM   14  C   UNL     1      -6.781  10.164  68.969  1.00  0.00    -0.054 A  
HETATM   15  C   UNL     1      -8.161   9.930  68.827  1.00  0.00    -0.102 A  
HETATM   16 CL   UNL     1     -13.423  12.310  70.336  1.00  0.00     1.191 Cl 
HETATM   17  C   UNL     1     -11.788  10.569  69.082  1.00  0.00    -0.218 A  
HETATM   18  C   UNL     1      -8.606   8.940  67.898  1.00  0.00    -0.126 A  
HETATM   19  C   UNL     1     -10.091   8.940  67.944  1.00  0.00    -0.255 C  
HETATM   20  C   UNL     1      -7.720   8.212  67.117  1.00  0.00    -0.097 A  
HETATM   21  C   UNL     1     -10.956   8.033  67.451  1.00  0.00     0.029 C  
HETATM   22  C   UNL     1     -10.527  10.054  68.817  1.00  0.00    -0.229 A  
HETATM   23  C   UNL     1      -6.362   8.405  67.303  1.00  0.00    -0.057 A  
HETATM   24  C   UNL     1      -9.352  10.575  69.413  1.00  0.00    -0.139 A  
HETATM   25  C   UNL     1     -11.890  11.603  70.007  1.00  0.00    -0.355 A  
HETATM   26 CL   UNL     1      -5.234   7.493  66.373  1.00  0.00    -0.024 Cl 
HETATM   27  C   UNL     1      -5.896   9.355  68.213  1.00  0.00    -0.041 A  
HETATM   28  C   UNL     1     -10.757  12.075  70.677  1.00  0.00     2.704 A  
HETATM   29  C   UNL     1      -9.493  11.551  70.390  1.00  0.00     3.639 A  
BRANCH  21  30
HETATM   30  C   UNL     1     -10.579   6.810  66.742  1.00  0.00    -0.311 A  
HETATM   31  C   UNL     1      -9.671   4.647  65.234  1.00  0.00    -0.136 A  
HETATM   32 CL   UNL     1      -9.059   3.371  64.257  1.00  0.00    -0.120 Cl 
HETATM   33  C   UNL     1     -10.788   5.368  64.811  1.00  0.00     1.867 A  
HETATM   34  C   UNL     1      -9.489   6.051  67.188  1.00  0.00    -0.125 A  
HETATM   35  C   UNL     1      -9.031   4.974  66.426  1.00  0.00    -0.123 A  
HETATM   36  C   UNL     1     -11.247   6.450  65.568  1.00  0.00     3.526 A  
ENDBRANCH  21  30
ENDBRANCH  11  14
ENDBRANCH  10  11
ENDBRANCH   5  10
ENDBRANCH   4   5
ENDBRANCH   3   4
ENDBRANCH   2   3
TORSDOF 10
ENDMDL
MODEL      182
REMARK 921   NORMALIZED FREE ENERGY PREDICTED BY IDOCK:   20.30 KCAL/MOL
REMARK 922        TOTAL FREE ENERGY PREDICTED BY IDOCK:   30.08 KCAL/MOL
REMARK 923 INTER-LIGAND FREE ENERGY PREDICTED BY IDOCK:   14.24 KCAL/MOL
REMARK 924 INTRA-LIGAND FREE ENERGY PREDICTED BY IDOCK:   15.84 KCAL/MOL
REMARK 927      BINDING AFFINITY PREDICTED BY RF-SCORE:    0.00 PKD
ROOT
HETATM    1  C   UNL     1     -10.840   6.313  70.391  1.00  0.00    -0.360 C  
HETATM    2  C   UNL     1      -9.704   5.775  69.532  1.00  0.00    -0.199 C  
ENDROOT
BRANCH   2   3
HETATM    3  C   UNL     1      -8.355   6.077  70.180  1.00  0.00    -0.120 C  
BRANCH   3   4
HETATM    4  C   UNL     1      -8.423   7.103  71.320  1.00  0.00    -0.113 C  
BRANCH   4   5
HETATM    5  N   UNL     1      -9.579   8.026  71.343  1.00  0.00    -0.150 NA 
BRANCH   5   6
HETATM    6  C   UNL     1      -9.237   9.344  70.764  1.00  0.00    -0.213 C  
BRANCH   6   7
HETATM    7  C   UNL     1      -7.816   9.870  71.064  1.00  0.00     0.716 C  
BRANCH   7   8
HETATM    8  C   UNL     1      -7.513  10.144  72.539  1.00  0.00     3.998 C  
HETATM    9  C   UNL     1      -6.246   9.463  73.031  1.00  0.00     0.404 C  
ENDBRANCH   7   8
ENDBRANCH   6   7
ENDBRANCH   5   6
BRANCH   5  10
HETATM   10  C   UNL     1     -10.708   7.406  70.595  1.00  0.00    -0.229 C  
BRANCH  10  11
HETATM   11  C   UNL     1     -11.903   8.339  70.221  1.00  0.00     0.206 C  
HETATM   12  O   UNL     1     -12.647   8.769  71.360  1.00  0.00    -0.310 OA 
HETATM   13  H   UNL     1     -13.374   9.337  71.132  1.00  0.00     0.000 HD 
BRANCH  11  14
HETATM   14  C   UNL     1     -11.449   9.526  69.384  1.00  0.00     0.119 A  
HETATM   15  C   UNL     1     -10.790   9.454  68.144  1.00  0.00    -0.174 A  
HETATM   16 CL   UNL     1      -9.134   5.468  64.021  1.00  0.00     0.306 Cl 
HETATM   17  C   UNL     1      -9.485   7.941  65.040  1.00  0.00     1.126 A  
HETATM   18  C   UNL     1     -10.531  10.661  67.424  1.00  0.00    -0.280 A  
HETATM   19  C   UNL     1      -9.862  10.274  66.156  1.00  0.00    -0.284 C  
HETATM   20  C   UNL     1     -10.924  11.903  67.903  1.00  0.00    -0.270 A  
HETATM   21  C   UNL     1      -9.204  11.047  65.271  1.00  0.00    -0.229 C  
HETATM   22  C   UNL     1      -9.857   8.796  66.068  1.00  0.00    -0.234 A  
HETATM   23  C   UNL     1     -11.520  11.972  69.150  1.00  0.00    -0.300 A  
HETATM   24  C   UNL     1     -10.332   8.322  67.316  1.00  0.00    -0.372 A  
HETATM   25  C   UNL     1      -9.538   6.571  65.277  1.00  0.00     0.981 A  
HETATM   26 CL   UNL     1     -11.991  13.502  69.789  1.00  0.00    -0.390 Cl 
HETATM   27  C   UNL     1     -11.774  10.812  69.883  1.00  0.00    -0.412 A  
HETATM   28  C   UNL     1      -9.918   6.078  66.529  1.00  0.00    -0.189 A  
HETATM   29  C   UNL     1     -10.300   6.954  67.551  1.00  0.00    -0.277 A  
BRANCH  21  30
HETATM   30  C   UNL     1      -9.010  12.492  65.400  1.00  0.00     0.661 A  
HETATM   31  C   UNL     1      -8.614  15.200  65.937  1.00  0.00     0.704 A  
HETATM   32 CL   UNL     1      -8.369  16.849  66.356  1.00  0.00    -0.311 Cl 
HETATM   33  C   UNL     1      -9.910  14.684  65.887  1.00  0.00    -0.358 A  
HETATM   34  C   UNL     1      -7.714  13.027  65.400  1.00  0.00     4.776 A  
HETATM   35  C   UNL     1      -7.519  14.381  65.678  1.00  0.00     6.298 A  
HETATM   36  C   UNL     1     -10.110  13.328  65.614  1.00  0.00    -0.281 A  
ENDBRANCH  21  30
ENDBRANCH  11  14
ENDBRANCH  10  11
ENDBRANCH   5  10
ENDBRANCH   4   5
ENDBRANCH   3   4
ENDBRANCH   2   3
TORSDOF 10
ENDMDL
MODEL      183
REMARK 921   NORMALIZED FREE ENERGY PREDICTED BY IDOCK:   20.55 KCAL/MOL
REMARK 922        TOTAL FREE ENERGY PREDICTED BY IDOCK:   30.47 KCAL/MOL
REMARK 923 INTER-LIGAND FREE ENERGY PREDICTED BY IDOCK:   16.80 KCAL/MOL
REMARK 924 INTRA-LIGAND FREE ENERGY PREDICTED BY IDOCK:   13.67 KCAL/MOL
REMARK 927      BINDING AFFINITY PREDICTED BY RF-SCORE:    0.00 PKD
ROOT
HETATM    1  C   UNL     1      -6.519  16.723  69.157  1.00  0.00    -0.208 C  
HETATM    2  C   UNL     1      -6.982  16.316  67.766  1.00  0.00    -0.155 C  
ENDROOT
BRANCH   2   3
HETATM    3  C   UNL     1      -6.753  14.822  67.541  1.00  0.00    -0.157 C  
BRANCH   3   4
HETATM    4  C   UNL     1      -8.018  13.965  67.695  1.00  0.00    -0.175 C  
BRANCH   4   5
HETATM    5  N   UNL     1      -7.843  12.546  68.074  1.00  0.00    -0.135 NA 
BRANCH   5   6
HETATM    6  C   UNL     1      -6.922  11.844  67.152  1.00  0.00    -0.142 C  
BRANCH   6   7
HETATM    7  C   UNL     1      -5.565  12.534  66.891  1.00  0.00     0.293 C  
BRANCH   7   8
HETATM    8  C   UNL     1      -5.125  13.544  67.954  1.00  0.00    -0.086 C  
HETATM    9  C   UNL     1      -5.170  14.984  67.472  1.00  0.00     0.143 C  
ENDBRANCH   7   8
ENDBRANCH   6   7
ENDBRANCH   5   6
BRANCH   5  10
HETATM   10  C   UNL     1      -7.331  12.479  69.472  1.00  0.00     0.477 C  
BRANCH  10  11
HETATM   11  C   UNL     1      -8.189  11.673  70.497  1.00  0.00     4.495 C  
HETATM   12  O   UNL     1      -9.588  11.925  70.369  1.00  0.00     2.572 OA 
HETATM   13  H   UNL     1     -10.110  11.434  70.992  1.00  0.00     0.000 HD 
BRANCH  11  14
HETATM   14  C   UNL     1      -7.894  10.182  70.430  1.00  0.00     0.199 A  
HETATM   15  C   UNL     1      -8.422   9.281  69.487  1.00  0.00    -0.144 A  
HETATM   16 CL   UNL     1     -11.722   9.211  64.514  1.00  0.00    10.141 Cl 
HETATM   17  C   UNL     1     -10.163   8.141  66.438  1.00  0.00    -0.120 A  
HETATM   18  C   UNL     1      -7.959   7.929  69.483  1.00  0.00    -0.116 A  
HETATM   19  C   UNL     1      -8.661   7.234  68.375  1.00  0.00    -0.122 C  
HETATM   20  C   UNL     1      -6.991   7.480  70.370  1.00  0.00    -0.052 A  
HETATM   21  C   UNL     1      -8.757   5.914  68.124  1.00  0.00    -0.111 C  
HETATM   22  C   UNL     1      -9.449   8.238  67.624  1.00  0.00    -0.176 A  
HETATM   23  C   UNL     1      -6.518   8.356  71.332  1.00  0.00    -0.051 A  
HETATM   24  C   UNL     1      -9.368   9.443  68.365  1.00  0.00    -0.137 A  
HETATM   25  C   UNL     1     -10.861   9.263  66.001  1.00  0.00     1.055 A  
HETATM   26 CL   UNL     1      -5.339   7.821  72.470  1.00  0.00    -0.036 Cl 
HETATM   27  C   UNL     1      -6.961   9.679  71.370  1.00  0.00     0.289 A  
HETATM   28  C   UNL     1     -10.871  10.437  66.761  1.00  0.00    -0.186 A  
HETATM   29  C   UNL     1     -10.137  10.521  67.949  1.00  0.00    -0.204 A  
BRANCH  21  30
HETATM   30  C   UNL     1      -8.157   4.858  68.941  1.00  0.00    -0.083 A  
HETATM   31  C   UNL     1      -6.753   2.926  70.381  1.00  0.00    -0.033 A  
HETATM   32 CL   UNL     1      -5.812   1.761  71.225  1.00  0.00    -0.012 Cl 
HETATM   33  C   UNL     1      -7.301   2.605  69.139  1.00  0.00    -0.044 A  
HETATM   34  C   UNL     1      -7.649   5.160  70.212  1.00  0.00    -0.071 A  
HETATM   35  C   UNL     1      -6.939   4.193  70.926  1.00  0.00    -0.033 A  
HETATM   36  C   UNL     1      -8.008   3.570  68.418  1.00  0.00    -0.072 A  
ENDBRANCH  21  30
ENDBRANCH  11  14
ENDBRANCH  10  11
ENDBRANCH   5  10
ENDBRANCH   4   5
ENDBRANCH   3   4
ENDBRANCH   2   3
TORSDOF 10
ENDMDL
MODEL      184
REMARK 921   NORMALIZED FREE ENERGY PREDICTED BY IDOCK:   23.65 KCAL/MOL
REMARK 922        TOTAL FREE ENERGY PREDICTED BY IDOCK:   35.39 KCAL/MOL
REMARK 923 INTER-LIGAND FREE ENERGY PREDICTED BY IDOCK:   -1.71 KCAL/MOL
REMARK 924 INTRA-LIGAND FREE ENERGY PREDICTED BY IDOCK:   37.10 KCAL/MOL
REMARK 927      BINDING AFFINITY PREDICTED BY RF-SCORE:    0.00 PKD
ROOT
HETATM    1  C   UNL     1      -8.672  15.279  68.835  1.00  0.00    -0.208 C  
HETATM    2  C   UNL     1      -8.038  15.435  67.460  1.00  0.00    -0.187 C  
ENDROOT
BRANCH   2   3
HETATM    3  C   UNL     1      -7.788  16.910  67.151  1.00  0.00    -0.207 C  
BRANCH   3   4
HETATM    4  C   UNL     1      -7.139  17.690  68.304  1.00  0.00    -0.223 C  
BRANCH   4   5
HETATM    5  N   UNL     1      -6.103  16.998  69.102  1.00  0.00    -0.185 NA 
BRANCH   5   6
HETATM    6  C   UNL     1      -6.466  16.941  70.535  1.00  0.00     0.974 C  
BRANCH   6   7
HETATM    7  C   UNL     1      -5.737  15.871  71.378  1.00  0.00     0.495 C  
BRANCH   7   8
HETATM    8  C   UNL     1      -5.150  14.698  70.588  1.00  0.00    -0.117 C  
HETATM    9  C   UNL     1      -5.885  13.388  70.819  1.00  0.00    -0.148 C  
ENDBRANCH   7   8
ENDBRANCH   6   7
ENDBRANCH   5   6
BRANCH   5  10
HETATM   10  C   UNL     1      -5.911  15.625  68.557  1.00  0.00    -0.100 C  
BRANCH  10  11
HETATM   11  C   UNL     1      -7.004  15.098  67.574  1.00  0.00    -0.192 C  
HETATM   12  O   UNL     1      -6.748  15.457  66.217  1.00  0.00     0.624 OA 
HETATM   13  H   UNL     1      -7.412  15.136  65.619  1.00  0.00     0.000 HD 
BRANCH  11  14
HETATM   14  C   UNL     1      -7.210  13.597  67.713  1.00  0.00    -0.169 A  
HETATM   15  C   UNL     1      -8.291  12.971  68.359  1.00  0.00    -0.118 A  
HETATM   16 CL   UNL     1     -13.524  14.279  70.915  1.00  0.00    -0.285 Cl 
HETATM   17  C   UNL     1     -11.595  12.646  69.973  1.00  0.00    -0.199 A  
HETATM   18  C   UNL     1      -8.403  11.548  68.305  1.00  0.00    -0.154 A  
HETATM   19  C   UNL     1      -9.642  11.183  69.039  1.00  0.00    -0.099 C  
HETATM   20  C   UNL     1      -7.486  10.763  67.622  1.00  0.00    -0.095 A  
HETATM   21  C   UNL     1     -10.045   9.975  69.478  1.00  0.00    -0.248 C  
HETATM   22  C   UNL     1     -10.346  12.432  69.409  1.00  0.00     0.423 A  
HETATM   23  C   UNL     1      -6.393  11.379  67.037  1.00  0.00    -0.122 A  
HETATM   24  C   UNL     1      -9.470  13.495  69.076  1.00  0.00     0.292 A  
HETATM   25  C   UNL     1     -11.967  13.955  70.261  1.00  0.00    -0.331 A  
HETATM   26 CL   UNL     1      -5.218  10.429  66.208  1.00  0.00    -0.048 Cl 
HETATM   27  C   UNL     1      -6.249  12.767  67.084  1.00  0.00     0.086 A  
HETATM   28  C   UNL     1     -11.086  15.015  70.025  1.00  0.00    -0.290 A  
HETATM   29  C   UNL     1      -9.834  14.782  69.447  1.00  0.00    -0.072 A  
BRANCH  21  30
HETATM   30  C   UNL     1      -9.299   8.728  69.309  1.00  0.00    -0.149 A  
HETATM   31  C   UNL     1      -7.876   6.329  69.285  1.00  0.00    -0.105 A  
HETATM   32 CL   UNL     1      -6.997   4.853  69.361  1.00  0.00    -0.053 Cl 
HETATM   33  C   UNL     1      -7.189   7.544  69.285  1.00  0.00    -0.086 A  
HETATM   34  C   UNL     1      -9.982   7.505  69.258  1.00  0.00    -0.179 A  
HETATM   35  C   UNL     1      -9.267   6.306  69.255  1.00  0.00    -0.133 A  
HETATM   36  C   UNL     1      -7.901   8.747  69.293  1.00  0.00    -0.100 A  
ENDBRANCH  21  30
ENDBRANCH  11  14
ENDBRANCH  10  11
ENDBRANCH   5  10
ENDBRANCH   4   5
ENDBRANCH   3   4
ENDBRANCH   2   3
TORSDOF 10
ENDMDL
MODEL      185
REMARK 921   NORMALIZED FREE ENERGY PREDICTED BY IDOCK:   24.30 KCAL/MOL
REMARK 922        TOTAL FREE ENERGY PREDICTED BY IDOCK:   36.42 KCAL/MOL
REMARK 923 INTER-LIGAND FREE ENERGY PREDICTED BY IDOCK:   19.31 KCAL/MOL
REMARK 924 INTRA-LIGAND FREE ENERGY PREDICTED BY IDOCK:   17.10 KCAL/MOL
REMARK 927      BINDING AFFINITY PREDICTED BY RF-SCORE:    0.00 PKD
ROOT
HETATM    1  C   UNL     1     -10.077   7.139  73.236  1.00  0.00    -0.318 C  
HETATM    2  C   UNL     1     -10.254   8.026  72.011  1.00  0.00    -0.288 C  
ENDROOT
BRANCH   2   3
HETATM    3  C   UNL     1      -9.957   9.483  72.359  1.00  0.00     1.880 C  
BRANCH   3   4
HETATM    4  C   UNL     1      -9.246  10.261  71.242  1.00  0.00     2.863 C  
BRANCH   4   5
HETATM    5  N   UNL     1      -8.012  10.995  71.597  1.00  0.00     6.186 NA 
BRANCH   5   6
HETATM    6  C   UNL     1      -6.847  10.088  71.698  1.00  0.00     1.039 C  
BRANCH   6   7
HETATM    7  C   UNL     1      -6.209   9.649  70.362  1.00  0.00    -0.071 C  
BRANCH   7   8
HETATM    8  C   UNL     1      -5.198  10.631  69.762  1.00  0.00    -0.038 C  
HETATM    9  C   UNL     1      -5.256  12.014  70.389  1.00  0.00    -0.115 C  
ENDBRANCH   7   8
ENDBRANCH   6   7
ENDBRANCH   5   6
BRANCH   5  10
HETATM   10  C   UNL     1      -7.765  12.048  70.572  1.00  0.00     4.000 C  
BRANCH  10  11
HETATM   11  C   UNL     1      -8.328  11.783  69.139  1.00  0.00     0.325 C  
HETATM   12  O   UNL     1      -7.545  12.393  68.115  1.00  0.00    -0.109 OA 
HETATM   13  H   UNL     1      -7.887  12.231  67.244  1.00  0.00     0.000 HD 
BRANCH  11  14
HETATM   14  C   UNL     1      -8.514  10.297  68.874  1.00  0.00    -0.138 A  
HETATM   15  C   UNL     1      -9.213   9.736  67.790  1.00  0.00    -0.141 A  
HETATM   16 CL   UNL     1     -11.911  11.338  62.712  1.00  0.00     0.628 Cl 
HETATM   17  C   UNL     1     -10.947   9.597  64.534  1.00  0.00     4.013 A  
HETATM   18  C   UNL     1      -9.202   8.317  67.615  1.00  0.00    -0.150 A  
HETATM   19  C   UNL     1      -9.987   8.026  66.388  1.00  0.00    -0.215 C  
HETATM   20  C   UNL     1      -8.509   7.476  68.473  1.00  0.00    -0.129 A  
HETATM   21  C   UNL     1     -10.472   6.849  65.949  1.00  0.00     1.258 C  
HETATM   22  C   UNL     1     -10.347   9.314  65.753  1.00  0.00     0.284 A  
HETATM   23  C   UNL     1      -7.871   8.028  69.570  1.00  0.00    -0.105 A  
HETATM   24  C   UNL     1      -9.956  10.329  66.661  1.00  0.00    -0.270 A  
HETATM   25  C   UNL     1     -11.213  10.929  64.230  1.00  0.00     0.433 A  
HETATM   26 CL   UNL     1      -7.028   7.007  70.673  1.00  0.00    -0.061 Cl 
HETATM   27  C   UNL     1      -7.875   9.409  69.775  1.00  0.00    -0.115 A  
HETATM   28  C   UNL     1     -10.919  11.942  65.147  1.00  0.00    -0.365 A  
HETATM   29  C   UNL     1     -10.305  11.640  66.367  1.00  0.00    -0.266 A  
BRANCH  21  30
HETATM   30  C   UNL     1     -10.312   5.566  66.634  1.00  0.00    -0.322 A  
HETATM   31  C   UNL     1      -9.713   3.165  67.919  1.00  0.00     0.075 A  
HETATM   32 CL   UNL     1      -9.255   1.701  68.698  1.00  0.00    -0.186 Cl 
HETATM   33  C   UNL     1      -9.894   3.185  66.536  1.00  0.00     0.336 A  
HETATM   34  C   UNL     1     -10.178   5.529  68.029  1.00  0.00    -0.233 A  
HETATM   35  C   UNL     1      -9.870   4.327  68.668  1.00  0.00    -0.118 A  
HETATM   36  C   UNL     1     -10.199   4.387  65.891  1.00  0.00    -0.252 A  
ENDBRANCH  21  30
ENDBRANCH  11  14
ENDBRANCH  10  11
ENDBRANCH   5  10
ENDBRANCH   4   5
ENDBRANCH   3   4
ENDBRANCH   2   3
TORSDOF 10
ENDMDL
MODEL      186
REMARK 921   NORMALIZED FREE ENERGY PREDICTED BY IDOCK:   26.02 KCAL/MOL
REMARK 922        TOTAL FREE ENERGY PREDICTED BY IDOCK:   39.14 KCAL/MOL
REMARK 923 INTER-LIGAND FREE ENERGY PREDICTED BY IDOCK:   17.62 KCAL/MOL
REMARK 924 INTRA-LIGAND FREE ENERGY PREDICTED BY IDOCK:   21.52 KCAL/MOL
REMARK 927      BINDING AFFINITY PREDICTED BY RF-SCORE:    0.00 PKD
ROOT
HETATM    1  C   UNL     1      -8.109  13.544  69.877  1.00  0.00     1.760 C  
HETATM    2  C   UNL     1      -8.248  13.488  71.392  1.00  0.00     8.762 C  
ENDROOT
BRANCH   2   3
HETATM    3  C   UNL     1      -7.056  12.762  72.012  1.00  0.00     7.298 C  
BRANCH   3   4
HETATM    4  C   UNL     1      -5.996  12.317  70.994  1.00  0.00     0.425 C  
BRANCH   4   5
HETATM    5  N   UNL     1      -5.611  10.888  70.987  1.00  0.00    -0.276 NA 
BRANCH   5   6
HETATM    6  C   UNL     1      -6.327  10.124  72.032  1.00  0.00     1.005 C  
BRANCH   6   7
HETATM    7  C   UNL     1      -7.370   9.101  71.530  1.00  0.00     0.035 C  
BRANCH   7   8
HETATM    8  C   UNL     1      -7.279   7.707  72.156  1.00  0.00    -0.072 C  
HETATM    9  C   UNL     1      -7.218   7.730  73.674  1.00  0.00    -0.143 C  
ENDBRANCH   7   8
ENDBRANCH   6   7
ENDBRANCH   5   6
BRANCH   5  10
HETATM   10  C   UNL     1      -5.891  10.319  69.639  1.00  0.00    -0.044 C  
BRANCH  10  11
HETATM   11  C   UNL     1      -7.155  10.857  68.897  1.00  0.00    -0.090 C  
HETATM   12  O   UNL     1      -8.369  10.573  69.592  1.00  0.00    -0.336 OA 
HETATM   13  H   UNL     1      -9.137  10.900  69.141  1.00  0.00     0.000 HD 
BRANCH  11  14
HETATM   14  C   UNL     1      -7.037  12.341  68.587  1.00  0.00    -0.103 A  
HETATM   15  C   UNL     1      -7.686  13.017  67.538  1.00  0.00    -0.168 A  
HETATM   16 CL   UNL     1     -11.776  12.097  63.288  1.00  0.00    -0.485 Cl 
HETATM   17  C   UNL     1     -10.072  13.568  64.775  1.00  0.00    -0.267 A  
HETATM   18  C   UNL     1      -7.565  14.438  67.446  1.00  0.00    -0.196 A  
HETATM   19  C   UNL     1      -8.371  14.867  66.275  1.00  0.00     0.433 C  
HETATM   20  C   UNL     1      -6.839  15.175  68.370  1.00  0.00    -0.109 A  
HETATM   21  C   UNL     1      -8.375  16.051  65.634  1.00  0.00     1.062 C  
HETATM   22  C   UNL     1      -9.095  13.685  65.754  1.00  0.00     0.468 A  
HETATM   23  C   UNL     1      -6.155  14.500  69.366  1.00  0.00    -0.106 A  
HETATM   24  C   UNL     1      -8.596  12.566  66.466  1.00  0.00     0.022 A  
HETATM   25  C   UNL     1     -10.532  12.293  64.459  1.00  0.00    -0.309 A  
HETATM   26 CL   UNL     1      -5.218  15.384  70.511  1.00  0.00    -0.132 Cl 
HETATM   27  C   UNL     1      -6.244  13.111  69.474  1.00  0.00    -0.116 A  
HETATM   28  C   UNL     1      -9.991  11.165  65.083  1.00  0.00    -0.323 A  
HETATM   29  C   UNL     1      -9.014  11.302  66.075  1.00  0.00    -0.209 A  
BRANCH  21  30
HETATM   30  C   UNL     1      -7.540  17.200  65.985  1.00  0.00    -0.185 A  
HETATM   31  C   UNL     1      -6.196  19.553  66.643  1.00  0.00    -0.172 A  
HETATM   32 CL   UNL     1      -5.446  21.049  67.038  1.00  0.00    -0.249 Cl 
HETATM   33  C   UNL     1      -6.294  19.160  65.308  1.00  0.00    -0.315 A  
HETATM   34  C   UNL     1      -7.394  17.574  67.328  1.00  0.00    -0.203 A  
HETATM   35  C   UNL     1      -6.728  18.757  67.653  1.00  0.00    -0.211 A  
HETATM   36  C   UNL     1      -6.964  17.978  64.977  1.00  0.00     1.168 A  
ENDBRANCH  21  30
ENDBRANCH  11  14
ENDBRANCH  10  11
ENDBRANCH   5  10
ENDBRANCH   4   5
ENDBRANCH   3   4
ENDBRANCH   2   3
TORSDOF 10
ENDMDL
MODEL      187
REMARK 921   NORMALIZED FREE ENERGY PREDICTED BY IDOCK:   26.95 KCAL/MOL
REMARK 922        TOTAL FREE ENERGY PREDICTED BY IDOCK:   40.61 KCAL/MOL
REMARK 923 INTER-LIGAND FREE ENERGY PREDICTED BY IDOCK:   36.01 KCAL/MOL
REMARK 924 INTRA-LIGAND FREE ENERGY PREDICTED BY IDOCK:    4.60 KCAL/MOL
REMARK 927      BINDING AFFINITY PREDICTED BY RF-SCORE:    0.00 PKD
ROOT
HETATM    1  C   UNL     1      -7.868  19.507  73.166  1.00  0.00     4.828 C  
HETATM    2  C   UNL     1      -7.345  19.716  71.752  1.00  0.00     2.141 C  
ENDROOT
BRANCH   2   3
HETATM    3  C   UNL     1      -8.428  19.383  70.727  1.00  0.00     2.621 C  
BRANCH   3   4
HETATM    4  C   UNL     1      -8.917  17.928  70.784  1.00  0.00     5.345 C  
BRANCH   4   5
HETATM    5  N   UNL     1      -7.892  16.861  70.824  1.00  0.00     3.936 NA 
BRANCH   5   6
HETATM    6  C   UNL     1      -7.715  16.326  72.192  1.00  0.00    10.065 C  
BRANCH   6   7
HETATM    7  C   UNL     1      -6.305  15.798  72.538  1.00  0.00     2.899 C  
BRANCH   7   8
HETATM    8  C   UNL     1      -5.264  15.923  71.422  1.00  0.00    -0.015 C  
HETATM    9  C   UNL     1      -5.784  16.647  70.191  1.00  0.00    -0.203 C  
ENDBRANCH   7   8
ENDBRANCH   6   7
ENDBRANCH   5   6
BRANCH   5  10
HETATM   10  C   UNL     1      -8.290  15.774  69.886  1.00  0.00     0.335 C  
BRANCH  10  11
HETATM   11  C   UNL     1      -8.908  14.488  70.521  1.00  0.00     2.186 C  
HETATM   12  O   UNL     1     -10.322  14.579  70.690  1.00  0.00    -0.056 OA 
HETATM   13  H   UNL     1     -10.698  13.797  71.076  1.00  0.00     0.000 HD 
BRANCH  11  14
HETATM   14  C   UNL     1      -8.530  13.238  69.741  1.00  0.00     2.033 A  
HETATM   15  C   UNL     1      -9.195  12.745  68.604  1.00  0.00     0.036 A  
HETATM   16 CL   UNL     1     -13.541  14.234  64.792  1.00  0.00     1.260 Cl 
HETATM   17  C   UNL     1     -11.507  12.728  65.726  1.00  0.00    -0.388 A  
HETATM   18  C   UNL     1      -8.649  11.620  67.913  1.00  0.00    -0.150 A  
HETATM   19  C   UNL     1      -9.537  11.352  66.753  1.00  0.00    -0.207 C  
HETATM   20  C   UNL     1      -7.473  11.006  68.319  1.00  0.00    -0.092 A  
HETATM   21  C   UNL     1      -9.592  10.266  65.958  1.00  0.00    -0.259 C  
HETATM   22  C   UNL     1     -10.547  12.432  66.683  1.00  0.00    -0.256 A  
HETATM   23  C   UNL     1      -6.855  11.459  69.472  1.00  0.00    -0.097 A  
HETATM   24  C   UNL     1     -10.383  13.206  67.859  1.00  0.00    -0.232 A  
HETATM   25  C   UNL     1     -12.365  13.796  65.968  1.00  0.00    -0.457 A  
HETATM   26 CL   UNL     1      -5.410  10.697  70.023  1.00  0.00    -0.040 Cl 
HETATM   27  C   UNL     1      -7.372  12.547  70.177  1.00  0.00     1.742 A  
HETATM   28  C   UNL     1     -12.284  14.519  67.162  1.00  0.00    -0.187 A  
HETATM   29  C   UNL     1     -11.303  14.214  68.112  1.00  0.00    -0.316 A  
BRANCH  21  30
HETATM   30  C   UNL     1      -8.746   9.080  66.096  1.00  0.00    -0.169 A  
HETATM   31  C   UNL     1      -7.309   6.740  66.583  1.00  0.00    -0.074 A  
HETATM   32 CL   UNL     1      -6.477   5.282  66.955  1.00  0.00    -0.040 Cl 
HETATM   33  C   UNL     1      -6.923   7.932  67.197  1.00  0.00    -0.074 A  
HETATM   34  C   UNL     1      -9.097   7.890  65.443  1.00  0.00     0.135 A  
HETATM   35  C   UNL     1      -8.381   6.718  65.696  1.00  0.00    -0.147 A  
HETATM   36  C   UNL     1      -7.640   9.107  66.950  1.00  0.00    -0.091 A  
ENDBRANCH  21  30
ENDBRANCH  11  14
ENDBRANCH  10  11
ENDBRANCH   5  10
ENDBRANCH   4   5
ENDBRANCH   3   4
ENDBRANCH   2   3
TORSDOF 10
ENDMDL
MODEL      188
REMARK 921   NORMALIZED FREE ENERGY PREDICTED BY IDOCK:   26.98 KCAL/MOL
REMARK 922        TOTAL FREE ENERGY PREDICTED BY IDOCK:   40.67 KCAL/MOL
REMARK 923 INTER-LIGAND FREE ENERGY PREDICTED BY IDOCK:   31.23 KCAL/MOL
REMARK 924 INTRA-LIGAND FREE ENERGY PREDICTED BY IDOCK:    9.44 KCAL/MOL
REMARK 927      BINDING AFFINITY PREDICTED BY RF-SCORE:    0.00 PKD
ROOT
HETATM    1  C   UNL     1      -6.054  18.852  71.806  1.00  0.00     0.835 C  
HETATM    2  C   UNL     1      -6.989  20.020  72.085  1.00  0.00     1.081 C  
ENDROOT
BRANCH   2   3
HETATM    3  C   UNL     1      -7.083  20.933  70.865  1.00  0.00     2.345 C  
BRANCH   3   4
HETATM    4  C   UNL     1      -8.519  21.310  70.474  1.00  0.00     5.155 C  
BRANCH   4   5
HETATM    5  N   UNL     1      -9.265  20.366  69.613  1.00  0.00     0.816 NA 
BRANCH   5   6
HETATM    6  C   UNL     1      -8.554  19.076  69.472  1.00  0.00     0.398 C  
BRANCH   6   7
HETATM    7  C   UNL     1      -7.786  18.864  68.149  1.00  0.00    -0.316 C  
BRANCH   7   8
HETATM    8  C   UNL     1      -6.848  20.004  67.743  1.00  0.00    -0.301 C  
HETATM    9  C   UNL     1      -7.519  21.368  67.747  1.00  0.00     0.465 C  
ENDBRANCH   7   8
ENDBRANCH   6   7
ENDBRANCH   5   6
BRANCH   5  10
HETATM   10  C   UNL     1     -10.622  20.152  70.192  1.00  0.00     1.126 C  
BRANCH  10  11
HETATM   11  C   UNL     1     -10.836  18.846  71.020  1.00  0.00     3.350 C  
HETATM   12  O   UNL     1     -12.079  18.832  71.720  1.00  0.00     6.955 OA 
HETATM   13  H   UNL     1     -12.210  18.037  72.223  1.00  0.00     0.000 HD 
BRANCH  11  14
HETATM   14  C   UNL     1     -10.680  17.602  70.159  1.00  0.00     1.083 A  
HETATM   15  C   UNL     1     -10.672  17.570  68.753  1.00  0.00    -0.134 A  
HETATM   16 CL   UNL     1     -10.662  21.252  64.054  1.00  0.00     3.070 Cl 
HETATM   17  C   UNL     1     -10.525  18.862  65.297  1.00  0.00     0.564 A  
HETATM   18  C   UNL     1     -10.400  16.336  68.086  1.00  0.00    -0.277 A  
HETATM   19  C   UNL     1     -10.428  16.615  66.628  1.00  0.00    -0.258 C  
HETATM   20  C   UNL     1     -10.127  15.168  68.784  1.00  0.00    -0.226 A  
HETATM   21  C   UNL     1     -10.480  15.749  65.598  1.00  0.00    -0.402 C  
HETATM   22  C   UNL     1     -10.581  18.076  66.439  1.00  0.00    -0.259 A  
HETATM   23  C   UNL     1     -10.193  15.192  70.166  1.00  0.00    -0.076 A  
HETATM   24  C   UNL     1     -10.822  18.620  67.725  1.00  0.00    -0.313 A  
HETATM   25  C   UNL     1     -10.767  20.226  65.430  1.00  0.00     0.115 A  
HETATM   26 CL   UNL     1      -9.891  13.751  71.062  1.00  0.00     4.701 Cl 
HETATM   27  C   UNL     1     -10.470  16.380  70.845  1.00  0.00     0.919 A  
HETATM   28  C   UNL     1     -11.096  20.774  66.673  1.00  0.00     2.012 A  
HETATM   29  C   UNL     1     -11.138  19.969  67.816  1.00  0.00     0.179 A  
BRANCH  21  30
HETATM   30  C   UNL     1     -10.525  14.292  65.726  1.00  0.00    -0.326 A  
HETATM   31  C   UNL     1     -10.879  11.550  66.088  1.00  0.00    -0.278 A  
HETATM   32 CL   UNL     1     -11.177   9.877  66.353  1.00  0.00     0.455 Cl 
HETATM   33  C   UNL     1     -10.256  12.307  67.081  1.00  0.00    -0.224 A  
HETATM   34  C   UNL     1     -11.103  13.518  64.711  1.00  0.00    -0.368 A  
HETATM   35  C   UNL     1     -11.287  12.147  64.899  1.00  0.00    -0.378 A  
HETATM   36  C   UNL     1     -10.074  13.680  66.899  1.00  0.00    -0.260 A  
ENDBRANCH  21  30
ENDBRANCH  11  14
ENDBRANCH  10  11
ENDBRANCH   5  10
ENDBRANCH   4   5
ENDBRANCH   3   4
ENDBRANCH   2   3
TORSDOF 10
ENDMDL
MODEL      189
REMARK 921   NORMALIZED FREE ENERGY PREDICTED BY IDOCK:   27.55 KCAL/MOL
REMARK 922        TOTAL FREE ENERGY PREDICTED BY IDOCK:   41.57 KCAL/MOL
REMARK 923 INTER-LIGAND FREE ENERGY PREDICTED BY IDOCK:   41.96 KCAL/MOL
REMARK 924 INTRA-LIGAND FREE ENERGY PREDICTED BY IDOCK:   -0.39 KCAL/MOL
REMARK 927      BINDING AFFINITY PREDICTED BY RF-SCORE:    0.00 PKD
ROOT
HETATM    1  C   UNL     1      -5.139  14.590  62.799  1.00  0.00    11.947 C  
HETATM    2  C   UNL     1      -6.378  13.951  63.407  1.00  0.00    21.512 C  
ENDROOT
BRANCH   2   3
HETATM    3  C   UNL     1      -7.170  13.198  62.340  1.00  0.00     9.620 C  
BRANCH   3   4
HETATM    4  C   UNL     1      -7.977  12.008  62.882  1.00  0.00     2.247 C  
BRANCH   4   5
HETATM    5  N   UNL     1      -8.656  12.178  64.185  1.00  0.00     1.471 NA 
BRANCH   5   6
HETATM    6  C   UNL     1      -9.825  13.080  64.079  1.00  0.00     0.375 C  
BRANCH   6   7
HETATM    7  C   UNL     1     -11.194  12.396  63.868  1.00  0.00    -0.487 C  
BRANCH   7   8
HETATM    8  C   UNL     1     -12.345  12.957  64.707  1.00  0.00    -0.516 C  
HETATM    9  C   UNL     1     -11.957  14.181  65.521  1.00  0.00    -0.394 C  
ENDBRANCH   7   8
ENDBRANCH   6   7
ENDBRANCH   5   6
BRANCH   5  10
HETATM   10  C   UNL     1      -9.075  10.839  64.689  1.00  0.00    -0.201 C  
BRANCH  10  11
HETATM   11  C   UNL     1      -9.059  10.633  66.237  1.00  0.00    -0.167 C  
HETATM   12  O   UNL     1     -10.276  11.036  66.862  1.00  0.00    -0.206 OA 
HETATM   13  H   UNL     1     -10.267  10.910  67.803  1.00  0.00     0.000 HD 
BRANCH  11  14
HETATM   14  C   UNL     1      -8.699   9.203  66.610  1.00  0.00    -0.140 A  
HETATM   15  C   UNL     1      -9.073   8.543  67.795  1.00  0.00    -0.143 A  
HETATM   16 CL   UNL     1     -12.491   9.318  72.627  1.00  0.00    -0.200 Cl 
HETATM   17  C   UNL     1     -10.879   7.942  70.958  1.00  0.00    -0.253 A  
HETATM   18  C   UNL     1      -8.755   7.159  67.950  1.00  0.00    -0.126 A  
HETATM   19  C   UNL     1      -9.294   6.735  69.267  1.00  0.00    -0.144 C  
HETATM   20  C   UNL     1      -8.101   6.439  66.960  1.00  0.00    -0.112 A  
HETATM   21  C   UNL     1      -9.038   5.615  69.970  1.00  0.00    -0.157 C  
HETATM   22  C   UNL     1     -10.070   7.862  69.834  1.00  0.00    -0.197 A  
HETATM   23  C   UNL     1      -7.684   7.107  65.822  1.00  0.00    -0.099 A  
HETATM   24  C   UNL     1      -9.844   8.969  68.980  1.00  0.00    -0.178 A  
HETATM   25  C   UNL     1     -11.442   9.175  71.272  1.00  0.00    -0.335 A  
HETATM   26 CL   UNL     1      -6.841   6.250  64.587  1.00  0.00    -0.045 Cl 
HETATM   27  C   UNL     1      -7.969   8.463  65.648  1.00  0.00    -0.115 A  
HETATM   28  C   UNL     1     -11.162  10.305  70.496  1.00  0.00    -0.408 A  
HETATM   29  C   UNL     1     -10.353  10.204  69.360  1.00  0.00    -0.251 A  
BRANCH  21  30
HETATM   30  C   UNL     1      -8.130   4.548  69.548  1.00  0.00    -0.061 A  
HETATM   31  C   UNL     1      -6.330   2.686  68.513  1.00  0.00    -0.029 A  
HETATM   32 CL   UNL     1      -5.208   1.593  67.804  1.00  0.00    -0.011 Cl 
HETATM   33  C   UNL     1      -7.679   2.615  68.165  1.00  0.00    -0.055 A  
HETATM   34  C   UNL     1      -6.783   4.582  69.934  1.00  0.00    -0.033 A  
HETATM   35  C   UNL     1      -5.883   3.654  69.407  1.00  0.00    -0.022 A  
HETATM   36  C   UNL     1      -8.583   3.545  68.686  1.00  0.00    -0.122 A  
ENDBRANCH  21  30
ENDBRANCH  11  14
ENDBRANCH  10  11
ENDBRANCH   5  10
ENDBRANCH   4   5
ENDBRANCH   3   4
ENDBRANCH   2   3
TORSDOF 10
ENDMDL
MODEL      190
REMARK 921   NORMALIZED FREE ENERGY PREDICTED BY IDOCK:   33.43 KCAL/MOL
REMARK 922        TOTAL FREE ENERGY PREDICTED BY IDOCK:   50.89 KCAL/MOL
REMARK 923 INTER-LIGAND FREE ENERGY PREDICTED BY IDOCK:   52.11 KCAL/MOL
REMARK 924 INTRA-LIGAND FREE ENERGY PREDICTED BY IDOCK:   -1.22 KCAL/MOL
REMARK 927      BINDING AFFINITY PREDICTED BY RF-SCORE:    0.00 PKD
ROOT
HETATM    1  C   UNL     1      -8.817  11.246  65.782  1.00  0.00    -0.154 C  
HETATM    2  C   UNL     1      -7.706  10.531  65.026  1.00  0.00    -0.039 C  
ENDROOT
BRANCH   2   3
HETATM    3  C   UNL     1      -7.645   9.060  65.432  1.00  0.00    -0.090 C  
BRANCH   3   4
HETATM    4  C   UNL     1      -6.310   8.640  66.066  1.00  0.00    -0.053 C  
BRANCH   4   5
HETATM    5  N   UNL     1      -6.195   7.253  66.565  1.00  0.00    -0.039 NA 
BRANCH   5   6
HETATM    6  C   UNL     1      -5.127   6.506  65.865  1.00  0.00    -0.017 C  
BRANCH   6   7
HETATM    7  C   UNL     1      -5.273   6.388  64.332  1.00  0.00    -0.021 C  
BRANCH   7   8
HETATM    8  C   UNL     1      -6.710   6.404  63.805  1.00  0.00    -0.040 C  
HETATM    9  C   UNL     1      -7.333   5.021  63.708  1.00  0.00    -0.051 C  
ENDBRANCH   7   8
ENDBRANCH   6   7
ENDBRANCH   5   6
BRANCH   5  10
HETATM   10  C   UNL     1      -5.932   7.288  68.032  1.00  0.00    -0.034 C  
BRANCH  10  11
HETATM   11  C   UNL     1      -7.007   6.633  68.956  1.00  0.00    -0.086 C  
HETATM   12  O   UNL     1      -6.443   5.734  69.910  1.00  0.00    -0.035 OA 
HETATM   13  H   UNL     1      -7.097   5.336  70.473  1.00  0.00     0.000 HD 
BRANCH  11  14
HETATM   14  C   UNL     1      -7.875   7.679  69.638  1.00  0.00    -0.108 A  
HETATM   15  C   UNL     1      -9.276   7.769  69.552  1.00  0.00    -0.149 A  
HETATM   16 CL   UNL     1     -13.967   4.777  67.388  1.00  0.00    24.911 Cl 
HETATM   17  C   UNL     1     -12.734   6.733  68.779  1.00  0.00     5.255 A  
HETATM   18  C   UNL     1      -9.961   8.741  70.345  1.00  0.00    -0.219 A  
HETATM   19  C   UNL     1     -11.412   8.579  70.071  1.00  0.00     0.079 C  
HETATM   20  C   UNL     1      -9.287   9.591  71.210  1.00  0.00     0.147 A  
HETATM   21  C   UNL     1     -12.430   9.406  70.373  1.00  0.00     0.194 C  
HETATM   22  C   UNL     1     -11.590   7.391  69.205  1.00  0.00     0.459 A  
HETATM   23  C   UNL     1      -7.905   9.538  71.247  1.00  0.00     0.400 A  
HETATM   24  C   UNL     1     -10.289   6.976  68.827  1.00  0.00    -0.196 A  
HETATM   25  C   UNL     1     -12.584   5.658  67.908  1.00  0.00     9.349 A  
HETATM   26 CL   UNL     1      -7.036  10.603  72.287  1.00  0.00     3.654 Cl 
HETATM   27  C   UNL     1      -7.207   8.608  70.475  1.00  0.00    -0.053 A  
HETATM   28  C   UNL     1     -11.318   5.284  67.448  1.00  0.00     1.549 A  
HETATM   29  C   UNL     1     -10.174   5.953  67.896  1.00  0.00    -0.225 A  
BRANCH  21  30
HETATM   30  C   UNL     1     -12.295  10.690  71.062  1.00  0.00    -0.507 A  
HETATM   31  C   UNL     1     -12.334  13.139  72.395  1.00  0.00     0.769 A  
HETATM   32 CL   UNL     1     -12.448  14.646  73.216  1.00  0.00    -0.460 Cl 
HETATM   33  C   UNL     1     -12.349  13.108  71.000  1.00  0.00    -0.355 A  
HETATM   34  C   UNL     1     -12.228  10.730  72.461  1.00  0.00     2.033 A  
HETATM   35  C   UNL     1     -12.256  11.958  73.126  1.00  0.00     6.575 A  
HETATM   36  C   UNL     1     -12.326  11.882  70.331  1.00  0.00    -0.334 A  
ENDBRANCH  21  30
ENDBRANCH  11  14
ENDBRANCH  10  11
ENDBRANCH   5  10
ENDBRANCH   4   5
ENDBRANCH   3   4
ENDBRANCH   2   3
TORSDOF 10
ENDMDL
MODEL      191
REMARK 921   NORMALIZED FREE ENERGY PREDICTED BY IDOCK:   38.00 KCAL/MOL
REMARK 922        TOTAL FREE ENERGY PREDICTED BY IDOCK:   58.12 KCAL/MOL
REMARK 923 INTER-LIGAND FREE ENERGY PREDICTED BY IDOCK:   -2.68 KCAL/MOL
REMARK 924 INTRA-LIGAND FREE ENERGY PREDICTED BY IDOCK:   60.81 KCAL/MOL
REMARK 927      BINDING AFFINITY PREDICTED BY RF-SCORE:    0.00 PKD
ROOT
HETATM    1  C   UNL     1     -10.780   6.344  70.442  1.00  0.00    -0.317 C  
HETATM    2  C   UNL     1      -9.759   5.799  69.454  1.00  0.00    -0.200 C  
ENDROOT
BRANCH   2   3
HETATM    3  C   UNL     1      -8.418   5.562  70.146  1.00  0.00    -0.117 C  
BRANCH   3   4
HETATM    4  C   UNL     1      -8.412   5.923  71.639  1.00  0.00    -0.128 C  
BRANCH   4   5
HETATM    5  N   UNL     1      -9.474   6.830  72.129  1.00  0.00    -0.141 NA 
BRANCH   5   6
HETATM    6  C   UNL     1      -9.083   8.251  71.997  1.00  0.00    -0.202 C  
BRANCH   6   7
HETATM    7  C   UNL     1      -7.586   8.567  72.211  1.00  0.00    -0.107 C  
BRANCH   7   8
HETATM    8  C   UNL     1      -7.044   8.265  73.611  1.00  0.00    -0.164 C  
HETATM    9  C   UNL     1      -7.036   9.477  74.528  1.00  0.00     0.636 C  
ENDBRANCH   7   8
ENDBRANCH   6   7
ENDBRANCH   5   6
BRANCH   5  10
HETATM   10  C   UNL     1     -10.727   6.561  71.369  1.00  0.00    -0.238 C  
BRANCH  10  11
HETATM   11  C   UNL     1     -11.623   7.794  71.030  1.00  0.00    -0.283 C  
HETATM   12  O   UNL     1     -12.474   8.174  72.110  1.00  0.00    -0.318 OA 
HETATM   13  H   UNL     1     -13.019   8.925  71.904  1.00  0.00     0.000 HD 
BRANCH  11  14
HETATM   14  C   UNL     1     -10.795   8.974  70.544  1.00  0.00    -0.296 A  
HETATM   15  C   UNL     1      -9.577   8.893  69.847  1.00  0.00    -0.185 A  
HETATM   16 CL   UNL     1      -5.972   4.869  67.307  1.00  0.00    -0.026 Cl 
HETATM   17  C   UNL     1      -6.815   7.352  67.942  1.00  0.00    -0.074 A  
HETATM   18  C   UNL     1      -8.975  10.092  69.356  1.00  0.00    -0.205 A  
HETATM   19  C   UNL     1      -7.733   9.695  68.646  1.00  0.00    -0.080 C  
HETATM   20  C   UNL     1      -9.564  11.336  69.531  1.00  0.00     0.460 A  
HETATM   21  C   UNL     1      -6.706  10.463  68.236  1.00  0.00    -0.061 C  
HETATM   22  C   UNL     1      -7.679   8.216  68.599  1.00  0.00    -0.112 A  
HETATM   23  C   UNL     1     -10.734  11.417  70.268  1.00  0.00     0.890 A  
HETATM   24  C   UNL     1      -8.746   7.754  69.409  1.00  0.00    -0.135 A  
HETATM   25  C   UNL     1      -6.985   5.984  68.136  1.00  0.00    -0.076 A  
HETATM   26 CL   UNL     1     -11.475  12.950  70.532  1.00  0.00     0.221 Cl 
HETATM   27  C   UNL     1     -11.338  10.263  70.772  1.00  0.00    -0.421 A  
HETATM   28  C   UNL     1      -7.973   5.505  69.001  1.00  0.00    -0.095 A  
HETATM   29  C   UNL     1      -8.842   6.390  69.648  1.00  0.00    -0.137 A  
BRANCH  21  30
HETATM   30  C   UNL     1      -6.612  11.912  68.423  1.00  0.00    -0.056 A  
HETATM   31  C   UNL     1      -6.560  14.629  69.047  1.00  0.00    -0.102 A  
HETATM   32 CL   UNL     1      -6.571  16.286  69.509  1.00  0.00    -0.202 Cl 
HETATM   33  C   UNL     1      -7.647  14.097  68.353  1.00  0.00    -0.130 A  
HETATM   34  C   UNL     1      -5.500  12.462  69.075  1.00  0.00    -0.063 A  
HETATM   35  C   UNL     1      -5.481  13.822  69.393  1.00  0.00    -0.084 A  
HETATM   36  C   UNL     1      -7.673  12.736  68.036  1.00  0.00    -0.137 A  
ENDBRANCH  21  30
ENDBRANCH  11  14
ENDBRANCH  10  11
ENDBRANCH   5  10
ENDBRANCH   4   5
ENDBRANCH   3   4
ENDBRANCH   2   3
TORSDOF 10
ENDMDL
MODEL      192
REMARK 921   NORMALIZED FREE ENERGY PREDICTED BY IDOCK:   41.00 KCAL/MOL
REMARK 922        TOTAL FREE ENERGY PREDICTED BY IDOCK:   62.88 KCAL/MOL
REMARK 923 INTER-LIGAND FREE ENERGY PREDICTED BY IDOCK:   11.26 KCAL/MOL
REMARK 924 INTRA-LIGAND FREE ENERGY PREDICTED BY IDOCK:   51.62 KCAL/MOL
REMARK 927      BINDING AFFINITY PREDICTED BY RF-SCORE:    0.00 PKD
ROOT
HETATM    1  C   UNL     1      -7.226  17.056  68.224  1.00  0.00    -0.196 C  
HETATM    2  C   UNL     1      -6.586  17.508  66.919  1.00  0.00    -0.221 C  
ENDROOT
BRANCH   2   3
HETATM    3  C   UNL     1      -6.646  19.029  66.793  1.00  0.00    -0.200 C  
BRANCH   3   4
HETATM    4  C   UNL     1      -6.514  19.774  68.129  1.00  0.00    -0.250 C  
BRANCH   4   5
HETATM    5  N   UNL     1      -5.954  19.028  69.277  1.00  0.00    -0.238 NA 
BRANCH   5   6
HETATM    6  C   UNL     1      -6.816  19.141  70.475  1.00  0.00     0.697 C  
BRANCH   6   7
HETATM    7  C   UNL     1      -6.847  17.911  71.408  1.00  0.00     4.165 C  
BRANCH   7   8
HETATM    8  C   UNL     1      -6.481  16.577  70.752  1.00  0.00     1.295 C  
HETATM    9  C   UNL     1      -6.360  15.430  71.743  1.00  0.00     1.423 C  
ENDBRANCH   7   8
ENDBRANCH   6   7
ENDBRANCH   5   6
BRANCH   5  10
HETATM   10  C   UNL     1      -5.786  17.599  68.889  1.00  0.00    -0.178 C  
BRANCH  10  11
HETATM   11  C   UNL     1      -6.678  17.077  67.718  1.00  0.00    -0.148 C  
HETATM   12  O   UNL     1      -6.168  17.434  66.433  1.00  0.00    -0.194 OA 
HETATM   13  H   UNL     1      -6.711  17.116  65.721  1.00  0.00     0.000 HD 
BRANCH  11  14
HETATM   14  C   UNL     1      -6.915  15.578  67.816  1.00  0.00    -0.185 A  
HETATM   15  C   UNL     1      -7.963  14.955  68.517  1.00  0.00    -0.140 A  
HETATM   16 CL   UNL     1     -12.953  16.296  71.506  1.00  0.00     0.292 Cl 
HETATM   17  C   UNL     1     -11.147  14.652  70.361  1.00  0.00    -0.106 A  
HETATM   18  C   UNL     1      -8.119  13.538  68.419  1.00  0.00    -0.145 A  
HETATM   19  C   UNL     1      -9.310  13.177  69.230  1.00  0.00     0.837 C  
HETATM   20  C   UNL     1      -7.278  12.757  67.640  1.00  0.00    -0.141 A  
HETATM   21  C   UNL     1      -9.714  11.963  69.652  1.00  0.00     1.253 C  
HETATM   22  C   UNL     1      -9.949  14.428  69.698  1.00  0.00     0.301 A  
HETATM   23  C   UNL     1      -6.214  13.368  66.998  1.00  0.00     0.842 A  
HETATM   24  C   UNL     1      -9.071  15.481  69.340  1.00  0.00    -0.280 A  
HETATM   25  C   UNL     1     -11.459  15.958  70.726  1.00  0.00    -0.407 A  
HETATM   26 CL   UNL     1      -5.131  12.422  66.048  1.00  0.00     1.442 Cl 
HETATM   27  C   UNL     1      -6.028  14.749  67.086  1.00  0.00     0.710 A  
HETATM   28  C   UNL     1     -10.567  17.003  70.464  1.00  0.00     0.741 A  
HETATM   29  C   UNL     1      -9.369  16.761  69.785  1.00  0.00     0.643 A  
BRANCH  21  30
HETATM   30  C   UNL     1      -9.019  10.705  69.382  1.00  0.00    -0.049 A  
HETATM   31  C   UNL     1      -7.470   8.471  68.759  1.00  0.00    -0.092 A  
HETATM   32 CL   UNL     1      -6.453   7.149  68.338  1.00  0.00    -0.039 Cl 
HETATM   33  C   UNL     1      -8.389   8.959  67.830  1.00  0.00    -0.110 A  
HETATM   34  C   UNL     1      -8.130  10.178  70.329  1.00  0.00     0.128 A  
HETATM   35  C   UNL     1      -7.350   9.065  70.011  1.00  0.00    -0.060 A  
HETATM   36  C   UNL     1      -9.169  10.076  68.142  1.00  0.00    -0.130 A  
ENDBRANCH  21  30
ENDBRANCH  11  14
ENDBRANCH  10  11
ENDBRANCH   5  10
ENDBRANCH   4   5
ENDBRANCH   3   4
ENDBRANCH   2   3
TORSDOF 10
ENDMDL
MODEL      193
REMARK 921   NORMALIZED FREE ENERGY PREDICTED BY IDOCK:   44.48 KCAL/MOL
REMARK 922        TOTAL FREE ENERGY PREDICTED BY IDOCK:   68.40 KCAL/MOL
REMARK 923 INTER-LIGAND FREE ENERGY PREDICTED BY IDOCK:   55.70 KCAL/MOL
REMARK 924 INTRA-LIGAND FREE ENERGY PREDICTED BY IDOCK:   12.70 KCAL/MOL
REMARK 927      BINDING AFFINITY PREDICTED BY RF-SCORE:    0.00 PKD
ROOT
HETATM    1  C   UNL     1     -11.624  13.008  70.775  1.00  0.00     0.564 C  
HETATM    2  C   UNL     1     -12.921  13.566  71.343  1.00  0.00    -0.421 C  
ENDROOT
BRANCH   2   3
HETATM    3  C   UNL     1     -12.894  13.533  72.869  1.00  0.00     0.112 C  
BRANCH   3   4
HETATM    4  C   UNL     1     -11.689  12.787  73.459  1.00  0.00     8.510 C  
BRANCH   4   5
HETATM    5  N   UNL     1     -11.087  11.708  72.646  1.00  0.00     8.502 NA 
BRANCH   5   6
HETATM    6  C   UNL     1     -11.830  11.493  71.385  1.00  0.00     0.782 C  
BRANCH   6   7
HETATM    7  C   UNL     1     -11.261  10.418  70.434  1.00  0.00    -0.399 C  
BRANCH   7   8
HETATM    8  C   UNL     1     -12.303   9.568  69.702  1.00  0.00     0.877 C  
HETATM    9  C   UNL     1     -13.733   9.886  70.109  1.00  0.00     1.010 C  
ENDBRANCH   7   8
ENDBRANCH   6   7
ENDBRANCH   5   6
BRANCH   5  10
HETATM   10  C   UNL     1      -9.665  12.053  72.361  1.00  0.00    19.970 C  
BRANCH  10  11
HETATM   11  C   UNL     1      -9.351  12.628  70.943  1.00  0.00     9.733 C  
HETATM   12  O   UNL     1      -8.376  13.670  70.972  1.00  0.00     4.090 OA 
HETATM   13  H   UNL     1      -8.185  14.019  70.110  1.00  0.00     0.000 HD 
BRANCH  11  14
HETATM   14  C   UNL     1      -8.953  11.532  69.967  1.00  0.00     2.317 A  
HETATM   15  C   UNL     1      -9.124  11.571  68.571  1.00  0.00    -0.157 A  
HETATM   16 CL   UNL     1     -10.827  15.303  64.234  1.00  0.00     0.085 Cl 
HETATM   17  C   UNL     1      -9.827  13.010  65.245  1.00  0.00    -0.102 A  
HETATM   18  C   UNL     1      -8.592  10.511  67.776  1.00  0.00    -0.118 A  
HETATM   19  C   UNL     1      -8.896  10.837  66.359  1.00  0.00    -0.174 C  
HETATM   20  C   UNL     1      -7.897   9.448  68.335  1.00  0.00    -0.090 A  
HETATM   21  C   UNL     1      -8.829  10.046  65.271  1.00  0.00    -0.205 C  
HETATM   22  C   UNL     1      -9.496  12.191  66.314  1.00  0.00    -0.238 A  
HETATM   23  C   UNL     1      -7.781   9.385  69.713  1.00  0.00    -0.110 A  
HETATM   24  C   UNL     1      -9.712  12.574  67.661  1.00  0.00    -0.196 A  
HETATM   25  C   UNL     1     -10.440  14.229  65.520  1.00  0.00    -0.346 A  
HETATM   26 CL   UNL     1      -6.952   8.063  70.442  1.00  0.00    -0.041 Cl 
HETATM   27  C   UNL     1      -8.302  10.400  70.518  1.00  0.00     1.126 A  
HETATM   28  C   UNL     1     -10.746  14.592  66.835  1.00  0.00    -0.288 A  
HETATM   29  C   UNL     1     -10.396  13.758  67.902  1.00  0.00    -0.244 A  
BRANCH  21  30
HETATM   30  C   UNL     1      -8.425   8.640  65.278  1.00  0.00    -0.196 A  
HETATM   31  C   UNL     1      -7.785   5.940  65.559  1.00  0.00    -0.091 A  
HETATM   32 CL   UNL     1      -7.427   4.278  65.814  1.00  0.00    -0.080 Cl 
HETATM   33  C   UNL     1      -6.880   6.915  65.980  1.00  0.00    -0.060 A  
HETATM   34  C   UNL     1      -9.306   7.656  64.810  1.00  0.00     1.362 A  
HETATM   35  C   UNL     1      -8.987   6.305  64.960  1.00  0.00     0.291 A  
HETATM   36  C   UNL     1      -7.198   8.269  65.837  1.00  0.00    -0.072 A  
ENDBRANCH  21  30
ENDBRANCH  11  14
ENDBRANCH  10  11
ENDBRANCH   5  10
ENDBRANCH   4   5
ENDBRANCH   3   4
ENDBRANCH   2   3
TORSDOF 10
ENDMDL
MODEL      194
REMARK 921   NORMALIZED FREE ENERGY PREDICTED BY IDOCK:   46.28 KCAL/MOL
REMARK 922        TOTAL FREE ENERGY PREDICTED BY IDOCK:   71.26 KCAL/MOL
REMARK 923 INTER-LIGAND FREE ENERGY PREDICTED BY IDOCK:   -1.48 KCAL/MOL
REMARK 924 INTRA-LIGAND FREE ENERGY PREDICTED BY IDOCK:   72.74 KCAL/MOL
REMARK 927      BINDING AFFINITY PREDICTED BY RF-SCORE:    0.00 PKD
ROOT
HETATM    1  C   UNL     1     -10.785   6.357  70.437  1.00  0.00    -0.317 C  
HETATM    2  C   UNL     1      -9.721   5.806  69.498  1.00  0.00    -0.199 C  
ENDROOT
BRANCH   2   3
HETATM    3  C   UNL     1      -8.382   5.680  70.221  1.00  0.00    -0.112 C  
BRANCH   3   4
HETATM    4  C   UNL     1      -8.122   6.788  71.253  1.00  0.00    -0.111 C  
BRANCH   4   5
HETATM    5  N   UNL     1      -8.997   7.980  71.215  1.00  0.00    -0.134 NA 
BRANCH   5   6
HETATM    6  C   UNL     1      -8.587   8.925  70.153  1.00  0.00    -0.155 C  
BRANCH   6   7
HETATM    7  C   UNL     1      -7.069   9.036  69.891  1.00  0.00    -0.053 C  
BRANCH   7   8
HETATM    8  C   UNL     1      -6.241   9.600  71.048  1.00  0.00    -0.069 C  
HETATM    9  C   UNL     1      -5.981  11.094  70.931  1.00  0.00     0.081 C  
ENDBRANCH   7   8
ENDBRANCH   6   7
ENDBRANCH   5   6
BRANCH   5  10
HETATM   10  C   UNL     1     -10.405   7.538  71.005  1.00  0.00    -0.199 C  
BRANCH  10  11
HETATM   11  C   UNL     1     -11.258   8.365  69.991  1.00  0.00    -0.085 C  
HETATM   12  O   UNL     1     -11.827   9.537  70.574  1.00  0.00    -0.355 OA 
HETATM   13  H   UNL     1     -12.346  10.040  69.957  1.00  0.00     0.000 HD 
BRANCH  11  14
HETATM   14  C   UNL     1     -10.468   8.706  68.737  1.00  0.00    -0.209 A  
HETATM   15  C   UNL     1      -9.358   7.997  68.246  1.00  0.00    -0.143 A  
HETATM   16 CL   UNL     1      -6.251   3.003  69.270  1.00  0.00    -0.028 Cl 
HETATM   17  C   UNL     1      -6.926   5.238  67.918  1.00  0.00    -0.065 A  
HETATM   18  C   UNL     1      -8.792   8.374  66.989  1.00  0.00    -0.146 A  
HETATM   19  C   UNL     1      -7.669   7.439  66.722  1.00  0.00    -0.109 C  
HETATM   20  C   UNL     1      -9.315   9.409  66.228  1.00  0.00    -0.253 A  
HETATM   21  C   UNL     1      -6.684   7.534  65.808  1.00  0.00    -0.045 C  
HETATM   22  C   UNL     1      -7.667   6.403  67.779  1.00  0.00    -0.103 A  
HETATM   23  C   UNL     1     -10.371  10.141  66.743  1.00  0.00    -0.222 A  
HETATM   24  C   UNL     1      -8.628   6.811  68.737  1.00  0.00    -0.123 A  
HETATM   25  C   UNL     1      -7.109   4.480  69.071  1.00  0.00    -0.052 A  
HETATM   26 CL   UNL     1     -11.023  11.454  65.838  1.00  0.00    -0.306 Cl 
HETATM   27  C   UNL     1     -10.937   9.805  67.974  1.00  0.00    -0.236 A  
HETATM   28  C   UNL     1      -7.985   4.907  70.073  1.00  0.00    -0.073 A  
HETATM   29  C   UNL     1      -8.732   6.078  69.912  1.00  0.00    -0.131 A  
BRANCH  21  30
HETATM   30  C   UNL     1      -6.522   8.635  64.858  1.00  0.00    -0.065 A  
HETATM   31  C   UNL     1      -6.304  10.913  63.264  1.00  0.00     0.323 A  
HETATM   32 CL   UNL     1      -6.202  12.367  62.351  1.00  0.00     2.679 Cl 
HETATM   33  C   UNL     1      -7.492  10.182  63.271  1.00  0.00    -0.139 A  
HETATM   34  C   UNL     1      -5.315   9.345  64.808  1.00  0.00    -0.050 A  
HETATM   35  C   UNL     1      -5.211  10.490  64.016  1.00  0.00    -0.160 A  
HETATM   36  C   UNL     1      -7.601   9.037  64.065  1.00  0.00    -0.118 A  
ENDBRANCH  21  30
ENDBRANCH  11  14
ENDBRANCH  10  11
ENDBRANCH   5  10
ENDBRANCH   4   5
ENDBRANCH   3   4
ENDBRANCH   2   3
TORSDOF 10
ENDMDL
MODEL      195
REMARK 921   NORMALIZED FREE ENERGY PREDICTED BY IDOCK:   47.97 KCAL/MOL
REMARK 922        TOTAL FREE ENERGY PREDICTED BY IDOCK:   73.92 KCAL/MOL
REMARK 923 INTER-LIGAND FREE ENERGY PREDICTED BY IDOCK:   60.94 KCAL/MOL
REMARK 924 INTRA-LIGAND FREE ENERGY PREDICTED BY IDOCK:   12.98 KCAL/MOL
REMARK 927      BINDING AFFINITY PREDICTED BY RF-SCORE:    0.00 PKD
ROOT
HETATM    1  C   UNL     1      -7.360   7.792  71.377  1.00  0.00    -0.067 C  
HETATM    2  C   UNL     1      -7.873   7.019  70.170  1.00  0.00    -0.109 C  
ENDROOT
BRANCH   2   3
HETATM    3  C   UNL     1      -8.589   5.746  70.615  1.00  0.00    -0.132 C  
BRANCH   3   4
HETATM    4  C   UNL     1      -9.807   5.995  71.517  1.00  0.00    -0.168 C  
BRANCH   4   5
HETATM    5  N   UNL     1      -9.785   7.194  72.383  1.00  0.00    -0.149 NA 
BRANCH   5   6
HETATM    6  C   UNL     1     -10.375   6.919  73.712  1.00  0.00    -0.376 C  
BRANCH   6   7
HETATM    7  C   UNL     1      -9.912   5.619  74.405  1.00  0.00    -0.262 C  
BRANCH   7   8
HETATM    8  C   UNL     1     -10.926   4.472  74.398  1.00  0.00     0.093 C  
HETATM    9  C   UNL     1     -10.926   3.675  73.103  1.00  0.00    -0.228 C  
ENDBRANCH   7   8
ENDBRANCH   6   7
ENDBRANCH   5   6
BRANCH   5  10
HETATM   10  C   UNL     1      -8.377   7.662  72.524  1.00  0.00    -0.119 C  
BRANCH  10  11
HETATM   11  C   UNL     1      -8.114   8.799  73.562  1.00  0.00     0.353 C  
HETATM   12  O   UNL     1      -7.040   8.498  74.451  1.00  0.00    -0.198 OA 
HETATM   13  H   UNL     1      -6.879   9.190  75.082  1.00  0.00     0.000 HD 
BRANCH  11  14
HETATM   14  C   UNL     1      -7.902  10.143  72.883  1.00  0.00     5.700 A  
HETATM   15  C   UNL     1      -8.684  10.670  71.839  1.00  0.00     8.059 A  
HETATM   16 CL   UNL     1     -13.672   9.510  68.771  1.00  0.00     7.350 Cl 
HETATM   17  C   UNL     1     -11.535  10.979  69.513  1.00  0.00    -0.370 A  
HETATM   18  C   UNL     1      -8.429  11.999  71.382  1.00  0.00    12.741 A  
HETATM   19  C   UNL     1      -9.417  12.287  70.311  1.00  0.00     4.414 C  
HETATM   20  C   UNL     1      -7.444  12.795  71.948  1.00  0.00     9.565 A  
HETATM   21  C   UNL     1      -9.428  13.289  69.412  1.00  0.00     0.996 C  
HETATM   22  C   UNL     1     -10.363  11.150  70.236  1.00  0.00     1.048 A  
HETATM   23  C   UNL     1      -6.640  12.252  72.935  1.00  0.00     6.240 A  
HETATM   24  C   UNL     1      -9.848  10.147  71.096  1.00  0.00     1.261 A  
HETATM   25  C   UNL     1     -12.190   9.756  69.608  1.00  0.00     0.505 A  
HETATM   26 CL   UNL     1      -5.385  13.203  73.636  1.00  0.00     0.149 Cl 
HETATM   27  C   UNL     1      -6.856  10.951  73.393  1.00  0.00     5.674 A  
HETATM   28  C   UNL     1     -11.655   8.718  70.378  1.00  0.00    -0.105 A  
HETATM   29  C   UNL     1     -10.478   8.910  71.109  1.00  0.00    -0.336 A  
BRANCH  21  30
HETATM   30  C   UNL     1      -8.415  14.340  69.312  1.00  0.00     0.243 A  
HETATM   31  C   UNL     1      -6.526  16.389  69.413  1.00  0.00    -0.206 A  
HETATM   32 CL   UNL     1      -5.383  17.665  69.562  1.00  0.00    -0.186 Cl 
HETATM   33  C   UNL     1      -7.852  16.682  69.089  1.00  0.00    -0.170 A  
HETATM   34  C   UNL     1      -7.072  14.046  69.586  1.00  0.00     0.097 A  
HETATM   35  C   UNL     1      -6.131  15.075  69.644  1.00  0.00    -0.126 A  
HETATM   36  C   UNL     1      -8.798  15.656  69.034  1.00  0.00    -0.243 A  
ENDBRANCH  21  30
ENDBRANCH  11  14
ENDBRANCH  10  11
ENDBRANCH   5  10
ENDBRANCH   4   5
ENDBRANCH   3   4
ENDBRANCH   2   3
TORSDOF 10
ENDMDL
MODEL      196
REMARK 921   NORMALIZED FREE ENERGY PREDICTED BY IDOCK:   48.63 KCAL/MOL
REMARK 922        TOTAL FREE ENERGY PREDICTED BY IDOCK:   74.98 KCAL/MOL
REMARK 923 INTER-LIGAND FREE ENERGY PREDICTED BY IDOCK:   24.22 KCAL/MOL
REMARK 924 INTRA-LIGAND FREE ENERGY PREDICTED BY IDOCK:   50.76 KCAL/MOL
REMARK 927      BINDING AFFINITY PREDICTED BY RF-SCORE:    0.00 PKD
ROOT
HETATM    1  C   UNL     1     -11.587  10.150  70.427  1.00  0.00    -0.396 C  
HETATM    2  C   UNL     1     -12.939  10.724  70.030  1.00  0.00     0.042 C  
ENDROOT
BRANCH   2   3
HETATM    3  C   UNL     1     -12.784  11.707  68.871  1.00  0.00     1.059 C  
BRANCH   3   4
HETATM    4  C   UNL     1     -11.397  12.360  68.786  1.00  0.00    -0.293 C  
BRANCH   4   5
HETATM    5  N   UNL     1     -11.327  13.835  68.883  1.00  0.00    -0.270 NA 
BRANCH   5   6
HETATM    6  C   UNL     1      -9.931  14.309  69.005  1.00  0.00    -0.097 C  
BRANCH   6   7
HETATM    7  C   UNL     1      -9.492  15.397  68.000  1.00  0.00    -0.201 C  
BRANCH   7   8
HETATM    8  C   UNL     1     -10.538  16.474  67.698  1.00  0.00    -0.321 C  
HETATM    9  C   UNL     1     -10.265  17.234  66.411  1.00  0.00    -0.333 C  
ENDBRANCH   7   8
ENDBRANCH   6   7
ENDBRANCH   5   6
BRANCH   5  10
HETATM   10  C   UNL     1     -11.976  14.429  67.681  1.00  0.00    -0.343 C  
BRANCH  10  11
HETATM   11  C   UNL     1     -12.506  13.433  66.601  1.00  0.00    -0.153 C  
HETATM   12  O   UNL     1     -12.953  14.088  65.415  1.00  0.00    -0.726 OA 
HETATM   13  H   UNL     1     -13.274  13.482  64.758  1.00  0.00     0.000 HD 
BRANCH  11  14
HETATM   14  C   UNL     1     -11.481  12.356  66.279  1.00  0.00    -0.423 A  
HETATM   15  C   UNL     1     -10.343  12.047  67.045  1.00  0.00    -0.235 A  
HETATM   16 CL   UNL     1      -7.776  13.423  72.256  1.00  0.00     8.736 Cl 
HETATM   17  C   UNL     1      -8.059  12.059  69.946  1.00  0.00     2.035 A  
HETATM   18  C   UNL     1      -9.536  10.929  66.672  1.00  0.00    -0.204 A  
HETATM   19  C   UNL     1      -8.440  10.833  67.669  1.00  0.00    -0.119 C  
HETATM   20  C   UNL     1      -9.848  10.126  65.584  1.00  0.00    -0.347 A  
HETATM   21  C   UNL     1      -7.300  10.117  67.614  1.00  0.00    -0.089 C  
HETATM   22  C   UNL     1      -8.692  11.833  68.732  1.00  0.00     0.019 A  
HETATM   23  C   UNL     1     -10.936  10.469  64.799  1.00  0.00     0.582 A  
HETATM   24  C   UNL     1      -9.787  12.616  68.289  1.00  0.00    -0.227 A  
HETATM   25  C   UNL     1      -8.494  13.128  70.721  1.00  0.00     7.308 A  
HETATM   26 CL   UNL     1     -11.333   9.512  63.422  1.00  0.00     7.210 Cl 
HETATM   27  C   UNL     1     -11.736  11.564  65.131  1.00  0.00     0.081 A  
HETATM   28  C   UNL     1      -9.513  13.971  70.266  1.00  0.00     2.380 A  
HETATM   29  C   UNL     1     -10.147  13.723  69.045  1.00  0.00     0.005 A  
BRANCH  21  30
HETATM   30  C   UNL     1      -6.903   9.254  66.501  1.00  0.00    -0.080 A  
HETATM   31  C   UNL     1      -6.289   7.801  64.202  1.00  0.00    -0.057 A  
HETATM   32 CL   UNL     1      -5.961   6.963  62.736  1.00  0.00    -0.039 Cl 
HETATM   33  C   UNL     1      -7.436   7.491  64.933  1.00  0.00    -0.089 A  
HETATM   34  C   UNL     1      -5.726   9.526  65.790  1.00  0.00    -0.053 A  
HETATM   35  C   UNL     1      -5.426   8.802  64.635  1.00  0.00    -0.054 A  
HETATM   36  C   UNL     1      -7.743   8.216  66.088  1.00  0.00    -0.090 A  
ENDBRANCH  21  30
ENDBRANCH  11  14
ENDBRANCH  10  11
ENDBRANCH   5  10
ENDBRANCH   4   5
ENDBRANCH   3   4
ENDBRANCH   2   3
TORSDOF 10
ENDMDL
MODEL      197
REMARK 921   NORMALIZED FREE ENERGY PREDICTED BY IDOCK:   56.20 KCAL/MOL
REMARK 922        TOTAL FREE ENERGY PREDICTED BY IDOCK:   86.97 KCAL/MOL
REMARK 923 INTER-LIGAND FREE ENERGY PREDICTED BY IDOCK:   86.90 KCAL/MOL
REMARK 924 INTRA-LIGAND FREE ENERGY PREDICTED BY IDOCK:    0.08 KCAL/MOL
REMARK 927      BINDING AFFINITY PREDICTED BY RF-SCORE:    0.00 PKD
ROOT
HETATM    1  C   UNL     1      -5.146  14.695  62.855  1.00  0.00    12.963 C  
HETATM    2  C   UNL     1      -6.440  14.280  63.541  1.00  0.00    24.896 C  
ENDROOT
BRANCH   2   3
HETATM    3  C   UNL     1      -7.381  13.607  62.544  1.00  0.00    14.746 C  
BRANCH   3   4
HETATM    4  C   UNL     1      -8.365  12.616  63.182  1.00  0.00     4.871 C  
BRANCH   4   5
HETATM    5  N   UNL     1      -8.995  13.005  64.462  1.00  0.00     1.583 NA 
BRANCH   5   6
HETATM    6  C   UNL     1     -10.024  14.050  64.269  1.00  0.00     1.002 C  
BRANCH   6   7
HETATM    7  C   UNL     1      -9.706  15.437  64.871  1.00  0.00     0.428 C  
BRANCH   7   8
HETATM    8  C   UNL     1      -9.665  15.496  66.401  1.00  0.00    -0.306 C  
HETATM    9  C   UNL     1      -8.261  15.660  66.960  1.00  0.00    -0.268 C  
ENDBRANCH   7   8
ENDBRANCH   6   7
ENDBRANCH   5   6
BRANCH   5  10
HETATM   10  C   UNL     1      -9.594  11.794  65.093  1.00  0.00    -0.153 C  
BRANCH  10  11
HETATM   11  C   UNL     1      -8.616  10.830  65.836  1.00  0.00    -0.179 C  
HETATM   12  O   UNL     1      -8.406  11.196  67.199  1.00  0.00    -0.128 OA 
HETATM   13  H   UNL     1      -7.811  10.609  67.651  1.00  0.00     0.000 HD 
BRANCH  11  14
HETATM   14  C   UNL     1      -9.059   9.380  65.721  1.00  0.00    -0.249 A  
HETATM   15  C   UNL     1      -8.921   8.396  66.716  1.00  0.00    -0.172 A  
HETATM   16 CL   UNL     1      -7.255   7.800  72.417  1.00  0.00    -0.081 Cl 
HETATM   17  C   UNL     1      -8.273   6.972  70.060  1.00  0.00    -0.133 A  
HETATM   18  C   UNL     1      -9.492   7.104  66.500  1.00  0.00    -0.208 A  
HETATM   19  C   UNL     1      -9.217   6.300  67.718  1.00  0.00    -0.115 C  
HETATM   20  C   UNL     1     -10.194   6.794  65.344  1.00  0.00     2.125 A  
HETATM   21  C   UNL     1      -9.327   4.970  67.901  1.00  0.00    -0.147 C  
HETATM   22  C   UNL     1      -8.593   7.186  68.727  1.00  0.00    -0.125 A  
HETATM   23  C   UNL     1     -10.277   7.747  64.344  1.00  0.00     6.076 A  
HETATM   24  C   UNL     1      -8.337   8.416  68.071  1.00  0.00    -0.128 A  
HETATM   25  C   UNL     1      -7.630   7.995  70.750  1.00  0.00    -0.077 A  
HETATM   26 CL   UNL     1     -11.113   7.382  62.882  1.00  0.00    13.219 Cl 
HETATM   27  C   UNL     1      -9.717   9.014  64.520  1.00  0.00     0.978 A  
HETATM   28  C   UNL     1      -7.285   9.185  70.102  1.00  0.00    -0.070 A  
HETATM   29  C   UNL     1      -7.625   9.388  68.761  1.00  0.00    -0.079 A  
BRANCH  21  30
HETATM   30  C   UNL     1      -9.757   4.014  66.880  1.00  0.00    -0.215 A  
HETATM   31  C   UNL     1     -10.512   2.401  64.734  1.00  0.00     0.788 A  
HETATM   32 CL   UNL     1     -10.961   1.476  63.355  1.00  0.00    -0.167 Cl 
HETATM   33  C   UNL     1     -11.464   3.197  65.373  1.00  0.00     4.040 A  
HETATM   34  C   UNL     1      -8.817   3.174  66.267  1.00  0.00    -0.143 A  
HETATM   35  C   UNL     1      -9.197   2.374  65.187  1.00  0.00    -0.110 A  
HETATM   36  C   UNL     1     -11.088   4.002  66.451  1.00  0.00     2.435 A  
ENDBRANCH  21  30
ENDBRANCH  11  14
ENDBRANCH  10  11
ENDBRANCH   5  10
ENDBRANCH   4   5
ENDBRANCH   3   4
ENDBRANCH   2   3
TORSDOF 10
ENDMDL
