MODEL        1
REMARK 921   NORMALIZED FREE ENERGY PREDICTED BY IDOCK:   -7.33 KCAL/MOL
REMARK 922        TOTAL FREE ENERGY PREDICTED BY IDOCK:   -8.84 KCAL/MOL
REMARK 923 INTER-LIGAND FREE ENERGY PREDICTED BY IDOCK:   -8.61 KCAL/MOL
REMARK 924 INTRA-LIGAND FREE ENERGY PREDICTED BY IDOCK:   -0.23 KCAL/MOL
REMARK 927      BINDING AFFINITY PREDICTED BY RF-SCORE:    0.00 PKD
ROOT
HETATM    1  C   UNL     1     -10.493   9.256  67.023  1.00  0.00    -0.303 C  
HETATM    2  C   UNL     1     -10.862  10.555  67.678  1.00  0.00    -0.355 A  
HETATM    3  C   UNL     1     -11.024  10.638  69.057  1.00  0.00    -0.295 A  
HETATM    4  C   UNL     1     -11.509  11.805  69.635  1.00  0.00    -0.341 A  
HETATM    5  C   UNL     1     -11.885  12.900  68.843  1.00  0.00    -0.309 A  
HETATM    6  C   UNL     1     -11.580  12.887  67.469  1.00  0.00    -0.409 A  
HETATM    7  C   UNL     1     -11.071  11.703  66.901  1.00  0.00    -0.365 A  
ENDROOT
BRANCH   5   8
HETATM    8  N   UNL     1     -12.660  13.955  69.384  1.00  0.00    -0.332 NA 
HETATM    9  H   UNL     1     -13.404  14.328  68.795  1.00  0.00     0.000 HD 
BRANCH   8  10
HETATM   10  C   UNL     1     -12.498  14.544  70.672  1.00  0.00    -0.343 A  
HETATM   11  F   UNL     1     -13.766  12.771  71.597  1.00  0.00    -0.382 F  
HETATM   12  C   UNL     1     -13.127  13.939  71.771  1.00  0.00    -0.377 A  
HETATM   13  C   UNL     1     -11.762  15.721  70.926  1.00  0.00    -0.406 A  
HETATM   14 CL   UNL     1     -10.693  16.434  69.761  1.00  0.00    -0.334 Cl 
HETATM   15  C   UNL     1     -11.803  16.338  72.185  1.00  0.00    -0.585 A  
HETATM   16  C   UNL     1     -13.134  14.524  73.037  1.00  0.00    -0.611 A  
HETATM   17  C   UNL     1     -12.504  15.748  73.235  1.00  0.00    -0.619 A  
ENDBRANCH   8  10
ENDBRANCH   5   8
BRANCH   6  18
HETATM   18  C   UNL     1     -11.814  14.085  66.573  1.00  0.00    -0.439 C  
HETATM   19  O   UNL     1     -12.834  14.839  64.543  1.00  0.00    -0.525 OA 
HETATM   20  C   UNL     1     -12.642  13.912  65.320  1.00  0.00    -0.478 C  
HETATM   21  O   UNL     1     -13.160  12.689  65.073  1.00  0.00    -0.808 OA 
ENDBRANCH   6  18
TORSDOF 3
ENDMDL
MODEL        2
REMARK 921   NORMALIZED FREE ENERGY PREDICTED BY IDOCK:   -7.17 KCAL/MOL
REMARK 922        TOTAL FREE ENERGY PREDICTED BY IDOCK:   -8.65 KCAL/MOL
REMARK 923 INTER-LIGAND FREE ENERGY PREDICTED BY IDOCK:   -7.86 KCAL/MOL
REMARK 924 INTRA-LIGAND FREE ENERGY PREDICTED BY IDOCK:   -0.79 KCAL/MOL
REMARK 927      BINDING AFFINITY PREDICTED BY RF-SCORE:    0.00 PKD
ROOT
HETATM    1  C   UNL     1      -7.294  17.050  66.340  1.00  0.00    -0.328 C  
HETATM    2  C   UNL     1      -8.685  16.557  66.613  1.00  0.00    -0.286 A  
HETATM    3  C   UNL     1      -9.379  16.972  67.745  1.00  0.00    -0.237 A  
HETATM    4  C   UNL     1     -10.603  16.396  68.065  1.00  0.00    -0.314 A  
HETATM    5  C   UNL     1     -11.139  15.362  67.283  1.00  0.00    -0.302 A  
HETATM    6  C   UNL     1     -10.528  15.044  66.057  1.00  0.00    -0.326 A  
HETATM    7  C   UNL     1      -9.297  15.650  65.738  1.00  0.00    -0.303 A  
ENDROOT
BRANCH   5   8
HETATM    8  N   UNL     1     -12.208  14.568  67.765  1.00  0.00    -0.623 NA 
HETATM    9  H   UNL     1     -13.102  14.657  67.283  1.00  0.00     0.000 HD 
BRANCH   8  10
HETATM   10  C   UNL     1     -12.154  13.657  68.860  1.00  0.00    -0.300 A  
HETATM   11  F   UNL     1     -11.365  11.987  67.378  1.00  0.00    -0.290 F  
HETATM   12  C   UNL     1     -11.771  12.329  68.610  1.00  0.00    -0.328 A  
HETATM   13  C   UNL     1     -12.483  13.986  70.193  1.00  0.00    -0.319 A  
HETATM   14 CL   UNL     1     -12.693  15.620  70.734  1.00  0.00    -0.502 Cl 
HETATM   15  C   UNL     1     -12.582  12.991  71.176  1.00  0.00    -0.388 A  
HETATM   16  C   UNL     1     -11.825  11.344  69.596  1.00  0.00    -0.431 A  
HETATM   17  C   UNL     1     -12.270  11.668  70.873  1.00  0.00    -0.401 A  
ENDBRANCH   8  10
ENDBRANCH   5   8
BRANCH   6  18
HETATM   18  C   UNL     1     -11.125  14.048  65.085  1.00  0.00    -0.341 C  
HETATM   19  O   UNL     1     -12.596  13.780  63.215  1.00  0.00    -0.830 OA 
HETATM   20  C   UNL     1     -12.059  14.547  64.005  1.00  0.00    -0.240 C  
HETATM   21  O   UNL     1     -12.296  15.875  63.944  1.00  0.00    -0.776 OA 
ENDBRANCH   6  18
TORSDOF 3
ENDMDL
MODEL        3
REMARK 921   NORMALIZED FREE ENERGY PREDICTED BY IDOCK:   -7.07 KCAL/MOL
REMARK 922        TOTAL FREE ENERGY PREDICTED BY IDOCK:   -8.54 KCAL/MOL
REMARK 923 INTER-LIGAND FREE ENERGY PREDICTED BY IDOCK:   -7.68 KCAL/MOL
REMARK 924 INTRA-LIGAND FREE ENERGY PREDICTED BY IDOCK:   -0.86 KCAL/MOL
REMARK 927      BINDING AFFINITY PREDICTED BY RF-SCORE:    0.00 PKD
ROOT
HETATM    1  C   UNL     1     -11.754  12.702  63.862  1.00  0.00    -0.532 C  
HETATM    2  C   UNL     1     -11.814  12.817  65.357  1.00  0.00    -0.456 A  
HETATM    3  C   UNL     1     -12.181  14.013  65.966  1.00  0.00    -0.484 A  
HETATM    4  C   UNL     1     -12.091  14.152  67.346  1.00  0.00    -0.379 A  
HETATM    5  C   UNL     1     -11.589  13.112  68.143  1.00  0.00    -0.339 A  
HETATM    6  C   UNL     1     -11.365  11.851  67.562  1.00  0.00    -0.381 A  
HETATM    7  C   UNL     1     -11.479  11.721  66.164  1.00  0.00    -0.288 A  
ENDROOT
BRANCH   5   8
HETATM    8  N   UNL     1     -11.204  13.349  69.485  1.00  0.00    -0.449 NA 
HETATM    9  H   UNL     1     -10.239  13.130  69.733  1.00  0.00     0.000 HD 
BRANCH   8  10
HETATM   10  C   UNL     1     -12.036  13.864  70.523  1.00  0.00    -0.314 A  
HETATM   11  F   UNL     1     -12.596  11.641  71.119  1.00  0.00    -0.434 F  
HETATM   12  C   UNL     1     -12.776  12.958  71.300  1.00  0.00    -0.278 A  
HETATM   13  C   UNL     1     -12.194  15.235  70.816  1.00  0.00    -0.360 A  
HETATM   14 CL   UNL     1     -11.155  16.462  70.165  1.00  0.00    -0.348 Cl 
HETATM   15  C   UNL     1     -13.168  15.669  71.726  1.00  0.00    -0.548 A  
HETATM   16  C   UNL     1     -13.715  13.384  72.240  1.00  0.00    -0.705 A  
HETATM   17  C   UNL     1     -13.941  14.744  72.424  1.00  0.00    -0.575 A  
ENDBRANCH   8  10
ENDBRANCH   5   8
BRANCH   6  18
HETATM   18  C   UNL     1     -10.968  10.638  68.378  1.00  0.00    -0.303 C  
HETATM   19  O   UNL     1      -9.160   9.542  69.500  1.00  0.00    -0.160 OA 
HETATM   20  C   UNL     1      -9.542  10.518  68.865  1.00  0.00    -0.193 C  
HETATM   21  O   UNL     1      -8.689  11.522  68.568  1.00  0.00    -0.154 OA 
ENDBRANCH   6  18
TORSDOF 3
ENDMDL
MODEL        4
REMARK 921   NORMALIZED FREE ENERGY PREDICTED BY IDOCK:   -7.06 KCAL/MOL
REMARK 922        TOTAL FREE ENERGY PREDICTED BY IDOCK:   -8.53 KCAL/MOL
REMARK 923 INTER-LIGAND FREE ENERGY PREDICTED BY IDOCK:   -8.06 KCAL/MOL
REMARK 924 INTRA-LIGAND FREE ENERGY PREDICTED BY IDOCK:   -0.47 KCAL/MOL
REMARK 927      BINDING AFFINITY PREDICTED BY RF-SCORE:    0.00 PKD
ROOT
HETATM    1  C   UNL     1      -9.903  10.220  64.681  1.00  0.00    -0.396 C  
HETATM    2  C   UNL     1     -10.312  11.318  65.620  1.00  0.00    -0.310 A  
HETATM    3  C   UNL     1     -10.811  11.024  66.885  1.00  0.00    -0.324 A  
HETATM    4  C   UNL     1     -11.325  12.038  67.686  1.00  0.00    -0.375 A  
HETATM    5  C   UNL     1     -11.391  13.360  67.222  1.00  0.00    -0.319 A  
HETATM    6  C   UNL     1     -10.750  13.694  66.015  1.00  0.00    -0.280 A  
HETATM    7  C   UNL     1     -10.217  12.658  65.223  1.00  0.00    -0.302 A  
ENDROOT
BRANCH   5   8
HETATM    8  N   UNL     1     -12.184  14.324  67.890  1.00  0.00    -0.595 NA 
HETATM    9  H   UNL     1     -12.990  14.688  67.384  1.00  0.00     0.000 HD 
BRANCH   8  10
HETATM   10  C   UNL     1     -11.960  14.835  69.203  1.00  0.00    -0.282 A  
HETATM   11  F   UNL     1     -12.894  12.848  70.089  1.00  0.00    -0.116 F  
HETATM   12  C   UNL     1     -12.390  14.073  70.301  1.00  0.00    -0.358 A  
HETATM   13  C   UNL     1     -11.353  16.077  69.486  1.00  0.00    -0.344 A  
HETATM   14 CL   UNL     1     -10.510  17.006  68.288  1.00  0.00    -0.344 Cl 
HETATM   15  C   UNL     1     -11.336  16.589  70.791  1.00  0.00    -0.064 A  
HETATM   16  C   UNL     1     -12.335  14.560  71.607  1.00  0.00    -0.420 A  
HETATM   17  C   UNL     1     -11.844  15.838  71.848  1.00  0.00    -0.568 A  
ENDBRANCH   8  10
ENDBRANCH   5   8
BRANCH   6  18
HETATM   18  C   UNL     1     -10.644  15.121  65.518  1.00  0.00    -0.383 C  
HETATM   19  O   UNL     1     -11.571  16.745  64.024  1.00  0.00    -1.195 OA 
HETATM   20  C   UNL     1     -11.632  15.612  64.484  1.00  0.00    -0.262 C  
HETATM   21  O   UNL     1     -12.587  14.752  64.070  1.00  0.00    -0.822 OA 
ENDBRANCH   6  18
TORSDOF 3
ENDMDL
MODEL        5
REMARK 921   NORMALIZED FREE ENERGY PREDICTED BY IDOCK:   -7.04 KCAL/MOL
REMARK 922        TOTAL FREE ENERGY PREDICTED BY IDOCK:   -8.50 KCAL/MOL
REMARK 923 INTER-LIGAND FREE ENERGY PREDICTED BY IDOCK:   -7.84 KCAL/MOL
REMARK 924 INTRA-LIGAND FREE ENERGY PREDICTED BY IDOCK:   -0.65 KCAL/MOL
REMARK 927      BINDING AFFINITY PREDICTED BY RF-SCORE:    0.00 PKD
ROOT
HETATM    1  C   UNL     1     -10.566  17.018  68.290  1.00  0.00    -0.372 C  
HETATM    2  C   UNL     1     -11.187  15.653  68.368  1.00  0.00    -0.352 A  
HETATM    3  C   UNL     1     -11.692  15.168  69.570  1.00  0.00    -0.351 A  
HETATM    4  C   UNL     1     -12.128  13.851  69.665  1.00  0.00    -0.404 A  
HETATM    5  C   UNL     1     -12.027  12.979  68.571  1.00  0.00    -0.261 A  
HETATM    6  C   UNL     1     -11.667  13.496  67.314  1.00  0.00    -0.423 A  
HETATM    7  C   UNL     1     -11.246  14.838  67.230  1.00  0.00    -0.351 A  
ENDROOT
BRANCH   5   8
HETATM    8  N   UNL     1     -12.170  11.580  68.744  1.00  0.00    -0.443 NA 
HETATM    9  H   UNL     1     -12.911  11.124  68.211  1.00  0.00     0.000 HD 
BRANCH   8  10
HETATM   10  C   UNL     1     -11.379  10.750  69.590  1.00  0.00    -0.294 A  
HETATM   11  F   UNL     1      -9.663  10.794  67.959  1.00  0.00    -0.153 F  
HETATM   12  C   UNL     1     -10.123  10.323  69.128  1.00  0.00    -0.218 A  
HETATM   13  C   UNL     1     -11.776  10.298  70.867  1.00  0.00    -0.379 A  
HETATM   14 CL   UNL     1     -13.144  10.948  71.711  1.00  0.00    -0.586 Cl 
HETATM   15  C   UNL     1     -11.023   9.337  71.557  1.00  0.00    -0.446 A  
HETATM   16  C   UNL     1      -9.348   9.401  69.831  1.00  0.00    -0.234 A  
HETATM   17  C   UNL     1      -9.819   8.876  71.030  1.00  0.00    -0.321 A  
ENDBRANCH   8  10
ENDBRANCH   5   8
BRANCH   6  18
HETATM   18  C   UNL     1     -11.680  12.655  66.054  1.00  0.00    -0.470 C  
HETATM   19  O   UNL     1     -12.693  12.369  63.904  1.00  0.00    -0.673 OA 
HETATM   20  C   UNL     1     -12.618  13.034  64.930  1.00  0.00    -0.428 C  
HETATM   21  O   UNL     1     -13.387  14.131  65.096  1.00  0.00    -0.684 OA 
ENDBRANCH   6  18
TORSDOF 3
ENDMDL
MODEL        6
REMARK 921   NORMALIZED FREE ENERGY PREDICTED BY IDOCK:   -7.00 KCAL/MOL
REMARK 922        TOTAL FREE ENERGY PREDICTED BY IDOCK:   -8.46 KCAL/MOL
REMARK 923 INTER-LIGAND FREE ENERGY PREDICTED BY IDOCK:   -7.92 KCAL/MOL
REMARK 924 INTRA-LIGAND FREE ENERGY PREDICTED BY IDOCK:   -0.54 KCAL/MOL
REMARK 927      BINDING AFFINITY PREDICTED BY RF-SCORE:    0.00 PKD
ROOT
HETATM    1  C   UNL     1     -10.638  16.672  68.555  1.00  0.00    -0.338 C  
HETATM    2  C   UNL     1     -11.233  15.294  68.576  1.00  0.00    -0.308 A  
HETATM    3  C   UNL     1     -11.690  14.734  69.765  1.00  0.00    -0.354 A  
HETATM    4  C   UNL     1     -12.101  13.406  69.799  1.00  0.00    -0.374 A  
HETATM    5  C   UNL     1     -12.020  12.597  68.656  1.00  0.00    -0.223 A  
HETATM    6  C   UNL     1     -11.710  13.190  67.418  1.00  0.00    -0.419 A  
HETATM    7  C   UNL     1     -11.315  14.542  67.397  1.00  0.00    -0.370 A  
ENDROOT
BRANCH   5   8
HETATM    8  N   UNL     1     -12.135  11.189  68.754  1.00  0.00    -0.642 NA 
HETATM    9  H   UNL     1     -12.790  10.735  68.117  1.00  0.00     0.000 HD 
BRANCH   8  10
HETATM   10  C   UNL     1     -11.423  10.346  69.657  1.00  0.00    -0.262 A  
HETATM   11  F   UNL     1     -13.414  10.079  70.911  1.00  0.00    -0.441 F  
HETATM   12  C   UNL     1     -12.100   9.844  70.781  1.00  0.00    -0.308 A  
HETATM   13  C   UNL     1     -10.064   9.993  69.520  1.00  0.00    -0.227 A  
HETATM   14 CL   UNL     1      -9.161  10.276  68.067  1.00  0.00    -0.131 Cl 
HETATM   15  C   UNL     1      -9.390   9.314  70.545  1.00  0.00    -0.316 A  
HETATM   16  C   UNL     1     -11.444   9.129  71.783  1.00  0.00    -0.452 A  
HETATM   17  C   UNL     1     -10.076   8.899  71.684  1.00  0.00    -0.411 A  
ENDBRANCH   8  10
ENDBRANCH   5   8
BRANCH   6  18
HETATM   18  C   UNL     1     -11.750  12.420  66.114  1.00  0.00    -0.460 C  
HETATM   19  O   UNL     1     -12.747  12.304  63.941  1.00  0.00    -0.668 OA 
HETATM   20  C   UNL     1     -12.651  12.908  65.003  1.00  0.00    -0.472 C  
HETATM   21  O   UNL     1     -13.364  14.034  65.220  1.00  0.00    -0.741 OA 
ENDBRANCH   6  18
TORSDOF 3
ENDMDL
MODEL        7
REMARK 921   NORMALIZED FREE ENERGY PREDICTED BY IDOCK:   -6.97 KCAL/MOL
REMARK 922        TOTAL FREE ENERGY PREDICTED BY IDOCK:   -8.42 KCAL/MOL
REMARK 923 INTER-LIGAND FREE ENERGY PREDICTED BY IDOCK:   -7.69 KCAL/MOL
REMARK 924 INTRA-LIGAND FREE ENERGY PREDICTED BY IDOCK:   -0.73 KCAL/MOL
REMARK 927      BINDING AFFINITY PREDICTED BY RF-SCORE:    0.00 PKD
ROOT
HETATM    1  C   UNL     1     -11.677  12.539  63.777  1.00  0.00    -0.564 C  
HETATM    2  C   UNL     1     -11.761  12.713  65.266  1.00  0.00    -0.417 A  
HETATM    3  C   UNL     1     -12.312  13.864  65.819  1.00  0.00    -0.518 A  
HETATM    4  C   UNL     1     -12.249  14.079  67.192  1.00  0.00    -0.356 A  
HETATM    5  C   UNL     1     -11.595  13.169  68.034  1.00  0.00    -0.334 A  
HETATM    6  C   UNL     1     -11.175  11.932  67.511  1.00  0.00    -0.359 A  
HETATM    7  C   UNL     1     -11.262  11.722  66.122  1.00  0.00    -0.363 A  
ENDROOT
BRANCH   5   8
HETATM    8  N   UNL     1     -11.256  13.525  69.363  1.00  0.00    -0.407 NA 
HETATM    9  H   UNL     1     -10.263  13.573  69.588  1.00  0.00     0.000 HD 
BRANCH   8  10
HETATM   10  C   UNL     1     -12.172  13.821  70.415  1.00  0.00    -0.363 A  
HETATM   11  F   UNL     1     -12.149  16.090  69.740  1.00  0.00    -0.327 F  
HETATM   12  C   UNL     1     -12.560  15.156  70.611  1.00  0.00    -0.395 A  
HETATM   13  C   UNL     1     -12.706  12.863  71.304  1.00  0.00    -0.278 A  
HETATM   14 CL   UNL     1     -12.571  11.155  71.039  1.00  0.00    -0.490 Cl 
HETATM   15  C   UNL     1     -13.453  13.258  72.423  1.00  0.00    -0.670 A  
HETATM   16  C   UNL     1     -13.341  15.549  71.698  1.00  0.00    -0.585 A  
HETATM   17  C   UNL     1     -13.754  14.602  72.629  1.00  0.00    -0.545 A  
ENDBRANCH   8  10
ENDBRANCH   5   8
BRANCH   6  18
HETATM   18  C   UNL     1     -10.598  10.835  68.382  1.00  0.00    -0.228 C  
HETATM   19  O   UNL     1      -8.622  10.043  69.476  1.00  0.00    -0.162 OA 
HETATM   20  C   UNL     1      -9.147  10.919  68.801  1.00  0.00    -0.171 C  
HETATM   21  O   UNL     1      -8.438  11.995  68.397  1.00  0.00    -0.163 OA 
ENDBRANCH   6  18
TORSDOF 3
ENDMDL
MODEL        8
REMARK 921   NORMALIZED FREE ENERGY PREDICTED BY IDOCK:   -6.85 KCAL/MOL
REMARK 922        TOTAL FREE ENERGY PREDICTED BY IDOCK:   -8.28 KCAL/MOL
REMARK 923 INTER-LIGAND FREE ENERGY PREDICTED BY IDOCK:   -7.51 KCAL/MOL
REMARK 924 INTRA-LIGAND FREE ENERGY PREDICTED BY IDOCK:   -0.77 KCAL/MOL
REMARK 927      BINDING AFFINITY PREDICTED BY RF-SCORE:    0.00 PKD
ROOT
HETATM    1  C   UNL     1      -6.499  16.233  67.276  1.00  0.00    -0.223 C  
HETATM    2  C   UNL     1      -7.979  16.154  67.514  1.00  0.00    -0.171 A  
HETATM    3  C   UNL     1      -8.514  16.424  68.769  1.00  0.00    -0.249 A  
HETATM    4  C   UNL     1      -9.865  16.204  69.016  1.00  0.00    -0.245 A  
HETATM    5  C   UNL     1     -10.700  15.668  68.024  1.00  0.00    -0.287 A  
HETATM    6  C   UNL     1     -10.209  15.540  66.712  1.00  0.00    -0.282 A  
HETATM    7  C   UNL     1      -8.843  15.785  66.474  1.00  0.00    -0.345 A  
ENDROOT
BRANCH   5   8
HETATM    8  N   UNL     1     -11.978  15.154  68.353  1.00  0.00    -0.549 NA 
HETATM    9  H   UNL     1     -12.778  15.568  67.873  1.00  0.00     0.000 HD 
BRANCH   8  10
HETATM   10  C   UNL     1     -12.254  14.115  69.290  1.00  0.00    -0.269 A  
HETATM   11  F   UNL     1     -13.238  15.724  70.721  1.00  0.00    -0.523 F  
HETATM   12  C   UNL     1     -12.849  14.457  70.515  1.00  0.00    -0.294 A  
HETATM   13  C   UNL     1     -11.948  12.753  69.087  1.00  0.00    -0.246 A  
HETATM   14 CL   UNL     1     -11.485  12.112  67.543  1.00  0.00    -0.386 Cl 
HETATM   15  C   UNL     1     -12.081  11.822  70.127  1.00  0.00    -0.398 A  
HETATM   16  C   UNL     1     -13.025  13.526  71.538  1.00  0.00    -0.440 A  
HETATM   17  C   UNL     1     -12.602  12.213  71.358  1.00  0.00    -0.314 A  
ENDBRANCH   8  10
ENDBRANCH   5   8
BRANCH   6  18
HETATM   18  C   UNL     1     -11.087  15.113  65.554  1.00  0.00    -0.347 C  
HETATM   19  O   UNL     1     -12.243  15.862  63.596  1.00  0.00    -0.681 OA 
HETATM   20  C   UNL     1     -11.506  16.146  64.532  1.00  0.00    -0.230 C  
HETATM   21  O   UNL     1     -11.050  17.407  64.691  1.00  0.00    -1.029 OA 
ENDBRANCH   6  18
TORSDOF 3
ENDMDL
MODEL        9
REMARK 921   NORMALIZED FREE ENERGY PREDICTED BY IDOCK:   -6.84 KCAL/MOL
REMARK 922        TOTAL FREE ENERGY PREDICTED BY IDOCK:   -8.27 KCAL/MOL
REMARK 923 INTER-LIGAND FREE ENERGY PREDICTED BY IDOCK:   -7.53 KCAL/MOL
REMARK 924 INTRA-LIGAND FREE ENERGY PREDICTED BY IDOCK:   -0.74 KCAL/MOL
REMARK 927      BINDING AFFINITY PREDICTED BY RF-SCORE:    0.00 PKD
ROOT
HETATM    1  C   UNL     1     -11.807  13.786  64.007  1.00  0.00    -0.410 C  
HETATM    2  C   UNL     1     -11.418  13.632  65.449  1.00  0.00    -0.322 A  
HETATM    3  C   UNL     1     -11.995  12.645  66.241  1.00  0.00    -0.439 A  
HETATM    4  C   UNL     1     -11.739  12.607  67.607  1.00  0.00    -0.420 A  
HETATM    5  C   UNL     1     -10.936  13.581  68.217  1.00  0.00    -0.258 A  
HETATM    6  C   UNL     1     -10.223  14.485  67.408  1.00  0.00    -0.240 A  
HETATM    7  C   UNL     1     -10.479  14.499  66.024  1.00  0.00    -0.315 A  
ENDROOT
BRANCH   5   8
HETATM    8  N   UNL     1     -10.924  13.733  69.625  1.00  0.00    -0.459 NA 
HETATM    9  H   UNL     1     -10.012  13.723  70.082  1.00  0.00     0.000 HD 
BRANCH   8  10
HETATM   10  C   UNL     1     -12.065  13.899  70.464  1.00  0.00    -0.356 A  
HETATM   11  F   UNL     1     -12.056  16.211  69.948  1.00  0.00    -0.301 F  
HETATM   12  C   UNL     1     -12.580  15.193  70.648  1.00  0.00    -0.395 A  
HETATM   13  C   UNL     1     -12.711  12.851  71.154  1.00  0.00    -0.276 A  
HETATM   14 CL   UNL     1     -12.400  11.177  70.824  1.00  0.00    -0.476 Cl 
HETATM   15  C   UNL     1     -13.709  13.120  72.101  1.00  0.00    -0.588 A  
HETATM   16  C   UNL     1     -13.604  15.460  71.557  1.00  0.00    -0.604 A  
HETATM   17  C   UNL     1     -14.142  14.426  72.316  1.00  0.00    -0.609 A  
ENDBRANCH   8  10
ENDBRANCH   5   8
BRANCH   6  18
HETATM   18  C   UNL     1      -9.220  15.468  67.976  1.00  0.00    -0.187 C  
HETATM   19  O   UNL     1      -8.767  17.783  68.386  1.00  0.00    -0.279 OA 
HETATM   20  C   UNL     1      -9.556  16.943  67.970  1.00  0.00    -0.247 C  
HETATM   21  O   UNL     1     -10.758  17.311  67.478  1.00  0.00    -0.345 OA 
ENDBRANCH   6  18
TORSDOF 3
ENDMDL
MODEL       10
REMARK 921   NORMALIZED FREE ENERGY PREDICTED BY IDOCK:   -6.75 KCAL/MOL
REMARK 922        TOTAL FREE ENERGY PREDICTED BY IDOCK:   -8.17 KCAL/MOL
REMARK 923 INTER-LIGAND FREE ENERGY PREDICTED BY IDOCK:   -7.25 KCAL/MOL
REMARK 924 INTRA-LIGAND FREE ENERGY PREDICTED BY IDOCK:   -0.92 KCAL/MOL
REMARK 927      BINDING AFFINITY PREDICTED BY RF-SCORE:    0.00 PKD
ROOT
HETATM    1  C   UNL     1      -8.057  15.759  66.844  1.00  0.00    -0.292 C  
HETATM    2  C   UNL     1      -9.256  14.919  67.176  1.00  0.00    -0.231 A  
HETATM    3  C   UNL     1      -9.776  14.899  68.465  1.00  0.00    -0.215 A  
HETATM    4  C   UNL     1     -10.791  14.007  68.795  1.00  0.00    -0.279 A  
HETATM    5  C   UNL     1     -11.275  13.086  67.854  1.00  0.00    -0.271 A  
HETATM    6  C   UNL     1     -10.870  13.203  66.512  1.00  0.00    -0.291 A  
HETATM    7  C   UNL     1      -9.855  14.124  66.190  1.00  0.00    -0.326 A  
ENDROOT
BRANCH   5   8
HETATM    8  N   UNL     1     -12.069  11.985  68.259  1.00  0.00    -0.421 NA 
HETATM    9  H   UNL     1     -12.998  11.910  67.844  1.00  0.00     0.000 HD 
BRANCH   8  10
HETATM   10  C   UNL     1     -11.694  10.974  69.191  1.00  0.00    -0.333 A  
HETATM   11  F   UNL     1     -10.446   9.917  67.478  1.00  0.00    -0.231 F  
HETATM   12  C   UNL     1     -10.909   9.901  68.738  1.00  0.00    -0.208 A  
HETATM   13  C   UNL     1     -12.078  10.954  70.549  1.00  0.00    -0.371 A  
HETATM   14 CL   UNL     1     -12.792  12.320  71.344  1.00  0.00    -0.437 Cl 
HETATM   15  C   UNL     1     -11.824   9.834  71.353  1.00  0.00    -0.488 A  
HETATM   16  C   UNL     1     -10.614   8.804  69.547  1.00  0.00    -0.224 A  
HETATM   17  C   UNL     1     -11.108   8.752  70.846  1.00  0.00    -0.320 A  
ENDBRANCH   8  10
ENDBRANCH   5   8
BRANCH   6  18
HETATM   18  C   UNL     1     -11.458  12.348  65.408  1.00  0.00    -0.402 C  
HETATM   19  O   UNL     1     -13.257  12.142  63.842  1.00  0.00    -0.748 OA 
HETATM   20  C   UNL     1     -12.721  12.811  64.717  1.00  0.00    -0.393 C  
HETATM   21  O   UNL     1     -13.252  13.991  65.104  1.00  0.00    -0.768 OA 
ENDBRANCH   6  18
TORSDOF 3
ENDMDL
MODEL       11
REMARK 921   NORMALIZED FREE ENERGY PREDICTED BY IDOCK:   -6.70 KCAL/MOL
REMARK 922        TOTAL FREE ENERGY PREDICTED BY IDOCK:   -8.10 KCAL/MOL
REMARK 923 INTER-LIGAND FREE ENERGY PREDICTED BY IDOCK:   -7.27 KCAL/MOL
REMARK 924 INTRA-LIGAND FREE ENERGY PREDICTED BY IDOCK:   -0.83 KCAL/MOL
REMARK 927      BINDING AFFINITY PREDICTED BY RF-SCORE:    0.00 PKD
ROOT
HETATM    1  C   UNL     1     -11.609  11.749  67.759  1.00  0.00    -0.374 C  
HETATM    2  C   UNL     1     -11.591  13.215  68.082  1.00  0.00    -0.375 A  
HETATM    3  C   UNL     1     -11.545  14.167  67.069  1.00  0.00    -0.404 A  
HETATM    4  C   UNL     1     -11.379  15.512  67.381  1.00  0.00    -0.203 A  
HETATM    5  C   UNL     1     -11.211  15.928  68.710  1.00  0.00    -0.359 A  
HETATM    6  C   UNL     1     -11.412  15.000  69.748  1.00  0.00    -0.324 A  
HETATM    7  C   UNL     1     -11.599  13.644  69.416  1.00  0.00    -0.368 A  
ENDROOT
BRANCH   5   8
HETATM    8  N   UNL     1     -10.736  17.228  69.009  1.00  0.00    -0.326 NA 
HETATM    9  H   UNL     1     -11.115  17.677  69.842  1.00  0.00     0.000 HD 
BRANCH   8  10
HETATM   10  C   UNL     1      -9.778  17.968  68.255  1.00  0.00    -0.330 A  
HETATM   11  F   UNL     1     -11.490  19.487  67.649  1.00  0.00    -0.388 F  
HETATM   12  C   UNL     1     -10.216  19.086  67.527  1.00  0.00    -0.394 A  
HETATM   13  C   UNL     1      -8.407  17.644  68.164  1.00  0.00    -0.259 A  
HETATM   14 CL   UNL     1      -7.642  16.490  69.209  1.00  0.00    -0.211 Cl 
HETATM   15  C   UNL     1      -7.569  18.310  67.259  1.00  0.00    -0.226 A  
HETATM   16  C   UNL     1      -9.374  19.781  66.658  1.00  0.00    -0.483 A  
HETATM   17  C   UNL     1      -8.057  19.366  66.493  1.00  0.00    -0.315 A  
ENDBRANCH   8  10
ENDBRANCH   5   8
BRANCH   6  18
HETATM   18  C   UNL     1     -11.399  15.398  71.209  1.00  0.00    -0.441 C  
HETATM   19  O   UNL     1     -12.742  16.140  73.047  1.00  0.00    -0.453 OA 
HETATM   20  C   UNL     1     -12.701  15.778  71.877  1.00  0.00    -0.451 C  
HETATM   21  O   UNL     1     -13.829  15.715  71.137  1.00  0.00    -0.583 OA 
ENDBRANCH   6  18
TORSDOF 3
ENDMDL
MODEL       12
REMARK 921   NORMALIZED FREE ENERGY PREDICTED BY IDOCK:   -6.69 KCAL/MOL
REMARK 922        TOTAL FREE ENERGY PREDICTED BY IDOCK:   -8.08 KCAL/MOL
REMARK 923 INTER-LIGAND FREE ENERGY PREDICTED BY IDOCK:   -7.33 KCAL/MOL
REMARK 924 INTRA-LIGAND FREE ENERGY PREDICTED BY IDOCK:   -0.76 KCAL/MOL
REMARK 927      BINDING AFFINITY PREDICTED BY RF-SCORE:    0.00 PKD
ROOT
HETATM    1  C   UNL     1      -9.309   8.359  65.965  1.00  0.00    -0.244 C  
HETATM    2  C   UNL     1      -9.829   9.683  66.443  1.00  0.00    -0.309 A  
HETATM    3  C   UNL     1     -10.150   9.882  67.782  1.00  0.00    -0.221 A  
HETATM    4  C   UNL     1     -10.769  11.060  68.185  1.00  0.00    -0.246 A  
HETATM    5  C   UNL     1     -11.120  12.046  67.251  1.00  0.00    -0.285 A  
HETATM    6  C   UNL     1     -10.662  11.927  65.926  1.00  0.00    -0.326 A  
HETATM    7  C   UNL     1     -10.020  10.735  65.537  1.00  0.00    -0.321 A  
ENDROOT
BRANCH   5   8
HETATM    8  N   UNL     1     -12.015  13.087  67.597  1.00  0.00    -0.337 NA 
HETATM    9  H   UNL     1     -12.952  13.042  67.198  1.00  0.00     0.000 HD 
BRANCH   8  10
HETATM   10  C   UNL     1     -11.730  14.193  68.451  1.00  0.00    -0.345 A  
HETATM   11  F   UNL     1     -11.344  15.523  66.530  1.00  0.00    -0.290 F  
HETATM   12  C   UNL     1     -11.335  15.408  67.866  1.00  0.00    -0.325 A  
HETATM   13  C   UNL     1     -11.792  14.154  69.860  1.00  0.00    -0.325 A  
HETATM   14 CL   UNL     1     -12.529  12.849  70.733  1.00  0.00    -0.411 Cl 
HETATM   15  C   UNL     1     -11.320  15.225  70.632  1.00  0.00    -0.345 A  
HETATM   16  C   UNL     1     -10.907  16.493  68.631  1.00  0.00    -0.345 A  
HETATM   17  C   UNL     1     -10.861  16.387  70.016  1.00  0.00    -0.306 A  
ENDBRANCH   8  10
ENDBRANCH   5   8
BRANCH   6  18
HETATM   18  C   UNL     1     -10.868  13.016  64.893  1.00  0.00    -0.343 C  
HETATM   19  O   UNL     1     -12.467  14.078  63.463  1.00  0.00    -0.826 OA 
HETATM   20  C   UNL     1     -12.252  13.234  64.324  1.00  0.00    -0.392 C  
HETATM   21  O   UNL     1     -13.252  12.456  64.790  1.00  0.00    -0.784 OA 
ENDBRANCH   6  18
TORSDOF 3
ENDMDL
MODEL       13
REMARK 921   NORMALIZED FREE ENERGY PREDICTED BY IDOCK:   -6.68 KCAL/MOL
REMARK 922        TOTAL FREE ENERGY PREDICTED BY IDOCK:   -8.08 KCAL/MOL
REMARK 923 INTER-LIGAND FREE ENERGY PREDICTED BY IDOCK:   -7.45 KCAL/MOL
REMARK 924 INTRA-LIGAND FREE ENERGY PREDICTED BY IDOCK:   -0.64 KCAL/MOL
REMARK 927      BINDING AFFINITY PREDICTED BY RF-SCORE:    0.00 PKD
ROOT
HETATM    1  C   UNL     1      -9.967   8.914  66.442  1.00  0.00    -0.354 C  
HETATM    2  C   UNL     1     -10.445  10.186  67.080  1.00  0.00    -0.302 A  
HETATM    3  C   UNL     1     -10.797  10.220  68.425  1.00  0.00    -0.288 A  
HETATM    4  C   UNL     1     -11.377  11.362  68.967  1.00  0.00    -0.345 A  
HETATM    5  C   UNL     1     -11.658  12.477  68.165  1.00  0.00    -0.340 A  
HETATM    6  C   UNL     1     -11.167  12.514  66.848  1.00  0.00    -0.354 A  
HETATM    7  C   UNL     1     -10.564  11.357  66.319  1.00  0.00    -0.312 A  
ENDROOT
BRANCH   5   8
HETATM    8  N   UNL     1     -12.518  13.504  68.626  1.00  0.00    -0.126 NA 
HETATM    9  H   UNL     1     -13.400  13.625  68.128  1.00  0.00     0.000 HD 
BRANCH   8  10
HETATM   10  C   UNL     1     -12.269  14.384  69.720  1.00  0.00    -0.321 A  
HETATM   11  F   UNL     1     -11.678  16.075  68.171  1.00  0.00    -0.337 F  
HETATM   12  C   UNL     1     -11.785  15.674  69.447  1.00  0.00    -0.383 A  
HETATM   13  C   UNL     1     -12.450  14.045  71.078  1.00  0.00    -0.371 A  
HETATM   14 CL   UNL     1     -13.301  12.622  71.586  1.00  0.00    -0.401 Cl 
HETATM   15  C   UNL     1     -12.009  14.899  72.098  1.00  0.00    -0.412 A  
HETATM   16  C   UNL     1     -11.386  16.546  70.460  1.00  0.00    -0.075 A  
HETATM   17  C   UNL     1     -11.460  16.141  71.788  1.00  0.00    -0.386 A  
ENDBRANCH   8  10
ENDBRANCH   5   8
BRANCH   6  18
HETATM   18  C   UNL     1     -11.295  13.739  65.966  1.00  0.00    -0.319 C  
HETATM   19  O   UNL     1     -12.417  14.674  64.069  1.00  0.00    -0.796 OA 
HETATM   20  C   UNL     1     -12.296  13.724  64.832  1.00  0.00    -0.405 C  
HETATM   21  O   UNL     1     -13.054  12.617  64.678  1.00  0.00    -0.821 OA 
ENDBRANCH   6  18
TORSDOF 3
ENDMDL
MODEL       14
REMARK 921   NORMALIZED FREE ENERGY PREDICTED BY IDOCK:   -6.66 KCAL/MOL
REMARK 922        TOTAL FREE ENERGY PREDICTED BY IDOCK:   -8.05 KCAL/MOL
REMARK 923 INTER-LIGAND FREE ENERGY PREDICTED BY IDOCK:   -7.30 KCAL/MOL
REMARK 924 INTRA-LIGAND FREE ENERGY PREDICTED BY IDOCK:   -0.75 KCAL/MOL
REMARK 927      BINDING AFFINITY PREDICTED BY RF-SCORE:    0.00 PKD
ROOT
HETATM    1  C   UNL     1     -12.079   9.604  71.771  1.00  0.00    -0.446 C  
HETATM    2  C   UNL     1     -12.245  10.892  71.017  1.00  0.00    -0.464 A  
HETATM    3  C   UNL     1     -11.676  11.059  69.759  1.00  0.00    -0.410 A  
HETATM    4  C   UNL     1     -11.710  12.302  69.136  1.00  0.00    -0.377 A  
HETATM    5  C   UNL     1     -12.275  13.414  69.777  1.00  0.00    -0.245 A  
HETATM    6  C   UNL     1     -12.989  13.224  70.974  1.00  0.00    -0.233 A  
HETATM    7  C   UNL     1     -12.961  11.954  71.584  1.00  0.00    -0.447 A  
ENDROOT
BRANCH   5   8
HETATM    8  N   UNL     1     -12.039  14.725  69.297  1.00  0.00    -0.489 NA 
HETATM    9  H   UNL     1     -12.631  15.466  69.672  1.00  0.00     0.000 HD 
BRANCH   8  10
HETATM   10  C   UNL     1     -11.054  15.107  68.340  1.00  0.00    -0.282 A  
HETATM   11  F   UNL     1      -9.570  15.590  70.121  1.00  0.00    -0.274 F  
HETATM   12  C   UNL     1      -9.823  15.598  68.803  1.00  0.00    -0.213 A  
HETATM   13  C   UNL     1     -11.234  15.051  66.941  1.00  0.00    -0.323 A  
HETATM   14 CL   UNL     1     -12.557  14.214  66.195  1.00  0.00    -0.447 Cl 
HETATM   15  C   UNL     1     -10.290  15.616  66.071  1.00  0.00    -0.351 A  
HETATM   16  C   UNL     1      -8.861  16.121  67.938  1.00  0.00    -0.182 A  
HETATM   17  C   UNL     1      -9.113  16.167  66.571  1.00  0.00    -0.311 A  
ENDBRANCH   8  10
ENDBRANCH   5   8
BRANCH   6  18
HETATM   18  C   UNL     1     -13.755  14.342  71.651  1.00  0.00    -0.484 C  
HETATM   19  O   UNL     1     -13.611  16.131  73.236  1.00  0.00    -0.577 OA 
HETATM   20  C   UNL     1     -13.032  15.233  72.636  1.00  0.00    -0.408 C  
HETATM   21  O   UNL     1     -11.718  15.002  72.845  1.00  0.00    -0.340 OA 
ENDBRANCH   6  18
TORSDOF 3
ENDMDL
MODEL       15
REMARK 921   NORMALIZED FREE ENERGY PREDICTED BY IDOCK:   -6.64 KCAL/MOL
REMARK 922        TOTAL FREE ENERGY PREDICTED BY IDOCK:   -8.03 KCAL/MOL
REMARK 923 INTER-LIGAND FREE ENERGY PREDICTED BY IDOCK:   -7.25 KCAL/MOL
REMARK 924 INTRA-LIGAND FREE ENERGY PREDICTED BY IDOCK:   -0.78 KCAL/MOL
REMARK 927      BINDING AFFINITY PREDICTED BY RF-SCORE:    0.00 PKD
ROOT
HETATM    1  C   UNL     1     -13.332  14.551  72.675  1.00  0.00    -0.588 C  
HETATM    2  C   UNL     1     -12.848  13.514  71.703  1.00  0.00    -0.419 A  
HETATM    3  C   UNL     1     -12.124  13.880  70.573  1.00  0.00    -0.426 A  
HETATM    4  C   UNL     1     -11.809  12.930  69.607  1.00  0.00    -0.387 A  
HETATM    5  C   UNL     1     -12.251  11.605  69.729  1.00  0.00    -0.219 A  
HETATM    6  C   UNL     1     -12.844  11.189  70.935  1.00  0.00    -0.374 A  
HETATM    7  C   UNL     1     -13.139  12.159  71.912  1.00  0.00    -0.475 A  
ENDROOT
BRANCH   5   8
HETATM    8  N   UNL     1     -12.209  10.721  68.622  1.00  0.00    -0.827 NA 
HETATM    9  H   UNL     1     -13.020  10.120  68.482  1.00  0.00     0.000 HD 
BRANCH   8  10
HETATM   10  C   UNL     1     -11.140  10.593  67.687  1.00  0.00    -0.319 A  
HETATM   11  F   UNL     1     -10.431   8.643  68.828  1.00  0.00    -0.215 F  
HETATM   12  C   UNL     1     -10.218   9.548  67.860  1.00  0.00    -0.205 A  
HETATM   13  C   UNL     1     -10.921  11.464  66.598  1.00  0.00    -0.285 A  
HETATM   14 CL   UNL     1     -12.100  12.618  66.064  1.00  0.00    -0.475 Cl 
HETATM   15  C   UNL     1      -9.747  11.381  65.835  1.00  0.00    -0.257 A  
HETATM   16  C   UNL     1      -9.071   9.434  67.075  1.00  0.00    -0.155 A  
HETATM   17  C   UNL     1      -8.814  10.378  66.086  1.00  0.00    -0.172 A  
ENDBRANCH   8  10
ENDBRANCH   5   8
BRANCH   6  18
HETATM   18  C   UNL     1     -13.211   9.745  71.205  1.00  0.00    -0.452 C  
HETATM   19  O   UNL     1     -12.368   7.602  71.859  1.00  0.00    -0.295 OA 
HETATM   20  C   UNL     1     -12.132   8.787  71.659  1.00  0.00    -0.337 C  
HETATM   21  O   UNL     1     -10.886   9.279  71.828  1.00  0.00    -0.368 OA 
ENDBRANCH   6  18
TORSDOF 3
ENDMDL
MODEL       16
REMARK 921   NORMALIZED FREE ENERGY PREDICTED BY IDOCK:   -6.63 KCAL/MOL
REMARK 922        TOTAL FREE ENERGY PREDICTED BY IDOCK:   -8.03 KCAL/MOL
REMARK 923 INTER-LIGAND FREE ENERGY PREDICTED BY IDOCK:   -7.20 KCAL/MOL
REMARK 924 INTRA-LIGAND FREE ENERGY PREDICTED BY IDOCK:   -0.83 KCAL/MOL
REMARK 927      BINDING AFFINITY PREDICTED BY RF-SCORE:    0.00 PKD
ROOT
HETATM    1  C   UNL     1     -12.510  13.024  70.604  1.00  0.00    -0.347 C  
HETATM    2  C   UNL     1     -11.854  13.988  69.659  1.00  0.00    -0.386 A  
HETATM    3  C   UNL     1     -11.568  15.291  70.056  1.00  0.00    -0.331 A  
HETATM    4  C   UNL     1     -11.098  16.216  69.130  1.00  0.00    -0.329 A  
HETATM    5  C   UNL     1     -10.947  15.871  67.779  1.00  0.00    -0.315 A  
HETATM    6  C   UNL     1     -11.082  14.523  67.398  1.00  0.00    -0.320 A  
HETATM    7  C   UNL     1     -11.540  13.594  68.352  1.00  0.00    -0.377 A  
ENDROOT
BRANCH   5   8
HETATM    8  N   UNL     1     -10.775  16.870  66.790  1.00  0.00    -0.183 NA 
HETATM    9  H   UNL     1     -11.430  16.861  66.008  1.00  0.00     0.000 HD 
BRANCH   8  10
HETATM   10  C   UNL     1      -9.774  17.885  66.783  1.00  0.00    -0.314 A  
HETATM   11  F   UNL     1     -11.433  19.466  67.379  1.00  0.00    -0.454 F  
HETATM   12  C   UNL     1     -10.162  19.211  67.035  1.00  0.00    -0.393 A  
HETATM   13  C   UNL     1      -8.407  17.659  66.516  1.00  0.00    -0.268 A  
HETATM   14 CL   UNL     1      -7.707  16.073  66.472  1.00  0.00    -0.239 Cl 
HETATM   15  C   UNL     1      -7.520  18.732  66.346  1.00  0.00    -0.274 A  
HETATM   16  C   UNL     1      -9.273  20.279  66.911  1.00  0.00    -0.481 A  
HETATM   17  C   UNL     1      -7.957  20.042  66.526  1.00  0.00    -0.343 A  
ENDBRANCH   8  10
ENDBRANCH   5   8
BRANCH   6  18
HETATM   18  C   UNL     1     -10.789  14.042  65.992  1.00  0.00    -0.295 C  
HETATM   19  O   UNL     1     -11.759  13.458  63.883  1.00  0.00    -0.416 OA 
HETATM   20  C   UNL     1     -11.936  13.875  65.021  1.00  0.00    -0.390 C  
HETATM   21  O   UNL     1     -13.176  14.192  65.453  1.00  0.00    -0.741 OA 
ENDBRANCH   6  18
TORSDOF 3
ENDMDL
MODEL       17
REMARK 921   NORMALIZED FREE ENERGY PREDICTED BY IDOCK:   -6.63 KCAL/MOL
REMARK 922        TOTAL FREE ENERGY PREDICTED BY IDOCK:   -8.02 KCAL/MOL
REMARK 923 INTER-LIGAND FREE ENERGY PREDICTED BY IDOCK:   -7.25 KCAL/MOL
REMARK 924 INTRA-LIGAND FREE ENERGY PREDICTED BY IDOCK:   -0.77 KCAL/MOL
REMARK 927      BINDING AFFINITY PREDICTED BY RF-SCORE:    0.00 PKD
ROOT
HETATM    1  C   UNL     1     -12.784  15.239  73.187  1.00  0.00    -0.586 C  
HETATM    2  C   UNL     1     -12.384  15.021  71.756  1.00  0.00    -0.412 A  
HETATM    3  C   UNL     1     -12.602  13.796  71.135  1.00  0.00    -0.452 A  
HETATM    4  C   UNL     1     -12.096  13.557  69.862  1.00  0.00    -0.408 A  
HETATM    5  C   UNL     1     -11.322  14.524  69.202  1.00  0.00    -0.277 A  
HETATM    6  C   UNL     1     -11.228  15.816  69.750  1.00  0.00    -0.330 A  
HETATM    7  C   UNL     1     -11.763  16.047  71.032  1.00  0.00    -0.458 A  
ENDROOT
BRANCH   5   8
HETATM    8  N   UNL     1     -10.552  14.182  68.063  1.00  0.00    -0.236 NA 
HETATM    9  H   UNL     1      -9.541  14.141  68.186  1.00  0.00     0.000 HD 
BRANCH   8  10
HETATM   10  C   UNL     1     -11.057  13.891  66.762  1.00  0.00    -0.303 A  
HETATM   11  F   UNL     1     -10.508  16.098  66.101  1.00  0.00    -0.292 F  
HETATM   12  C   UNL     1     -11.068  14.916  65.802  1.00  0.00    -0.342 A  
HETATM   13  C   UNL     1     -11.575  12.640  66.366  1.00  0.00    -0.384 A  
HETATM   14 CL   UNL     1     -11.376  11.198  67.309  1.00  0.00    -0.353 Cl 
HETATM   15  C   UNL     1     -12.219  12.486  65.130  1.00  0.00    -0.509 A  
HETATM   16  C   UNL     1     -11.669  14.755  64.553  1.00  0.00    -0.398 A  
HETATM   17  C   UNL     1     -12.282  13.549  64.232  1.00  0.00    -0.450 A  
ENDBRANCH   8  10
ENDBRANCH   5   8
BRANCH   6  18
HETATM   18  C   UNL     1     -10.540  16.957  69.029  1.00  0.00    -0.338 C  
HETATM   19  O   UNL     1      -8.422  17.882  68.404  1.00  0.00    -0.282 OA 
HETATM   20  C   UNL     1      -9.030  16.967  68.946  1.00  0.00    -0.215 C  
HETATM   21  O   UNL     1      -8.364  15.932  69.502  1.00  0.00    -0.223 OA 
ENDBRANCH   6  18
TORSDOF 3
ENDMDL
MODEL       18
REMARK 921   NORMALIZED FREE ENERGY PREDICTED BY IDOCK:   -6.61 KCAL/MOL
REMARK 922        TOTAL FREE ENERGY PREDICTED BY IDOCK:   -8.00 KCAL/MOL
REMARK 923 INTER-LIGAND FREE ENERGY PREDICTED BY IDOCK:   -7.31 KCAL/MOL
REMARK 924 INTRA-LIGAND FREE ENERGY PREDICTED BY IDOCK:   -0.69 KCAL/MOL
REMARK 927      BINDING AFFINITY PREDICTED BY RF-SCORE:    0.00 PKD
ROOT
HETATM    1  C   UNL     1      -9.884  19.290  68.899  1.00  0.00    -0.512 C  
HETATM    2  C   UNL     1     -10.228  17.925  68.378  1.00  0.00    -0.398 A  
HETATM    3  C   UNL     1     -10.303  17.683  67.010  1.00  0.00    -0.330 A  
HETATM    4  C   UNL     1     -10.766  16.458  66.541  1.00  0.00    -0.163 A  
HETATM    5  C   UNL     1     -11.206  15.466  67.430  1.00  0.00    -0.287 A  
HETATM    6  C   UNL     1     -10.989  15.639  68.810  1.00  0.00    -0.281 A  
HETATM    7  C   UNL     1     -10.501  16.878  69.268  1.00  0.00    -0.319 A  
ENDROOT
BRANCH   5   8
HETATM    8  N   UNL     1     -11.958  14.360  66.967  1.00  0.00    -0.447 NA 
HETATM    9  H   UNL     1     -12.851  14.184  67.428  1.00  0.00     0.000 HD 
BRANCH   8  10
HETATM   10  C   UNL     1     -11.587  13.468  65.918  1.00  0.00    -0.335 A  
HETATM   11  F   UNL     1     -12.699  14.882  64.378  1.00  0.00    -0.460 F  
HETATM   12  C   UNL     1     -12.034  13.741  64.615  1.00  0.00    -0.416 A  
HETATM   13  C   UNL     1     -10.813  12.301  66.096  1.00  0.00    -0.279 A  
HETATM   14 CL   UNL     1      -9.943  11.964  67.558  1.00  0.00    -0.192 Cl 
HETATM   15  C   UNL     1     -10.646  11.382  65.051  1.00  0.00    -0.359 A  
HETATM   16  C   UNL     1     -11.833  12.850  63.561  1.00  0.00    -0.605 A  
HETATM   17  C   UNL     1     -11.172  11.648  63.789  1.00  0.00    -0.498 A  
ENDBRANCH   8  10
ENDBRANCH   5   8
BRANCH   6  18
HETATM   18  C   UNL     1     -11.295  14.555  69.822  1.00  0.00    -0.305 C  
HETATM   19  O   UNL     1     -12.776  13.882  71.579  1.00  0.00    -0.338 OA 
HETATM   20  C   UNL     1     -12.502  14.711  70.720  1.00  0.00    -0.340 C  
HETATM   21  O   UNL     1     -13.270  15.809  70.555  1.00  0.00    -0.449 OA 
ENDBRANCH   6  18
TORSDOF 3
ENDMDL
MODEL       19
REMARK 921   NORMALIZED FREE ENERGY PREDICTED BY IDOCK:   -6.61 KCAL/MOL
REMARK 922        TOTAL FREE ENERGY PREDICTED BY IDOCK:   -8.00 KCAL/MOL
REMARK 923 INTER-LIGAND FREE ENERGY PREDICTED BY IDOCK:   -7.16 KCAL/MOL
REMARK 924 INTRA-LIGAND FREE ENERGY PREDICTED BY IDOCK:   -0.84 KCAL/MOL
REMARK 927      BINDING AFFINITY PREDICTED BY RF-SCORE:    0.00 PKD
ROOT
HETATM    1  C   UNL     1      -8.316  15.844  67.239  1.00  0.00    -0.211 C  
HETATM    2  C   UNL     1      -9.458  14.903  67.493  1.00  0.00    -0.200 A  
HETATM    3  C   UNL     1     -10.003  14.772  68.766  1.00  0.00    -0.234 A  
HETATM    4  C   UNL     1     -10.957  13.793  69.020  1.00  0.00    -0.277 A  
HETATM    5  C   UNL     1     -11.354  12.896  68.017  1.00  0.00    -0.292 A  
HETATM    6  C   UNL     1     -10.930  13.118  66.694  1.00  0.00    -0.301 A  
HETATM    7  C   UNL     1      -9.978  14.126  66.450  1.00  0.00    -0.302 A  
ENDROOT
BRANCH   5   8
HETATM    8  N   UNL     1     -12.075  11.721  68.340  1.00  0.00    -0.480 NA 
HETATM    9  H   UNL     1     -12.998  11.616  67.919  1.00  0.00     0.000 HD 
BRANCH   8  10
HETATM   10  C   UNL     1     -11.634  10.671  69.198  1.00  0.00    -0.271 A  
HETATM   11  F   UNL     1     -12.924  11.613  70.946  1.00  0.00    -0.369 F  
HETATM   12  C   UNL     1     -12.046  10.683  70.540  1.00  0.00    -0.355 A  
HETATM   13  C   UNL     1     -10.782   9.617  68.801  1.00  0.00    -0.206 A  
HETATM   14 CL   UNL     1     -10.414   9.281  67.140  1.00  0.00    -0.328 Cl 
HETATM   15  C   UNL     1     -10.247   8.730  69.745  1.00  0.00    -0.205 A  
HETATM   16  C   UNL     1     -11.551   9.774  71.476  1.00  0.00    -0.424 A  
HETATM   17  C   UNL     1     -10.617   8.820  71.085  1.00  0.00    -0.310 A  
ENDBRANCH   8  10
ENDBRANCH   5   8
BRANCH   6  18
HETATM   18  C   UNL     1     -11.432  12.288  65.530  1.00  0.00    -0.408 C  
HETATM   19  O   UNL     1     -13.102  12.122  63.824  1.00  0.00    -0.774 OA 
HETATM   20  C   UNL     1     -12.635  12.770  64.752  1.00  0.00    -0.446 C  
HETATM   21  O   UNL     1     -13.193  13.943  65.121  1.00  0.00    -0.768 OA 
ENDBRANCH   6  18
TORSDOF 3
ENDMDL
MODEL       20
REMARK 921   NORMALIZED FREE ENERGY PREDICTED BY IDOCK:   -6.60 KCAL/MOL
REMARK 922        TOTAL FREE ENERGY PREDICTED BY IDOCK:   -7.99 KCAL/MOL
REMARK 923 INTER-LIGAND FREE ENERGY PREDICTED BY IDOCK:   -7.26 KCAL/MOL
REMARK 924 INTRA-LIGAND FREE ENERGY PREDICTED BY IDOCK:   -0.73 KCAL/MOL
REMARK 927      BINDING AFFINITY PREDICTED BY RF-SCORE:    0.00 PKD
ROOT
HETATM    1  C   UNL     1      -8.397   8.555  63.855  1.00  0.00    -0.093 C  
HETATM    2  C   UNL     1      -9.136   9.562  64.689  1.00  0.00    -0.263 A  
HETATM    3  C   UNL     1      -9.451   9.293  66.017  1.00  0.00    -0.311 A  
HETATM    4  C   UNL     1     -10.262  10.166  66.733  1.00  0.00    -0.289 A  
HETATM    5  C   UNL     1     -10.810  11.304  66.124  1.00  0.00    -0.222 A  
HETATM    6  C   UNL     1     -10.375  11.668  64.837  1.00  0.00    -0.331 A  
HETATM    7  C   UNL     1      -9.538  10.782  64.131  1.00  0.00    -0.333 A  
ENDROOT
BRANCH   5   8
HETATM    8  N   UNL     1     -11.869  12.016  66.738  1.00  0.00    -0.614 NA 
HETATM    9  H   UNL     1     -12.763  12.027  66.247  1.00  0.00     0.000 HD 
BRANCH   8  10
HETATM   10  C   UNL     1     -11.805  12.719  67.977  1.00  0.00    -0.336 A  
HETATM   11  F   UNL     1     -12.390  10.716  69.096  1.00  0.00    -0.339 F  
HETATM   12  C   UNL     1     -12.134  12.032  69.156  1.00  0.00    -0.183 A  
HETATM   13  C   UNL     1     -11.453  14.080  68.108  1.00  0.00    -0.309 A  
HETATM   14 CL   UNL     1     -10.745  14.997  66.817  1.00  0.00    -0.303 Cl 
HETATM   15  C   UNL     1     -11.591  14.744  69.335  1.00  0.00    -0.342 A  
HETATM   16  C   UNL     1     -12.229  12.678  70.388  1.00  0.00    -0.368 A  
HETATM   17  C   UNL     1     -11.996  14.047  70.470  1.00  0.00    -0.390 A  
ENDBRANCH   8  10
ENDBRANCH   5   8
BRANCH   6  18
HETATM   18  C   UNL     1     -10.802  12.959  64.168  1.00  0.00    -0.445 C  
HETATM   19  O   UNL     1     -12.542  14.035  62.926  1.00  0.00    -0.523 OA 
HETATM   20  C   UNL     1     -12.161  13.027  63.509  1.00  0.00    -0.542 C  
HETATM   21  O   UNL     1     -12.946  11.930  63.573  1.00  0.00    -0.724 OA 
ENDBRANCH   6  18
TORSDOF 3
ENDMDL
MODEL       21
REMARK 921   NORMALIZED FREE ENERGY PREDICTED BY IDOCK:   -6.59 KCAL/MOL
REMARK 922        TOTAL FREE ENERGY PREDICTED BY IDOCK:   -7.98 KCAL/MOL
REMARK 923 INTER-LIGAND FREE ENERGY PREDICTED BY IDOCK:   -7.97 KCAL/MOL
REMARK 924 INTRA-LIGAND FREE ENERGY PREDICTED BY IDOCK:   -0.00 KCAL/MOL
REMARK 927      BINDING AFFINITY PREDICTED BY RF-SCORE:    0.00 PKD
ROOT
HETATM    1  C   UNL     1     -12.133  16.178  71.627  1.00  0.00    -0.479 C  
HETATM    2  C   UNL     1     -11.927  15.147  70.556  1.00  0.00    -0.371 A  
HETATM    3  C   UNL     1     -11.719  15.525  69.234  1.00  0.00    -0.380 A  
HETATM    4  C   UNL     1     -11.678  14.564  68.230  1.00  0.00    -0.368 A  
HETATM    5  C   UNL     1     -11.888  13.208  68.521  1.00  0.00    -0.342 A  
HETATM    6  C   UNL     1     -11.943  12.798  69.866  1.00  0.00    -0.368 A  
HETATM    7  C   UNL     1     -11.964  13.783  70.873  1.00  0.00    -0.273 A  
ENDROOT
BRANCH   5   8
HETATM    8  N   UNL     1     -12.157  12.278  67.488  1.00  0.00    -0.486 NA 
HETATM    9  H   UNL     1     -12.835  11.544  67.694  1.00  0.00     0.000 HD 
BRANCH   8  10
HETATM   10  C   UNL     1     -11.571  12.269  66.189  1.00  0.00    -0.390 A  
HETATM   11  F   UNL     1     -13.258  13.766  65.464  1.00  0.00    -0.515 F  
HETATM   12  C   UNL     1     -12.197  12.999  65.165  1.00  0.00    -0.459 A  
HETATM   13  C   UNL     1     -10.406  11.553  65.840  1.00  0.00    -0.247 A  
HETATM   14 CL   UNL     1      -9.352  10.842  67.020  1.00  0.00    -0.175 Cl 
HETATM   15  C   UNL     1      -9.999  11.447  64.503  1.00  0.00    -0.318 A  
HETATM   16  C   UNL     1     -11.770  12.933  63.839  1.00  0.00    -0.526 A  
HETATM   17  C   UNL     1     -10.691  12.123  63.501  1.00  0.00    -0.509 A  
ENDBRANCH   8  10
ENDBRANCH   5   8
BRANCH   6  18
HETATM   18  C   UNL     1     -12.017  11.340  70.269  1.00  0.00    -0.466 C  
HETATM   19  O   UNL     1     -12.918   9.794  71.859  1.00  0.00    -0.385 OA 
HETATM   20  C   UNL     1     -12.850  10.953  71.470  1.00  0.00    -0.454 C  
HETATM   21  O   UNL     1     -13.516  11.935  72.115  1.00  0.00    -0.458 OA 
ENDBRANCH   6  18
TORSDOF 3
ENDMDL
MODEL       22
REMARK 921   NORMALIZED FREE ENERGY PREDICTED BY IDOCK:   -6.52 KCAL/MOL
REMARK 922        TOTAL FREE ENERGY PREDICTED BY IDOCK:   -7.89 KCAL/MOL
REMARK 923 INTER-LIGAND FREE ENERGY PREDICTED BY IDOCK:   -7.22 KCAL/MOL
REMARK 924 INTRA-LIGAND FREE ENERGY PREDICTED BY IDOCK:   -0.67 KCAL/MOL
REMARK 927      BINDING AFFINITY PREDICTED BY RF-SCORE:    0.00 PKD
ROOT
HETATM    1  C   UNL     1      -8.887   9.119  65.435  1.00  0.00    -0.236 C  
HETATM    2  C   UNL     1      -9.541  10.269  66.145  1.00  0.00    -0.248 A  
HETATM    3  C   UNL     1      -9.804  10.207  67.510  1.00  0.00    -0.211 A  
HETATM    4  C   UNL     1     -10.541  11.212  68.126  1.00  0.00    -0.227 A  
HETATM    5  C   UNL     1     -11.068  12.278  67.382  1.00  0.00    -0.282 A  
HETATM    6  C   UNL     1     -10.678  12.434  66.039  1.00  0.00    -0.294 A  
HETATM    7  C   UNL     1      -9.915  11.417  65.434  1.00  0.00    -0.289 A  
ENDROOT
BRANCH   5   8
HETATM    8  N   UNL     1     -12.064  13.123  67.930  1.00  0.00    -0.280 NA 
HETATM    9  H   UNL     1     -12.987  13.086  67.499  1.00  0.00     0.000 HD 
BRANCH   8  10
HETATM   10  C   UNL     1     -11.899  14.019  69.027  1.00  0.00    -0.354 A  
HETATM   11  F   UNL     1     -12.494  12.262  70.499  1.00  0.00    -0.376 F  
HETATM   12  C   UNL     1     -12.184  13.555  70.321  1.00  0.00    -0.347 A  
HETATM   13  C   UNL     1     -11.487  15.364  68.907  1.00  0.00    -0.342 A  
HETATM   14 CL   UNL     1     -10.823  16.017  67.444  1.00  0.00    -0.307 Cl 
HETATM   15  C   UNL     1     -11.527  16.230  70.009  1.00  0.00    -0.218 A  
HETATM   16  C   UNL     1     -12.181  14.402  71.429  1.00  0.00    -0.424 A  
HETATM   17  C   UNL     1     -11.891  15.753  71.266  1.00  0.00    -0.491 A  
ENDBRANCH   8  10
ENDBRANCH   5   8
BRANCH   6  18
HETATM   18  C   UNL     1     -11.080  13.637  65.211  1.00  0.00    -0.307 C  
HETATM   19  O   UNL     1     -12.749  14.535  63.749  1.00  0.00    -0.780 OA 
HETATM   20  C   UNL     1     -12.392  13.604  64.460  1.00  0.00    -0.356 C  
HETATM   21  O   UNL     1     -13.162  12.503  64.590  1.00  0.00    -0.848 OA 
ENDBRANCH   6  18
TORSDOF 3
ENDMDL
MODEL       23
REMARK 921   NORMALIZED FREE ENERGY PREDICTED BY IDOCK:   -6.48 KCAL/MOL
REMARK 922        TOTAL FREE ENERGY PREDICTED BY IDOCK:   -7.84 KCAL/MOL
REMARK 923 INTER-LIGAND FREE ENERGY PREDICTED BY IDOCK:   -7.14 KCAL/MOL
REMARK 924 INTRA-LIGAND FREE ENERGY PREDICTED BY IDOCK:   -0.71 KCAL/MOL
REMARK 927      BINDING AFFINITY PREDICTED BY RF-SCORE:    0.00 PKD
ROOT
HETATM    1  C   UNL     1     -12.081  14.734  71.879  1.00  0.00    -0.409 C  
HETATM    2  C   UNL     1     -11.954  14.848  70.388  1.00  0.00    -0.368 A  
HETATM    3  C   UNL     1     -12.284  13.779  69.561  1.00  0.00    -0.344 A  
HETATM    4  C   UNL     1     -12.022  13.844  68.197  1.00  0.00    -0.385 A  
HETATM    5  C   UNL     1     -11.384  14.961  67.638  1.00  0.00    -0.337 A  
HETATM    6  C   UNL     1     -11.190  16.106  68.431  1.00  0.00    -0.358 A  
HETATM    7  C   UNL     1     -11.478  16.031  69.808  1.00  0.00    -0.318 A  
ENDROOT
BRANCH   5   8
HETATM    8  N   UNL     1     -10.839  14.907  66.332  1.00  0.00    -0.320 NA 
HETATM    9  H   UNL     1     -10.276  15.702  66.034  1.00  0.00     0.000 HD 
BRANCH   8  10
HETATM   10  C   UNL     1     -11.004  13.845  65.393  1.00  0.00    -0.316 A  
HETATM   11  F   UNL     1     -12.543  15.194  64.201  1.00  0.00    -0.512 F  
HETATM   12  C   UNL     1     -11.928  14.011  64.349  1.00  0.00    -0.454 A  
HETATM   13  C   UNL     1     -10.317  12.614  65.449  1.00  0.00    -0.291 A  
HETATM   14 CL   UNL     1      -8.949  12.346  66.480  1.00  0.00    -0.185 Cl 
HETATM   15  C   UNL     1     -10.668  11.555  64.600  1.00  0.00    -0.379 A  
HETATM   16  C   UNL     1     -12.249  12.974  63.473  1.00  0.00    -0.580 A  
HETATM   17  C   UNL     1     -11.647  11.730  63.625  1.00  0.00    -0.521 A  
ENDBRANCH   8  10
ENDBRANCH   5   8
BRANCH   6  18
HETATM   18  C   UNL     1     -10.648  17.403  67.867  1.00  0.00    -0.383 C  
HETATM   19  O   UNL     1      -8.661  18.591  67.257  1.00  0.00    -0.261 OA 
HETATM   20  C   UNL     1      -9.155  17.552  67.677  1.00  0.00    -0.243 C  
HETATM   21  O   UNL     1      -8.373  16.499  67.997  1.00  0.00    -0.174 OA 
ENDBRANCH   6  18
TORSDOF 3
ENDMDL
MODEL       24
REMARK 921   NORMALIZED FREE ENERGY PREDICTED BY IDOCK:   -6.48 KCAL/MOL
REMARK 922        TOTAL FREE ENERGY PREDICTED BY IDOCK:   -7.84 KCAL/MOL
REMARK 923 INTER-LIGAND FREE ENERGY PREDICTED BY IDOCK:   -7.05 KCAL/MOL
REMARK 924 INTRA-LIGAND FREE ENERGY PREDICTED BY IDOCK:   -0.79 KCAL/MOL
REMARK 927      BINDING AFFINITY PREDICTED BY RF-SCORE:    0.00 PKD
ROOT
HETATM    1  C   UNL     1     -11.504  15.877  70.687  1.00  0.00    -0.426 C  
HETATM    2  C   UNL     1     -11.765  14.433  70.372  1.00  0.00    -0.346 A  
HETATM    3  C   UNL     1     -12.573  13.659  71.198  1.00  0.00    -0.452 A  
HETATM    4  C   UNL     1     -12.688  12.291  70.980  1.00  0.00    -0.319 A  
HETATM    5  C   UNL     1     -11.963  11.661  69.958  1.00  0.00    -0.351 A  
HETATM    6  C   UNL     1     -11.271  12.451  69.023  1.00  0.00    -0.320 A  
HETATM    7  C   UNL     1     -11.179  13.839  69.247  1.00  0.00    -0.291 A  
ENDROOT
BRANCH   5   8
HETATM    8  N   UNL     1     -11.830  10.251  69.926  1.00  0.00    -0.417 NA 
HETATM    9  H   UNL     1     -12.159   9.776  69.086  1.00  0.00     0.000 HD 
BRANCH   8  10
HETATM   10  C   UNL     1     -11.281   9.433  70.957  1.00  0.00    -0.342 A  
HETATM   11  F   UNL     1      -9.116   9.908  70.122  1.00  0.00    -0.225 F  
HETATM   12  C   UNL     1      -9.890   9.237  70.989  1.00  0.00    -0.285 A  
HETATM   13  C   UNL     1     -12.041   8.776  71.948  1.00  0.00    -0.363 A  
HETATM   14 CL   UNL     1     -13.714   9.129  72.238  1.00  0.00    -0.515 Cl 
HETATM   15  C   UNL     1     -11.446   7.845  72.811  1.00  0.00    -0.428 A  
HETATM   16  C   UNL     1      -9.288   8.345  71.876  1.00  0.00    -0.313 A  
HETATM   17  C   UNL     1     -10.073   7.616  72.763  1.00  0.00    -0.311 A  
ENDBRANCH   8  10
ENDBRANCH   5   8
BRANCH   6  18
HETATM   18  C   UNL     1     -10.589  11.861  67.806  1.00  0.00    -0.233 C  
HETATM   19  O   UNL     1     -10.747  11.542  65.438  1.00  0.00    -0.280 OA 
HETATM   20  C   UNL     1     -11.238  12.028  66.450  1.00  0.00    -0.337 C  
HETATM   21  O   UNL     1     -12.392  12.726  66.388  1.00  0.00    -0.500 OA 
ENDBRANCH   6  18
TORSDOF 3
ENDMDL
MODEL       25
REMARK 921   NORMALIZED FREE ENERGY PREDICTED BY IDOCK:   -6.47 KCAL/MOL
REMARK 922        TOTAL FREE ENERGY PREDICTED BY IDOCK:   -7.83 KCAL/MOL
REMARK 923 INTER-LIGAND FREE ENERGY PREDICTED BY IDOCK:   -6.98 KCAL/MOL
REMARK 924 INTRA-LIGAND FREE ENERGY PREDICTED BY IDOCK:   -0.85 KCAL/MOL
REMARK 927      BINDING AFFINITY PREDICTED BY RF-SCORE:    0.00 PKD
ROOT
HETATM    1  C   UNL     1     -11.877  13.149  63.964  1.00  0.00    -0.514 C  
HETATM    2  C   UNL     1     -11.425  13.241  65.393  1.00  0.00    -0.328 A  
HETATM    3  C   UNL     1     -11.562  12.158  66.254  1.00  0.00    -0.424 A  
HETATM    4  C   UNL     1     -11.279  12.301  67.608  1.00  0.00    -0.346 A  
HETATM    5  C   UNL     1     -10.895  13.542  68.137  1.00  0.00    -0.254 A  
HETATM    6  C   UNL     1     -10.602  14.600  67.256  1.00  0.00    -0.284 A  
HETATM    7  C   UNL     1     -10.876  14.433  65.885  1.00  0.00    -0.304 A  
ENDROOT
BRANCH   5   8
HETATM    8  N   UNL     1     -10.910  13.772  69.534  1.00  0.00    -0.445 NA 
HETATM    9  H   UNL     1     -10.011  13.945  69.982  1.00  0.00     0.000 HD 
BRANCH   8  10
HETATM   10  C   UNL     1     -12.062  13.782  70.374  1.00  0.00    -0.350 A  
HETATM   11  F   UNL     1     -12.456  16.028  69.734  1.00  0.00    -0.319 F  
HETATM   12  C   UNL     1     -12.795  14.974  70.493  1.00  0.00    -0.333 A  
HETATM   13  C   UNL     1     -12.516  12.677  71.125  1.00  0.00    -0.228 A  
HETATM   14 CL   UNL     1     -11.919  11.067  70.883  1.00  0.00    -0.422 Cl 
HETATM   15  C   UNL     1     -13.545  12.820  72.066  1.00  0.00    -0.460 A  
HETATM   16  C   UNL     1     -13.849  15.109  71.396  1.00  0.00    -0.587 A  
HETATM   17  C   UNL     1     -14.199  14.041  72.214  1.00  0.00    -0.599 A  
ENDBRANCH   8  10
ENDBRANCH   5   8
BRANCH   6  18
HETATM   18  C   UNL     1     -10.039  15.922  67.733  1.00  0.00    -0.244 C  
HETATM   19  O   UNL     1      -8.032  17.120  68.250  1.00  0.00    -0.217 OA 
HETATM   20  C   UNL     1      -8.539  16.084  67.839  1.00  0.00    -0.164 C  
HETATM   21  O   UNL     1      -7.767  15.038  67.473  1.00  0.00    -0.152 OA 
ENDBRANCH   6  18
TORSDOF 3
ENDMDL
MODEL       26
REMARK 921   NORMALIZED FREE ENERGY PREDICTED BY IDOCK:   -6.45 KCAL/MOL
REMARK 922        TOTAL FREE ENERGY PREDICTED BY IDOCK:   -7.81 KCAL/MOL
REMARK 923 INTER-LIGAND FREE ENERGY PREDICTED BY IDOCK:   -7.03 KCAL/MOL
REMARK 924 INTRA-LIGAND FREE ENERGY PREDICTED BY IDOCK:   -0.78 KCAL/MOL
REMARK 927      BINDING AFFINITY PREDICTED BY RF-SCORE:    0.00 PKD
ROOT
HETATM    1  C   UNL     1      -8.984   9.850  67.376  1.00  0.00    -0.144 C  
HETATM    2  C   UNL     1      -9.388  11.291  67.255  1.00  0.00    -0.173 A  
HETATM    3  C   UNL     1      -9.407  12.121  68.371  1.00  0.00    -0.170 A  
HETATM    4  C   UNL     1      -9.923  13.409  68.275  1.00  0.00    -0.240 A  
HETATM    5  C   UNL     1     -10.471  13.878  67.071  1.00  0.00    -0.278 A  
HETATM    6  C   UNL     1     -10.315  13.109  65.903  1.00  0.00    -0.295 A  
HETATM    7  C   UNL     1      -9.773  11.814  66.014  1.00  0.00    -0.254 A  
ENDROOT
BRANCH   5   8
HETATM    8  N   UNL     1     -11.268  15.048  67.045  1.00  0.00    -0.336 NA 
HETATM    9  H   UNL     1     -12.264  14.923  66.867  1.00  0.00     0.000 HD 
BRANCH   8  10
HETATM   10  C   UNL     1     -10.810  16.384  67.242  1.00  0.00    -0.194 A  
HETATM   11  F   UNL     1     -10.788  16.679  64.893  1.00  0.00    -0.397 F  
HETATM   12  C   UNL     1     -10.522  17.168  66.114  1.00  0.00    -0.275 A  
HETATM   13  C   UNL     1     -10.599  16.979  68.505  1.00  0.00    -0.370 A  
HETATM   14 CL   UNL     1     -11.168  16.275  69.984  1.00  0.00    -0.347 Cl 
HETATM   15  C   UNL     1      -9.974  18.229  68.615  1.00  0.00    -0.410 A  
HETATM   16  C   UNL     1      -9.941  18.432  66.219  1.00  0.00    -0.378 A  
HETATM   17  C   UNL     1      -9.629  18.947  67.472  1.00  0.00    -0.347 A  
ENDBRANCH   8  10
ENDBRANCH   5   8
BRANCH   6  18
HETATM   18  C   UNL     1     -10.743  13.608  64.539  1.00  0.00    -0.420 C  
HETATM   19  O   UNL     1     -12.537  13.678  62.956  1.00  0.00    -0.729 OA 
HETATM   20  C   UNL     1     -12.151  13.327  64.064  1.00  0.00    -0.447 C  
HETATM   21  O   UNL     1     -12.974  12.660  64.901  1.00  0.00    -0.830 OA 
ENDBRANCH   6  18
TORSDOF 3
ENDMDL
MODEL       27
REMARK 921   NORMALIZED FREE ENERGY PREDICTED BY IDOCK:   -6.43 KCAL/MOL
REMARK 922        TOTAL FREE ENERGY PREDICTED BY IDOCK:   -7.79 KCAL/MOL
REMARK 923 INTER-LIGAND FREE ENERGY PREDICTED BY IDOCK:   -7.11 KCAL/MOL
REMARK 924 INTRA-LIGAND FREE ENERGY PREDICTED BY IDOCK:   -0.67 KCAL/MOL
REMARK 927      BINDING AFFINITY PREDICTED BY RF-SCORE:    0.00 PKD
ROOT
HETATM    1  C   UNL     1     -12.509  12.685  64.437  1.00  0.00    -0.509 C  
HETATM    2  C   UNL     1     -11.902  12.534  65.802  1.00  0.00    -0.494 A  
HETATM    3  C   UNL     1     -11.086  11.448  66.102  1.00  0.00    -0.259 A  
HETATM    4  C   UNL     1     -10.651  11.239  67.406  1.00  0.00    -0.262 A  
HETATM    5  C   UNL     1     -11.059  12.088  68.446  1.00  0.00    -0.245 A  
HETATM    6  C   UNL     1     -11.749  13.273  68.131  1.00  0.00    -0.397 A  
HETATM    7  C   UNL     1     -12.167  13.479  66.802  1.00  0.00    -0.392 A  
ENDROOT
BRANCH   5   8
HETATM    8  N   UNL     1     -10.883  11.712  69.800  1.00  0.00    -0.448 NA 
HETATM    9  H   UNL     1     -10.191  12.234  70.336  1.00  0.00     0.000 HD 
BRANCH   8  10
HETATM   10  C   UNL     1     -11.582  10.675  70.483  1.00  0.00    -0.350 A  
HETATM   11  F   UNL     1     -13.169  12.277  71.207  1.00  0.00    -0.388 F  
HETATM   12  C   UNL     1     -12.716  11.014  71.239  1.00  0.00    -0.432 A  
HETATM   13  C   UNL     1     -11.203   9.315  70.478  1.00  0.00    -0.265 A  
HETATM   14 CL   UNL     1     -10.020   8.674  69.383  1.00  0.00    -0.192 Cl 
HETATM   15  C   UNL     1     -11.832   8.389  71.321  1.00  0.00    -0.327 A  
HETATM   16  C   UNL     1     -13.374  10.086  72.046  1.00  0.00    -0.513 A  
HETATM   17  C   UNL     1     -12.905   8.779  72.119  1.00  0.00    -0.456 A  
ENDBRANCH   8  10
ENDBRANCH   5   8
BRANCH   6  18
HETATM   18  C   UNL     1     -12.093  14.315  69.174  1.00  0.00    -0.337 C  
HETATM   19  O   UNL     1     -11.304  16.254  70.336  1.00  0.00    -0.371 OA 
HETATM   20  C   UNL     1     -11.091  15.406  69.478  1.00  0.00    -0.284 C  
HETATM   21  O   UNL     1      -9.937  15.412  68.777  1.00  0.00    -0.195 OA 
ENDBRANCH   6  18
TORSDOF 3
ENDMDL
MODEL       28
REMARK 921   NORMALIZED FREE ENERGY PREDICTED BY IDOCK:   -6.43 KCAL/MOL
REMARK 922        TOTAL FREE ENERGY PREDICTED BY IDOCK:   -7.79 KCAL/MOL
REMARK 923 INTER-LIGAND FREE ENERGY PREDICTED BY IDOCK:   -6.92 KCAL/MOL
REMARK 924 INTRA-LIGAND FREE ENERGY PREDICTED BY IDOCK:   -0.87 KCAL/MOL
REMARK 927      BINDING AFFINITY PREDICTED BY RF-SCORE:    0.00 PKD
ROOT
HETATM    1  C   UNL     1      -7.474   8.464  71.662  1.00  0.00    -0.118 C  
HETATM    2  C   UNL     1      -8.716   8.882  70.931  1.00  0.00    -0.256 A  
HETATM    3  C   UNL     1      -8.693   9.107  69.558  1.00  0.00    -0.140 A  
HETATM    4  C   UNL     1      -9.808   9.635  68.917  1.00  0.00    -0.179 A  
HETATM    5  C   UNL     1     -10.955   9.991  69.643  1.00  0.00    -0.264 A  
HETATM    6  C   UNL     1     -11.048   9.625  70.998  1.00  0.00    -0.438 A  
HETATM    7  C   UNL     1      -9.916   9.073  71.629  1.00  0.00    -0.383 A  
ENDROOT
BRANCH   5   8
HETATM    8  N   UNL     1     -11.957  10.805  69.062  1.00  0.00    -0.613 NA 
HETATM    9  H   UNL     1     -12.892  10.404  68.990  1.00  0.00     0.000 HD 
BRANCH   8  10
HETATM   10  C   UNL     1     -11.784  12.132  68.568  1.00  0.00    -0.330 A  
HETATM   11  F   UNL     1     -12.031  12.943  70.779  1.00  0.00    -0.411 F  
HETATM   12  C   UNL     1     -11.885  13.203  69.470  1.00  0.00    -0.322 A  
HETATM   13  C   UNL     1     -11.538  12.457  67.216  1.00  0.00    -0.365 A  
HETATM   14 CL   UNL     1     -11.099  11.271  66.029  1.00  0.00    -0.242 Cl 
HETATM   15  C   UNL     1     -11.563  13.789  66.781  1.00  0.00    -0.394 A  
HETATM   16  C   UNL     1     -11.866  14.532  69.048  1.00  0.00    -0.354 A  
HETATM   17  C   UNL     1     -11.745  14.825  67.694  1.00  0.00    -0.364 A  
ENDBRANCH   8  10
ENDBRANCH   5   8
BRANCH   6  18
HETATM   18  C   UNL     1     -12.307   9.836  71.813  1.00  0.00    -0.470 C  
HETATM   19  O   UNL     1     -14.349   8.830  72.555  1.00  0.00    -0.562 OA 
HETATM   20  C   UNL     1     -13.299   8.702  71.936  1.00  0.00    -0.382 C  
HETATM   21  O   UNL     1     -12.997   7.534  71.329  1.00  0.00    -0.331 OA 
ENDBRANCH   6  18
TORSDOF 3
ENDMDL
MODEL       29
REMARK 921   NORMALIZED FREE ENERGY PREDICTED BY IDOCK:   -6.39 KCAL/MOL
REMARK 922        TOTAL FREE ENERGY PREDICTED BY IDOCK:   -7.74 KCAL/MOL
REMARK 923 INTER-LIGAND FREE ENERGY PREDICTED BY IDOCK:   -6.93 KCAL/MOL
REMARK 924 INTRA-LIGAND FREE ENERGY PREDICTED BY IDOCK:   -0.81 KCAL/MOL
REMARK 927      BINDING AFFINITY PREDICTED BY RF-SCORE:    0.00 PKD
ROOT
HETATM    1  C   UNL     1     -13.350  13.143  72.433  1.00  0.00    -0.591 C  
HETATM    2  C   UNL     1     -12.785  13.101  71.044  1.00  0.00    -0.361 A  
HETATM    3  C   UNL     1     -12.392  11.896  70.470  1.00  0.00    -0.372 A  
HETATM    4  C   UNL     1     -11.734  11.886  69.245  1.00  0.00    -0.389 A  
HETATM    5  C   UNL     1     -11.416  13.084  68.589  1.00  0.00    -0.307 A  
HETATM    6  C   UNL     1     -11.944  14.293  69.077  1.00  0.00    -0.360 A  
HETATM    7  C   UNL     1     -12.624  14.284  70.310  1.00  0.00    -0.378 A  
ENDROOT
BRANCH   5   8
HETATM    8  N   UNL     1     -10.488  13.100  67.519  1.00  0.00    -0.227 NA 
HETATM    9  H   UNL     1      -9.648  13.663  67.647  1.00  0.00     0.000 HD 
BRANCH   8  10
HETATM   10  C   UNL     1     -10.618  12.405  66.280  1.00  0.00    -0.249 A  
HETATM   11  F   UNL     1      -8.928  10.907  66.992  1.00  0.00    -0.139 F  
HETATM   12  C   UNL     1      -9.761  11.322  66.026  1.00  0.00    -0.220 A  
HETATM   13  C   UNL     1     -11.539  12.743  65.266  1.00  0.00    -0.344 A  
HETATM   14 CL   UNL     1     -12.852  13.848  65.517  1.00  0.00    -0.537 Cl 
HETATM   15  C   UNL     1     -11.480  12.129  64.007  1.00  0.00    -0.488 A  
HETATM   16  C   UNL     1      -9.729  10.678  64.789  1.00  0.00    -0.350 A  
HETATM   17  C   UNL     1     -10.563  11.110  63.763  1.00  0.00    -0.422 A  
ENDBRANCH   8  10
ENDBRANCH   5   8
BRANCH   6  18
HETATM   18  C   UNL     1     -11.774  15.609  68.346  1.00  0.00    -0.301 C  
HETATM   19  O   UNL     1     -10.391  17.548  68.104  1.00  0.00    -0.336 OA 
HETATM   20  C   UNL     1     -10.560  16.460  68.642  1.00  0.00    -0.305 C  
HETATM   21  O   UNL     1      -9.663  15.987  69.533  1.00  0.00    -0.253 OA 
ENDBRANCH   6  18
TORSDOF 3
ENDMDL
MODEL       30
REMARK 921   NORMALIZED FREE ENERGY PREDICTED BY IDOCK:   -6.38 KCAL/MOL
REMARK 922        TOTAL FREE ENERGY PREDICTED BY IDOCK:   -7.73 KCAL/MOL
REMARK 923 INTER-LIGAND FREE ENERGY PREDICTED BY IDOCK:   -7.08 KCAL/MOL
REMARK 924 INTRA-LIGAND FREE ENERGY PREDICTED BY IDOCK:   -0.66 KCAL/MOL
REMARK 927      BINDING AFFINITY PREDICTED BY RF-SCORE:    0.00 PKD
ROOT
HETATM    1  C   UNL     1     -11.297   9.477  71.451  1.00  0.00    -0.462 C  
HETATM    2  C   UNL     1     -11.743  10.680  70.672  1.00  0.00    -0.454 A  
HETATM    3  C   UNL     1     -11.442  10.805  69.319  1.00  0.00    -0.369 A  
HETATM    4  C   UNL     1     -11.729  11.987  68.645  1.00  0.00    -0.380 A  
HETATM    5  C   UNL     1     -12.283  13.084  69.321  1.00  0.00    -0.089 A  
HETATM    6  C   UNL     1     -12.734  12.918  70.643  1.00  0.00    -0.157 A  
HETATM    7  C   UNL     1     -12.453  11.708  71.306  1.00  0.00    -0.371 A  
ENDROOT
BRANCH   5   8
HETATM    8  N   UNL     1     -12.288  14.372  68.730  1.00  0.00    -0.585 NA 
HETATM    9  H   UNL     1     -12.910  15.066  69.143  1.00  0.00     0.000 HD 
BRANCH   8  10
HETATM   10  C   UNL     1     -11.505  14.789  67.614  1.00  0.00    -0.347 A  
HETATM   11  F   UNL     1     -13.136  13.854  66.174  1.00  0.00    -0.407 F  
HETATM   12  C   UNL     1     -11.945  14.455  66.323  1.00  0.00    -0.376 A  
HETATM   13  C   UNL     1     -10.291  15.503  67.709  1.00  0.00    -0.263 A  
HETATM   14 CL   UNL     1      -9.749  16.243  69.181  1.00  0.00    -0.261 Cl 
HETATM   15  C   UNL     1      -9.490  15.715  66.578  1.00  0.00    -0.300 A  
HETATM   16  C   UNL     1     -11.173  14.704  65.189  1.00  0.00    -0.374 A  
HETATM   17  C   UNL     1      -9.923  15.299  65.321  1.00  0.00    -0.322 A  
ENDBRANCH   8  10
ENDBRANCH   5   8
BRANCH   6  18
HETATM   18  C   UNL     1     -13.478  14.005  71.391  1.00  0.00    -0.360 C  
HETATM   19  O   UNL     1     -13.240  16.033  72.640  1.00  0.00    -0.460 OA 
HETATM   20  C   UNL     1     -12.693  15.146  71.997  1.00  0.00    -0.342 C  
HETATM   21  O   UNL     1     -11.354  15.154  71.816  1.00  0.00    -0.397 OA 
ENDBRANCH   6  18
TORSDOF 3
ENDMDL
MODEL       31
REMARK 921   NORMALIZED FREE ENERGY PREDICTED BY IDOCK:   -6.38 KCAL/MOL
REMARK 922        TOTAL FREE ENERGY PREDICTED BY IDOCK:   -7.72 KCAL/MOL
REMARK 923 INTER-LIGAND FREE ENERGY PREDICTED BY IDOCK:   -6.93 KCAL/MOL
REMARK 924 INTRA-LIGAND FREE ENERGY PREDICTED BY IDOCK:   -0.79 KCAL/MOL
REMARK 927      BINDING AFFINITY PREDICTED BY RF-SCORE:    0.00 PKD
ROOT
HETATM    1  C   UNL     1     -11.609  11.736  67.757  1.00  0.00    -0.374 C  
HETATM    2  C   UNL     1     -11.492  13.190  68.113  1.00  0.00    -0.349 A  
HETATM    3  C   UNL     1     -11.277  14.149  67.128  1.00  0.00    -0.330 A  
HETATM    4  C   UNL     1     -11.022  15.469  67.482  1.00  0.00    -0.316 A  
HETATM    5  C   UNL     1     -10.933  15.849  68.829  1.00  0.00    -0.301 A  
HETATM    6  C   UNL     1     -11.302  14.928  69.826  1.00  0.00    -0.314 A  
HETATM    7  C   UNL     1     -11.576  13.599  69.450  1.00  0.00    -0.368 A  
ENDROOT
BRANCH   5   8
HETATM    8  N   UNL     1     -10.374  17.098  69.195  1.00  0.00    -0.317 NA 
HETATM    9  H   UNL     1     -10.830  17.603  69.954  1.00  0.00     0.000 HD 
BRANCH   8  10
HETATM   10  C   UNL     1      -9.235  17.717  68.601  1.00  0.00    -0.266 A  
HETATM   11  F   UNL     1      -7.903  15.924  69.389  1.00  0.00    -0.204 F  
HETATM   12  C   UNL     1      -7.978  17.113  68.772  1.00  0.00    -0.255 A  
HETATM   13  C   UNL     1      -9.270  18.920  67.865  1.00  0.00    -0.303 A  
HETATM   14 CL   UNL     1     -10.747  19.642  67.313  1.00  0.00    -0.597 Cl 
HETATM   15  C   UNL     1      -8.085  19.559  67.473  1.00  0.00    -0.325 A  
HETATM   16  C   UNL     1      -6.799  17.723  68.344  1.00  0.00    -0.221 A  
HETATM   17  C   UNL     1      -6.849  18.969  67.728  1.00  0.00    -0.229 A  
ENDBRANCH   8  10
ENDBRANCH   5   8
BRANCH   6  18
HETATM   18  C   UNL     1     -11.379  15.303  71.292  1.00  0.00    -0.416 C  
HETATM   19  O   UNL     1     -12.813  16.105  73.033  1.00  0.00    -0.457 OA 
HETATM   20  C   UNL     1     -12.703  15.758  71.863  1.00  0.00    -0.451 C  
HETATM   21  O   UNL     1     -13.769  15.782  71.036  1.00  0.00    -0.539 OA 
ENDBRANCH   6  18
TORSDOF 3
ENDMDL
MODEL       32
REMARK 921   NORMALIZED FREE ENERGY PREDICTED BY IDOCK:   -6.37 KCAL/MOL
REMARK 922        TOTAL FREE ENERGY PREDICTED BY IDOCK:   -7.72 KCAL/MOL
REMARK 923 INTER-LIGAND FREE ENERGY PREDICTED BY IDOCK:   -6.95 KCAL/MOL
REMARK 924 INTRA-LIGAND FREE ENERGY PREDICTED BY IDOCK:   -0.76 KCAL/MOL
REMARK 927      BINDING AFFINITY PREDICTED BY RF-SCORE:    0.00 PKD
ROOT
HETATM    1  C   UNL     1     -11.823  15.671  70.730  1.00  0.00    -0.421 C  
HETATM    2  C   UNL     1     -11.995  14.226  70.361  1.00  0.00    -0.402 A  
HETATM    3  C   UNL     1     -12.752  13.373  71.157  1.00  0.00    -0.411 A  
HETATM    4  C   UNL     1     -12.782  12.009  70.888  1.00  0.00    -0.291 A  
HETATM    5  C   UNL     1     -12.020  11.464  69.845  1.00  0.00    -0.359 A  
HETATM    6  C   UNL     1     -11.378  12.330  68.941  1.00  0.00    -0.337 A  
HETATM    7  C   UNL     1     -11.373  13.711  69.216  1.00  0.00    -0.323 A  
ENDROOT
BRANCH   5   8
HETATM    8  N   UNL     1     -11.800  10.067  69.761  1.00  0.00    -0.460 NA 
HETATM    9  H   UNL     1     -12.065   9.610  68.889  1.00  0.00     0.000 HD 
BRANCH   8  10
HETATM   10  C   UNL     1     -11.242   9.240  70.780  1.00  0.00    -0.288 A  
HETATM   11  F   UNL     1     -13.429   8.514  71.329  1.00  0.00    -0.332 F  
HETATM   12  C   UNL     1     -12.114   8.503  71.598  1.00  0.00    -0.321 A  
HETATM   13  C   UNL     1      -9.862   9.121  71.048  1.00  0.00    -0.296 A  
HETATM   14 CL   UNL     1      -8.640   9.718  69.972  1.00  0.00    -0.225 Cl 
HETATM   15  C   UNL     1      -9.405   8.433  72.181  1.00  0.00    -0.339 A  
HETATM   16  C   UNL     1     -11.661   7.780  72.701  1.00  0.00    -0.364 A  
HETATM   17  C   UNL     1     -10.307   7.778  73.017  1.00  0.00    -0.410 A  
ENDBRANCH   8  10
ENDBRANCH   5   8
BRANCH   6  18
HETATM   18  C   UNL     1     -10.662  11.829  67.703  1.00  0.00    -0.254 C  
HETATM   19  O   UNL     1     -10.802  11.585  65.326  1.00  0.00    -0.287 OA 
HETATM   20  C   UNL     1     -11.322  12.002  66.354  1.00  0.00    -0.354 C  
HETATM   21  O   UNL     1     -12.519  12.626  66.316  1.00  0.00    -0.483 OA 
ENDBRANCH   6  18
TORSDOF 3
ENDMDL
MODEL       33
REMARK 921   NORMALIZED FREE ENERGY PREDICTED BY IDOCK:   -6.37 KCAL/MOL
REMARK 922        TOTAL FREE ENERGY PREDICTED BY IDOCK:   -7.72 KCAL/MOL
REMARK 923 INTER-LIGAND FREE ENERGY PREDICTED BY IDOCK:   -6.94 KCAL/MOL
REMARK 924 INTRA-LIGAND FREE ENERGY PREDICTED BY IDOCK:   -0.78 KCAL/MOL
REMARK 927      BINDING AFFINITY PREDICTED BY RF-SCORE:    0.00 PKD
ROOT
HETATM    1  C   UNL     1     -13.866  13.465  72.383  1.00  0.00    -0.665 C  
HETATM    2  C   UNL     1     -13.091  12.518  71.514  1.00  0.00    -0.373 A  
HETATM    3  C   UNL     1     -13.145  11.145  71.732  1.00  0.00    -0.536 A  
HETATM    4  C   UNL     1     -12.311  10.291  71.020  1.00  0.00    -0.483 A  
HETATM    5  C   UNL     1     -11.373  10.796  70.107  1.00  0.00    -0.309 A  
HETATM    6  C   UNL     1     -11.416  12.160  69.765  1.00  0.00    -0.261 A  
HETATM    7  C   UNL     1     -12.281  13.009  70.482  1.00  0.00    -0.392 A  
ENDROOT
BRANCH   5   8
HETATM    8  N   UNL     1     -10.323   9.979  69.620  1.00  0.00    -0.231 NA 
HETATM    9  H   UNL     1      -9.384  10.376  69.638  1.00  0.00     0.000 HD 
BRANCH   8  10
HETATM   10  C   UNL     1     -10.455   8.655  69.106  1.00  0.00    -0.211 A  
HETATM   11  F   UNL     1     -10.234   9.528  66.916  1.00  0.00    -0.251 F  
HETATM   12  C   UNL     1     -10.461   8.473  67.714  1.00  0.00    -0.223 A  
HETATM   13  C   UNL     1     -10.606   7.499  69.902  1.00  0.00    -0.237 A  
HETATM   14 CL   UNL     1     -10.333   7.494  71.615  1.00  0.00    -0.210 Cl 
HETATM   15  C   UNL     1     -10.913   6.261  69.321  1.00  0.00    -0.435 A  
HETATM   16  C   UNL     1     -10.722   7.234  67.130  1.00  0.00    -0.413 A  
HETATM   17  C   UNL     1     -10.990   6.133  67.936  1.00  0.00    -0.399 A  
ENDBRANCH   8  10
ENDBRANCH   5   8
BRANCH   6  18
HETATM   18  C   UNL     1     -10.541  12.754  68.681  1.00  0.00    -0.256 C  
HETATM   19  O   UNL     1     -10.320  13.114  66.324  1.00  0.00    -0.276 OA 
HETATM   20  C   UNL     1     -11.004  12.680  67.243  1.00  0.00    -0.256 C  
HETATM   21  O   UNL     1     -12.201  12.105  66.997  1.00  0.00    -0.522 OA 
ENDBRANCH   6  18
TORSDOF 3
ENDMDL
MODEL       34
REMARK 921   NORMALIZED FREE ENERGY PREDICTED BY IDOCK:   -6.37 KCAL/MOL
REMARK 922        TOTAL FREE ENERGY PREDICTED BY IDOCK:   -7.71 KCAL/MOL
REMARK 923 INTER-LIGAND FREE ENERGY PREDICTED BY IDOCK:   -6.81 KCAL/MOL
REMARK 924 INTRA-LIGAND FREE ENERGY PREDICTED BY IDOCK:   -0.90 KCAL/MOL
REMARK 927      BINDING AFFINITY PREDICTED BY RF-SCORE:    0.00 PKD
ROOT
HETATM    1  C   UNL     1     -14.311   7.088  72.007  1.00  0.00    -0.359 C  
HETATM    2  C   UNL     1     -13.307   8.156  71.684  1.00  0.00    -0.358 A  
HETATM    3  C   UNL     1     -13.622   9.501  71.840  1.00  0.00    -0.468 A  
HETATM    4  C   UNL     1     -12.740  10.482  71.398  1.00  0.00    -0.547 A  
HETATM    5  C   UNL     1     -11.544  10.136  70.751  1.00  0.00    -0.357 A  
HETATM    6  C   UNL     1     -11.143   8.788  70.729  1.00  0.00    -0.306 A  
HETATM    7  C   UNL     1     -12.039   7.808  71.198  1.00  0.00    -0.306 A  
ENDROOT
BRANCH   5   8
HETATM    8  N   UNL     1     -10.804  11.105  70.031  1.00  0.00    -0.456 NA 
HETATM    9  H   UNL     1      -9.820  11.211  70.278  1.00  0.00     0.000 HD 
BRANCH   8  10
HETATM   10  C   UNL     1     -11.303  11.947  68.993  1.00  0.00    -0.279 A  
HETATM   11  F   UNL     1     -11.050  10.150  67.472  1.00  0.00    -0.332 F  
HETATM   12  C   UNL     1     -11.360  11.438  67.686  1.00  0.00    -0.290 A  
HETATM   13  C   UNL     1     -11.727  13.280  69.179  1.00  0.00    -0.329 A  
HETATM   14 CL   UNL     1     -11.998  13.971  70.746  1.00  0.00    -0.388 Cl 
HETATM   15  C   UNL     1     -12.030  14.098  68.081  1.00  0.00    -0.367 A  
HETATM   16  C   UNL     1     -11.704  12.236  66.595  1.00  0.00    -0.417 A  
HETATM   17  C   UNL     1     -12.000  13.581  66.788  1.00  0.00    -0.453 A  
ENDBRANCH   8  10
ENDBRANCH   5   8
BRANCH   6  18
HETATM   18  C   UNL     1      -9.799   8.349  70.185  1.00  0.00    -0.183 C  
HETATM   19  O   UNL     1      -7.481   8.052  70.706  1.00  0.00    -0.068 OA 
HETATM   20  C   UNL     1      -8.597   8.365  71.103  1.00  0.00    -0.154 C  
HETATM   21  O   UNL     1      -8.789   8.749  72.383  1.00  0.00    -0.391 OA 
ENDBRANCH   6  18
TORSDOF 3
ENDMDL
MODEL       35
REMARK 921   NORMALIZED FREE ENERGY PREDICTED BY IDOCK:   -6.36 KCAL/MOL
REMARK 922        TOTAL FREE ENERGY PREDICTED BY IDOCK:   -7.71 KCAL/MOL
REMARK 923 INTER-LIGAND FREE ENERGY PREDICTED BY IDOCK:   -7.03 KCAL/MOL
REMARK 924 INTRA-LIGAND FREE ENERGY PREDICTED BY IDOCK:   -0.68 KCAL/MOL
REMARK 927      BINDING AFFINITY PREDICTED BY RF-SCORE:    0.00 PKD
ROOT
HETATM    1  C   UNL     1     -11.835  15.903  71.461  1.00  0.00    -0.536 C  
HETATM    2  C   UNL     1     -11.465  15.684  70.022  1.00  0.00    -0.352 A  
HETATM    3  C   UNL     1     -12.127  14.731  69.254  1.00  0.00    -0.296 A  
HETATM    4  C   UNL     1     -11.679  14.433  67.972  1.00  0.00    -0.374 A  
HETATM    5  C   UNL     1     -10.533  15.050  67.448  1.00  0.00    -0.257 A  
HETATM    6  C   UNL     1      -9.952  16.122  68.149  1.00  0.00    -0.230 A  
HETATM    7  C   UNL     1     -10.430  16.425  69.439  1.00  0.00    -0.309 A  
ENDROOT
BRANCH   5   8
HETATM    8  N   UNL     1      -9.897  14.535  66.291  1.00  0.00    -0.290 NA 
HETATM    9  H   UNL     1      -9.002  14.950  66.035  1.00  0.00     0.000 HD 
BRANCH   8  10
HETATM   10  C   UNL     1     -10.390  13.494  65.452  1.00  0.00    -0.319 A  
HETATM   11  F   UNL     1      -8.951  11.975  66.561  1.00  0.00    -0.194 F  
HETATM   12  C   UNL     1      -9.840  12.209  65.583  1.00  0.00    -0.237 A  
HETATM   13  C   UNL     1     -11.388  13.664  64.468  1.00  0.00    -0.375 A  
HETATM   14 CL   UNL     1     -12.373  15.087  64.363  1.00  0.00    -0.408 Cl 
HETATM   15  C   UNL     1     -11.686  12.637  63.561  1.00  0.00    -0.604 A  
HETATM   16  C   UNL     1     -10.166  11.170  64.711  1.00  0.00    -0.365 A  
HETATM   17  C   UNL     1     -11.061  11.397  63.671  1.00  0.00    -0.411 A  
ENDBRANCH   8  10
ENDBRANCH   5   8
BRANCH   6  18
HETATM   18  C   UNL     1      -8.808  16.939  67.583  1.00  0.00    -0.215 C  
HETATM   19  O   UNL     1      -8.169  18.487  65.873  1.00  0.00    -0.497 OA 
HETATM   20  C   UNL     1      -9.065  17.832  66.391  1.00  0.00    -0.234 C  
HETATM   21  O   UNL     1     -10.322  17.879  65.900  1.00  0.00    -0.525 OA 
ENDBRANCH   6  18
TORSDOF 3
ENDMDL
MODEL       36
REMARK 921   NORMALIZED FREE ENERGY PREDICTED BY IDOCK:   -6.36 KCAL/MOL
REMARK 922        TOTAL FREE ENERGY PREDICTED BY IDOCK:   -7.70 KCAL/MOL
REMARK 923 INTER-LIGAND FREE ENERGY PREDICTED BY IDOCK:   -6.83 KCAL/MOL
REMARK 924 INTRA-LIGAND FREE ENERGY PREDICTED BY IDOCK:   -0.87 KCAL/MOL
REMARK 927      BINDING AFFINITY PREDICTED BY RF-SCORE:    0.00 PKD
ROOT
HETATM    1  C   UNL     1     -13.289  12.728  72.305  1.00  0.00    -0.563 C  
HETATM    2  C   UNL     1     -12.751  12.885  70.913  1.00  0.00    -0.291 A  
HETATM    3  C   UNL     1     -12.448  11.772  70.135  1.00  0.00    -0.182 A  
HETATM    4  C   UNL     1     -11.814  11.928  68.908  1.00  0.00    -0.366 A  
HETATM    5  C   UNL     1     -11.429  13.197  68.452  1.00  0.00    -0.315 A  
HETATM    6  C   UNL     1     -11.868  14.337  69.150  1.00  0.00    -0.368 A  
HETATM    7  C   UNL     1     -12.526  14.163  70.383  1.00  0.00    -0.424 A  
ENDROOT
BRANCH   5   8
HETATM    8  N   UNL     1     -10.521  13.336  67.374  1.00  0.00    -0.242 NA 
HETATM    9  H   UNL     1      -9.651  13.832  67.566  1.00  0.00     0.000 HD 
BRANCH   8  10
HETATM   10  C   UNL     1     -10.707  12.849  66.047  1.00  0.00    -0.277 A  
HETATM   11  F   UNL     1     -11.959  14.798  65.552  1.00  0.00    -0.353 F  
HETATM   12  C   UNL     1     -11.497  13.600  65.162  1.00  0.00    -0.316 A  
HETATM   13  C   UNL     1     -10.170  11.640  65.555  1.00  0.00    -0.260 A  
HETATM   14 CL   UNL     1      -8.951  10.741  66.399  1.00  0.00    -0.171 Cl 
HETATM   15  C   UNL     1     -10.550  11.142  64.301  1.00  0.00    -0.425 A  
HETATM   16  C   UNL     1     -11.842  13.129  63.895  1.00  0.00    -0.533 A  
HETATM   17  C   UNL     1     -11.400  11.877  63.479  1.00  0.00    -0.516 A  
ENDBRANCH   8  10
ENDBRANCH   5   8
BRANCH   6  18
HETATM   18  C   UNL     1     -11.625  15.744  68.644  1.00  0.00    -0.392 C  
HETATM   19  O   UNL     1     -10.044  17.538  68.535  1.00  0.00    -0.319 OA 
HETATM   20  C   UNL     1     -10.281  16.391  68.893  1.00  0.00    -0.258 C  
HETATM   21  O   UNL     1      -9.344  15.663  69.538  1.00  0.00    -0.264 OA 
ENDBRANCH   6  18
TORSDOF 3
ENDMDL
MODEL       37
REMARK 921   NORMALIZED FREE ENERGY PREDICTED BY IDOCK:   -6.36 KCAL/MOL
REMARK 922        TOTAL FREE ENERGY PREDICTED BY IDOCK:   -7.70 KCAL/MOL
REMARK 923 INTER-LIGAND FREE ENERGY PREDICTED BY IDOCK:   -6.83 KCAL/MOL
REMARK 924 INTRA-LIGAND FREE ENERGY PREDICTED BY IDOCK:   -0.87 KCAL/MOL
REMARK 927      BINDING AFFINITY PREDICTED BY RF-SCORE:    0.00 PKD
ROOT
HETATM    1  C   UNL     1     -13.889  13.583  72.221  1.00  0.00    -0.680 C  
HETATM    2  C   UNL     1     -12.856  14.222  71.338  1.00  0.00    -0.415 A  
HETATM    3  C   UNL     1     -12.492  15.553  71.516  1.00  0.00    -0.474 A  
HETATM    4  C   UNL     1     -11.648  16.175  70.603  1.00  0.00    -0.347 A  
HETATM    5  C   UNL     1     -11.185  15.491  69.469  1.00  0.00    -0.299 A  
HETATM    6  C   UNL     1     -11.416  14.108  69.362  1.00  0.00    -0.337 A  
HETATM    7  C   UNL     1     -12.258  13.488  70.305  1.00  0.00    -0.417 A  
ENDROOT
BRANCH   5   8
HETATM    8  N   UNL     1     -10.594  16.194  68.390  1.00  0.00    -0.271 NA 
HETATM    9  H   UNL     1     -10.989  16.033  67.464  1.00  0.00     0.000 HD 
BRANCH   8  10
HETATM   10  C   UNL     1      -9.499  17.103  68.477  1.00  0.00    -0.282 A  
HETATM   11  F   UNL     1     -11.028  18.899  68.269  1.00  0.00    -0.257 F  
HETATM   12  C   UNL     1      -9.757  18.478  68.353  1.00  0.00    -0.364 A  
HETATM   13  C   UNL     1      -8.152  16.720  68.655  1.00  0.00    -0.251 A  
HETATM   14 CL   UNL     1      -7.684  15.114  69.110  1.00  0.00    -0.180 Cl 
HETATM   15  C   UNL     1      -7.116  17.658  68.545  1.00  0.00    -0.239 A  
HETATM   16  C   UNL     1      -8.732  19.421  68.288  1.00  0.00    -0.376 A  
HETATM   17  C   UNL     1      -7.406  19.006  68.343  1.00  0.00    -0.328 A  
ENDBRANCH   8  10
ENDBRANCH   5   8
BRANCH   6  18
HETATM   18  C   UNL     1     -10.824  13.268  68.248  1.00  0.00    -0.276 C  
HETATM   19  O   UNL     1     -11.043  12.631  65.951  1.00  0.00    -0.274 OA 
HETATM   20  C   UNL     1     -11.460  13.315  66.878  1.00  0.00    -0.338 C  
HETATM   21  O   UNL     1     -12.521  14.133  66.705  1.00  0.00    -0.426 OA 
ENDBRANCH   6  18
TORSDOF 3
ENDMDL
MODEL       38
REMARK 921   NORMALIZED FREE ENERGY PREDICTED BY IDOCK:   -6.34 KCAL/MOL
REMARK 922        TOTAL FREE ENERGY PREDICTED BY IDOCK:   -7.67 KCAL/MOL
REMARK 923 INTER-LIGAND FREE ENERGY PREDICTED BY IDOCK:   -7.02 KCAL/MOL
REMARK 924 INTRA-LIGAND FREE ENERGY PREDICTED BY IDOCK:   -0.65 KCAL/MOL
REMARK 927      BINDING AFFINITY PREDICTED BY RF-SCORE:    0.00 PKD
ROOT
HETATM    1  C   UNL     1     -12.506  12.498  64.637  1.00  0.00    -0.539 C  
HETATM    2  C   UNL     1     -11.932  12.365  66.018  1.00  0.00    -0.419 A  
HETATM    3  C   UNL     1     -11.111  11.291  66.348  1.00  0.00    -0.257 A  
HETATM    4  C   UNL     1     -10.708  11.098  67.664  1.00  0.00    -0.273 A  
HETATM    5  C   UNL     1     -11.154  11.949  68.687  1.00  0.00    -0.246 A  
HETATM    6  C   UNL     1     -11.851  13.122  68.345  1.00  0.00    -0.386 A  
HETATM    7  C   UNL     1     -12.236  13.313  67.004  1.00  0.00    -0.310 A  
ENDROOT
BRANCH   5   8
HETATM    8  N   UNL     1     -11.009  11.586  70.048  1.00  0.00    -0.425 NA 
HETATM    9  H   UNL     1     -10.357  12.137  70.605  1.00  0.00     0.000 HD 
BRANCH   8  10
HETATM   10  C   UNL     1     -11.688  10.522  70.712  1.00  0.00    -0.356 A  
HETATM   11  F   UNL     1     -10.080   9.013  69.849  1.00  0.00    -0.180 F  
HETATM   12  C   UNL     1     -11.214   9.212  70.539  1.00  0.00    -0.264 A  
HETATM   13  C   UNL     1     -12.831  10.686  71.524  1.00  0.00    -0.462 A  
HETATM   14 CL   UNL     1     -13.376  12.235  72.079  1.00  0.00    -0.578 Cl 
HETATM   15  C   UNL     1     -13.547   9.574  71.990  1.00  0.00    -0.492 A  
HETATM   16  C   UNL     1     -11.898   8.104  71.039  1.00  0.00    -0.279 A  
HETATM   17  C   UNL     1     -13.090   8.284  71.733  1.00  0.00    -0.366 A  
ENDBRANCH   8  10
ENDBRANCH   5   8
BRANCH   6  18
HETATM   18  C   UNL     1     -12.235  14.168  69.371  1.00  0.00    -0.329 C  
HETATM   19  O   UNL     1     -11.504  16.128  70.535  1.00  0.00    -0.367 OA 
HETATM   20  C   UNL     1     -11.257  15.277  69.689  1.00  0.00    -0.278 C  
HETATM   21  O   UNL     1     -10.088  15.295  69.015  1.00  0.00    -0.218 OA 
ENDBRANCH   6  18
TORSDOF 3
ENDMDL
MODEL       39
REMARK 921   NORMALIZED FREE ENERGY PREDICTED BY IDOCK:   -6.33 KCAL/MOL
REMARK 922        TOTAL FREE ENERGY PREDICTED BY IDOCK:   -7.66 KCAL/MOL
REMARK 923 INTER-LIGAND FREE ENERGY PREDICTED BY IDOCK:   -6.95 KCAL/MOL
REMARK 924 INTRA-LIGAND FREE ENERGY PREDICTED BY IDOCK:   -0.71 KCAL/MOL
REMARK 927      BINDING AFFINITY PREDICTED BY RF-SCORE:    0.00 PKD
ROOT
HETATM    1  C   UNL     1     -12.759  14.189  65.388  1.00  0.00    -0.453 C  
HETATM    2  C   UNL     1     -12.077  13.563  66.570  1.00  0.00    -0.460 A  
HETATM    3  C   UNL     1     -11.780  12.204  66.582  1.00  0.00    -0.385 A  
HETATM    4  C   UNL     1     -11.285  11.607  67.737  1.00  0.00    -0.333 A  
HETATM    5  C   UNL     1     -11.118  12.348  68.916  1.00  0.00    -0.258 A  
HETATM    6  C   UNL     1     -11.264  13.746  68.871  1.00  0.00    -0.309 A  
HETATM    7  C   UNL     1     -11.748  14.338  67.689  1.00  0.00    -0.421 A  
ENDROOT
BRANCH   5   8
HETATM    8  N   UNL     1     -10.918  11.698  70.158  1.00  0.00    -0.304 NA 
HETATM    9  H   UNL     1     -10.194  12.079  70.766  1.00  0.00     0.000 HD 
BRANCH   8  10
HETATM   10  C   UNL     1     -11.634  10.563  70.640  1.00  0.00    -0.352 A  
HETATM   11  F   UNL     1     -13.209  12.027  71.630  1.00  0.00    -0.490 F  
HETATM   12  C   UNL     1     -12.770  10.774  71.437  1.00  0.00    -0.439 A  
HETATM   13  C   UNL     1     -11.268   9.222  70.392  1.00  0.00    -0.247 A  
HETATM   14 CL   UNL     1     -10.083   8.774  69.207  1.00  0.00    -0.198 Cl 
HETATM   15  C   UNL     1     -11.913   8.166  71.051  1.00  0.00    -0.257 A  
HETATM   16  C   UNL     1     -13.444   9.723  72.060  1.00  0.00    -0.498 A  
HETATM   17  C   UNL     1     -12.989   8.419  71.899  1.00  0.00    -0.381 A  
ENDBRANCH   8  10
ENDBRANCH   5   8
BRANCH   6  18
HETATM   18  C   UNL     1     -10.955  14.634  70.059  1.00  0.00    -0.149 C  
HETATM   19  O   UNL     1     -11.908  15.940  71.825  1.00  0.00    -0.412 OA 
HETATM   20  C   UNL     1     -12.100  15.191  70.875  1.00  0.00    -0.334 C  
HETATM   21  O   UNL     1     -13.354  14.843  70.516  1.00  0.00    -0.270 OA 
ENDBRANCH   6  18
TORSDOF 3
ENDMDL
MODEL       40
REMARK 921   NORMALIZED FREE ENERGY PREDICTED BY IDOCK:   -6.33 KCAL/MOL
REMARK 922        TOTAL FREE ENERGY PREDICTED BY IDOCK:   -7.66 KCAL/MOL
REMARK 923 INTER-LIGAND FREE ENERGY PREDICTED BY IDOCK:   -7.01 KCAL/MOL
REMARK 924 INTRA-LIGAND FREE ENERGY PREDICTED BY IDOCK:   -0.65 KCAL/MOL
REMARK 927      BINDING AFFINITY PREDICTED BY RF-SCORE:    0.00 PKD
ROOT
HETATM    1  C   UNL     1      -7.587   8.598  71.592  1.00  0.00    -0.139 C  
HETATM    2  C   UNL     1      -8.827   8.983  70.839  1.00  0.00    -0.294 A  
HETATM    3  C   UNL     1      -8.809   9.110  69.454  1.00  0.00    -0.146 A  
HETATM    4  C   UNL     1      -9.919   9.610  68.783  1.00  0.00    -0.184 A  
HETATM    5  C   UNL     1     -11.055  10.036  69.487  1.00  0.00    -0.238 A  
HETATM    6  C   UNL     1     -11.146   9.767  70.865  1.00  0.00    -0.428 A  
HETATM    7  C   UNL     1     -10.019   9.242  71.528  1.00  0.00    -0.281 A  
ENDROOT
BRANCH   5   8
HETATM    8  N   UNL     1     -12.048  10.823  68.855  1.00  0.00    -0.749 NA 
HETATM    9  H   UNL     1     -12.957  10.386  68.707  1.00  0.00     0.000 HD 
BRANCH   8  10
HETATM   10  C   UNL     1     -11.896  12.168  68.405  1.00  0.00    -0.303 A  
HETATM   11  F   UNL     1     -11.544  11.350  66.211  1.00  0.00    -0.326 F  
HETATM   12  C   UNL     1     -11.583  12.392  67.055  1.00  0.00    -0.365 A  
HETATM   13  C   UNL     1     -12.016  13.306  69.231  1.00  0.00    -0.303 A  
HETATM   14 CL   UNL     1     -12.674  13.241  70.833  1.00  0.00    -0.368 Cl 
HETATM   15  C   UNL     1     -11.672  14.579  68.755  1.00  0.00    -0.362 A  
HETATM   16  C   UNL     1     -11.283  13.663  66.565  1.00  0.00    -0.321 A  
HETATM   17  C   UNL     1     -11.288  14.755  67.427  1.00  0.00    -0.361 A  
ENDBRANCH   8  10
ENDBRANCH   5   8
BRANCH   6  18
HETATM   18  C   UNL     1     -12.397  10.057  71.669  1.00  0.00    -0.486 C  
HETATM   19  O   UNL     1     -14.343   9.091  72.674  1.00  0.00    -0.603 OA 
HETATM   20  C   UNL     1     -13.302   8.908  72.054  1.00  0.00    -0.421 C  
HETATM   21  O   UNL     1     -12.933   7.665  71.681  1.00  0.00    -0.334 OA 
ENDBRANCH   6  18
TORSDOF 3
ENDMDL
MODEL       41
REMARK 921   NORMALIZED FREE ENERGY PREDICTED BY IDOCK:   -6.25 KCAL/MOL
REMARK 922        TOTAL FREE ENERGY PREDICTED BY IDOCK:   -7.57 KCAL/MOL
REMARK 923 INTER-LIGAND FREE ENERGY PREDICTED BY IDOCK:   -6.84 KCAL/MOL
REMARK 924 INTRA-LIGAND FREE ENERGY PREDICTED BY IDOCK:   -0.73 KCAL/MOL
REMARK 927      BINDING AFFINITY PREDICTED BY RF-SCORE:    0.00 PKD
ROOT
HETATM    1  C   UNL     1     -12.853  10.163  71.778  1.00  0.00    -0.554 C  
HETATM    2  C   UNL     1     -12.479  11.285  70.853  1.00  0.00    -0.493 A  
HETATM    3  C   UNL     1     -12.607  12.611  71.255  1.00  0.00    -0.339 A  
HETATM    4  C   UNL     1     -12.400  13.640  70.343  1.00  0.00    -0.415 A  
HETATM    5  C   UNL     1     -12.104  13.364  69.000  1.00  0.00    -0.259 A  
HETATM    6  C   UNL     1     -11.819  12.040  68.620  1.00  0.00    -0.366 A  
HETATM    7  C   UNL     1     -12.015  11.010  69.561  1.00  0.00    -0.413 A  
ENDROOT
BRANCH   5   8
HETATM    8  N   UNL     1     -12.201  14.376  68.013  1.00  0.00    -0.609 NA 
HETATM    9  H   UNL     1     -13.113  14.510  67.578  1.00  0.00     0.000 HD 
BRANCH   8  10
HETATM   10  C   UNL     1     -11.144  15.224  67.570  1.00  0.00    -0.324 A  
HETATM   11  F   UNL     1     -11.492  14.437  65.364  1.00  0.00    -0.315 F  
HETATM   12  C   UNL     1     -10.774  15.184  66.216  1.00  0.00    -0.320 A  
HETATM   13  C   UNL     1     -10.414  16.096  68.406  1.00  0.00    -0.274 A  
HETATM   14 CL   UNL     1     -10.912  16.489  70.020  1.00  0.00    -0.325 Cl 
HETATM   15  C   UNL     1      -9.272  16.758  67.933  1.00  0.00    -0.225 A  
HETATM   16  C   UNL     1      -9.665  15.876  65.730  1.00  0.00    -0.360 A  
HETATM   17  C   UNL     1      -8.887  16.633  66.600  1.00  0.00    -0.280 A  
ENDBRANCH   8  10
ENDBRANCH   5   8
BRANCH   6  18
HETATM   18  C   UNL     1     -11.346  11.677  67.227  1.00  0.00    -0.372 C  
HETATM   19  O   UNL     1      -9.434  11.489  65.799  1.00  0.00    -0.227 OA 
HETATM   20  C   UNL     1      -9.867  11.739  66.917  1.00  0.00    -0.203 C  
HETATM   21  O   UNL     1      -9.030  12.093  67.916  1.00  0.00    -0.169 OA 
ENDBRANCH   6  18
TORSDOF 3
ENDMDL
MODEL       42
REMARK 921   NORMALIZED FREE ENERGY PREDICTED BY IDOCK:   -6.24 KCAL/MOL
REMARK 922        TOTAL FREE ENERGY PREDICTED BY IDOCK:   -7.57 KCAL/MOL
REMARK 923 INTER-LIGAND FREE ENERGY PREDICTED BY IDOCK:   -7.10 KCAL/MOL
REMARK 924 INTRA-LIGAND FREE ENERGY PREDICTED BY IDOCK:   -0.47 KCAL/MOL
REMARK 927      BINDING AFFINITY PREDICTED BY RF-SCORE:    0.00 PKD
ROOT
HETATM    1  C   UNL     1      -9.743  10.904  62.922  1.00  0.00    -0.349 C  
HETATM    2  C   UNL     1     -10.557  11.489  64.040  1.00  0.00    -0.437 A  
HETATM    3  C   UNL     1     -11.700  12.235  63.773  1.00  0.00    -0.566 A  
HETATM    4  C   UNL     1     -12.360  12.894  64.804  1.00  0.00    -0.516 A  
HETATM    5  C   UNL     1     -11.865  12.857  66.116  1.00  0.00    -0.429 A  
HETATM    6  C   UNL     1     -10.807  11.983  66.424  1.00  0.00    -0.314 A  
HETATM    7  C   UNL     1     -10.161  11.307  65.371  1.00  0.00    -0.314 A  
ENDROOT
BRANCH   5   8
HETATM    8  N   UNL     1     -12.340  13.764  67.096  1.00  0.00    -0.442 NA 
HETATM    9  H   UNL     1     -13.319  13.677  67.367  1.00  0.00     0.000 HD 
BRANCH   8  10
HETATM   10  C   UNL     1     -11.579  14.784  67.738  1.00  0.00    -0.357 A  
HETATM   11  F   UNL     1     -12.497  14.104  69.813  1.00  0.00    -0.359 F  
HETATM   12  C   UNL     1     -11.731  14.963  69.123  1.00  0.00    -0.309 A  
HETATM   13  C   UNL     1     -10.690  15.657  67.075  1.00  0.00    -0.314 A  
HETATM   14 CL   UNL     1     -10.163  15.401  65.443  1.00  0.00    -0.398 Cl 
HETATM   15  C   UNL     1     -10.121  16.750  67.745  1.00  0.00    -0.281 A  
HETATM   16  C   UNL     1     -11.131  16.023  69.803  1.00  0.00    -0.337 A  
HETATM   17  C   UNL     1     -10.357  16.943  69.104  1.00  0.00    -0.319 A  
ENDBRANCH   8  10
ENDBRANCH   5   8
BRANCH   6  18
HETATM   18  C   UNL     1     -10.313  11.771  67.840  1.00  0.00    -0.209 C  
HETATM   19  O   UNL     1     -10.930  11.055  70.040  1.00  0.00    -0.216 OA 
HETATM   20  C   UNL     1     -11.268  11.214  68.873  1.00  0.00    -0.256 C  
HETATM   21  O   UNL     1     -12.519  10.904  68.470  1.00  0.00    -0.375 OA 
ENDBRANCH   6  18
TORSDOF 3
ENDMDL
MODEL       43
REMARK 921   NORMALIZED FREE ENERGY PREDICTED BY IDOCK:   -6.24 KCAL/MOL
REMARK 922        TOTAL FREE ENERGY PREDICTED BY IDOCK:   -7.56 KCAL/MOL
REMARK 923 INTER-LIGAND FREE ENERGY PREDICTED BY IDOCK:   -6.81 KCAL/MOL
REMARK 924 INTRA-LIGAND FREE ENERGY PREDICTED BY IDOCK:   -0.75 KCAL/MOL
REMARK 927      BINDING AFFINITY PREDICTED BY RF-SCORE:    0.00 PKD
ROOT
HETATM    1  C   UNL     1     -10.111  18.528  68.802  1.00  0.00    -0.394 C  
HETATM    2  C   UNL     1     -10.475  17.074  68.875  1.00  0.00    -0.347 A  
HETATM    3  C   UNL     1     -10.380  16.258  67.752  1.00  0.00    -0.287 A  
HETATM    4  C   UNL     1     -10.858  14.953  67.793  1.00  0.00    -0.286 A  
HETATM    5  C   UNL     1     -11.482  14.451  68.945  1.00  0.00    -0.289 A  
HETATM    6  C   UNL     1     -11.442  15.207  70.130  1.00  0.00    -0.313 A  
HETATM    7  C   UNL     1     -10.937  16.521  70.077  1.00  0.00    -0.245 A  
ENDROOT
BRANCH   5   8
HETATM    8  N   UNL     1     -12.239  13.255  68.896  1.00  0.00    -0.203 NA 
HETATM    9  H   UNL     1     -13.243  13.339  69.049  1.00  0.00     0.000 HD 
BRANCH   8  10
HETATM   10  C   UNL     1     -11.731  11.945  68.653  1.00  0.00    -0.323 A  
HETATM   11  F   UNL     1     -11.912  11.491  70.970  1.00  0.00    -0.413 F  
HETATM   12  C   UNL     1     -11.525  11.091  69.749  1.00  0.00    -0.311 A  
HETATM   13  C   UNL     1     -11.391  11.441  67.379  1.00  0.00    -0.288 A  
HETATM   14 CL   UNL     1     -11.843  12.233  65.904  1.00  0.00    -0.464 Cl 
HETATM   15  C   UNL     1     -10.727  10.214  67.244  1.00  0.00    -0.316 A  
HETATM   16  C   UNL     1     -10.904   9.850  69.615  1.00  0.00    -0.281 A  
HETATM   17  C   UNL     1     -10.467   9.427  68.364  1.00  0.00    -0.256 A  
ENDBRANCH   8  10
ENDBRANCH   5   8
BRANCH   6  18
HETATM   18  C   UNL     1     -11.957  14.676  71.452  1.00  0.00    -0.405 C  
HETATM   19  O   UNL     1     -13.853  14.559  72.908  1.00  0.00    -0.561 OA 
HETATM   20  C   UNL     1     -13.396  14.937  71.836  1.00  0.00    -0.363 C  
HETATM   21  O   UNL     1     -14.166  15.617  70.960  1.00  0.00    -0.465 OA 
ENDBRANCH   6  18
TORSDOF 3
ENDMDL
MODEL       44
REMARK 921   NORMALIZED FREE ENERGY PREDICTED BY IDOCK:   -6.24 KCAL/MOL
REMARK 922        TOTAL FREE ENERGY PREDICTED BY IDOCK:   -7.56 KCAL/MOL
REMARK 923 INTER-LIGAND FREE ENERGY PREDICTED BY IDOCK:   -6.89 KCAL/MOL
REMARK 924 INTRA-LIGAND FREE ENERGY PREDICTED BY IDOCK:   -0.67 KCAL/MOL
REMARK 927      BINDING AFFINITY PREDICTED BY RF-SCORE:    0.00 PKD
ROOT
HETATM    1  C   UNL     1      -8.728  16.256  66.070  1.00  0.00    -0.285 C  
HETATM    2  C   UNL     1      -9.703  15.241  66.592  1.00  0.00    -0.268 A  
HETATM    3  C   UNL     1      -9.598  14.754  67.891  1.00  0.00    -0.210 A  
HETATM    4  C   UNL     1     -10.411  13.709  68.314  1.00  0.00    -0.253 A  
HETATM    5  C   UNL     1     -11.316  13.099  67.433  1.00  0.00    -0.306 A  
HETATM    6  C   UNL     1     -11.542  13.681  66.173  1.00  0.00    -0.369 A  
HETATM    7  C   UNL     1     -10.723  14.752  65.766  1.00  0.00    -0.333 A  
ENDROOT
BRANCH   5   8
HETATM    8  N   UNL     1     -11.912  11.854  67.753  1.00  0.00    -0.573 NA 
HETATM    9  H   UNL     1     -12.930  11.814  67.739  1.00  0.00     0.000 HD 
BRANCH   8  10
HETATM   10  C   UNL     1     -11.223  10.653  68.093  1.00  0.00    -0.302 A  
HETATM   11  F   UNL     1     -10.403  10.544  65.874  1.00  0.00    -0.295 F  
HETATM   12  C   UNL     1     -10.508   9.982  67.088  1.00  0.00    -0.244 A  
HETATM   13  C   UNL     1     -11.224  10.065  69.376  1.00  0.00    -0.188 A  
HETATM   14 CL   UNL     1     -11.801  10.891  70.788  1.00  0.00    -0.437 Cl 
HETATM   15  C   UNL     1     -10.677   8.791  69.585  1.00  0.00    -0.212 A  
HETATM   16  C   UNL     1      -9.923   8.734  67.302  1.00  0.00    -0.281 A  
HETATM   17  C   UNL     1     -10.043   8.118  68.544  1.00  0.00    -0.220 A  
ENDBRANCH   8  10
ENDBRANCH   5   8
BRANCH   6  18
HETATM   18  C   UNL     1     -12.609  13.175  65.223  1.00  0.00    -0.531 C  
HETATM   19  O   UNL     1     -13.008  12.169  63.088  1.00  0.00    -0.659 OA 
HETATM   20  C   UNL     1     -12.186  12.563  63.906  1.00  0.00    -0.503 C  
HETATM   21  O   UNL     1     -10.863  12.472  63.651  1.00  0.00    -0.423 OA 
ENDBRANCH   6  18
TORSDOF 3
ENDMDL
MODEL       45
REMARK 921   NORMALIZED FREE ENERGY PREDICTED BY IDOCK:   -6.23 KCAL/MOL
REMARK 922        TOTAL FREE ENERGY PREDICTED BY IDOCK:   -7.55 KCAL/MOL
REMARK 923 INTER-LIGAND FREE ENERGY PREDICTED BY IDOCK:   -7.04 KCAL/MOL
REMARK 924 INTRA-LIGAND FREE ENERGY PREDICTED BY IDOCK:   -0.51 KCAL/MOL
REMARK 927      BINDING AFFINITY PREDICTED BY RF-SCORE:    0.00 PKD
ROOT
HETATM    1  C   UNL     1     -10.113  18.647  68.848  1.00  0.00    -0.357 C  
HETATM    2  C   UNL     1     -10.420  17.256  68.374  1.00  0.00    -0.381 A  
HETATM    3  C   UNL     1     -10.291  16.916  67.031  1.00  0.00    -0.307 A  
HETATM    4  C   UNL     1     -10.719  15.673  66.580  1.00  0.00    -0.296 A  
HETATM    5  C   UNL     1     -11.325  14.759  67.455  1.00  0.00    -0.351 A  
HETATM    6  C   UNL     1     -11.318  15.026  68.836  1.00  0.00    -0.312 A  
HETATM    7  C   UNL     1     -10.864  16.283  69.279  1.00  0.00    -0.318 A  
ENDROOT
BRANCH   5   8
HETATM    8  N   UNL     1     -12.036  13.640  66.956  1.00  0.00    -0.397 NA 
HETATM    9  H   UNL     1     -13.027  13.582  67.190  1.00  0.00     0.000 HD 
BRANCH   8  10
HETATM   10  C   UNL     1     -11.498  12.587  66.159  1.00  0.00    -0.377 A  
HETATM   11  F   UNL     1     -11.156  11.324  68.132  1.00  0.00    -0.226 F  
HETATM   12  C   UNL     1     -11.006  11.441  66.804  1.00  0.00    -0.291 A  
HETATM   13  C   UNL     1     -11.399  12.620  64.751  1.00  0.00    -0.312 A  
HETATM   14 CL   UNL     1     -12.206  13.807  63.778  1.00  0.00    -0.447 Cl 
HETATM   15  C   UNL     1     -10.692  11.628  64.056  1.00  0.00    -0.442 A  
HETATM   16  C   UNL     1     -10.341  10.430  66.112  1.00  0.00    -0.269 A  
HETATM   17  C   UNL     1     -10.147  10.543  64.739  1.00  0.00    -0.406 A  
ENDBRANCH   8  10
ENDBRANCH   5   8
BRANCH   6  18
HETATM   18  C   UNL     1     -11.816  14.027  69.860  1.00  0.00    -0.393 C  
HETATM   19  O   UNL     1     -13.382  13.658  71.632  1.00  0.00    -0.355 OA 
HETATM   20  C   UNL     1     -12.963  14.415  70.765  1.00  0.00    -0.326 C  
HETATM   21  O   UNL     1     -13.512  15.637  70.595  1.00  0.00    -0.476 OA 
ENDBRANCH   6  18
TORSDOF 3
ENDMDL
MODEL       46
REMARK 921   NORMALIZED FREE ENERGY PREDICTED BY IDOCK:   -6.18 KCAL/MOL
REMARK 922        TOTAL FREE ENERGY PREDICTED BY IDOCK:   -7.49 KCAL/MOL
REMARK 923 INTER-LIGAND FREE ENERGY PREDICTED BY IDOCK:   -7.03 KCAL/MOL
REMARK 924 INTRA-LIGAND FREE ENERGY PREDICTED BY IDOCK:   -0.45 KCAL/MOL
REMARK 927      BINDING AFFINITY PREDICTED BY RF-SCORE:    0.00 PKD
ROOT
HETATM    1  C   UNL     1     -10.954   7.745  72.927  1.00  0.00    -0.467 C  
HETATM    2  C   UNL     1     -11.238   8.843  71.943  1.00  0.00    -0.447 A  
HETATM    3  C   UNL     1     -12.471   9.488  71.932  1.00  0.00    -0.465 A  
HETATM    4  C   UNL     1     -12.775  10.397  70.925  1.00  0.00    -0.477 A  
HETATM    5  C   UNL     1     -11.870  10.647  69.883  1.00  0.00    -0.315 A  
HETATM    6  C   UNL     1     -10.567  10.124  69.969  1.00  0.00    -0.338 A  
HETATM    7  C   UNL     1     -10.268   9.220  71.006  1.00  0.00    -0.384 A  
ENDROOT
BRANCH   5   8
HETATM    8  N   UNL     1     -12.286  11.318  68.707  1.00  0.00    -0.575 NA 
HETATM    9  H   UNL     1     -12.853  10.785  68.049  1.00  0.00     0.000 HD 
BRANCH   8  10
HETATM   10  C   UNL     1     -11.986  12.667  68.356  1.00  0.00    -0.221 A  
HETATM   11  F   UNL     1     -11.926  12.018  66.080  1.00  0.00    -0.434 F  
HETATM   12  C   UNL     1     -11.753  12.974  67.006  1.00  0.00    -0.383 A  
HETATM   13  C   UNL     1     -11.881  13.730  69.279  1.00  0.00    -0.344 A  
HETATM   14 CL   UNL     1     -12.413  13.602  70.925  1.00  0.00    -0.437 Cl 
HETATM   15  C   UNL     1     -11.404  14.986  68.879  1.00  0.00    -0.312 A  
HETATM   16  C   UNL     1     -11.320  14.235  66.596  1.00  0.00    -0.356 A  
HETATM   17  C   UNL     1     -11.106  15.232  67.541  1.00  0.00    -0.324 A  
ENDBRANCH   8  10
ENDBRANCH   5   8
BRANCH   6  18
HETATM   18  C   UNL     1      -9.485  10.469  68.966  1.00  0.00    -0.211 C  
HETATM   19  O   UNL     1      -8.653  10.042  66.762  1.00  0.00    -0.125 OA 
HETATM   20  C   UNL     1      -9.522   9.824  67.598  1.00  0.00    -0.144 C  
HETATM   21  O   UNL     1     -10.543   8.984  67.327  1.00  0.00    -0.276 OA 
ENDBRANCH   6  18
TORSDOF 3
ENDMDL
MODEL       47
REMARK 921   NORMALIZED FREE ENERGY PREDICTED BY IDOCK:   -6.16 KCAL/MOL
REMARK 922        TOTAL FREE ENERGY PREDICTED BY IDOCK:   -7.47 KCAL/MOL
REMARK 923 INTER-LIGAND FREE ENERGY PREDICTED BY IDOCK:   -6.95 KCAL/MOL
REMARK 924 INTRA-LIGAND FREE ENERGY PREDICTED BY IDOCK:   -0.52 KCAL/MOL
REMARK 927      BINDING AFFINITY PREDICTED BY RF-SCORE:    0.00 PKD
ROOT
HETATM    1  C   UNL     1      -9.682  11.039  62.864  1.00  0.00    -0.353 C  
HETATM    2  C   UNL     1     -10.513  11.616  63.973  1.00  0.00    -0.418 A  
HETATM    3  C   UNL     1     -11.672  12.334  63.696  1.00  0.00    -0.591 A  
HETATM    4  C   UNL     1     -12.351  12.988  64.718  1.00  0.00    -0.490 A  
HETATM    5  C   UNL     1     -11.861  12.975  66.032  1.00  0.00    -0.417 A  
HETATM    6  C   UNL     1     -10.784  12.127  66.352  1.00  0.00    -0.292 A  
HETATM    7  C   UNL     1     -10.119  11.456  65.308  1.00  0.00    -0.315 A  
ENDROOT
BRANCH   5   8
HETATM    8  N   UNL     1     -12.359  13.879  67.002  1.00  0.00    -0.494 NA 
HETATM    9  H   UNL     1     -13.354  13.822  67.216  1.00  0.00     0.000 HD 
BRANCH   8  10
HETATM   10  C   UNL     1     -11.602  14.861  67.705  1.00  0.00    -0.339 A  
HETATM   11  F   UNL     1     -10.904  15.752  65.625  1.00  0.00    -0.315 F  
HETATM   12  C   UNL     1     -10.825  15.767  66.965  1.00  0.00    -0.273 A  
HETATM   13  C   UNL     1     -11.554  14.979  69.111  1.00  0.00    -0.310 A  
HETATM   14 CL   UNL     1     -12.656  14.150  70.162  1.00  0.00    -0.378 Cl 
HETATM   15  C   UNL     1     -10.645  15.850  69.729  1.00  0.00    -0.322 A  
HETATM   16  C   UNL     1      -9.952  16.667  67.576  1.00  0.00    -0.264 A  
HETATM   17  C   UNL     1      -9.832  16.680  68.961  1.00  0.00    -0.267 A  
ENDBRANCH   8  10
ENDBRANCH   5   8
BRANCH   6  18
HETATM   18  C   UNL     1     -10.292  11.939  67.772  1.00  0.00    -0.214 C  
HETATM   19  O   UNL     1     -10.864  11.124  69.949  1.00  0.00    -0.169 OA 
HETATM   20  C   UNL     1     -11.200  11.270  68.780  1.00  0.00    -0.250 C  
HETATM   21  O   UNL     1     -12.408  10.845  68.352  1.00  0.00    -0.477 OA 
ENDBRANCH   6  18
TORSDOF 3
ENDMDL
MODEL       48
REMARK 921   NORMALIZED FREE ENERGY PREDICTED BY IDOCK:   -6.16 KCAL/MOL
REMARK 922        TOTAL FREE ENERGY PREDICTED BY IDOCK:   -7.47 KCAL/MOL
REMARK 923 INTER-LIGAND FREE ENERGY PREDICTED BY IDOCK:   -6.62 KCAL/MOL
REMARK 924 INTRA-LIGAND FREE ENERGY PREDICTED BY IDOCK:   -0.84 KCAL/MOL
REMARK 927      BINDING AFFINITY PREDICTED BY RF-SCORE:    0.00 PKD
ROOT
HETATM    1  C   UNL     1     -14.379   8.018  72.175  1.00  0.00    -0.442 C  
HETATM    2  C   UNL     1     -13.284   8.932  71.708  1.00  0.00    -0.427 A  
HETATM    3  C   UNL     1     -13.483  10.308  71.645  1.00  0.00    -0.360 A  
HETATM    4  C   UNL     1     -12.517  11.128  71.072  1.00  0.00    -0.506 A  
HETATM    5  C   UNL     1     -11.352  10.585  70.510  1.00  0.00    -0.314 A  
HETATM    6  C   UNL     1     -11.068   9.221  70.707  1.00  0.00    -0.349 A  
HETATM    7  C   UNL     1     -12.049   8.407  71.307  1.00  0.00    -0.315 A  
ENDROOT
BRANCH   5   8
HETATM    8  N   UNL     1     -10.526  11.362  69.661  1.00  0.00    -0.431 NA 
HETATM    9  H   UNL     1      -9.556  11.485  69.948  1.00  0.00     0.000 HD 
BRANCH   8  10
HETATM   10  C   UNL     1     -10.923  11.988  68.443  1.00  0.00    -0.237 A  
HETATM   11  F   UNL     1     -11.103  14.043  69.607  1.00  0.00    -0.264 F  
HETATM   12  C   UNL     1     -11.265  13.350  68.469  1.00  0.00    -0.283 A  
HETATM   13  C   UNL     1     -11.024  11.329  67.199  1.00  0.00    -0.291 A  
HETATM   14 CL   UNL     1     -10.375   9.745  66.919  1.00  0.00    -0.304 Cl 
HETATM   15  C   UNL     1     -11.597  11.967  66.090  1.00  0.00    -0.371 A  
HETATM   16  C   UNL     1     -11.794  14.003  67.356  1.00  0.00    -0.445 A  
HETATM   17  C   UNL     1     -11.998  13.299  66.174  1.00  0.00    -0.470 A  
ENDBRANCH   8  10
ENDBRANCH   5   8
BRANCH   6  18
HETATM   18  C   UNL     1      -9.764   8.590  70.266  1.00  0.00    -0.182 C  
HETATM   19  O   UNL     1      -7.541   8.017  70.943  1.00  0.00    -0.073 OA 
HETATM   20  C   UNL     1      -8.627   8.487  71.257  1.00  0.00    -0.176 C  
HETATM   21  O   UNL     1      -8.842   8.945  72.509  1.00  0.00    -0.381 OA 
ENDBRANCH   6  18
TORSDOF 3
ENDMDL
MODEL       49
REMARK 921   NORMALIZED FREE ENERGY PREDICTED BY IDOCK:   -6.14 KCAL/MOL
REMARK 922        TOTAL FREE ENERGY PREDICTED BY IDOCK:   -7.44 KCAL/MOL
REMARK 923 INTER-LIGAND FREE ENERGY PREDICTED BY IDOCK:   -6.97 KCAL/MOL
REMARK 924 INTRA-LIGAND FREE ENERGY PREDICTED BY IDOCK:   -0.47 KCAL/MOL
REMARK 927      BINDING AFFINITY PREDICTED BY RF-SCORE:    0.00 PKD
ROOT
HETATM    1  C   UNL     1     -11.962  15.929  71.481  1.00  0.00    -0.537 C  
HETATM    2  C   UNL     1     -11.736  14.791  70.527  1.00  0.00    -0.350 A  
HETATM    3  C   UNL     1     -11.193  15.016  69.266  1.00  0.00    -0.297 A  
HETATM    4  C   UNL     1     -11.127  13.982  68.339  1.00  0.00    -0.275 A  
HETATM    5  C   UNL     1     -11.642  12.712  68.639  1.00  0.00    -0.316 A  
HETATM    6  C   UNL     1     -12.046  12.431  69.957  1.00  0.00    -0.335 A  
HETATM    7  C   UNL     1     -12.090  13.485  70.889  1.00  0.00    -0.301 A  
ENDROOT
BRANCH   5   8
HETATM    8  N   UNL     1     -11.861  11.759  67.615  1.00  0.00    -0.603 NA 
HETATM    9  H   UNL     1     -12.465  10.970  67.842  1.00  0.00     0.000 HD 
BRANCH   8  10
HETATM   10  C   UNL     1     -11.318  11.798  66.297  1.00  0.00    -0.287 A  
HETATM   11  F   UNL     1     -10.054   9.860  66.806  1.00  0.00    -0.234 F  
HETATM   12  C   UNL     1     -10.353  10.841  65.940  1.00  0.00    -0.238 A  
HETATM   13  C   UNL     1     -11.663  12.752  65.317  1.00  0.00    -0.368 A  
HETATM   14 CL   UNL     1     -13.025  13.813  65.476  1.00  0.00    -0.467 Cl 
HETATM   15  C   UNL     1     -10.951  12.836  64.111  1.00  0.00    -0.435 A  
HETATM   16  C   UNL     1      -9.673  10.893  64.724  1.00  0.00    -0.323 A  
HETATM   17  C   UNL     1      -9.945  11.917  63.823  1.00  0.00    -0.379 A  
ENDBRANCH   8  10
ENDBRANCH   5   8
BRANCH   6  18
HETATM   18  C   UNL     1     -12.472  11.046  70.399  1.00  0.00    -0.397 C  
HETATM   19  O   UNL     1     -11.746   8.789  70.725  1.00  0.00    -0.279 OA 
HETATM   20  C   UNL     1     -11.447   9.934  70.409  1.00  0.00    -0.301 C  
HETATM   21  O   UNL     1     -10.184  10.240  70.046  1.00  0.00    -0.246 OA 
ENDBRANCH   6  18
TORSDOF 3
ENDMDL
MODEL       50
REMARK 921   NORMALIZED FREE ENERGY PREDICTED BY IDOCK:   -6.11 KCAL/MOL
REMARK 922        TOTAL FREE ENERGY PREDICTED BY IDOCK:   -7.41 KCAL/MOL
REMARK 923 INTER-LIGAND FREE ENERGY PREDICTED BY IDOCK:   -6.66 KCAL/MOL
REMARK 924 INTRA-LIGAND FREE ENERGY PREDICTED BY IDOCK:   -0.76 KCAL/MOL
REMARK 927      BINDING AFFINITY PREDICTED BY RF-SCORE:    0.00 PKD
ROOT
HETATM    1  C   UNL     1      -7.812   8.835  69.042  1.00  0.00    -0.096 C  
HETATM    2  C   UNL     1      -9.076   9.541  68.645  1.00  0.00    -0.132 A  
HETATM    3  C   UNL     1      -9.488   9.571  67.317  1.00  0.00    -0.170 A  
HETATM    4  C   UNL     1     -10.576  10.350  66.940  1.00  0.00    -0.293 A  
HETATM    5  C   UNL     1     -11.248  11.150  67.876  1.00  0.00    -0.302 A  
HETATM    6  C   UNL     1     -10.943  11.008  69.242  1.00  0.00    -0.305 A  
HETATM    7  C   UNL     1      -9.849  10.199  69.610  1.00  0.00    -0.254 A  
ENDROOT
BRANCH   5   8
HETATM    8  N   UNL     1     -12.138  12.167  67.454  1.00  0.00    -0.515 NA 
HETATM    9  H   UNL     1     -13.115  12.067  67.728  1.00  0.00     0.000 HD 
BRANCH   8  10
HETATM   10  C   UNL     1     -11.799  13.318  66.684  1.00  0.00    -0.395 A  
HETATM   11  F   UNL     1     -13.062  12.436  64.886  1.00  0.00    -0.535 F  
HETATM   12  C   UNL     1     -12.244  13.391  65.354  1.00  0.00    -0.452 A  
HETATM   13  C   UNL     1     -11.017  14.395  67.155  1.00  0.00    -0.303 A  
HETATM   14 CL   UNL     1     -10.630  14.613  68.832  1.00  0.00    -0.247 Cl 
HETATM   15  C   UNL     1     -10.573  15.398  66.283  1.00  0.00    -0.311 A  
HETATM   16  C   UNL     1     -11.842  14.412  64.493  1.00  0.00    -0.463 A  
HETATM   17  C   UNL     1     -10.972  15.397  64.948  1.00  0.00    -0.453 A  
ENDBRANCH   8  10
ENDBRANCH   5   8
BRANCH   6  18
HETATM   18  C   UNL     1     -11.722  11.720  70.328  1.00  0.00    -0.317 C  
HETATM   19  O   UNL     1     -13.432  11.480  71.986  1.00  0.00    -0.405 OA 
HETATM   20  C   UNL     1     -12.751  10.945  71.120  1.00  0.00    -0.429 C  
HETATM   21  O   UNL     1     -12.906   9.634  70.835  1.00  0.00    -0.282 OA 
ENDBRANCH   6  18
TORSDOF 3
ENDMDL
MODEL       51
REMARK 921   NORMALIZED FREE ENERGY PREDICTED BY IDOCK:   -6.08 KCAL/MOL
REMARK 922        TOTAL FREE ENERGY PREDICTED BY IDOCK:   -7.38 KCAL/MOL
REMARK 923 INTER-LIGAND FREE ENERGY PREDICTED BY IDOCK:   -6.78 KCAL/MOL
REMARK 924 INTRA-LIGAND FREE ENERGY PREDICTED BY IDOCK:   -0.60 KCAL/MOL
REMARK 927      BINDING AFFINITY PREDICTED BY RF-SCORE:    0.00 PKD
ROOT
HETATM    1  C   UNL     1     -10.539   9.509  67.885  1.00  0.00    -0.299 C  
HETATM    2  C   UNL     1     -10.686  10.991  67.697  1.00  0.00    -0.281 A  
HETATM    3  C   UNL     1     -10.050  11.885  68.552  1.00  0.00    -0.211 A  
HETATM    4  C   UNL     1     -10.311  13.247  68.460  1.00  0.00    -0.244 A  
HETATM    5  C   UNL     1     -11.248  13.741  67.540  1.00  0.00    -0.294 A  
HETATM    6  C   UNL     1     -11.778  12.871  66.570  1.00  0.00    -0.453 A  
HETATM    7  C   UNL     1     -11.488  11.496  66.665  1.00  0.00    -0.205 A  
ENDROOT
BRANCH   5   8
HETATM    8  N   UNL     1     -11.746  15.062  67.650  1.00  0.00    -0.369 NA 
HETATM    9  H   UNL     1     -12.752  15.167  67.779  1.00  0.00     0.000 HD 
BRANCH   8  10
HETATM   10  C   UNL     1     -10.974  16.260  67.596  1.00  0.00    -0.245 A  
HETATM   11  F   UNL     1     -11.005  16.337  69.962  1.00  0.00    -0.293 F  
HETATM   12  C   UNL     1     -10.663  16.913  68.799  1.00  0.00    -0.333 A  
HETATM   13  C   UNL     1     -10.512  16.861  66.406  1.00  0.00    -0.252 A  
HETATM   14 CL   UNL     1     -10.548  16.057  64.870  1.00  0.00    -0.348 Cl 
HETATM   15  C   UNL     1      -9.919  18.132  66.424  1.00  0.00    -0.376 A  
HETATM   16  C   UNL     1     -10.034  18.157  68.827  1.00  0.00    -0.389 A  
HETATM   17  C   UNL     1      -9.697  18.787  67.633  1.00  0.00    -0.347 A  
ENDBRANCH   8  10
ENDBRANCH   5   8
BRANCH   6  18
HETATM   18  C   UNL     1     -12.677  13.352  65.450  1.00  0.00    -0.484 C  
HETATM   19  O   UNL     1     -12.851  13.680  63.085  1.00  0.00    -0.540 OA 
HETATM   20  C   UNL     1     -12.179  13.273  64.024  1.00  0.00    -0.410 C  
HETATM   21  O   UNL     1     -10.953  12.746  63.816  1.00  0.00    -0.409 OA 
ENDBRANCH   6  18
TORSDOF 3
ENDMDL
MODEL       52
REMARK 921   NORMALIZED FREE ENERGY PREDICTED BY IDOCK:   -6.07 KCAL/MOL
REMARK 922        TOTAL FREE ENERGY PREDICTED BY IDOCK:   -7.36 KCAL/MOL
REMARK 923 INTER-LIGAND FREE ENERGY PREDICTED BY IDOCK:   -6.89 KCAL/MOL
REMARK 924 INTRA-LIGAND FREE ENERGY PREDICTED BY IDOCK:   -0.48 KCAL/MOL
REMARK 927      BINDING AFFINITY PREDICTED BY RF-SCORE:    0.00 PKD
ROOT
HETATM    1  C   UNL     1     -12.304  13.427  63.398  1.00  0.00    -0.343 C  
HETATM    2  C   UNL     1     -11.725  13.263  64.773  1.00  0.00    -0.390 A  
HETATM    3  C   UNL     1     -12.374  12.493  65.732  1.00  0.00    -0.227 A  
HETATM    4  C   UNL     1     -11.909  12.469  67.042  1.00  0.00    -0.394 A  
HETATM    5  C   UNL     1     -10.811  13.251  67.431  1.00  0.00    -0.267 A  
HETATM    6  C   UNL     1     -10.054  13.908  66.443  1.00  0.00    -0.298 A  
HETATM    7  C   UNL     1     -10.529  13.906  65.117  1.00  0.00    -0.409 A  
ENDROOT
BRANCH   5   8
HETATM    8  N   UNL     1     -10.528  13.474  68.800  1.00  0.00    -0.346 NA 
HETATM    9  H   UNL     1      -9.575  13.287  69.110  1.00  0.00     0.000 HD 
BRANCH   8  10
HETATM   10  C   UNL     1     -11.449  13.935  69.786  1.00  0.00    -0.215 A  
HETATM   11  F   UNL     1     -11.790  11.690  70.458  1.00  0.00    -0.402 F  
HETATM   12  C   UNL     1     -12.117  12.986  70.577  1.00  0.00    -0.292 A  
HETATM   13  C   UNL     1     -11.763  15.292  70.016  1.00  0.00    -0.315 A  
HETATM   14 CL   UNL     1     -10.838  16.598  69.348  1.00  0.00    -0.318 Cl 
HETATM   15  C   UNL     1     -12.812  15.652  70.874  1.00  0.00    -0.498 A  
HETATM   16  C   UNL     1     -13.131  13.343  71.465  1.00  0.00    -0.427 A  
HETATM   17  C   UNL     1     -13.507  14.676  71.584  1.00  0.00    -0.452 A  
ENDBRANCH   8  10
ENDBRANCH   5   8
BRANCH   6  18
HETATM   18  C   UNL     1      -8.771  14.647  66.759  1.00  0.00    -0.233 C  
HETATM   19  O   UNL     1      -7.604  16.725  66.533  1.00  0.00    -0.244 OA 
HETATM   20  C   UNL     1      -8.633  16.091  66.333  1.00  0.00    -0.334 C  
HETATM   21  O   UNL     1      -9.684  16.665  65.708  1.00  0.00    -0.485 OA 
ENDBRANCH   6  18
TORSDOF 3
ENDMDL
MODEL       53
REMARK 921   NORMALIZED FREE ENERGY PREDICTED BY IDOCK:   -6.03 KCAL/MOL
REMARK 922        TOTAL FREE ENERGY PREDICTED BY IDOCK:   -7.32 KCAL/MOL
REMARK 923 INTER-LIGAND FREE ENERGY PREDICTED BY IDOCK:   -6.82 KCAL/MOL
REMARK 924 INTRA-LIGAND FREE ENERGY PREDICTED BY IDOCK:   -0.50 KCAL/MOL
REMARK 927      BINDING AFFINITY PREDICTED BY RF-SCORE:    0.00 PKD
ROOT
HETATM    1  C   UNL     1     -10.056  18.273  66.320  1.00  0.00    -0.389 C  
HETATM    2  C   UNL     1     -10.177  16.801  66.584  1.00  0.00    -0.310 A  
HETATM    3  C   UNL     1      -9.915  16.280  67.848  1.00  0.00    -0.241 A  
HETATM    4  C   UNL     1      -9.886  14.904  68.044  1.00  0.00    -0.216 A  
HETATM    5  C   UNL     1     -10.073  14.019  66.972  1.00  0.00    -0.255 A  
HETATM    6  C   UNL     1     -10.492  14.528  65.730  1.00  0.00    -0.335 A  
HETATM    7  C   UNL     1     -10.536  15.925  65.552  1.00  0.00    -0.425 A  
ENDROOT
BRANCH   5   8
HETATM    8  N   UNL     1      -9.739  12.648  67.097  1.00  0.00    -0.207 NA 
HETATM    9  H   UNL     1      -9.093  12.267  66.407  1.00  0.00     0.000 HD 
BRANCH   8  10
HETATM   10  C   UNL     1     -10.222  11.751  68.094  1.00  0.00    -0.203 A  
HETATM   11  F   UNL     1     -12.382  12.683  67.829  1.00  0.00    -0.331 F  
HETATM   12  C   UNL     1     -11.569  11.839  68.481  1.00  0.00    -0.321 A  
HETATM   13  C   UNL     1      -9.431  10.782  68.749  1.00  0.00    -0.182 A  
HETATM   14 CL   UNL     1      -7.845  10.338  68.205  1.00  0.00    -0.099 Cl 
HETATM   15  C   UNL     1      -9.932  10.066  69.845  1.00  0.00    -0.280 A  
HETATM   16  C   UNL     1     -12.085  11.095  69.543  1.00  0.00    -0.396 A  
HETATM   17  C   UNL     1     -11.253  10.236  70.253  1.00  0.00    -0.395 A  
ENDBRANCH   8  10
ENDBRANCH   5   8
BRANCH   6  18
HETATM   18  C   UNL     1     -10.861  13.631  64.566  1.00  0.00    -0.416 C  
HETATM   19  O   UNL     1     -12.666  12.541  63.434  1.00  0.00    -0.710 OA 
HETATM   20  C   UNL     1     -12.316  13.288  64.339  1.00  0.00    -0.348 C  
HETATM   21  O   UNL     1     -13.227  13.826  65.178  1.00  0.00    -0.757 OA 
ENDBRANCH   6  18
TORSDOF 3
ENDMDL
MODEL       54
REMARK 921   NORMALIZED FREE ENERGY PREDICTED BY IDOCK:   -6.03 KCAL/MOL
REMARK 922        TOTAL FREE ENERGY PREDICTED BY IDOCK:   -7.32 KCAL/MOL
REMARK 923 INTER-LIGAND FREE ENERGY PREDICTED BY IDOCK:   -6.88 KCAL/MOL
REMARK 924 INTRA-LIGAND FREE ENERGY PREDICTED BY IDOCK:   -0.44 KCAL/MOL
REMARK 927      BINDING AFFINITY PREDICTED BY RF-SCORE:    0.00 PKD
ROOT
HETATM    1  C   UNL     1      -7.463   8.277  72.040  1.00  0.00    -0.124 C  
HETATM    2  C   UNL     1      -8.686   8.793  71.339  1.00  0.00    -0.278 A  
HETATM    3  C   UNL     1      -8.574   9.598  70.210  1.00  0.00    -0.234 A  
HETATM    4  C   UNL     1      -9.705  10.191  69.659  1.00  0.00    -0.250 A  
HETATM    5  C   UNL     1     -10.965  10.027  70.251  1.00  0.00    -0.316 A  
HETATM    6  C   UNL     1     -11.115   9.093  71.293  1.00  0.00    -0.405 A  
HETATM    7  C   UNL     1      -9.963   8.487  71.828  1.00  0.00    -0.345 A  
ENDROOT
BRANCH   5   8
HETATM    8  N   UNL     1     -12.050  10.863  69.891  1.00  0.00    -0.333 NA 
HETATM    9  H   UNL     1     -12.736  10.475  69.244  1.00  0.00     0.000 HD 
BRANCH   8  10
HETATM   10  C   UNL     1     -12.275  12.195  70.347  1.00  0.00    -0.294 A  
HETATM   11  F   UNL     1     -13.340  11.313  72.269  1.00  0.00    -0.584 F  
HETATM   12  C   UNL     1     -12.989  12.384  71.542  1.00  0.00    -0.285 A  
HETATM   13  C   UNL     1     -11.849  13.356  69.667  1.00  0.00    -0.331 A  
HETATM   14 CL   UNL     1     -10.721  13.315  68.351  1.00  0.00    -0.263 Cl 
HETATM   15  C   UNL     1     -12.267  14.628  70.084  1.00  0.00    -0.391 A  
HETATM   16  C   UNL     1     -13.369  13.650  71.985  1.00  0.00    -0.548 A  
HETATM   17  C   UNL     1     -13.042  14.773  71.232  1.00  0.00    -0.433 A  
ENDBRANCH   8  10
ENDBRANCH   5   8
BRANCH   6  18
HETATM   18  C   UNL     1     -12.466   8.746  71.885  1.00  0.00    -0.434 C  
HETATM   19  O   UNL     1     -14.240   7.139  71.899  1.00  0.00    -0.368 OA 
HETATM   20  C   UNL     1     -13.134   7.452  71.476  1.00  0.00    -0.374 C  
HETATM   21  O   UNL     1     -12.474   6.649  70.615  1.00  0.00    -0.289 OA 
ENDBRANCH   6  18
TORSDOF 3
ENDMDL
MODEL       55
REMARK 921   NORMALIZED FREE ENERGY PREDICTED BY IDOCK:   -6.02 KCAL/MOL
REMARK 922        TOTAL FREE ENERGY PREDICTED BY IDOCK:   -7.30 KCAL/MOL
REMARK 923 INTER-LIGAND FREE ENERGY PREDICTED BY IDOCK:   -7.58 KCAL/MOL
REMARK 924 INTRA-LIGAND FREE ENERGY PREDICTED BY IDOCK:    0.27 KCAL/MOL
REMARK 927      BINDING AFFINITY PREDICTED BY RF-SCORE:    0.00 PKD
ROOT
HETATM    1  C   UNL     1      -8.622   9.027  69.596  1.00  0.00    -0.137 C  
HETATM    2  C   UNL     1      -9.825   9.925  69.591  1.00  0.00    -0.255 A  
HETATM    3  C   UNL     1      -9.931  10.968  68.677  1.00  0.00    -0.205 A  
HETATM    4  C   UNL     1     -10.974  11.882  68.777  1.00  0.00    -0.280 A  
HETATM    5  C   UNL     1     -11.909  11.797  69.820  1.00  0.00    -0.349 A  
HETATM    6  C   UNL     1     -11.904  10.663  70.652  1.00  0.00    -0.463 A  
HETATM    7  C   UNL     1     -10.851   9.736  70.526  1.00  0.00    -0.387 A  
ENDROOT
BRANCH   5   8
HETATM    8  N   UNL     1     -12.772  12.882  70.110  1.00  0.00     0.094 NA 
HETATM    9  H   UNL     1     -13.654  12.918  69.599  1.00  0.00     0.000 HD 
BRANCH   8  10
HETATM   10  C   UNL     1     -12.525  13.927  71.048  1.00  0.00    -0.377 A  
HETATM   11  F   UNL     1     -13.988  12.851  72.568  1.00  0.00    -0.614 F  
HETATM   12  C   UNL     1     -13.211  13.905  72.274  1.00  0.00    -0.473 A  
HETATM   13  C   UNL     1     -11.650  15.011  70.827  1.00  0.00    -0.317 A  
HETATM   14 CL   UNL     1     -10.516  15.052  69.515  1.00  0.00    -0.252 Cl 
HETATM   15  C   UNL     1     -11.602  16.092  71.719  1.00  0.00    -0.534 A  
HETATM   16  C   UNL     1     -13.133  14.957  73.186  1.00  0.00    -0.615 A  
HETATM   17  C   UNL     1     -12.357  16.072  72.889  1.00  0.00    -0.609 A  
ENDBRANCH   8  10
ENDBRANCH   5   8
BRANCH   6  18
HETATM   18  C   UNL     1     -12.968  10.421  71.703  1.00  0.00    -0.581 C  
HETATM   19  O   UNL     1     -14.403   8.779  72.691  1.00  0.00    -0.585 OA 
HETATM   20  C   UNL     1     -13.518   9.024  71.880  1.00  0.00    -0.425 C  
HETATM   21  O   UNL     1     -13.009   8.044  71.102  1.00  0.00    -0.215 OA 
ENDBRANCH   6  18
TORSDOF 3
ENDMDL
MODEL       56
REMARK 921   NORMALIZED FREE ENERGY PREDICTED BY IDOCK:   -6.02 KCAL/MOL
REMARK 922        TOTAL FREE ENERGY PREDICTED BY IDOCK:   -7.30 KCAL/MOL
REMARK 923 INTER-LIGAND FREE ENERGY PREDICTED BY IDOCK:   -6.63 KCAL/MOL
REMARK 924 INTRA-LIGAND FREE ENERGY PREDICTED BY IDOCK:   -0.67 KCAL/MOL
REMARK 927      BINDING AFFINITY PREDICTED BY RF-SCORE:    0.00 PKD
ROOT
HETATM    1  C   UNL     1     -12.465  12.303  64.076  1.00  0.00    -0.556 C  
HETATM    2  C   UNL     1     -11.962  13.459  64.892  1.00  0.00    -0.414 A  
HETATM    3  C   UNL     1     -11.084  14.388  64.345  1.00  0.00    -0.203 A  
HETATM    4  C   UNL     1     -10.510  15.366  65.149  1.00  0.00    -0.439 A  
HETATM    5  C   UNL     1     -10.769  15.408  66.527  1.00  0.00    -0.308 A  
HETATM    6  C   UNL     1     -11.772  14.578  67.061  1.00  0.00    -0.412 A  
HETATM    7  C   UNL     1     -12.357  13.605  66.228  1.00  0.00    -0.464 A  
ENDROOT
BRANCH   5   8
HETATM    8  N   UNL     1      -9.963  16.186  67.394  1.00  0.00    -0.243 NA 
HETATM    9  H   UNL     1      -9.853  15.848  68.349  1.00  0.00     0.000 HD 
BRANCH   8  10
HETATM   10  C   UNL     1      -9.291  17.398  67.057  1.00  0.00    -0.260 A  
HETATM   11  F   UNL     1     -11.327  18.566  67.376  1.00  0.00    -0.293 F  
HETATM   12  C   UNL     1     -10.037  18.587  67.004  1.00  0.00    -0.360 A  
HETATM   13  C   UNL     1      -7.918  17.492  66.744  1.00  0.00    -0.241 A  
HETATM   14 CL   UNL     1      -6.797  16.202  67.036  1.00  0.00    -0.241 Cl 
HETATM   15  C   UNL     1      -7.373  18.684  66.246  1.00  0.00    -0.287 A  
HETATM   16  C   UNL     1      -9.489  19.787  66.551  1.00  0.00    -0.500 A  
HETATM   17  C   UNL     1      -8.164  19.826  66.132  1.00  0.00    -0.363 A  
ENDBRANCH   8  10
ENDBRANCH   5   8
BRANCH   6  18
HETATM   18  C   UNL     1     -12.217  14.666  68.506  1.00  0.00    -0.135 C  
HETATM   19  O   UNL     1     -12.161  13.583  70.640  1.00  0.00    -0.344 OA 
HETATM   20  C   UNL     1     -11.800  13.578  69.469  1.00  0.00    -0.334 C  
HETATM   21  O   UNL     1     -11.020  12.584  68.994  1.00  0.00    -0.233 OA 
ENDBRANCH   6  18
TORSDOF 3
ENDMDL
MODEL       57
REMARK 921   NORMALIZED FREE ENERGY PREDICTED BY IDOCK:   -6.01 KCAL/MOL
REMARK 922        TOTAL FREE ENERGY PREDICTED BY IDOCK:   -7.29 KCAL/MOL
REMARK 923 INTER-LIGAND FREE ENERGY PREDICTED BY IDOCK:   -6.55 KCAL/MOL
REMARK 924 INTRA-LIGAND FREE ENERGY PREDICTED BY IDOCK:   -0.74 KCAL/MOL
REMARK 927      BINDING AFFINITY PREDICTED BY RF-SCORE:    0.00 PKD
ROOT
HETATM    1  C   UNL     1     -10.105   9.209  66.722  1.00  0.00    -0.341 C  
HETATM    2  C   UNL     1     -10.614  10.418  67.452  1.00  0.00    -0.321 A  
HETATM    3  C   UNL     1     -10.939  10.350  68.802  1.00  0.00    -0.287 A  
HETATM    4  C   UNL     1     -11.547  11.431  69.430  1.00  0.00    -0.391 A  
HETATM    5  C   UNL     1     -11.884  12.587  68.709  1.00  0.00    -0.303 A  
HETATM    6  C   UNL     1     -11.422  12.728  67.388  1.00  0.00    -0.396 A  
HETATM    7  C   UNL     1     -10.790  11.630  66.772  1.00  0.00    -0.322 A  
ENDROOT
BRANCH   5   8
HETATM    8  N   UNL     1     -12.770  13.548  69.254  1.00  0.00     0.104 NA 
HETATM    9  H   UNL     1     -13.654  13.689  68.765  1.00  0.00     0.000 HD 
BRANCH   8  10
HETATM   10  C   UNL     1     -12.543  14.339  70.418  1.00  0.00    -0.343 A  
HETATM   11  F   UNL     1     -11.782  16.097  69.026  1.00  0.00    -0.347 F  
HETATM   12  C   UNL     1     -11.983  15.617  70.263  1.00  0.00    -0.374 A  
HETATM   13  C   UNL     1     -12.820  13.919  71.737  1.00  0.00    -0.335 A  
HETATM   14 CL   UNL     1     -13.767  12.511  72.097  1.00  0.00    -0.463 Cl 
HETATM   15  C   UNL     1     -12.398  14.678  72.838  1.00  0.00    -0.329 A  
HETATM   16  C   UNL     1     -11.602  16.397  71.355  1.00  0.00    -0.300 A  
HETATM   17  C   UNL     1     -11.773  15.909  72.646  1.00  0.00    -0.527 A  
ENDBRANCH   8  10
ENDBRANCH   5   8
BRANCH   6  18
HETATM   18  C   UNL     1     -11.612  14.003  66.592  1.00  0.00    -0.400 C  
HETATM   19  O   UNL     1     -10.519  15.949  65.726  1.00  0.00    -0.331 OA 
HETATM   20  C   UNL     1     -10.415  14.890  66.335  1.00  0.00    -0.299 C  
HETATM   21  O   UNL     1      -9.218  14.484  66.809  1.00  0.00    -0.243 OA 
ENDBRANCH   6  18
TORSDOF 3
ENDMDL
MODEL       58
REMARK 921   NORMALIZED FREE ENERGY PREDICTED BY IDOCK:   -5.99 KCAL/MOL
REMARK 922        TOTAL FREE ENERGY PREDICTED BY IDOCK:   -7.27 KCAL/MOL
REMARK 923 INTER-LIGAND FREE ENERGY PREDICTED BY IDOCK:   -6.55 KCAL/MOL
REMARK 924 INTRA-LIGAND FREE ENERGY PREDICTED BY IDOCK:   -0.72 KCAL/MOL
REMARK 927      BINDING AFFINITY PREDICTED BY RF-SCORE:    0.00 PKD
ROOT
HETATM    1  C   UNL     1     -10.069   4.763  73.713  1.00  0.00    -0.211 C  
HETATM    2  C   UNL     1     -10.498   5.917  72.853  1.00  0.00    -0.249 A  
HETATM    3  C   UNL     1     -10.703   7.178  73.404  1.00  0.00    -0.410 A  
HETATM    4  C   UNL     1     -11.242   8.199  72.629  1.00  0.00    -0.447 A  
HETATM    5  C   UNL     1     -11.629   7.969  71.301  1.00  0.00    -0.276 A  
HETATM    6  C   UNL     1     -11.284   6.750  70.689  1.00  0.00    -0.361 A  
HETATM    7  C   UNL     1     -10.721   5.731  71.483  1.00  0.00    -0.319 A  
ENDROOT
BRANCH   5   8
HETATM    8  N   UNL     1     -12.453   8.894  70.615  1.00  0.00    -0.476 NA 
HETATM    9  H   UNL     1     -13.164   8.507  69.995  1.00  0.00     0.000 HD 
BRANCH   8  10
HETATM   10  C   UNL     1     -12.382  10.315  70.708  1.00  0.00    -0.350 A  
HETATM   11  F   UNL     1     -13.704  10.211  72.670  1.00  0.00    -0.353 F  
HETATM   12  C   UNL     1     -13.083  10.956  71.742  1.00  0.00    -0.459 A  
HETATM   13  C   UNL     1     -11.670  11.141  69.812  1.00  0.00    -0.345 A  
HETATM   14 CL   UNL     1     -10.527  10.520  68.666  1.00  0.00    -0.196 Cl 
HETATM   15  C   UNL     1     -11.800  12.537  69.861  1.00  0.00    -0.373 A  
HETATM   16  C   UNL     1     -13.179  12.345  71.822  1.00  0.00    -0.435 A  
HETATM   17  C   UNL     1     -12.569  13.137  70.856  1.00  0.00    -0.377 A  
ENDBRANCH   8  10
ENDBRANCH   5   8
BRANCH   6  18
HETATM   18  C   UNL     1     -11.530   6.479  69.219  1.00  0.00    -0.307 C  
HETATM   19  O   UNL     1     -10.623   6.689  67.014  1.00  0.00    -0.261 OA 
HETATM   20  C   UNL     1     -10.462   6.854  68.217  1.00  0.00    -0.206 C  
HETATM   21  O   UNL     1      -9.318   7.393  68.690  1.00  0.00    -0.140 OA 
ENDBRANCH   6  18
TORSDOF 3
ENDMDL
MODEL       59
REMARK 921   NORMALIZED FREE ENERGY PREDICTED BY IDOCK:   -5.98 KCAL/MOL
REMARK 922        TOTAL FREE ENERGY PREDICTED BY IDOCK:   -7.26 KCAL/MOL
REMARK 923 INTER-LIGAND FREE ENERGY PREDICTED BY IDOCK:   -6.52 KCAL/MOL
REMARK 924 INTRA-LIGAND FREE ENERGY PREDICTED BY IDOCK:   -0.74 KCAL/MOL
REMARK 927      BINDING AFFINITY PREDICTED BY RF-SCORE:    0.00 PKD
ROOT
HETATM    1  C   UNL     1      -8.496   8.386  68.796  1.00  0.00    -0.124 C  
HETATM    2  C   UNL     1      -9.624   9.324  68.478  1.00  0.00    -0.155 A  
HETATM    3  C   UNL     1     -10.053   9.502  67.167  1.00  0.00    -0.290 A  
HETATM    4  C   UNL     1     -10.995  10.481  66.867  1.00  0.00    -0.199 A  
HETATM    5  C   UNL     1     -11.494  11.331  67.864  1.00  0.00    -0.288 A  
HETATM    6  C   UNL     1     -11.188  11.059  69.211  1.00  0.00    -0.321 A  
HETATM    7  C   UNL     1     -10.247  10.052  69.500  1.00  0.00    -0.255 A  
ENDROOT
BRANCH   5   8
HETATM    8  N   UNL     1     -12.200  12.511  67.525  1.00  0.00    -0.353 NA 
HETATM    9  H   UNL     1     -13.125  12.628  67.936  1.00  0.00     0.000 HD 
BRANCH   8  10
HETATM   10  C   UNL     1     -11.739  13.550  66.665  1.00  0.00    -0.387 A  
HETATM   11  F   UNL     1     -10.571  14.493  68.496  1.00  0.00    -0.226 F  
HETATM   12  C   UNL     1     -10.954  14.577  67.213  1.00  0.00    -0.305 A  
HETATM   13  C   UNL     1     -12.036  13.640  65.288  1.00  0.00    -0.406 A  
HETATM   14 CL   UNL     1     -12.737  12.332  64.390  1.00  0.00    -0.477 Cl 
HETATM   15  C   UNL     1     -11.701  14.785  64.552  1.00  0.00    -0.398 A  
HETATM   16  C   UNL     1     -10.579  15.699  66.473  1.00  0.00    -0.307 A  
HETATM   17  C   UNL     1     -10.989  15.822  65.150  1.00  0.00    -0.394 A  
ENDBRANCH   8  10
ENDBRANCH   5   8
BRANCH   6  18
HETATM   18  C   UNL     1     -11.805  11.834  70.357  1.00  0.00    -0.362 C  
HETATM   19  O   UNL     1     -13.386  11.744  72.152  1.00  0.00    -0.497 OA 
HETATM   20  C   UNL     1     -12.832  11.153  71.233  1.00  0.00    -0.412 C  
HETATM   21  O   UNL     1     -13.132   9.864  70.963  1.00  0.00    -0.367 OA 
ENDBRANCH   6  18
TORSDOF 3
ENDMDL
MODEL       60
REMARK 921   NORMALIZED FREE ENERGY PREDICTED BY IDOCK:   -5.95 KCAL/MOL
REMARK 922        TOTAL FREE ENERGY PREDICTED BY IDOCK:   -7.22 KCAL/MOL
REMARK 923 INTER-LIGAND FREE ENERGY PREDICTED BY IDOCK:   -6.33 KCAL/MOL
REMARK 924 INTRA-LIGAND FREE ENERGY PREDICTED BY IDOCK:   -0.89 KCAL/MOL
REMARK 927      BINDING AFFINITY PREDICTED BY RF-SCORE:    0.00 PKD
ROOT
HETATM    1  C   UNL     1     -12.632  14.348  64.499  1.00  0.00    -0.234 C  
HETATM    2  C   UNL     1     -11.898  13.740  65.659  1.00  0.00    -0.383 A  
HETATM    3  C   UNL     1     -11.835  12.360  65.818  1.00  0.00    -0.467 A  
HETATM    4  C   UNL     1     -11.282  11.813  66.971  1.00  0.00    -0.382 A  
HETATM    5  C   UNL     1     -10.822  12.636  68.009  1.00  0.00    -0.225 A  
HETATM    6  C   UNL     1     -10.736  14.024  67.796  1.00  0.00    -0.248 A  
HETATM    7  C   UNL     1     -11.283  14.561  66.614  1.00  0.00    -0.346 A  
ENDROOT
BRANCH   5   8
HETATM    8  N   UNL     1     -10.553  12.101  69.293  1.00  0.00    -0.439 NA 
HETATM    9  H   UNL     1      -9.648  12.325  69.705  1.00  0.00     0.000 HD 
BRANCH   8  10
HETATM   10  C   UNL     1     -11.428  11.281  70.064  1.00  0.00    -0.275 A  
HETATM   11  F   UNL     1     -12.559  13.234  70.783  1.00  0.00    -0.394 F  
HETATM   12  C   UNL     1     -12.406  11.902  70.857  1.00  0.00    -0.300 A  
HETATM   13  C   UNL     1     -11.371   9.871  70.109  1.00  0.00    -0.275 A  
HETATM   14 CL   UNL     1     -10.436   8.932  68.991  1.00  0.00    -0.236 Cl 
HETATM   15  C   UNL     1     -12.143   9.149  71.030  1.00  0.00    -0.324 A  
HETATM   16  C   UNL     1     -13.208  11.184  71.743  1.00  0.00    -0.486 A  
HETATM   17  C   UNL     1     -13.048   9.807  71.859  1.00  0.00    -0.544 A  
ENDBRANCH   8  10
ENDBRANCH   5   8
BRANCH   6  18
HETATM   18  C   UNL     1     -10.112  14.965  68.805  1.00  0.00    -0.241 C  
HETATM   19  O   UNL     1      -8.058  15.923  69.576  1.00  0.00    -0.220 OA 
HETATM   20  C   UNL     1      -8.619  15.199  68.763  1.00  0.00    -0.182 C  
HETATM   21  O   UNL     1      -7.912  14.572  67.798  1.00  0.00    -0.132 OA 
ENDBRANCH   6  18
TORSDOF 3
ENDMDL
MODEL       61
REMARK 921   NORMALIZED FREE ENERGY PREDICTED BY IDOCK:   -5.95 KCAL/MOL
REMARK 922        TOTAL FREE ENERGY PREDICTED BY IDOCK:   -7.22 KCAL/MOL
REMARK 923 INTER-LIGAND FREE ENERGY PREDICTED BY IDOCK:   -6.66 KCAL/MOL
REMARK 924 INTRA-LIGAND FREE ENERGY PREDICTED BY IDOCK:   -0.56 KCAL/MOL
REMARK 927      BINDING AFFINITY PREDICTED BY RF-SCORE:    0.00 PKD
ROOT
HETATM    1  C   UNL     1     -12.225  13.946  64.110  1.00  0.00    -0.436 C  
HETATM    2  C   UNL     1     -11.680  13.713  65.489  1.00  0.00    -0.352 A  
HETATM    3  C   UNL     1     -12.135  12.651  66.264  1.00  0.00    -0.358 A  
HETATM    4  C   UNL     1     -11.734  12.532  67.590  1.00  0.00    -0.423 A  
HETATM    5  C   UNL     1     -10.904  13.496  68.182  1.00  0.00    -0.254 A  
HETATM    6  C   UNL     1     -10.315  14.482  67.370  1.00  0.00    -0.252 A  
HETATM    7  C   UNL     1     -10.717  14.578  66.024  1.00  0.00    -0.306 A  
ENDROOT
BRANCH   5   8
HETATM    8  N   UNL     1     -10.748  13.554  69.588  1.00  0.00    -0.400 NA 
HETATM    9  H   UNL     1      -9.794  13.562  69.946  1.00  0.00     0.000 HD 
BRANCH   8  10
HETATM   10  C   UNL     1     -11.799  13.602  70.551  1.00  0.00    -0.203 A  
HETATM   11  F   UNL     1     -11.884  11.236  70.515  1.00  0.00    -0.374 F  
HETATM   12  C   UNL     1     -12.393  12.396  70.958  1.00  0.00    -0.210 A  
HETATM   13  C   UNL     1     -12.312  14.789  71.118  1.00  0.00    -0.331 A  
HETATM   14 CL   UNL     1     -11.522  16.325  70.959  1.00  0.00    -0.412 Cl 
HETATM   15  C   UNL     1     -13.464  14.766  71.915  1.00  0.00    -0.465 A  
HETATM   16  C   UNL     1     -13.513  12.365  71.788  1.00  0.00    -0.261 A  
HETATM   17  C   UNL     1     -14.075  13.556  72.235  1.00  0.00    -0.564 A  
ENDBRANCH   8  10
ENDBRANCH   5   8
BRANCH   6  18
HETATM   18  C   UNL     1      -9.292  15.466  67.899  1.00  0.00    -0.192 C  
HETATM   19  O   UNL     1      -8.906  17.751  68.501  1.00  0.00    -0.282 OA 
HETATM   20  C   UNL     1      -9.702  16.907  68.108  1.00  0.00    -0.254 C  
HETATM   21  O   UNL     1     -10.981  17.242  67.834  1.00  0.00    -0.336 OA 
ENDBRANCH   6  18
TORSDOF 3
ENDMDL
MODEL       62
REMARK 921   NORMALIZED FREE ENERGY PREDICTED BY IDOCK:   -5.93 KCAL/MOL
REMARK 922        TOTAL FREE ENERGY PREDICTED BY IDOCK:   -7.19 KCAL/MOL
REMARK 923 INTER-LIGAND FREE ENERGY PREDICTED BY IDOCK:   -6.44 KCAL/MOL
REMARK 924 INTRA-LIGAND FREE ENERGY PREDICTED BY IDOCK:   -0.76 KCAL/MOL
REMARK 927      BINDING AFFINITY PREDICTED BY RF-SCORE:    0.00 PKD
ROOT
HETATM    1  C   UNL     1     -11.373  12.610  63.611  1.00  0.00    -0.544 C  
HETATM    2  C   UNL     1     -11.327  12.140  65.036  1.00  0.00    -0.379 A  
HETATM    3  C   UNL     1     -12.013  12.825  66.034  1.00  0.00    -0.491 A  
HETATM    4  C   UNL     1     -11.845  12.470  67.367  1.00  0.00    -0.381 A  
HETATM    5  C   UNL     1     -10.953  11.452  67.735  1.00  0.00    -0.247 A  
HETATM    6  C   UNL     1     -10.376  10.652  66.731  1.00  0.00    -0.299 A  
HETATM    7  C   UNL     1     -10.572  11.013  65.384  1.00  0.00    -0.270 A  
ENDROOT
BRANCH   5   8
HETATM    8  N   UNL     1     -10.544  11.296  69.082  1.00  0.00    -0.312 NA 
HETATM    9  H   UNL     1      -9.586  11.563  69.306  1.00  0.00     0.000 HD 
BRANCH   8  10
HETATM   10  C   UNL     1     -11.345  10.803  70.153  1.00  0.00    -0.309 A  
HETATM   11  F   UNL     1     -10.274   8.702  69.930  1.00  0.00    -0.186 F  
HETATM   12  C   UNL     1     -11.216   9.453  70.520  1.00  0.00    -0.275 A  
HETATM   13  C   UNL     1     -12.287  11.572  70.869  1.00  0.00    -0.359 A  
HETATM   14 CL   UNL     1     -12.373  13.300  70.753  1.00  0.00    -0.446 Cl 
HETATM   15  C   UNL     1     -13.164  10.969  71.782  1.00  0.00    -0.505 A  
HETATM   16  C   UNL     1     -12.057   8.858  71.461  1.00  0.00    -0.395 A  
HETATM   17  C   UNL     1     -13.060   9.609  72.064  1.00  0.00    -0.537 A  
ENDBRANCH   8  10
ENDBRANCH   5   8
BRANCH   6  18
HETATM   18  C   UNL     1      -9.524   9.440  67.046  1.00  0.00    -0.200 C  
HETATM   19  O   UNL     1      -7.287   8.658  67.387  1.00  0.00    -0.086 OA 
HETATM   20  C   UNL     1      -8.026   9.610  67.167  1.00  0.00    -0.106 C  
HETATM   21  O   UNL     1      -7.520  10.853  67.013  1.00  0.00    -0.109 OA 
ENDBRANCH   6  18
TORSDOF 3
ENDMDL
MODEL       63
REMARK 921   NORMALIZED FREE ENERGY PREDICTED BY IDOCK:   -5.92 KCAL/MOL
REMARK 922        TOTAL FREE ENERGY PREDICTED BY IDOCK:   -7.19 KCAL/MOL
REMARK 923 INTER-LIGAND FREE ENERGY PREDICTED BY IDOCK:   -6.82 KCAL/MOL
REMARK 924 INTRA-LIGAND FREE ENERGY PREDICTED BY IDOCK:   -0.37 KCAL/MOL
REMARK 927      BINDING AFFINITY PREDICTED BY RF-SCORE:    0.00 PKD
ROOT
HETATM    1  C   UNL     1     -12.974  10.553  71.465  1.00  0.00    -0.565 C  
HETATM    2  C   UNL     1     -12.432  11.729  70.705  1.00  0.00    -0.405 A  
HETATM    3  C   UNL     1     -12.742  13.029  71.089  1.00  0.00    -0.372 A  
HETATM    4  C   UNL     1     -12.359  14.103  70.294  1.00  0.00    -0.421 A  
HETATM    5  C   UNL     1     -11.695  13.897  69.076  1.00  0.00    -0.338 A  
HETATM    6  C   UNL     1     -11.239  12.605  68.756  1.00  0.00    -0.325 A  
HETATM    7  C   UNL     1     -11.619  11.530  69.582  1.00  0.00    -0.403 A  
ENDROOT
BRANCH   5   8
HETATM    8  N   UNL     1     -11.581  14.941  68.125  1.00  0.00    -0.328 NA 
HETATM    9  H   UNL     1     -12.441  15.241  67.666  1.00  0.00     0.000 HD 
BRANCH   8  10
HETATM   10  C   UNL     1     -10.380  15.611  67.750  1.00  0.00    -0.266 A  
HETATM   11  F   UNL     1      -9.693  15.560  70.015  1.00  0.00    -0.280 F  
HETATM   12  C   UNL     1      -9.464  15.961  68.755  1.00  0.00    -0.221 A  
HETATM   13  C   UNL     1     -10.047  15.977  66.428  1.00  0.00    -0.300 A  
HETATM   14 CL   UNL     1     -10.904  15.380  65.043  1.00  0.00    -0.441 Cl 
HETATM   15  C   UNL     1      -8.939  16.794  66.164  1.00  0.00    -0.295 A  
HETATM   16  C   UNL     1      -8.336  16.737  68.492  1.00  0.00    -0.243 A  
HETATM   17  C   UNL     1      -8.094  17.189  67.199  1.00  0.00    -0.215 A  
ENDBRANCH   8  10
ENDBRANCH   5   8
BRANCH   6  18
HETATM   18  C   UNL     1     -10.386  12.323  67.536  1.00  0.00    -0.214 C  
HETATM   19  O   UNL     1     -10.418  11.931  65.175  1.00  0.00    -0.265 OA 
HETATM   20  C   UNL     1     -11.057  12.191  66.187  1.00  0.00    -0.312 C  
HETATM   21  O   UNL     1     -12.395  12.360  66.132  1.00  0.00    -0.606 OA 
ENDBRANCH   6  18
TORSDOF 3
ENDMDL
MODEL       64
REMARK 921   NORMALIZED FREE ENERGY PREDICTED BY IDOCK:   -5.92 KCAL/MOL
REMARK 922        TOTAL FREE ENERGY PREDICTED BY IDOCK:   -7.18 KCAL/MOL
REMARK 923 INTER-LIGAND FREE ENERGY PREDICTED BY IDOCK:   -6.50 KCAL/MOL
REMARK 924 INTRA-LIGAND FREE ENERGY PREDICTED BY IDOCK:   -0.68 KCAL/MOL
REMARK 927      BINDING AFFINITY PREDICTED BY RF-SCORE:    0.00 PKD
ROOT
HETATM    1  C   UNL     1     -10.191   7.284  70.173  1.00  0.00    -0.209 C  
HETATM    2  C   UNL     1     -10.621   8.721  70.241  1.00  0.00    -0.239 A  
HETATM    3  C   UNL     1     -11.536   9.146  71.198  1.00  0.00    -0.388 A  
HETATM    4  C   UNL     1     -12.038  10.442  71.158  1.00  0.00    -0.487 A  
HETATM    5  C   UNL     1     -11.668  11.326  70.133  1.00  0.00    -0.343 A  
HETATM    6  C   UNL     1     -10.630  10.962  69.256  1.00  0.00    -0.251 A  
HETATM    7  C   UNL     1     -10.119   9.652  69.322  1.00  0.00    -0.201 A  
ENDROOT
BRANCH   5   8
HETATM    8  N   UNL     1     -12.398  12.519  69.906  1.00  0.00    -0.120 NA 
HETATM    9  H   UNL     1     -13.032  12.525  69.107  1.00  0.00     0.000 HD 
BRANCH   8  10
HETATM   10  C   UNL     1     -12.331  13.709  70.687  1.00  0.00    -0.368 A  
HETATM   11  F   UNL     1     -11.047  14.714  68.970  1.00  0.00    -0.222 F  
HETATM   12  C   UNL     1     -11.582  14.792  70.198  1.00  0.00    -0.290 A  
HETATM   13  C   UNL     1     -12.950  13.878  71.944  1.00  0.00    -0.354 A  
HETATM   14 CL   UNL     1     -14.136  12.775  72.564  1.00  0.00    -0.240 Cl 
HETATM   15  C   UNL     1     -12.685  15.008  72.731  1.00  0.00    -0.494 A  
HETATM   16  C   UNL     1     -11.352  15.938  70.958  1.00  0.00    -0.434 A  
HETATM   17  C   UNL     1     -11.872  16.029  72.245  1.00  0.00    -0.628 A  
ENDBRANCH   8  10
ENDBRANCH   5   8
BRANCH   6  18
HETATM   18  C   UNL     1     -10.069  11.914  68.220  1.00  0.00    -0.203 C  
HETATM   19  O   UNL     1     -10.487  12.989  66.123  1.00  0.00    -0.270 OA 
HETATM   20  C   UNL     1     -10.905  12.252  67.007  1.00  0.00    -0.250 C  
HETATM   21  O   UNL     1     -12.136  11.702  66.919  1.00  0.00    -0.512 OA 
ENDBRANCH   6  18
TORSDOF 3
ENDMDL
MODEL       65
REMARK 921   NORMALIZED FREE ENERGY PREDICTED BY IDOCK:   -5.89 KCAL/MOL
REMARK 922        TOTAL FREE ENERGY PREDICTED BY IDOCK:   -7.15 KCAL/MOL
REMARK 923 INTER-LIGAND FREE ENERGY PREDICTED BY IDOCK:   -6.61 KCAL/MOL
REMARK 924 INTRA-LIGAND FREE ENERGY PREDICTED BY IDOCK:   -0.54 KCAL/MOL
REMARK 927      BINDING AFFINITY PREDICTED BY RF-SCORE:    0.00 PKD
ROOT
HETATM    1  C   UNL     1     -13.180  15.444  70.845  1.00  0.00    -0.512 C  
HETATM    2  C   UNL     1     -12.115  15.137  69.833  1.00  0.00    -0.373 A  
HETATM    3  C   UNL     1     -11.694  16.104  68.926  1.00  0.00    -0.250 A  
HETATM    4  C   UNL     1     -10.817  15.766  67.901  1.00  0.00    -0.314 A  
HETATM    5  C   UNL     1     -10.379  14.444  67.734  1.00  0.00    -0.238 A  
HETATM    6  C   UNL     1     -10.671  13.496  68.731  1.00  0.00    -0.261 A  
HETATM    7  C   UNL     1     -11.545  13.858  69.774  1.00  0.00    -0.335 A  
ENDROOT
BRANCH   5   8
HETATM    8  N   UNL     1      -9.751  14.035  66.532  1.00  0.00    -0.286 NA 
HETATM    9  H   UNL     1      -8.738  14.141  66.482  1.00  0.00     0.000 HD 
BRANCH   8  10
HETATM   10  C   UNL     1     -10.400  13.488  65.387  1.00  0.00    -0.319 A  
HETATM   11  F   UNL     1     -11.360  15.612  64.969  1.00  0.00    -0.345 F  
HETATM   12  C   UNL     1     -11.261  14.314  64.645  1.00  0.00    -0.366 A  
HETATM   13  C   UNL     1     -10.261  12.154  64.948  1.00  0.00    -0.280 A  
HETATM   14 CL   UNL     1      -9.037  11.087  65.557  1.00  0.00    -0.221 Cl 
HETATM   15  C   UNL     1     -11.073  11.644  63.925  1.00  0.00    -0.477 A  
HETATM   16  C   UNL     1     -12.038  13.823  63.597  1.00  0.00    -0.330 A  
HETATM   17  C   UNL     1     -11.974  12.474  63.262  1.00  0.00    -0.516 A  
ENDBRANCH   8  10
ENDBRANCH   5   8
BRANCH   6  18
HETATM   18  C   UNL     1     -10.110  12.089  68.704  1.00  0.00    -0.170 C  
HETATM   19  O   UNL     1     -10.614   9.791  68.261  1.00  0.00    -0.209 OA 
HETATM   20  C   UNL     1     -11.007  10.951  68.269  1.00  0.00    -0.239 C  
HETATM   21  O   UNL     1     -12.269  11.253  67.898  1.00  0.00    -0.570 OA 
ENDBRANCH   6  18
TORSDOF 3
ENDMDL
MODEL       66
REMARK 921   NORMALIZED FREE ENERGY PREDICTED BY IDOCK:   -5.86 KCAL/MOL
REMARK 922        TOTAL FREE ENERGY PREDICTED BY IDOCK:   -7.11 KCAL/MOL
REMARK 923 INTER-LIGAND FREE ENERGY PREDICTED BY IDOCK:   -6.29 KCAL/MOL
REMARK 924 INTRA-LIGAND FREE ENERGY PREDICTED BY IDOCK:   -0.82 KCAL/MOL
REMARK 927      BINDING AFFINITY PREDICTED BY RF-SCORE:    0.00 PKD
ROOT
HETATM    1  C   UNL     1      -5.295  16.871  66.728  1.00  0.00    -0.140 C  
HETATM    2  C   UNL     1      -6.600  17.060  67.447  1.00  0.00    -0.179 A  
HETATM    3  C   UNL     1      -6.963  16.222  68.496  1.00  0.00    -0.143 A  
HETATM    4  C   UNL     1      -8.233  16.311  69.054  1.00  0.00    -0.238 A  
HETATM    5  C   UNL     1      -9.182  17.210  68.545  1.00  0.00    -0.264 A  
HETATM    6  C   UNL     1      -8.779  18.165  67.595  1.00  0.00    -0.249 A  
HETATM    7  C   UNL     1      -7.482  18.074  67.053  1.00  0.00    -0.228 A  
ENDROOT
BRANCH   5   8
HETATM    8  N   UNL     1     -10.551  17.092  68.891  1.00  0.00    -0.337 NA 
HETATM    9  H   UNL     1     -11.128  17.925  68.777  1.00  0.00     0.000 HD 
BRANCH   8  10
HETATM   10  C   UNL     1     -11.198  15.920  69.382  1.00  0.00    -0.336 A  
HETATM   11  F   UNL     1     -11.210  16.884  71.545  1.00  0.00    -0.229 F  
HETATM   12  C   UNL     1     -11.467  15.829  70.757  1.00  0.00    -0.393 A  
HETATM   13  C   UNL     1     -11.572  14.818  68.584  1.00  0.00    -0.319 A  
HETATM   14 CL   UNL     1     -11.582  14.872  66.851  1.00  0.00    -0.325 Cl 
HETATM   15  C   UNL     1     -12.034  13.630  69.168  1.00  0.00    -0.394 A  
HETATM   16  C   UNL     1     -11.970  14.665  71.338  1.00  0.00    -0.405 A  
HETATM   17  C   UNL     1     -12.216  13.548  70.547  1.00  0.00    -0.433 A  
ENDBRANCH   8  10
ENDBRANCH   5   8
BRANCH   6  18
HETATM   18  C   UNL     1      -9.700  19.265  67.106  1.00  0.00    -0.409 C  
HETATM   19  O   UNL     1     -11.286  19.883  65.423  1.00  0.00    -0.271 OA 
HETATM   20  C   UNL     1     -10.550  19.017  65.880  1.00  0.00    -0.393 C  
HETATM   21  O   UNL     1     -10.465  17.805  65.291  1.00  0.00    -0.605 OA 
ENDBRANCH   6  18
TORSDOF 3
ENDMDL
MODEL       67
REMARK 921   NORMALIZED FREE ENERGY PREDICTED BY IDOCK:   -5.85 KCAL/MOL
REMARK 922        TOTAL FREE ENERGY PREDICTED BY IDOCK:   -7.10 KCAL/MOL
REMARK 923 INTER-LIGAND FREE ENERGY PREDICTED BY IDOCK:   -6.59 KCAL/MOL
REMARK 924 INTRA-LIGAND FREE ENERGY PREDICTED BY IDOCK:   -0.52 KCAL/MOL
REMARK 927      BINDING AFFINITY PREDICTED BY RF-SCORE:    0.00 PKD
ROOT
HETATM    1  C   UNL     1     -11.700  13.335  63.787  1.00  0.00    -0.475 C  
HETATM    2  C   UNL     1     -11.466  14.187  65.000  1.00  0.00    -0.352 A  
HETATM    3  C   UNL     1     -10.758  15.381  64.906  1.00  0.00    -0.416 A  
HETATM    4  C   UNL     1     -10.420  16.086  66.056  1.00  0.00    -0.356 A  
HETATM    5  C   UNL     1     -10.744  15.589  67.327  1.00  0.00    -0.308 A  
HETATM    6  C   UNL     1     -11.592  14.471  67.428  1.00  0.00    -0.406 A  
HETATM    7  C   UNL     1     -11.942  13.779  66.253  1.00  0.00    -0.462 A  
ENDROOT
BRANCH   5   8
HETATM    8  N   UNL     1     -10.142  16.127  68.491  1.00  0.00    -0.234 NA 
HETATM    9  H   UNL     1     -10.443  15.740  69.385  1.00  0.00     0.000 HD 
BRANCH   8  10
HETATM   10  C   UNL     1      -9.157  17.156  68.531  1.00  0.00    -0.265 A  
HETATM   11  F   UNL     1      -7.501  15.500  68.883  1.00  0.00    -0.122 F  
HETATM   12  C   UNL     1      -7.824  16.800  68.790  1.00  0.00    -0.243 A  
HETATM   13  C   UNL     1      -9.427  18.530  68.350  1.00  0.00    -0.341 A  
HETATM   14 CL   UNL     1     -10.940  19.119  67.741  1.00  0.00    -0.397 Cl 
HETATM   15  C   UNL     1      -8.437  19.495  68.587  1.00  0.00    -0.364 A  
HETATM   16  C   UNL     1      -6.825  17.754  68.982  1.00  0.00    -0.244 A  
HETATM   17  C   UNL     1      -7.142  19.107  68.920  1.00  0.00    -0.372 A  
ENDBRANCH   8  10
ENDBRANCH   5   8
BRANCH   6  18
HETATM   18  C   UNL     1     -12.112  13.963  68.758  1.00  0.00    -0.344 C  
HETATM   19  O   UNL     1     -11.972  12.194  70.365  1.00  0.00    -0.343 OA 
HETATM   20  C   UNL     1     -11.563  12.667  69.312  1.00  0.00    -0.318 C  
HETATM   21  O   UNL     1     -10.606  12.035  68.599  1.00  0.00    -0.223 OA 
ENDBRANCH   6  18
TORSDOF 3
ENDMDL
MODEL       68
REMARK 921   NORMALIZED FREE ENERGY PREDICTED BY IDOCK:   -5.83 KCAL/MOL
REMARK 922        TOTAL FREE ENERGY PREDICTED BY IDOCK:   -7.08 KCAL/MOL
REMARK 923 INTER-LIGAND FREE ENERGY PREDICTED BY IDOCK:   -6.31 KCAL/MOL
REMARK 924 INTRA-LIGAND FREE ENERGY PREDICTED BY IDOCK:   -0.77 KCAL/MOL
REMARK 927      BINDING AFFINITY PREDICTED BY RF-SCORE:    0.00 PKD
ROOT
HETATM    1  C   UNL     1     -10.342  18.282  65.937  1.00  0.00    -0.297 C  
HETATM    2  C   UNL     1     -10.204  16.807  66.179  1.00  0.00    -0.363 A  
HETATM    3  C   UNL     1      -9.638  16.327  67.355  1.00  0.00    -0.230 A  
HETATM    4  C   UNL     1      -9.381  14.969  67.504  1.00  0.00    -0.195 A  
HETATM    5  C   UNL     1      -9.643  14.068  66.462  1.00  0.00    -0.293 A  
HETATM    6  C   UNL     1     -10.357  14.514  65.335  1.00  0.00    -0.405 A  
HETATM    7  C   UNL     1     -10.627  15.890  65.207  1.00  0.00    -0.441 A  
ENDROOT
BRANCH   5   8
HETATM    8  N   UNL     1      -9.104  12.758  66.483  1.00  0.00    -0.376 NA 
HETATM    9  H   UNL     1      -8.710  12.408  65.610  1.00  0.00     0.000 HD 
BRANCH   8  10
HETATM   10  C   UNL     1      -9.062  11.882  67.607  1.00  0.00    -0.179 A  
HETATM   11  F   UNL     1      -6.707  12.131  67.658  1.00  0.00    -0.075 F  
HETATM   12  C   UNL     1      -7.810  11.541  68.145  1.00  0.00    -0.128 A  
HETATM   13  C   UNL     1     -10.197  11.305  68.216  1.00  0.00    -0.186 A  
HETATM   14 CL   UNL     1     -11.814  11.831  67.878  1.00  0.00    -0.345 Cl 
HETATM   15  C   UNL     1     -10.061  10.313  69.197  1.00  0.00    -0.232 A  
HETATM   16  C   UNL     1      -7.672  10.587  69.153  1.00  0.00    -0.131 A  
HETATM   17  C   UNL     1      -8.798   9.941  69.652  1.00  0.00    -0.224 A  
ENDBRANCH   8  10
ENDBRANCH   5   8
BRANCH   6  18
HETATM   18  C   UNL     1     -10.812  13.575  64.236  1.00  0.00    -0.340 C  
HETATM   19  O   UNL     1     -12.680  12.382  63.333  1.00  0.00    -0.722 OA 
HETATM   20  C   UNL     1     -12.266  13.165  64.179  1.00  0.00    -0.398 C  
HETATM   21  O   UNL     1     -13.102  13.683  65.105  1.00  0.00    -0.750 OA 
ENDBRANCH   6  18
TORSDOF 3
ENDMDL
MODEL       69
REMARK 921   NORMALIZED FREE ENERGY PREDICTED BY IDOCK:   -5.80 KCAL/MOL
REMARK 922        TOTAL FREE ENERGY PREDICTED BY IDOCK:   -7.05 KCAL/MOL
REMARK 923 INTER-LIGAND FREE ENERGY PREDICTED BY IDOCK:   -6.40 KCAL/MOL
REMARK 924 INTRA-LIGAND FREE ENERGY PREDICTED BY IDOCK:   -0.64 KCAL/MOL
REMARK 927      BINDING AFFINITY PREDICTED BY RF-SCORE:    0.00 PKD
ROOT
HETATM    1  C   UNL     1      -8.344   8.557  62.433  1.00  0.00    -0.192 C  
HETATM    2  C   UNL     1      -8.849   9.426  63.548  1.00  0.00    -0.198 A  
HETATM    3  C   UNL     1      -8.782   8.999  64.870  1.00  0.00    -0.200 A  
HETATM    4  C   UNL     1      -9.385   9.744  65.877  1.00  0.00    -0.260 A  
HETATM    5  C   UNL     1     -10.106  10.909  65.577  1.00  0.00    -0.267 A  
HETATM    6  C   UNL     1     -10.048  11.433  64.272  1.00  0.00    -0.347 A  
HETATM    7  C   UNL     1      -9.416  10.676  63.267  1.00  0.00    -0.360 A  
ENDROOT
BRANCH   5   8
HETATM    8  N   UNL     1     -10.972  11.493  66.533  1.00  0.00    -0.293 NA 
HETATM    9  H   UNL     1     -11.831  10.986  66.747  1.00  0.00     0.000 HD 
BRANCH   8  10
HETATM   10  C   UNL     1     -10.758  12.721  67.226  1.00  0.00    -0.237 A  
HETATM   11  F   UNL     1     -12.904  13.440  66.529  1.00  0.00    -0.281 F  
HETATM   12  C   UNL     1     -11.748  13.714  67.152  1.00  0.00    -0.383 A  
HETATM   13  C   UNL     1      -9.599  13.028  67.971  1.00  0.00    -0.224 A  
HETATM   14 CL   UNL     1      -8.419  11.835  68.408  1.00  0.00    -0.159 Cl 
HETATM   15  C   UNL     1      -9.385  14.321  68.467  1.00  0.00    -0.200 A  
HETATM   16  C   UNL     1     -11.558  14.990  67.683  1.00  0.00    -0.327 A  
HETATM   17  C   UNL     1     -10.356  15.307  68.307  1.00  0.00    -0.234 A  
ENDBRANCH   8  10
ENDBRANCH   5   8
BRANCH   6  18
HETATM   18  C   UNL     1     -10.671  12.763  63.902  1.00  0.00    -0.443 C  
HETATM   19  O   UNL     1     -12.654  13.838  63.098  1.00  0.00    -0.793 OA 
HETATM   20  C   UNL     1     -12.111  12.794  63.442  1.00  0.00    -0.534 C  
HETATM   21  O   UNL     1     -12.786  11.625  63.410  1.00  0.00    -0.472 OA 
ENDBRANCH   6  18
TORSDOF 3
ENDMDL
MODEL       70
REMARK 921   NORMALIZED FREE ENERGY PREDICTED BY IDOCK:   -5.80 KCAL/MOL
REMARK 922        TOTAL FREE ENERGY PREDICTED BY IDOCK:   -7.05 KCAL/MOL
REMARK 923 INTER-LIGAND FREE ENERGY PREDICTED BY IDOCK:   -6.24 KCAL/MOL
REMARK 924 INTRA-LIGAND FREE ENERGY PREDICTED BY IDOCK:   -0.81 KCAL/MOL
REMARK 927      BINDING AFFINITY PREDICTED BY RF-SCORE:    0.00 PKD
ROOT
HETATM    1  C   UNL     1     -12.887  12.034  63.581  1.00  0.00    -0.472 C  
HETATM    2  C   UNL     1     -12.155  12.909  64.557  1.00  0.00    -0.473 A  
HETATM    3  C   UNL     1     -11.947  14.258  64.288  1.00  0.00    -0.449 A  
HETATM    4  C   UNL     1     -11.142  15.022  65.125  1.00  0.00    -0.408 A  
HETATM    5  C   UNL     1     -10.493  14.442  66.226  1.00  0.00    -0.290 A  
HETATM    6  C   UNL     1     -10.819  13.125  66.597  1.00  0.00    -0.292 A  
HETATM    7  C   UNL     1     -11.651  12.370  65.748  1.00  0.00    -0.449 A  
ENDROOT
BRANCH   5   8
HETATM    8  N   UNL     1      -9.442  15.123  66.889  1.00  0.00    -0.227 NA 
HETATM    9  H   UNL     1      -8.590  14.592  67.068  1.00  0.00     0.000 HD 
BRANCH   8  10
HETATM   10  C   UNL     1      -9.463  16.479  67.330  1.00  0.00    -0.235 A  
HETATM   11  F   UNL     1      -7.851  16.998  65.674  1.00  0.00    -0.239 F  
HETATM   12  C   UNL     1      -8.592  17.396  66.720  1.00  0.00    -0.260 A  
HETATM   13  C   UNL     1     -10.287  16.971  68.364  1.00  0.00    -0.351 A  
HETATM   14 CL   UNL     1     -11.611  16.067  69.023  1.00  0.00    -0.369 Cl 
HETATM   15  C   UNL     1     -10.117  18.271  68.862  1.00  0.00    -0.358 A  
HETATM   16  C   UNL     1      -8.451  18.704  67.183  1.00  0.00    -0.272 A  
HETATM   17  C   UNL     1      -9.186  19.131  68.283  1.00  0.00    -0.385 A  
ENDBRANCH   8  10
ENDBRANCH   5   8
BRANCH   6  18
HETATM   18  C   UNL     1     -10.279  12.478  67.856  1.00  0.00    -0.219 C  
HETATM   19  O   UNL     1      -8.559  11.073  68.749  1.00  0.00    -0.152 OA 
HETATM   20  C   UNL     1      -9.019  11.646  67.769  1.00  0.00    -0.170 C  
HETATM   21  O   UNL     1      -8.416  11.543  66.565  1.00  0.00    -0.170 OA 
ENDBRANCH   6  18
TORSDOF 3
ENDMDL
MODEL       71
REMARK 921   NORMALIZED FREE ENERGY PREDICTED BY IDOCK:   -5.79 KCAL/MOL
REMARK 922        TOTAL FREE ENERGY PREDICTED BY IDOCK:   -7.03 KCAL/MOL
REMARK 923 INTER-LIGAND FREE ENERGY PREDICTED BY IDOCK:   -6.45 KCAL/MOL
REMARK 924 INTRA-LIGAND FREE ENERGY PREDICTED BY IDOCK:   -0.59 KCAL/MOL
REMARK 927      BINDING AFFINITY PREDICTED BY RF-SCORE:    0.00 PKD
ROOT
HETATM    1  C   UNL     1     -12.861  10.211  71.639  1.00  0.00    -0.559 C  
HETATM    2  C   UNL     1     -11.987  10.884  70.621  1.00  0.00    -0.467 A  
HETATM    3  C   UNL     1     -12.242  12.190  70.215  1.00  0.00    -0.344 A  
HETATM    4  C   UNL     1     -11.520  12.750  69.167  1.00  0.00    -0.361 A  
HETATM    5  C   UNL     1     -10.559  12.001  68.473  1.00  0.00    -0.231 A  
HETATM    6  C   UNL     1     -10.183  10.740  68.972  1.00  0.00    -0.229 A  
HETATM    7  C   UNL     1     -10.911  10.194  70.047  1.00  0.00    -0.364 A  
ENDROOT
BRANCH   5   8
HETATM    8  N   UNL     1     -10.052  12.447  67.228  1.00  0.00    -0.208 NA 
HETATM    9  H   UNL     1      -9.039  12.519  67.142  1.00  0.00     0.000 HD 
BRANCH   8  10
HETATM   10  C   UNL     1     -10.824  12.804  66.083  1.00  0.00    -0.279 A  
HETATM   11  F   UNL     1     -10.654  10.568  65.322  1.00  0.00    -0.343 F  
HETATM   12  C   UNL     1     -11.062  11.828  65.103  1.00  0.00    -0.282 A  
HETATM   13  C   UNL     1     -11.354  14.090  65.846  1.00  0.00    -0.317 A  
HETATM   14 CL   UNL     1     -11.409  15.325  67.063  1.00  0.00    -0.282 Cl 
HETATM   15  C   UNL     1     -11.943  14.410  64.614  1.00  0.00    -0.475 A  
HETATM   16  C   UNL     1     -11.687  12.129  63.893  1.00  0.00    -0.546 A  
HETATM   17  C   UNL     1     -12.092  13.434  63.631  1.00  0.00    -0.513 A  
ENDBRANCH   8  10
ENDBRANCH   5   8
BRANCH   6  18
HETATM   18  C   UNL     1      -9.051   9.933  68.372  1.00  0.00    -0.123 C  
HETATM   19  O   UNL     1      -8.503   8.014  67.050  1.00  0.00    -0.117 OA 
HETATM   20  C   UNL     1      -9.381   8.721  67.531  1.00  0.00    -0.136 C  
HETATM   21  O   UNL     1     -10.684   8.430  67.331  1.00  0.00    -0.269 OA 
ENDBRANCH   6  18
TORSDOF 3
ENDMDL
MODEL       72
REMARK 921   NORMALIZED FREE ENERGY PREDICTED BY IDOCK:   -5.79 KCAL/MOL
REMARK 922        TOTAL FREE ENERGY PREDICTED BY IDOCK:   -7.03 KCAL/MOL
REMARK 923 INTER-LIGAND FREE ENERGY PREDICTED BY IDOCK:   -6.36 KCAL/MOL
REMARK 924 INTRA-LIGAND FREE ENERGY PREDICTED BY IDOCK:   -0.67 KCAL/MOL
REMARK 927      BINDING AFFINITY PREDICTED BY RF-SCORE:    0.00 PKD
ROOT
HETATM    1  C   UNL     1     -12.457  12.606  64.547  1.00  0.00    -0.525 C  
HETATM    2  C   UNL     1     -11.912  13.755  65.346  1.00  0.00    -0.395 A  
HETATM    3  C   UNL     1     -11.532  14.939  64.722  1.00  0.00    -0.410 A  
HETATM    4  C   UNL     1     -10.892  15.937  65.448  1.00  0.00    -0.361 A  
HETATM    5  C   UNL     1     -10.579  15.754  66.803  1.00  0.00    -0.309 A  
HETATM    6  C   UNL     1     -11.095  14.634  67.479  1.00  0.00    -0.319 A  
HETATM    7  C   UNL     1     -11.758  13.640  66.733  1.00  0.00    -0.426 A  
ENDROOT
BRANCH   5   8
HETATM    8  N   UNL     1      -9.666  16.616  67.459  1.00  0.00    -0.244 NA 
HETATM    9  H   UNL     1      -9.553  16.488  68.464  1.00  0.00     0.000 HD 
BRANCH   8  10
HETATM   10  C   UNL     1      -8.892  17.646  66.848  1.00  0.00    -0.246 A  
HETATM   11  F   UNL     1      -7.171  16.066  66.464  1.00  0.00    -0.230 F  
HETATM   12  C   UNL     1      -7.597  17.337  66.403  1.00  0.00    -0.314 A  
HETATM   13  C   UNL     1      -9.326  18.978  66.677  1.00  0.00    -0.332 A  
HETATM   14 CL   UNL     1     -10.975  19.466  66.897  1.00  0.00    -0.497 Cl 
HETATM   15  C   UNL     1      -8.440  19.972  66.236  1.00  0.00    -0.329 A  
HETATM   16  C   UNL     1      -6.726  18.315  65.921  1.00  0.00    -0.315 A  
HETATM   17  C   UNL     1      -7.136  19.643  65.876  1.00  0.00    -0.308 A  
ENDBRANCH   8  10
ENDBRANCH   5   8
BRANCH   6  18
HETATM   18  C   UNL     1     -10.931  14.439  68.973  1.00  0.00    -0.274 C  
HETATM   19  O   UNL     1     -11.474  15.321  71.131  1.00  0.00    -0.317 OA 
HETATM   20  C   UNL     1     -11.602  15.412  69.916  1.00  0.00    -0.323 C  
HETATM   21  O   UNL     1     -12.344  16.402  69.375  1.00  0.00     0.111 OA 
ENDBRANCH   6  18
TORSDOF 3
ENDMDL
MODEL       73
REMARK 921   NORMALIZED FREE ENERGY PREDICTED BY IDOCK:   -5.78 KCAL/MOL
REMARK 922        TOTAL FREE ENERGY PREDICTED BY IDOCK:   -7.02 KCAL/MOL
REMARK 923 INTER-LIGAND FREE ENERGY PREDICTED BY IDOCK:   -6.14 KCAL/MOL
REMARK 924 INTRA-LIGAND FREE ENERGY PREDICTED BY IDOCK:   -0.87 KCAL/MOL
REMARK 927      BINDING AFFINITY PREDICTED BY RF-SCORE:    0.00 PKD
ROOT
HETATM    1  C   UNL     1     -12.325  14.150  71.195  1.00  0.00    -0.447 C  
HETATM    2  C   UNL     1     -12.127  13.376  69.924  1.00  0.00    -0.389 A  
HETATM    3  C   UNL     1     -12.075  11.986  69.937  1.00  0.00    -0.334 A  
HETATM    4  C   UNL     1     -11.744  11.289  68.780  1.00  0.00    -0.405 A  
HETATM    5  C   UNL     1     -11.416  11.968  67.598  1.00  0.00    -0.322 A  
HETATM    6  C   UNL     1     -11.618  13.359  67.529  1.00  0.00    -0.382 A  
HETATM    7  C   UNL     1     -11.971  14.049  68.705  1.00  0.00    -0.389 A  
ENDROOT
BRANCH   5   8
HETATM    8  N   UNL     1     -10.785  11.293  66.525  1.00  0.00    -0.267 NA 
HETATM    9  H   UNL     1     -11.276  11.287  65.631  1.00  0.00     0.000 HD 
BRANCH   8  10
HETATM   10  C   UNL     1      -9.528  10.621  66.575  1.00  0.00    -0.169 A  
HETATM   11  F   UNL     1      -8.450  12.730  66.627  1.00  0.00    -0.175 F  
HETATM   12  C   UNL     1      -8.354  11.392  66.569  1.00  0.00    -0.164 A  
HETATM   13  C   UNL     1      -9.370   9.219  66.606  1.00  0.00    -0.170 A  
HETATM   14 CL   UNL     1     -10.687   8.132  66.908  1.00  0.00    -0.319 Cl 
HETATM   15  C   UNL     1      -8.104   8.634  66.469  1.00  0.00    -0.103 A  
HETATM   16  C   UNL     1      -7.088  10.814  66.477  1.00  0.00    -0.138 A  
HETATM   17  C   UNL     1      -6.965   9.432  66.386  1.00  0.00    -0.084 A  
ENDBRANCH   8  10
ENDBRANCH   5   8
BRANCH   6  18
HETATM   18  C   UNL     1     -11.432  14.145  66.248  1.00  0.00    -0.358 C  
HETATM   19  O   UNL     1     -12.423  14.722  64.147  1.00  0.00    -0.758 OA 
HETATM   20  C   UNL     1     -12.536  14.132  65.214  1.00  0.00    -0.461 C  
HETATM   21  O   UNL     1     -13.655  13.433  65.499  1.00  0.00    -0.310 OA 
ENDBRANCH   6  18
TORSDOF 3
ENDMDL
MODEL       74
REMARK 921   NORMALIZED FREE ENERGY PREDICTED BY IDOCK:   -5.77 KCAL/MOL
REMARK 922        TOTAL FREE ENERGY PREDICTED BY IDOCK:   -7.01 KCAL/MOL
REMARK 923 INTER-LIGAND FREE ENERGY PREDICTED BY IDOCK:   -7.09 KCAL/MOL
REMARK 924 INTRA-LIGAND FREE ENERGY PREDICTED BY IDOCK:    0.07 KCAL/MOL
REMARK 927      BINDING AFFINITY PREDICTED BY RF-SCORE:    0.00 PKD
ROOT
HETATM    1  C   UNL     1     -10.461   9.110  68.963  1.00  0.00    -0.238 C  
HETATM    2  C   UNL     1     -11.101  10.438  68.682  1.00  0.00    -0.313 A  
HETATM    3  C   UNL     1     -11.214  10.914  67.380  1.00  0.00    -0.345 A  
HETATM    4  C   UNL     1     -11.671  12.206  67.145  1.00  0.00    -0.372 A  
HETATM    5  C   UNL     1     -11.984  13.064  68.210  1.00  0.00    -0.267 A  
HETATM    6  C   UNL     1     -12.025  12.546  69.517  1.00  0.00    -0.329 A  
HETATM    7  C   UNL     1     -11.576  11.230  69.736  1.00  0.00    -0.408 A  
ENDROOT
BRANCH   5   8
HETATM    8  N   UNL     1     -12.145  14.455  67.996  1.00  0.00    -0.574 NA 
HETATM    9  H   UNL     1     -13.096  14.821  68.042  1.00  0.00     0.000 HD 
BRANCH   8  10
HETATM   10  C   UNL     1     -11.106  15.392  67.724  1.00  0.00    -0.320 A  
HETATM   11  F   UNL     1     -11.325  14.902  65.417  1.00  0.00    -0.328 F  
HETATM   12  C   UNL     1     -10.676  15.550  66.396  1.00  0.00    -0.303 A  
HETATM   13  C   UNL     1     -10.449  16.167  68.704  1.00  0.00    -0.269 A  
HETATM   14 CL   UNL     1     -11.033  16.318  70.330  1.00  0.00    -0.342 Cl 
HETATM   15  C   UNL     1      -9.315  16.926  68.381  1.00  0.00    -0.255 A  
HETATM   16  C   UNL     1      -9.575  16.340  66.063  1.00  0.00    -0.371 A  
HETATM   17  C   UNL     1      -8.868  16.998  67.064  1.00  0.00    -0.242 A  
ENDBRANCH   8  10
ENDBRANCH   5   8
BRANCH   6  18
HETATM   18  C   UNL     1     -12.497  13.364  70.701  1.00  0.00    -0.385 C  
HETATM   19  O   UNL     1     -13.649  13.284  72.798  1.00  0.00    -0.634 OA 
HETATM   20  C   UNL     1     -13.216  12.666  71.834  1.00  0.00    -0.403 C  
HETATM   21  O   UNL     1     -13.379  11.329  71.744  1.00  0.00    -0.391 OA 
ENDBRANCH   6  18
TORSDOF 3
ENDMDL
MODEL       75
REMARK 921   NORMALIZED FREE ENERGY PREDICTED BY IDOCK:   -5.76 KCAL/MOL
REMARK 922        TOTAL FREE ENERGY PREDICTED BY IDOCK:   -7.00 KCAL/MOL
REMARK 923 INTER-LIGAND FREE ENERGY PREDICTED BY IDOCK:   -6.28 KCAL/MOL
REMARK 924 INTRA-LIGAND FREE ENERGY PREDICTED BY IDOCK:   -0.72 KCAL/MOL
REMARK 927      BINDING AFFINITY PREDICTED BY RF-SCORE:    0.00 PKD
ROOT
HETATM    1  C   UNL     1     -12.849  10.374  71.694  1.00  0.00    -0.579 C  
HETATM    2  C   UNL     1     -12.126  10.804  70.451  1.00  0.00    -0.443 A  
HETATM    3  C   UNL     1     -12.042  12.149  70.105  1.00  0.00    -0.368 A  
HETATM    4  C   UNL     1     -11.502  12.523  68.880  1.00  0.00    -0.355 A  
HETATM    5  C   UNL     1     -11.074  11.558  67.956  1.00  0.00    -0.254 A  
HETATM    6  C   UNL     1     -11.009  10.211  68.355  1.00  0.00    -0.293 A  
HETATM    7  C   UNL     1     -11.543   9.850  69.607  1.00  0.00    -0.095 A  
ENDROOT
BRANCH   5   8
HETATM    8  N   UNL     1     -10.820  11.908  66.607  1.00  0.00    -0.263 NA 
HETATM    9  H   UNL     1     -10.508  11.160  65.988  1.00  0.00     0.000 HD 
BRANCH   8  10
HETATM   10  C   UNL     1     -10.958  13.206  66.033  1.00  0.00    -0.279 A  
HETATM   11  F   UNL     1     -13.065  12.554  65.170  1.00  0.00    -0.473 F  
HETATM   12  C   UNL     1     -12.096  13.479  65.257  1.00  0.00    -0.411 A  
HETATM   13  C   UNL     1     -10.013  14.245  66.167  1.00  0.00    -0.314 A  
HETATM   14 CL   UNL     1      -8.709  14.189  67.310  1.00  0.00    -0.215 Cl 
HETATM   15  C   UNL     1     -10.132  15.427  65.423  1.00  0.00    -0.394 A  
HETATM   16  C   UNL     1     -12.242  14.672  64.549  1.00  0.00    -0.473 A  
HETATM   17  C   UNL     1     -11.238  15.632  64.600  1.00  0.00    -0.380 A  
ENDBRANCH   8  10
ENDBRANCH   5   8
BRANCH   6  18
HETATM   18  C   UNL     1     -10.419   9.129  67.473  1.00  0.00    -0.335 C  
HETATM   19  O   UNL     1      -8.403   8.003  66.843  1.00  0.00    -0.113 OA 
HETATM   20  C   UNL     1      -8.937   8.843  67.557  1.00  0.00    -0.133 C  
HETATM   21  O   UNL     1      -8.208   9.555  68.444  1.00  0.00    -0.111 OA 
ENDBRANCH   6  18
TORSDOF 3
ENDMDL
MODEL       76
REMARK 921   NORMALIZED FREE ENERGY PREDICTED BY IDOCK:   -5.71 KCAL/MOL
REMARK 922        TOTAL FREE ENERGY PREDICTED BY IDOCK:   -6.94 KCAL/MOL
REMARK 923 INTER-LIGAND FREE ENERGY PREDICTED BY IDOCK:   -6.30 KCAL/MOL
REMARK 924 INTRA-LIGAND FREE ENERGY PREDICTED BY IDOCK:   -0.64 KCAL/MOL
REMARK 927      BINDING AFFINITY PREDICTED BY RF-SCORE:    0.00 PKD
ROOT
HETATM    1  C   UNL     1     -10.139  10.607  64.094  1.00  0.00    -0.402 C  
HETATM    2  C   UNL     1     -10.098  10.713  65.591  1.00  0.00    -0.335 A  
HETATM    3  C   UNL     1     -10.207   9.579  66.389  1.00  0.00    -0.302 A  
HETATM    4  C   UNL     1     -10.317   9.703  67.769  1.00  0.00    -0.286 A  
HETATM    5  C   UNL     1     -10.364  10.966  68.378  1.00  0.00    -0.178 A  
HETATM    6  C   UNL     1     -10.097  12.109  67.602  1.00  0.00    -0.205 A  
HETATM    7  C   UNL     1      -9.969  11.965  66.207  1.00  0.00    -0.245 A  
ENDROOT
BRANCH   5   8
HETATM    8  N   UNL     1     -10.785  11.108  69.723  1.00  0.00    -0.462 NA 
HETATM    9  H   UNL     1     -10.908  12.060  70.069  1.00  0.00     0.000 HD 
BRANCH   8  10
HETATM   10  C   UNL     1     -11.051  10.048  70.638  1.00  0.00    -0.335 A  
HETATM   11  F   UNL     1     -13.369  10.398  70.303  1.00  0.00    -0.345 F  
HETATM   12  C   UNL     1     -12.388   9.753  70.952  1.00  0.00    -0.290 A  
HETATM   13  C   UNL     1     -10.059   9.277  71.281  1.00  0.00    -0.291 A  
HETATM   14 CL   UNL     1      -8.392   9.303  70.805  1.00  0.00    -0.237 Cl 
HETATM   15  C   UNL     1     -10.396   8.380  72.304  1.00  0.00    -0.403 A  
HETATM   16  C   UNL     1     -12.731   8.828  71.938  1.00  0.00    -0.427 A  
HETATM   17  C   UNL     1     -11.731   8.169  72.645  1.00  0.00    -0.419 A  
ENDBRANCH   8  10
ENDBRANCH   5   8
BRANCH   6  18
HETATM   18  C   UNL     1      -9.980  13.493  68.207  1.00  0.00    -0.237 C  
HETATM   19  O   UNL     1     -11.092  15.589  68.526  1.00  0.00    -0.273 OA 
HETATM   20  C   UNL     1     -11.146  14.447  68.085  1.00  0.00    -0.264 C  
HETATM   21  O   UNL     1     -12.257  14.005  67.458  1.00  0.00    -0.366 OA 
ENDBRANCH   6  18
TORSDOF 3
ENDMDL
MODEL       77
REMARK 921   NORMALIZED FREE ENERGY PREDICTED BY IDOCK:   -5.67 KCAL/MOL
REMARK 922        TOTAL FREE ENERGY PREDICTED BY IDOCK:   -6.89 KCAL/MOL
REMARK 923 INTER-LIGAND FREE ENERGY PREDICTED BY IDOCK:   -6.03 KCAL/MOL
REMARK 924 INTRA-LIGAND FREE ENERGY PREDICTED BY IDOCK:   -0.86 KCAL/MOL
REMARK 927      BINDING AFFINITY PREDICTED BY RF-SCORE:    0.00 PKD
ROOT
HETATM    1  C   UNL     1     -12.423  12.088  63.390  1.00  0.00    -0.625 C  
HETATM    2  C   UNL     1     -12.166  12.570  64.788  1.00  0.00    -0.532 A  
HETATM    3  C   UNL     1     -12.764  13.733  65.261  1.00  0.00    -0.481 A  
HETATM    4  C   UNL     1     -12.405  14.249  66.502  1.00  0.00    -0.345 A  
HETATM    5  C   UNL     1     -11.407  13.637  67.275  1.00  0.00    -0.323 A  
HETATM    6  C   UNL     1     -10.910  12.381  66.881  1.00  0.00    -0.286 A  
HETATM    7  C   UNL     1     -11.299  11.863  65.631  1.00  0.00    -0.339 A  
ENDROOT
BRANCH   5   8
HETATM    8  N   UNL     1     -10.822  14.315  68.372  1.00  0.00    -0.246 NA 
HETATM    9  H   UNL     1     -10.868  13.851  69.278  1.00  0.00     0.000 HD 
BRANCH   8  10
HETATM   10  C   UNL     1     -10.174  15.585  68.329  1.00  0.00    -0.222 A  
HETATM   11  F   UNL     1     -11.785  16.411  69.856  1.00  0.00    -0.269 F  
HETATM   12  C   UNL     1     -10.732  16.647  69.059  1.00  0.00    -0.343 A  
HETATM   13  C   UNL     1      -9.013  15.866  67.578  1.00  0.00    -0.194 A  
HETATM   14 CL   UNL     1      -8.035  14.628  66.860  1.00  0.00    -0.094 Cl 
HETATM   15  C   UNL     1      -8.544  17.181  67.442  1.00  0.00    -0.212 A  
HETATM   16  C   UNL     1     -10.242  17.950  68.962  1.00  0.00    -0.274 A  
HETATM   17  C   UNL     1      -9.170  18.225  68.120  1.00  0.00    -0.313 A  
ENDBRANCH   8  10
ENDBRANCH   5   8
BRANCH   6  18
HETATM   18  C   UNL     1      -9.945  11.585  67.734  1.00  0.00    -0.195 C  
HETATM   19  O   UNL     1      -9.741  10.166  69.652  1.00  0.00    -0.228 OA 
HETATM   20  C   UNL     1     -10.482  10.800  68.910  1.00  0.00    -0.205 C  
HETATM   21  O   UNL     1     -11.815  10.826  69.126  1.00  0.00    -0.303 OA 
ENDBRANCH   6  18
TORSDOF 3
ENDMDL
MODEL       78
REMARK 921   NORMALIZED FREE ENERGY PREDICTED BY IDOCK:   -5.65 KCAL/MOL
REMARK 922        TOTAL FREE ENERGY PREDICTED BY IDOCK:   -6.87 KCAL/MOL
REMARK 923 INTER-LIGAND FREE ENERGY PREDICTED BY IDOCK:   -6.17 KCAL/MOL
REMARK 924 INTRA-LIGAND FREE ENERGY PREDICTED BY IDOCK:   -0.70 KCAL/MOL
REMARK 927      BINDING AFFINITY PREDICTED BY RF-SCORE:    0.00 PKD
ROOT
HETATM    1  C   UNL     1      -9.681   7.813  70.796  1.00  0.00    -0.175 C  
HETATM    2  C   UNL     1     -10.124   8.923  69.887  1.00  0.00    -0.204 A  
HETATM    3  C   UNL     1     -10.816  10.021  70.388  1.00  0.00    -0.380 A  
HETATM    4  C   UNL     1     -11.349  10.967  69.519  1.00  0.00    -0.356 A  
HETATM    5  C   UNL     1     -11.239  10.812  68.129  1.00  0.00    -0.302 A  
HETATM    6  C   UNL     1     -10.411   9.796  67.618  1.00  0.00    -0.281 A  
HETATM    7  C   UNL     1      -9.862   8.856  68.512  1.00  0.00    -0.182 A  
ENDROOT
BRANCH   5   8
HETATM    8  N   UNL     1     -12.033  11.586  67.248  1.00  0.00    -0.554 NA 
HETATM    9  H   UNL     1     -12.960  11.225  67.026  1.00  0.00     0.000 HD 
BRANCH   8  10
HETATM   10  C   UNL     1     -11.658  12.820  66.641  1.00  0.00    -0.370 A  
HETATM   11  F   UNL     1     -11.660  11.738  64.535  1.00  0.00    -0.384 F  
HETATM   12  C   UNL     1     -11.422  12.844  65.257  1.00  0.00    -0.313 A  
HETATM   13  C   UNL     1     -11.481  14.034  67.340  1.00  0.00    -0.348 A  
HETATM   14 CL   UNL     1     -12.003  14.261  68.978  1.00  0.00    -0.366 Cl 
HETATM   15  C   UNL     1     -10.935  15.158  66.703  1.00  0.00    -0.318 A  
HETATM   16  C   UNL     1     -10.920  13.973  64.610  1.00  0.00    -0.401 A  
HETATM   17  C   UNL     1     -10.638  15.121  65.343  1.00  0.00    -0.410 A  
ENDBRANCH   8  10
ENDBRANCH   5   8
BRANCH   6  18
HETATM   18  C   UNL     1     -10.118   9.653  66.138  1.00  0.00    -0.328 C  
HETATM   19  O   UNL     1      -8.619  10.261  64.374  1.00  0.00    -0.171 OA 
HETATM   20  C   UNL     1      -8.885  10.316  65.568  1.00  0.00    -0.172 C  
HETATM   21  O   UNL     1      -8.081  10.988  66.421  1.00  0.00    -0.159 OA 
ENDBRANCH   6  18
TORSDOF 3
ENDMDL
MODEL       79
REMARK 921   NORMALIZED FREE ENERGY PREDICTED BY IDOCK:   -5.65 KCAL/MOL
REMARK 922        TOTAL FREE ENERGY PREDICTED BY IDOCK:   -6.87 KCAL/MOL
REMARK 923 INTER-LIGAND FREE ENERGY PREDICTED BY IDOCK:   -6.73 KCAL/MOL
REMARK 924 INTRA-LIGAND FREE ENERGY PREDICTED BY IDOCK:   -0.14 KCAL/MOL
REMARK 927      BINDING AFFINITY PREDICTED BY RF-SCORE:    0.00 PKD
ROOT
HETATM    1  C   UNL     1     -10.100  15.831  70.148  1.00  0.00    -0.095 C  
HETATM    2  C   UNL     1     -10.864  14.974  69.180  1.00  0.00    -0.251 A  
HETATM    3  C   UNL     1     -11.194  13.661  69.499  1.00  0.00    -0.205 A  
HETATM    4  C   UNL     1     -11.769  12.833  68.541  1.00  0.00    -0.371 A  
HETATM    5  C   UNL     1     -11.985  13.287  67.232  1.00  0.00    -0.343 A  
HETATM    6  C   UNL     1     -11.802  14.652  66.942  1.00  0.00    -0.345 A  
HETATM    7  C   UNL     1     -11.237  15.483  67.929  1.00  0.00    -0.325 A  
ENDROOT
BRANCH   5   8
HETATM    8  N   UNL     1     -12.271  12.376  66.186  1.00  0.00    -0.609 NA 
HETATM    9  H   UNL     1     -13.253  12.150  66.028  1.00  0.00     0.000 HD 
BRANCH   8  10
HETATM   10  C   UNL     1     -11.318  11.746  65.334  1.00  0.00    -0.222 A  
HETATM   11  F   UNL     1     -10.740  10.301  67.119  1.00  0.00    -0.276 F  
HETATM   12  C   UNL     1     -10.514  10.725  65.866  1.00  0.00    -0.204 A  
HETATM   13  C   UNL     1     -11.100  12.090  63.982  1.00  0.00    -0.386 A  
HETATM   14 CL   UNL     1     -12.180  13.110  63.086  1.00  0.00    -0.489 Cl 
HETATM   15  C   UNL     1     -10.022  11.552  63.267  1.00  0.00    -0.435 A  
HETATM   16  C   UNL     1      -9.467  10.153  65.143  1.00  0.00    -0.319 A  
HETATM   17  C   UNL     1      -9.194  10.597  63.853  1.00  0.00    -0.271 A  
ENDBRANCH   8  10
ENDBRANCH   5   8
BRANCH   6  18
HETATM   18  C   UNL     1     -12.156  15.252  65.597  1.00  0.00     0.364 C  
HETATM   19  O   UNL     1     -11.403  16.692  63.839  1.00  0.00    -1.104 OA 
HETATM   20  C   UNL     1     -11.155  16.154  64.912  1.00  0.00    -0.325 C  
HETATM   21  O   UNL     1      -9.971  16.361  65.527  1.00  0.00    -0.518 OA 
ENDBRANCH   6  18
TORSDOF 3
ENDMDL
MODEL       80
REMARK 921   NORMALIZED FREE ENERGY PREDICTED BY IDOCK:   -5.64 KCAL/MOL
REMARK 922        TOTAL FREE ENERGY PREDICTED BY IDOCK:   -6.85 KCAL/MOL
REMARK 923 INTER-LIGAND FREE ENERGY PREDICTED BY IDOCK:   -6.26 KCAL/MOL
REMARK 924 INTRA-LIGAND FREE ENERGY PREDICTED BY IDOCK:   -0.59 KCAL/MOL
REMARK 927      BINDING AFFINITY PREDICTED BY RF-SCORE:    0.00 PKD
ROOT
HETATM    1  C   UNL     1      -7.483  20.529  67.690  1.00  0.00    -0.323 C  
HETATM    2  C   UNL     1      -8.438  19.371  67.659  1.00  0.00    -0.339 A  
HETATM    3  C   UNL     1      -9.687  19.495  67.060  1.00  0.00    -0.450 A  
HETATM    4  C   UNL     1     -10.619  18.467  67.167  1.00  0.00    -0.439 A  
HETATM    5  C   UNL     1     -10.335  17.313  67.913  1.00  0.00    -0.360 A  
HETATM    6  C   UNL     1      -9.027  17.109  68.387  1.00  0.00    -0.259 A  
HETATM    7  C   UNL     1      -8.089  18.152  68.254  1.00  0.00    -0.306 A  
ENDROOT
BRANCH   5   8
HETATM    8  N   UNL     1     -11.368  16.419  68.284  1.00  0.00    -0.313 NA 
HETATM    9  H   UNL     1     -12.080  16.776  68.921  1.00  0.00     0.000 HD 
BRANCH   8  10
HETATM   10  C   UNL     1     -11.507  15.066  67.854  1.00  0.00    -0.340 A  
HETATM   11  F   UNL     1     -12.198  14.484  70.043  1.00  0.00    -0.318 F  
HETATM   12  C   UNL     1     -11.879  14.096  68.798  1.00  0.00    -0.349 A  
HETATM   13  C   UNL     1     -11.272  14.618  66.536  1.00  0.00    -0.346 A  
HETATM   14 CL   UNL     1     -11.091  15.699  65.193  1.00  0.00    -0.373 Cl 
HETATM   15  C   UNL     1     -11.250  13.249  66.236  1.00  0.00    -0.321 A  
HETATM   16  C   UNL     1     -11.903  12.735  68.493  1.00  0.00    -0.345 A  
HETATM   17  C   UNL     1     -11.548  12.307  67.218  1.00  0.00    -0.427 A  
ENDBRANCH   8  10
ENDBRANCH   5   8
BRANCH   6  18
HETATM   18  C   UNL     1      -8.600  15.825  69.069  1.00  0.00    -0.236 C  
HETATM   19  O   UNL     1      -7.678  13.643  68.727  1.00  0.00    -0.127 OA 
HETATM   20  C   UNL     1      -8.008  14.714  68.232  1.00  0.00    -0.133 C  
HETATM   21  O   UNL     1      -7.862  14.934  66.908  1.00  0.00    -0.155 OA 
ENDBRANCH   6  18
TORSDOF 3
ENDMDL
MODEL       81
REMARK 921   NORMALIZED FREE ENERGY PREDICTED BY IDOCK:   -5.63 KCAL/MOL
REMARK 922        TOTAL FREE ENERGY PREDICTED BY IDOCK:   -6.84 KCAL/MOL
REMARK 923 INTER-LIGAND FREE ENERGY PREDICTED BY IDOCK:   -6.17 KCAL/MOL
REMARK 924 INTRA-LIGAND FREE ENERGY PREDICTED BY IDOCK:   -0.67 KCAL/MOL
REMARK 927      BINDING AFFINITY PREDICTED BY RF-SCORE:    0.00 PKD
ROOT
HETATM    1  C   UNL     1      -9.850  20.457  67.146  1.00  0.00    -0.601 C  
HETATM    2  C   UNL     1      -9.582  19.059  66.671  1.00  0.00    -0.378 A  
HETATM    3  C   UNL     1     -10.574  18.320  66.035  1.00  0.00    -0.318 A  
HETATM    4  C   UNL     1     -10.362  16.980  65.733  1.00  0.00    -0.275 A  
HETATM    5  C   UNL     1      -9.170  16.338  66.099  1.00  0.00    -0.341 A  
HETATM    6  C   UNL     1      -8.103  17.109  66.598  1.00  0.00    -0.292 A  
HETATM    7  C   UNL     1      -8.328  18.470  66.881  1.00  0.00    -0.270 A  
ENDROOT
BRANCH   5   8
HETATM    8  N   UNL     1      -9.070  14.926  66.080  1.00  0.00    -0.500 NA 
HETATM    9  H   UNL     1      -8.232  14.529  65.657  1.00  0.00     0.000 HD 
BRANCH   8  10
HETATM   10  C   UNL     1     -10.031  14.006  66.594  1.00  0.00    -0.278 A  
HETATM   11  F   UNL     1      -9.974  15.167  68.658  1.00  0.00    -0.197 F  
HETATM   12  C   UNL     1     -10.426  14.129  67.936  1.00  0.00    -0.237 A  
HETATM   13  C   UNL     1     -10.607  12.952  65.854  1.00  0.00    -0.269 A  
HETATM   14 CL   UNL     1     -10.462  12.825  64.130  1.00  0.00    -0.425 Cl 
HETATM   15  C   UNL     1     -11.401  11.982  66.481  1.00  0.00    -0.413 A  
HETATM   16  C   UNL     1     -11.253  13.192  68.555  1.00  0.00    -0.307 A  
HETATM   17  C   UNL     1     -11.709  12.092  67.835  1.00  0.00    -0.403 A  
ENDBRANCH   8  10
ENDBRANCH   5   8
BRANCH   6  18
HETATM   18  C   UNL     1      -6.735  16.521  66.876  1.00  0.00    -0.233 C  
HETATM   19  O   UNL     1      -5.272  15.692  68.579  1.00  0.00    -0.090 OA 
HETATM   20  C   UNL     1      -6.376  16.140  68.294  1.00  0.00    -0.121 C  
HETATM   21  O   UNL     1      -7.314  16.320  69.249  1.00  0.00    -0.221 OA 
ENDBRANCH   6  18
TORSDOF 3
ENDMDL
MODEL       82
REMARK 921   NORMALIZED FREE ENERGY PREDICTED BY IDOCK:   -5.61 KCAL/MOL
REMARK 922        TOTAL FREE ENERGY PREDICTED BY IDOCK:   -6.82 KCAL/MOL
REMARK 923 INTER-LIGAND FREE ENERGY PREDICTED BY IDOCK:   -6.60 KCAL/MOL
REMARK 924 INTRA-LIGAND FREE ENERGY PREDICTED BY IDOCK:   -0.22 KCAL/MOL
REMARK 927      BINDING AFFINITY PREDICTED BY RF-SCORE:    0.00 PKD
ROOT
HETATM    1  C   UNL     1      -7.677   9.969  65.649  1.00  0.00    -0.136 C  
HETATM    2  C   UNL     1      -8.552  10.976  66.338  1.00  0.00    -0.165 A  
HETATM    3  C   UNL     1      -8.298  11.361  67.650  1.00  0.00    -0.129 A  
HETATM    4  C   UNL     1      -9.198  12.179  68.325  1.00  0.00    -0.192 A  
HETATM    5  C   UNL     1     -10.391  12.593  67.716  1.00  0.00    -0.220 A  
HETATM    6  C   UNL     1     -10.583  12.343  66.345  1.00  0.00    -0.271 A  
HETATM    7  C   UNL     1      -9.653  11.529  65.670  1.00  0.00    -0.256 A  
ENDROOT
BRANCH   5   8
HETATM    8  N   UNL     1     -11.441  13.154  68.485  1.00  0.00    -0.280 NA 
HETATM    9  H   UNL     1     -11.851  14.021  68.141  1.00  0.00     0.000 HD 
BRANCH   8  10
HETATM   10  C   UNL     1     -11.978  12.620  69.693  1.00  0.00    -0.286 A  
HETATM   11  F   UNL     1     -11.580  10.440  68.857  1.00  0.00    -0.292 F  
HETATM   12  C   UNL     1     -12.084  11.225  69.821  1.00  0.00    -0.325 A  
HETATM   13  C   UNL     1     -12.441  13.398  70.776  1.00  0.00    -0.341 A  
HETATM   14 CL   UNL     1     -12.126  15.097  70.914  1.00  0.00    -0.349 Cl 
HETATM   15  C   UNL     1     -13.123  12.805  71.848  1.00  0.00    -0.474 A  
HETATM   16  C   UNL     1     -12.723  10.628  70.908  1.00  0.00    -0.498 A  
HETATM   17  C   UNL     1     -13.279  11.422  71.905  1.00  0.00    -0.485 A  
ENDBRANCH   8  10
ENDBRANCH   5   8
BRANCH   6  18
HETATM   18  C   UNL     1     -11.770  12.886  65.578  1.00  0.00    -0.423 C  
HETATM   19  O   UNL     1     -12.567  14.700  64.233  1.00  0.00    -0.688 OA 
HETATM   20  C   UNL     1     -11.628  14.199  64.841  1.00  0.00    -0.379 C  
HETATM   21  O   UNL     1     -10.428  14.816  64.882  1.00  0.00    -0.412 OA 
ENDBRANCH   6  18
TORSDOF 3
ENDMDL
MODEL       83
REMARK 921   NORMALIZED FREE ENERGY PREDICTED BY IDOCK:   -5.56 KCAL/MOL
REMARK 922        TOTAL FREE ENERGY PREDICTED BY IDOCK:   -6.77 KCAL/MOL
REMARK 923 INTER-LIGAND FREE ENERGY PREDICTED BY IDOCK:   -6.14 KCAL/MOL
REMARK 924 INTRA-LIGAND FREE ENERGY PREDICTED BY IDOCK:   -0.63 KCAL/MOL
REMARK 927      BINDING AFFINITY PREDICTED BY RF-SCORE:    0.00 PKD
ROOT
HETATM    1  C   UNL     1     -12.111  10.304  70.911  1.00  0.00    -0.468 C  
HETATM    2  C   UNL     1     -11.378  10.932  69.761  1.00  0.00    -0.374 A  
HETATM    3  C   UNL     1     -10.063  10.580  69.477  1.00  0.00    -0.208 A  
HETATM    4  C   UNL     1      -9.348  11.273  68.507  1.00  0.00    -0.182 A  
HETATM    5  C   UNL     1      -9.918  12.361  67.831  1.00  0.00    -0.204 A  
HETATM    6  C   UNL     1     -11.290  12.625  67.995  1.00  0.00    -0.337 A  
HETATM    7  C   UNL     1     -12.006  11.902  68.969  1.00  0.00    -0.321 A  
ENDROOT
BRANCH   5   8
HETATM    8  N   UNL     1      -9.112  13.255  67.084  1.00  0.00    -0.223 NA 
HETATM    9  H   UNL     1      -8.788  12.930  66.173  1.00  0.00     0.000 HD 
BRANCH   8  10
HETATM   10  C   UNL     1      -8.711  14.563  67.484  1.00  0.00    -0.188 A  
HETATM   11  F   UNL     1      -7.346  13.588  69.156  1.00  0.00    -0.106 F  
HETATM   12  C   UNL     1      -7.850  14.694  68.585  1.00  0.00    -0.138 A  
HETATM   13  C   UNL     1      -9.139  15.756  66.863  1.00  0.00    -0.235 A  
HETATM   14 CL   UNL     1      -9.957  15.780  65.334  1.00  0.00    -0.331 Cl 
HETATM   15  C   UNL     1      -8.848  17.006  67.428  1.00  0.00    -0.210 A  
HETATM   16  C   UNL     1      -7.520  15.937  69.125  1.00  0.00    -0.210 A  
HETATM   17  C   UNL     1      -8.054  17.095  68.569  1.00  0.00    -0.260 A  
ENDBRANCH   8  10
ENDBRANCH   5   8
BRANCH   6  18
HETATM   18  C   UNL     1     -12.017  13.684  67.191  1.00  0.00    -0.434 C  
HETATM   19  O   UNL     1     -13.043  14.179  65.086  1.00  0.00    -0.757 OA 
HETATM   20  C   UNL     1     -12.481  13.350  65.791  1.00  0.00    -0.439 C  
HETATM   21  O   UNL     1     -12.247  12.102  65.333  1.00  0.00    -0.515 OA 
ENDBRANCH   6  18
TORSDOF 3
ENDMDL
MODEL       84
REMARK 921   NORMALIZED FREE ENERGY PREDICTED BY IDOCK:   -5.56 KCAL/MOL
REMARK 922        TOTAL FREE ENERGY PREDICTED BY IDOCK:   -6.76 KCAL/MOL
REMARK 923 INTER-LIGAND FREE ENERGY PREDICTED BY IDOCK:   -6.39 KCAL/MOL
REMARK 924 INTRA-LIGAND FREE ENERGY PREDICTED BY IDOCK:   -0.37 KCAL/MOL
REMARK 927      BINDING AFFINITY PREDICTED BY RF-SCORE:    0.00 PKD
ROOT
HETATM    1  C   UNL     1      -7.410  20.815  67.214  1.00  0.00    -0.397 C  
HETATM    2  C   UNL     1      -8.390  19.693  67.399  1.00  0.00    -0.335 A  
HETATM    3  C   UNL     1      -9.705  19.816  66.962  1.00  0.00    -0.503 A  
HETATM    4  C   UNL     1     -10.638  18.833  67.270  1.00  0.00    -0.504 A  
HETATM    5  C   UNL     1     -10.287  17.727  68.059  1.00  0.00    -0.393 A  
HETATM    6  C   UNL     1      -8.932  17.513  68.372  1.00  0.00    -0.276 A  
HETATM    7  C   UNL     1      -7.995  18.509  68.036  1.00  0.00    -0.293 A  
ENDROOT
BRANCH   5   8
HETATM    8  N   UNL     1     -11.283  16.899  68.631  1.00  0.00    -0.194 NA 
HETATM    9  H   UNL     1     -11.984  17.357  69.214  1.00  0.00     0.000 HD 
BRANCH   8  10
HETATM   10  C   UNL     1     -11.399  15.487  68.471  1.00  0.00    -0.351 A  
HETATM   11  F   UNL     1     -11.084  15.767  66.141  1.00  0.00    -0.308 F  
HETATM   12  C   UNL     1     -11.348  14.952  67.174  1.00  0.00    -0.343 A  
HETATM   13  C   UNL     1     -11.588  14.574  69.531  1.00  0.00    -0.307 A  
HETATM   14 CL   UNL     1     -11.387  15.013  71.197  1.00  0.00    -0.342 Cl 
HETATM   15  C   UNL     1     -11.876  13.226  69.277  1.00  0.00    -0.383 A  
HETATM   16  C   UNL     1     -11.590  13.603  66.919  1.00  0.00    -0.397 A  
HETATM   17  C   UNL     1     -11.895  12.745  67.970  1.00  0.00    -0.386 A  
ENDBRANCH   8  10
ENDBRANCH   5   8
BRANCH   6  18
HETATM   18  C   UNL     1      -8.451  16.269  69.089  1.00  0.00    -0.218 C  
HETATM   19  O   UNL     1      -7.540  14.074  68.800  1.00  0.00    -0.123 OA 
HETATM   20  C   UNL     1      -7.911  15.116  68.273  1.00  0.00    -0.129 C  
HETATM   21  O   UNL     1      -7.860  15.264  66.932  1.00  0.00    -0.209 OA 
ENDBRANCH   6  18
TORSDOF 3
ENDMDL
MODEL       85
REMARK 921   NORMALIZED FREE ENERGY PREDICTED BY IDOCK:   -5.53 KCAL/MOL
REMARK 922        TOTAL FREE ENERGY PREDICTED BY IDOCK:   -6.73 KCAL/MOL
REMARK 923 INTER-LIGAND FREE ENERGY PREDICTED BY IDOCK:   -6.09 KCAL/MOL
REMARK 924 INTRA-LIGAND FREE ENERGY PREDICTED BY IDOCK:   -0.64 KCAL/MOL
REMARK 927      BINDING AFFINITY PREDICTED BY RF-SCORE:    0.00 PKD
ROOT
HETATM    1  C   UNL     1     -10.596   8.438  69.249  1.00  0.00    -0.193 C  
HETATM    2  C   UNL     1     -10.774   9.849  68.767  1.00  0.00    -0.247 A  
HETATM    3  C   UNL     1     -10.857  10.904  69.669  1.00  0.00    -0.271 A  
HETATM    4  C   UNL     1     -11.169  12.183  69.222  1.00  0.00    -0.288 A  
HETATM    5  C   UNL     1     -11.448  12.425  67.868  1.00  0.00    -0.328 A  
HETATM    6  C   UNL     1     -11.213  11.404  66.929  1.00  0.00    -0.331 A  
HETATM    7  C   UNL     1     -10.879  10.119  67.396  1.00  0.00    -0.323 A  
ENDROOT
BRANCH   5   8
HETATM    8  N   UNL     1     -12.062  13.634  67.459  1.00  0.00    -0.355 NA 
HETATM    9  H   UNL     1     -13.005  13.565  67.078  1.00  0.00     0.000 HD 
BRANCH   8  10
HETATM   10  C   UNL     1     -11.487  14.937  67.529  1.00  0.00    -0.348 A  
HETATM   11  F   UNL     1     -10.922  14.765  65.235  1.00  0.00    -0.301 F  
HETATM   12  C   UNL     1     -10.863  15.457  66.383  1.00  0.00    -0.303 A  
HETATM   13  C   UNL     1     -11.476  15.746  68.685  1.00  0.00    -0.386 A  
HETATM   14 CL   UNL     1     -12.437  15.397  70.086  1.00  0.00    -0.394 Cl 
HETATM   15  C   UNL     1     -10.732  16.933  68.725  1.00  0.00    -0.333 A  
HETATM   16  C   UNL     1     -10.159  16.661  66.406  1.00  0.00    -0.325 A  
HETATM   17  C   UNL     1     -10.059  17.381  67.591  1.00  0.00    -0.327 A  
ENDBRANCH   8  10
ENDBRANCH   5   8
BRANCH   6  18
HETATM   18  C   UNL     1     -11.344  11.628  65.436  1.00  0.00    -0.218 C  
HETATM   19  O   UNL     1     -10.148  11.760  63.367  1.00  0.00    -0.388 OA 
HETATM   20  C   UNL     1     -10.104  11.554  64.573  1.00  0.00    -0.278 C  
HETATM   21  O   UNL     1      -8.933  11.262  65.179  1.00  0.00    -0.152 OA 
ENDBRANCH   6  18
TORSDOF 3
ENDMDL
MODEL       86
REMARK 921   NORMALIZED FREE ENERGY PREDICTED BY IDOCK:   -5.53 KCAL/MOL
REMARK 922        TOTAL FREE ENERGY PREDICTED BY IDOCK:   -6.73 KCAL/MOL
REMARK 923 INTER-LIGAND FREE ENERGY PREDICTED BY IDOCK:   -6.31 KCAL/MOL
REMARK 924 INTRA-LIGAND FREE ENERGY PREDICTED BY IDOCK:   -0.42 KCAL/MOL
REMARK 927      BINDING AFFINITY PREDICTED BY RF-SCORE:    0.00 PKD
ROOT
HETATM    1  C   UNL     1      -7.351  20.368  66.874  1.00  0.00    -0.349 C  
HETATM    2  C   UNL     1      -8.324  19.235  66.727  1.00  0.00    -0.311 A  
HETATM    3  C   UNL     1      -9.680  19.481  66.531  1.00  0.00    -0.478 A  
HETATM    4  C   UNL     1     -10.590  18.429  66.544  1.00  0.00    -0.344 A  
HETATM    5  C   UNL     1     -10.169  17.116  66.798  1.00  0.00    -0.311 A  
HETATM    6  C   UNL     1      -8.791  16.834  66.840  1.00  0.00    -0.241 A  
HETATM    7  C   UNL     1      -7.881  17.908  66.806  1.00  0.00    -0.259 A  
ENDROOT
BRANCH   5   8
HETATM    8  N   UNL     1     -11.106  16.104  67.121  1.00  0.00    -0.136 NA 
HETATM    9  H   UNL     1     -11.660  16.242  67.965  1.00  0.00     0.000 HD 
BRANCH   8  10
HETATM   10  C   UNL     1     -11.347  14.911  66.378  1.00  0.00    -0.308 A  
HETATM   11  F   UNL     1     -11.225  16.179  64.382  1.00  0.00    -0.485 F  
HETATM   12  C   UNL     1     -11.457  15.001  64.980  1.00  0.00    -0.364 A  
HETATM   13  C   UNL     1     -11.509  13.631  66.949  1.00  0.00    -0.345 A  
HETATM   14 CL   UNL     1     -11.124  13.284  68.604  1.00  0.00    -0.282 Cl 
HETATM   15  C   UNL     1     -11.925  12.542  66.170  1.00  0.00    -0.432 A  
HETATM   16  C   UNL     1     -11.827  13.910  64.194  1.00  0.00    -0.417 A  
HETATM   17  C   UNL     1     -12.102  12.687  64.796  1.00  0.00    -0.495 A  
ENDBRANCH   8  10
ENDBRANCH   5   8
BRANCH   6  18
HETATM   18  C   UNL     1      -8.252  15.424  66.959  1.00  0.00    -0.270 C  
HETATM   19  O   UNL     1      -7.513  13.734  68.485  1.00  0.00    -0.108 OA 
HETATM   20  C   UNL     1      -7.980  14.856  68.334  1.00  0.00    -0.134 C  
HETATM   21  O   UNL     1      -8.260  15.635  69.401  1.00  0.00    -0.240 OA 
ENDBRANCH   6  18
TORSDOF 3
ENDMDL
MODEL       87
REMARK 921   NORMALIZED FREE ENERGY PREDICTED BY IDOCK:   -5.51 KCAL/MOL
REMARK 922        TOTAL FREE ENERGY PREDICTED BY IDOCK:   -6.70 KCAL/MOL
REMARK 923 INTER-LIGAND FREE ENERGY PREDICTED BY IDOCK:   -6.71 KCAL/MOL
REMARK 924 INTRA-LIGAND FREE ENERGY PREDICTED BY IDOCK:    0.01 KCAL/MOL
REMARK 927      BINDING AFFINITY PREDICTED BY RF-SCORE:    0.00 PKD
ROOT
HETATM    1  C   UNL     1      -9.609   9.185  67.671  1.00  0.00    -0.181 C  
HETATM    2  C   UNL     1     -10.479  10.408  67.716  1.00  0.00    -0.268 A  
HETATM    3  C   UNL     1     -10.795  11.100  66.552  1.00  0.00    -0.302 A  
HETATM    4  C   UNL     1     -11.475  12.311  66.621  1.00  0.00    -0.431 A  
HETATM    5  C   UNL     1     -11.814  12.877  67.859  1.00  0.00    -0.339 A  
HETATM    6  C   UNL     1     -11.641  12.116  69.030  1.00  0.00    -0.374 A  
HETATM    7  C   UNL     1     -10.967  10.882  68.940  1.00  0.00    -0.278 A  
ENDROOT
BRANCH   5   8
HETATM    8  N   UNL     1     -12.217  14.232  67.952  1.00  0.00    -0.595 NA 
HETATM    9  H   UNL     1     -13.220  14.412  67.987  1.00  0.00     0.000 HD 
BRANCH   8  10
HETATM   10  C   UNL     1     -11.354  15.366  67.999  1.00  0.00    -0.341 A  
HETATM   11  F   UNL     1     -11.745  15.514  70.330  1.00  0.00    -0.253 F  
HETATM   12  C   UNL     1     -11.183  16.028  69.225  1.00  0.00    -0.346 A  
HETATM   13  C   UNL     1     -10.667  15.896  66.886  1.00  0.00    -0.289 A  
HETATM   14 CL   UNL     1     -10.528  15.052  65.377  1.00  0.00    -0.371 Cl 
HETATM   15  C   UNL     1      -9.986  17.118  66.975  1.00  0.00    -0.287 A  
HETATM   16  C   UNL     1     -10.469  17.222  69.329  1.00  0.00    -0.220 A  
HETATM   17  C   UNL     1      -9.903  17.790  68.193  1.00  0.00    -0.326 A  
ENDBRANCH   8  10
ENDBRANCH   5   8
BRANCH   6  18
HETATM   18  C   UNL     1     -12.118  12.591  70.387  1.00  0.00    -0.380 C  
HETATM   19  O   UNL     1     -13.402  12.010  72.322  1.00  0.00    -0.485 OA 
HETATM   20  C   UNL     1     -12.962  11.664  71.232  1.00  0.00    -0.269 C  
HETATM   21  O   UNL     1     -13.228  10.434  70.742  1.00  0.00    -0.375 OA 
ENDBRANCH   6  18
TORSDOF 3
ENDMDL
MODEL       88
REMARK 921   NORMALIZED FREE ENERGY PREDICTED BY IDOCK:   -5.50 KCAL/MOL
REMARK 922        TOTAL FREE ENERGY PREDICTED BY IDOCK:   -6.69 KCAL/MOL
REMARK 923 INTER-LIGAND FREE ENERGY PREDICTED BY IDOCK:   -6.27 KCAL/MOL
REMARK 924 INTRA-LIGAND FREE ENERGY PREDICTED BY IDOCK:   -0.41 KCAL/MOL
REMARK 927      BINDING AFFINITY PREDICTED BY RF-SCORE:    0.00 PKD
ROOT
HETATM    1  C   UNL     1     -10.263  20.291  69.466  1.00  0.00     0.090 C  
HETATM    2  C   UNL     1      -9.897  19.356  68.350  1.00  0.00    -0.513 A  
HETATM    3  C   UNL     1     -10.784  19.112  67.306  1.00  0.00    -0.585 A  
HETATM    4  C   UNL     1     -10.498  18.134  66.359  1.00  0.00    -0.364 A  
HETATM    5  C   UNL     1      -9.339  17.350  66.462  1.00  0.00    -0.270 A  
HETATM    6  C   UNL     1      -8.364  17.691  67.416  1.00  0.00    -0.217 A  
HETATM    7  C   UNL     1      -8.661  18.697  68.356  1.00  0.00    -0.361 A  
ENDROOT
BRANCH   5   8
HETATM    8  N   UNL     1      -9.197  16.165  65.700  1.00  0.00    -0.394 NA 
HETATM    9  H   UNL     1      -8.348  16.076  65.141  1.00  0.00     0.000 HD 
BRANCH   8  10
HETATM   10  C   UNL     1     -10.126  15.085  65.639  1.00  0.00    -0.362 A  
HETATM   11  F   UNL     1     -11.412  16.333  64.092  1.00  0.00    -0.522 F  
HETATM   12  C   UNL     1     -11.276  15.233  64.848  1.00  0.00    -0.415 A  
HETATM   13  C   UNL     1      -9.987  13.870  66.344  1.00  0.00    -0.297 A  
HETATM   14 CL   UNL     1      -8.514  13.399  67.128  1.00  0.00    -0.199 Cl 
HETATM   15  C   UNL     1     -11.031  12.934  66.377  1.00  0.00    -0.310 A  
HETATM   16  C   UNL     1     -12.299  14.284  64.843  1.00  0.00    -0.435 A  
HETATM   17  C   UNL     1     -12.194  13.150  65.641  1.00  0.00    -0.521 A  
ENDBRANCH   8  10
ENDBRANCH   5   8
BRANCH   6  18
HETATM   18  C   UNL     1      -7.022  16.992  67.494  1.00  0.00    -0.168 C  
HETATM   19  O   UNL     1      -5.735  15.356  68.676  1.00  0.00    -0.088 OA 
HETATM   20  C   UNL     1      -6.810  15.928  68.547  1.00  0.00    -0.124 C  
HETATM   21  O   UNL     1      -7.848  15.632  69.359  1.00  0.00    -0.219 OA 
ENDBRANCH   6  18
TORSDOF 3
ENDMDL
MODEL       89
REMARK 921   NORMALIZED FREE ENERGY PREDICTED BY IDOCK:   -5.48 KCAL/MOL
REMARK 922        TOTAL FREE ENERGY PREDICTED BY IDOCK:   -6.67 KCAL/MOL
REMARK 923 INTER-LIGAND FREE ENERGY PREDICTED BY IDOCK:   -5.99 KCAL/MOL
REMARK 924 INTRA-LIGAND FREE ENERGY PREDICTED BY IDOCK:   -0.69 KCAL/MOL
REMARK 927      BINDING AFFINITY PREDICTED BY RF-SCORE:    0.00 PKD
ROOT
HETATM    1  C   UNL     1      -7.153   8.322  63.238  1.00  0.00    -0.090 C  
HETATM    2  C   UNL     1      -8.296   9.015  63.920  1.00  0.00    -0.178 A  
HETATM    3  C   UNL     1      -9.107   9.906  63.224  1.00  0.00    -0.294 A  
HETATM    4  C   UNL     1     -10.066  10.653  63.900  1.00  0.00    -0.356 A  
HETATM    5  C   UNL     1     -10.204  10.557  65.292  1.00  0.00    -0.282 A  
HETATM    6  C   UNL     1      -9.503   9.551  65.982  1.00  0.00    -0.294 A  
HETATM    7  C   UNL     1      -8.548   8.790  65.280  1.00  0.00    -0.212 A  
ENDROOT
BRANCH   5   8
HETATM    8  N   UNL     1     -10.945  11.523  66.016  1.00  0.00    -0.284 NA 
HETATM    9  H   UNL     1     -11.456  11.193  66.834  1.00  0.00     0.000 HD 
BRANCH   8  10
HETATM   10  C   UNL     1     -11.045  12.911  65.708  1.00  0.00    -0.284 A  
HETATM   11  F   UNL     1     -13.154  12.497  64.714  1.00  0.00    -0.542 F  
HETATM   12  C   UNL     1     -12.165  13.361  64.991  1.00  0.00    -0.424 A  
HETATM   13  C   UNL     1     -10.078  13.880  66.054  1.00  0.00    -0.313 A  
HETATM   14 CL   UNL     1      -8.792  13.566  67.175  1.00  0.00    -0.222 Cl 
HETATM   15  C   UNL     1     -10.160  15.188  65.557  1.00  0.00    -0.402 A  
HETATM   16  C   UNL     1     -12.273  14.673  64.531  1.00  0.00    -0.473 A  
HETATM   17  C   UNL     1     -11.248  15.579  64.781  1.00  0.00    -0.399 A  
ENDBRANCH   8  10
ENDBRANCH   5   8
BRANCH   6  18
HETATM   18  C   UNL     1      -9.709   9.282  67.458  1.00  0.00    -0.201 C  
HETATM   19  O   UNL     1     -10.733   7.823  69.056  1.00  0.00    -0.195 OA 
HETATM   20  C   UNL     1     -10.508   8.068  67.877  1.00  0.00    -0.197 C  
HETATM   21  O   UNL     1     -10.980   7.260  66.904  1.00  0.00    -0.343 OA 
ENDBRANCH   6  18
TORSDOF 3
ENDMDL
MODEL       90
REMARK 921   NORMALIZED FREE ENERGY PREDICTED BY IDOCK:   -5.48 KCAL/MOL
REMARK 922        TOTAL FREE ENERGY PREDICTED BY IDOCK:   -6.67 KCAL/MOL
REMARK 923 INTER-LIGAND FREE ENERGY PREDICTED BY IDOCK:   -5.83 KCAL/MOL
REMARK 924 INTRA-LIGAND FREE ENERGY PREDICTED BY IDOCK:   -0.84 KCAL/MOL
REMARK 927      BINDING AFFINITY PREDICTED BY RF-SCORE:    0.00 PKD
ROOT
HETATM    1  C   UNL     1      -6.523  10.773  70.192  1.00  0.00    -0.155 C  
HETATM    2  C   UNL     1      -7.636  10.853  69.187  1.00  0.00    -0.133 A  
HETATM    3  C   UNL     1      -7.804  11.988  68.400  1.00  0.00    -0.147 A  
HETATM    4  C   UNL     1      -8.922  12.112  67.582  1.00  0.00    -0.178 A  
HETATM    5  C   UNL     1      -9.917  11.123  67.567  1.00  0.00    -0.181 A  
HETATM    6  C   UNL     1      -9.683   9.907  68.235  1.00  0.00    -0.159 A  
HETATM    7  C   UNL     1      -8.537   9.790  69.044  1.00  0.00    -0.146 A  
ENDROOT
BRANCH   5   8
HETATM    8  N   UNL     1     -11.185  11.379  66.990  1.00  0.00    -0.348 NA 
HETATM    9  H   UNL     1     -11.992  10.957  67.447  1.00  0.00     0.000 HD 
BRANCH   8  10
HETATM   10  C   UNL     1     -11.438  12.169  65.830  1.00  0.00    -0.363 A  
HETATM   11  F   UNL     1     -12.377  13.838  67.223  1.00  0.00    -0.416 F  
HETATM   12  C   UNL     1     -12.101  13.397  65.986  1.00  0.00    -0.438 A  
HETATM   13  C   UNL     1     -11.090  11.794  64.515  1.00  0.00    -0.315 A  
HETATM   14 CL   UNL     1     -10.024  10.472  64.164  1.00  0.00    -0.397 Cl 
HETATM   15  C   UNL     1     -11.536  12.537  63.413  1.00  0.00    -0.547 A  
HETATM   16  C   UNL     1     -12.509  14.163  64.895  1.00  0.00    -0.419 A  
HETATM   17  C   UNL     1     -12.261  13.711  63.603  1.00  0.00    -0.376 A  
ENDBRANCH   8  10
ENDBRANCH   5   8
BRANCH   6  18
HETATM   18  C   UNL     1     -10.637   8.734  68.144  1.00  0.00    -0.203 C  
HETATM   19  O   UNL     1     -11.176   6.741  66.933  1.00  0.00    -0.375 OA 
HETATM   20  C   UNL     1     -10.416   7.691  67.071  1.00  0.00    -0.349 C  
HETATM   21  O   UNL     1      -9.352   7.846  66.255  1.00  0.00    -0.188 OA 
ENDBRANCH   6  18
TORSDOF 3
ENDMDL
MODEL       91
REMARK 921   NORMALIZED FREE ENERGY PREDICTED BY IDOCK:   -5.47 KCAL/MOL
REMARK 922        TOTAL FREE ENERGY PREDICTED BY IDOCK:   -6.65 KCAL/MOL
REMARK 923 INTER-LIGAND FREE ENERGY PREDICTED BY IDOCK:   -6.19 KCAL/MOL
REMARK 924 INTRA-LIGAND FREE ENERGY PREDICTED BY IDOCK:   -0.46 KCAL/MOL
REMARK 927      BINDING AFFINITY PREDICTED BY RF-SCORE:    0.00 PKD
ROOT
HETATM    1  C   UNL     1     -11.038  12.126  63.689  1.00  0.00    -0.528 C  
HETATM    2  C   UNL     1     -10.983  11.730  65.136  1.00  0.00    -0.351 A  
HETATM    3  C   UNL     1     -11.730  12.412  66.091  1.00  0.00    -0.460 A  
HETATM    4  C   UNL     1     -11.558  12.134  67.442  1.00  0.00    -0.410 A  
HETATM    5  C   UNL     1     -10.604  11.199  67.870  1.00  0.00    -0.198 A  
HETATM    6  C   UNL     1      -9.958  10.394  66.913  1.00  0.00    -0.254 A  
HETATM    7  C   UNL     1     -10.157  10.676  65.548  1.00  0.00    -0.343 A  
ENDROOT
BRANCH   5   8
HETATM    8  N   UNL     1     -10.207  11.137  69.228  1.00  0.00    -0.407 NA 
HETATM    9  H   UNL     1      -9.586  11.875  69.560  1.00  0.00     0.000 HD 
BRANCH   8  10
HETATM   10  C   UNL     1     -10.592  10.143  70.174  1.00  0.00    -0.281 A  
HETATM   11  F   UNL     1     -12.860  10.673  69.745  1.00  0.00    -0.333 F  
HETATM   12  C   UNL     1     -11.958   9.974  70.452  1.00  0.00    -0.236 A  
HETATM   13  C   UNL     1      -9.690   9.318  70.880  1.00  0.00    -0.276 A  
HETATM   14 CL   UNL     1      -8.013   9.183  70.461  1.00  0.00    -0.146 Cl 
HETATM   15  C   UNL     1     -10.135   8.495  71.925  1.00  0.00    -0.367 A  
HETATM   16  C   UNL     1     -12.409   9.124  71.461  1.00  0.00    -0.421 A  
HETATM   17  C   UNL     1     -11.492   8.412  72.227  1.00  0.00    -0.454 A  
ENDBRANCH   8  10
ENDBRANCH   5   8
BRANCH   6  18
HETATM   18  C   UNL     1      -9.029   9.261  67.298  1.00  0.00    -0.136 C  
HETATM   19  O   UNL     1      -8.894   6.921  67.781  1.00  0.00    -0.120 OA 
HETATM   20  C   UNL     1      -9.594   7.866  67.440  1.00  0.00    -0.152 C  
HETATM   21  O   UNL     1     -10.909   7.692  67.187  1.00  0.00    -0.317 OA 
ENDBRANCH   6  18
TORSDOF 3
ENDMDL
MODEL       92
REMARK 921   NORMALIZED FREE ENERGY PREDICTED BY IDOCK:   -5.46 KCAL/MOL
REMARK 922        TOTAL FREE ENERGY PREDICTED BY IDOCK:   -6.65 KCAL/MOL
REMARK 923 INTER-LIGAND FREE ENERGY PREDICTED BY IDOCK:   -5.96 KCAL/MOL
REMARK 924 INTRA-LIGAND FREE ENERGY PREDICTED BY IDOCK:   -0.68 KCAL/MOL
REMARK 927      BINDING AFFINITY PREDICTED BY RF-SCORE:    0.00 PKD
ROOT
HETATM    1  C   UNL     1     -14.063  13.478  72.275  1.00  0.00    -0.564 C  
HETATM    2  C   UNL     1     -13.108  13.050  71.198  1.00  0.00    -0.185 A  
HETATM    3  C   UNL     1     -12.834  11.704  70.982  1.00  0.00    -0.339 A  
HETATM    4  C   UNL     1     -11.840  11.328  70.086  1.00  0.00    -0.449 A  
HETATM    5  C   UNL     1     -11.070  12.291  69.418  1.00  0.00    -0.101 A  
HETATM    6  C   UNL     1     -11.440  13.645  69.508  1.00  0.00    -0.324 A  
HETATM    7  C   UNL     1     -12.462  14.009  70.406  1.00  0.00    -0.418 A  
ENDROOT
BRANCH   5   8
HETATM    8  N   UNL     1      -9.870  11.930  68.757  1.00  0.00    -0.389 NA 
HETATM    9  H   UNL     1      -8.999  12.265  69.167  1.00  0.00     0.000 HD 
BRANCH   8  10
HETATM   10  C   UNL     1      -9.766  11.143  67.573  1.00  0.00    -0.176 A  
HETATM   11  F   UNL     1      -9.135  13.092  66.384  1.00  0.00    -0.232 F  
HETATM   12  C   UNL     1      -9.442  11.786  66.367  1.00  0.00    -0.221 A  
HETATM   13  C   UNL     1      -9.989   9.751  67.514  1.00  0.00    -0.184 A  
HETATM   14 CL   UNL     1     -10.110   8.758  68.930  1.00  0.00    -0.201 Cl 
HETATM   15  C   UNL     1     -10.048   9.083  66.283  1.00  0.00    -0.311 A  
HETATM   16  C   UNL     1      -9.455  11.116  65.143  1.00  0.00    -0.257 A  
HETATM   17  C   UNL     1      -9.798   9.769  65.097  1.00  0.00    -0.294 A  
ENDBRANCH   8  10
ENDBRANCH   5   8
BRANCH   6  18
HETATM   18  C   UNL     1     -10.757  14.731  68.701  1.00  0.00    -0.253 C  
HETATM   19  O   UNL     1     -10.710  15.866  66.595  1.00  0.00    -0.316 OA 
HETATM   20  C   UNL     1     -11.248  15.023  67.302  1.00  0.00    -0.338 C  
HETATM   21  O   UNL     1     -12.301  14.312  66.844  1.00  0.00    -0.408 OA 
ENDBRANCH   6  18
TORSDOF 3
ENDMDL
MODEL       93
REMARK 921   NORMALIZED FREE ENERGY PREDICTED BY IDOCK:   -5.44 KCAL/MOL
REMARK 922        TOTAL FREE ENERGY PREDICTED BY IDOCK:   -6.62 KCAL/MOL
REMARK 923 INTER-LIGAND FREE ENERGY PREDICTED BY IDOCK:   -5.90 KCAL/MOL
REMARK 924 INTRA-LIGAND FREE ENERGY PREDICTED BY IDOCK:   -0.72 KCAL/MOL
REMARK 927      BINDING AFFINITY PREDICTED BY RF-SCORE:    0.00 PKD
ROOT
HETATM    1  C   UNL     1      -8.654  11.749  68.635  1.00  0.00    -0.062 C  
HETATM    2  C   UNL     1      -8.682  12.995  67.798  1.00  0.00    -0.188 A  
HETATM    3  C   UNL     1      -7.551  13.794  67.672  1.00  0.00    -0.189 A  
HETATM    4  C   UNL     1      -7.629  15.020  67.019  1.00  0.00    -0.077 A  
HETATM    5  C   UNL     1      -8.851  15.491  66.517  1.00  0.00    -0.313 A  
HETATM    6  C   UNL     1      -9.962  14.628  66.499  1.00  0.00    -0.292 A  
HETATM    7  C   UNL     1      -9.861  13.382  67.148  1.00  0.00    -0.237 A  
ENDROOT
BRANCH   5   8
HETATM    8  N   UNL     1      -9.005  16.847  66.138  1.00  0.00    -0.454 NA 
HETATM    9  H   UNL     1      -9.543  17.031  65.292  1.00  0.00     0.000 HD 
BRANCH   8  10
HETATM   10  C   UNL     1      -8.478  17.979  66.827  1.00  0.00    -0.257 A  
HETATM   11  F   UNL     1      -7.032  18.370  64.994  1.00  0.00    -0.166 F  
HETATM   12  C   UNL     1      -7.430  18.699  66.232  1.00  0.00    -0.260 A  
HETATM   13  C   UNL     1      -8.921  18.424  68.091  1.00  0.00    -0.309 A  
HETATM   14 CL   UNL     1     -10.377  17.846  68.835  1.00  0.00    -0.340 Cl 
HETATM   15  C   UNL     1      -8.231  19.429  68.783  1.00  0.00    -0.382 A  
HETATM   16  C   UNL     1      -6.768  19.731  66.898  1.00  0.00    -0.213 A  
HETATM   17  C   UNL     1      -7.143  20.070  68.193  1.00  0.00    -0.324 A  
ENDBRANCH   8  10
ENDBRANCH   5   8
BRANCH   6  18
HETATM   18  C   UNL     1     -11.273  15.005  65.840  1.00  0.00    -0.313 C  
HETATM   19  O   UNL     1     -12.690  14.629  63.947  1.00  0.00    -0.788 OA 
HETATM   20  C   UNL     1     -11.658  14.337  64.539  1.00  0.00    -0.387 C  
HETATM   21  O   UNL     1     -10.816  13.407  64.037  1.00  0.00    -0.352 OA 
ENDBRANCH   6  18
TORSDOF 3
ENDMDL
MODEL       94
REMARK 921   NORMALIZED FREE ENERGY PREDICTED BY IDOCK:   -5.44 KCAL/MOL
REMARK 922        TOTAL FREE ENERGY PREDICTED BY IDOCK:   -6.62 KCAL/MOL
REMARK 923 INTER-LIGAND FREE ENERGY PREDICTED BY IDOCK:   -5.78 KCAL/MOL
REMARK 924 INTRA-LIGAND FREE ENERGY PREDICTED BY IDOCK:   -0.84 KCAL/MOL
REMARK 927      BINDING AFFINITY PREDICTED BY RF-SCORE:    0.00 PKD
ROOT
HETATM    1  C   UNL     1     -12.383   9.765  71.409  1.00  0.00    -0.480 C  
HETATM    2  C   UNL     1     -11.533  10.540  70.444  1.00  0.00    -0.427 A  
HETATM    3  C   UNL     1     -11.943  11.784  69.973  1.00  0.00    -0.421 A  
HETATM    4  C   UNL     1     -11.223  12.423  68.971  1.00  0.00    -0.320 A  
HETATM    5  C   UNL     1     -10.103  11.813  68.387  1.00  0.00    -0.201 A  
HETATM    6  C   UNL     1      -9.589  10.635  68.960  1.00  0.00    -0.207 A  
HETATM    7  C   UNL     1     -10.320  10.009  69.988  1.00  0.00    -0.323 A  
ENDROOT
BRANCH   5   8
HETATM    8  N   UNL     1      -9.559  12.303  67.174  1.00  0.00    -0.196 NA 
HETATM    9  H   UNL     1      -8.574  12.565  67.183  1.00  0.00     0.000 HD 
BRANCH   8  10
HETATM   10  C   UNL     1     -10.259  12.466  65.943  1.00  0.00    -0.251 A  
HETATM   11  F   UNL     1     -10.620  14.740  66.495  1.00  0.00    -0.279 F  
HETATM   12  C   UNL     1     -10.836  13.714  65.658  1.00  0.00    -0.279 A  
HETATM   13  C   UNL     1     -10.440  11.445  64.984  1.00  0.00    -0.303 A  
HETATM   14 CL   UNL     1      -9.566   9.948  65.028  1.00  0.00    -0.354 Cl 
HETATM   15  C   UNL     1     -11.294  11.631  63.888  1.00  0.00    -0.457 A  
HETATM   16  C   UNL     1     -11.651  13.917  64.544  1.00  0.00    -0.409 A  
HETATM   17  C   UNL     1     -11.914  12.860  63.679  1.00  0.00    -0.613 A  
ENDBRANCH   8  10
ENDBRANCH   5   8
BRANCH   6  18
HETATM   18  C   UNL     1      -8.300   9.996  68.486  1.00  0.00    -0.113 C  
HETATM   19  O   UNL     1      -5.915  10.022  68.690  1.00  0.00    -0.042 OA 
HETATM   20  C   UNL     1      -6.988  10.480  69.062  1.00  0.00    -0.076 C  
HETATM   21  O   UNL     1      -7.033  11.450  70.000  1.00  0.00    -0.032 OA 
ENDBRANCH   6  18
TORSDOF 3
ENDMDL
MODEL       95
REMARK 921   NORMALIZED FREE ENERGY PREDICTED BY IDOCK:   -5.43 KCAL/MOL
REMARK 922        TOTAL FREE ENERGY PREDICTED BY IDOCK:   -6.61 KCAL/MOL
REMARK 923 INTER-LIGAND FREE ENERGY PREDICTED BY IDOCK:   -5.89 KCAL/MOL
REMARK 924 INTRA-LIGAND FREE ENERGY PREDICTED BY IDOCK:   -0.72 KCAL/MOL
REMARK 927      BINDING AFFINITY PREDICTED BY RF-SCORE:    0.00 PKD
ROOT
HETATM    1  C   UNL     1     -10.050   4.013  73.745  1.00  0.00    -0.185 C  
HETATM    2  C   UNL     1     -10.528   4.751  72.528  1.00  0.00    -0.264 A  
HETATM    3  C   UNL     1      -9.872   4.615  71.309  1.00  0.00    -0.261 A  
HETATM    4  C   UNL     1     -10.231   5.413  70.229  1.00  0.00    -0.338 A  
HETATM    5  C   UNL     1     -11.224   6.396  70.358  1.00  0.00    -0.372 A  
HETATM    6  C   UNL     1     -11.998   6.436  71.532  1.00  0.00    -0.331 A  
HETATM    7  C   UNL     1     -11.634   5.607  72.610  1.00  0.00    -0.307 A  
ENDROOT
BRANCH   5   8
HETATM    8  N   UNL     1     -11.375   7.407  69.378  1.00  0.00    -0.456 NA 
HETATM    9  H   UNL     1     -12.290   7.853  69.314  1.00  0.00     0.000 HD 
BRANCH   8  10
HETATM   10  C   UNL     1     -10.372   7.859  68.471  1.00  0.00    -0.200 A  
HETATM   11  F   UNL     1     -11.478   6.695  66.731  1.00  0.00    -0.461 F  
HETATM   12  C   UNL     1     -10.428   7.426  67.137  1.00  0.00    -0.333 A  
HETATM   13  C   UNL     1      -9.296   8.701  68.824  1.00  0.00    -0.142 A  
HETATM   14 CL   UNL     1      -9.226   9.556  70.331  1.00  0.00    -0.302 Cl 
HETATM   15  C   UNL     1      -8.251   8.951  67.923  1.00  0.00    -0.110 A  
HETATM   16  C   UNL     1      -9.413   7.708  66.222  1.00  0.00    -0.176 A  
HETATM   17  C   UNL     1      -8.302   8.439  66.628  1.00  0.00    -0.110 A  
ENDBRANCH   8  10
ENDBRANCH   5   8
BRANCH   6  18
HETATM   18  C   UNL     1     -13.185   7.364  71.691  1.00  0.00    -0.416 C  
HETATM   19  O   UNL     1     -13.867   9.586  72.261  1.00  0.00    -0.416 OA 
HETATM   20  C   UNL     1     -12.942   8.803  72.085  1.00  0.00    -0.406 C  
HETATM   21  O   UNL     1     -11.662   9.201  72.251  1.00  0.00    -0.304 OA 
ENDBRANCH   6  18
TORSDOF 3
ENDMDL
MODEL       96
REMARK 921   NORMALIZED FREE ENERGY PREDICTED BY IDOCK:   -5.43 KCAL/MOL
REMARK 922        TOTAL FREE ENERGY PREDICTED BY IDOCK:   -6.61 KCAL/MOL
REMARK 923 INTER-LIGAND FREE ENERGY PREDICTED BY IDOCK:   -6.29 KCAL/MOL
REMARK 924 INTRA-LIGAND FREE ENERGY PREDICTED BY IDOCK:   -0.31 KCAL/MOL
REMARK 927      BINDING AFFINITY PREDICTED BY RF-SCORE:    0.00 PKD
ROOT
HETATM    1  C   UNL     1     -10.634   5.611  69.760  1.00  0.00    -0.400 C  
HETATM    2  C   UNL     1     -10.657   6.923  69.032  1.00  0.00    -0.240 A  
HETATM    3  C   UNL     1     -10.540   6.972  67.647  1.00  0.00    -0.327 A  
HETATM    4  C   UNL     1     -10.413   8.196  66.998  1.00  0.00    -0.396 A  
HETATM    5  C   UNL     1     -10.356   9.394  67.726  1.00  0.00    -0.238 A  
HETATM    6  C   UNL     1     -10.630   9.370  69.105  1.00  0.00    -0.234 A  
HETATM    7  C   UNL     1     -10.775   8.124  69.744  1.00  0.00    -0.229 A  
ENDROOT
BRANCH   5   8
HETATM    8  N   UNL     1      -9.920  10.594  67.113  1.00  0.00    -0.189 NA 
HETATM    9  H   UNL     1      -9.141  11.080  67.556  1.00  0.00     0.000 HD 
BRANCH   8  10
HETATM   10  C   UNL     1     -10.466  11.186  65.937  1.00  0.00    -0.253 A  
HETATM   11  F   UNL     1      -9.418   9.498  64.650  1.00  0.00    -0.309 F  
HETATM   12  C   UNL     1     -10.139  10.629  64.690  1.00  0.00    -0.349 A  
HETATM   13  C   UNL     1     -11.304  12.322  65.928  1.00  0.00    -0.360 A  
HETATM   14 CL   UNL     1     -12.039  12.961  67.363  1.00  0.00    -0.342 Cl 
HETATM   15  C   UNL     1     -11.649  12.953  64.724  1.00  0.00    -0.373 A  
HETATM   16  C   UNL     1     -10.517  11.227  63.489  1.00  0.00    -0.457 A  
HETATM   17  C   UNL     1     -11.240  12.415  63.506  1.00  0.00    -0.540 A  
ENDBRANCH   8  10
ENDBRANCH   5   8
BRANCH   6  18
HETATM   18  C   UNL     1     -10.738  10.633  69.934  1.00  0.00    -0.260 C  
HETATM   19  O   UNL     1     -12.246  12.101  71.077  1.00  0.00    -0.310 OA 
HETATM   20  C   UNL     1     -12.098  11.070  70.431  1.00  0.00    -0.373 C  
HETATM   21  O   UNL     1     -13.157  10.289  70.130  1.00  0.00    -0.117 OA 
ENDBRANCH   6  18
TORSDOF 3
ENDMDL
MODEL       97
REMARK 921   NORMALIZED FREE ENERGY PREDICTED BY IDOCK:   -5.42 KCAL/MOL
REMARK 922        TOTAL FREE ENERGY PREDICTED BY IDOCK:   -6.60 KCAL/MOL
REMARK 923 INTER-LIGAND FREE ENERGY PREDICTED BY IDOCK:   -5.86 KCAL/MOL
REMARK 924 INTRA-LIGAND FREE ENERGY PREDICTED BY IDOCK:   -0.74 KCAL/MOL
REMARK 927      BINDING AFFINITY PREDICTED BY RF-SCORE:    0.00 PKD
ROOT
HETATM    1  C   UNL     1     -12.798  10.023  71.760  1.00  0.00    -0.546 C  
HETATM    2  C   UNL     1     -11.917  10.600  70.690  1.00  0.00    -0.466 A  
HETATM    3  C   UNL     1     -12.147  11.877  70.191  1.00  0.00    -0.382 A  
HETATM    4  C   UNL     1     -11.420  12.343  69.100  1.00  0.00    -0.358 A  
HETATM    5  C   UNL     1     -10.479  11.524  68.459  1.00  0.00    -0.208 A  
HETATM    6  C   UNL     1     -10.127  10.295  69.048  1.00  0.00    -0.225 A  
HETATM    7  C   UNL     1     -10.860   9.846  70.164  1.00  0.00    -0.356 A  
ENDROOT
BRANCH   5   8
HETATM    8  N   UNL     1      -9.971  11.865  67.182  1.00  0.00    -0.193 NA 
HETATM    9  H   UNL     1      -9.602  11.103  66.614  1.00  0.00     0.000 HD 
BRANCH   8  10
HETATM   10  C   UNL     1      -9.926  13.173  66.616  1.00  0.00    -0.270 A  
HETATM   11  F   UNL     1      -7.837  13.515  67.677  1.00  0.00    -0.123 F  
HETATM   12  C   UNL     1      -8.844  14.007  66.939  1.00  0.00    -0.194 A  
HETATM   13  C   UNL     1     -10.913  13.710  65.761  1.00  0.00    -0.278 A  
HETATM   14 CL   UNL     1     -12.152  12.741  65.031  1.00  0.00    -0.455 Cl 
HETATM   15  C   UNL     1     -10.889  15.063  65.396  1.00  0.00    -0.376 A  
HETATM   16  C   UNL     1      -8.793  15.343  66.540  1.00  0.00    -0.347 A  
HETATM   17  C   UNL     1      -9.839  15.883  65.800  1.00  0.00    -0.380 A  
ENDBRANCH   8  10
ENDBRANCH   5   8
BRANCH   6  18
HETATM   18  C   UNL     1      -9.016   9.422  68.504  1.00  0.00    -0.128 C  
HETATM   19  O   UNL     1      -8.473   7.698  66.934  1.00  0.00    -0.121 OA 
HETATM   20  C   UNL     1      -9.327   8.451  67.387  1.00  0.00    -0.148 C  
HETATM   21  O   UNL     1     -10.589   8.429  66.907  1.00  0.00    -0.305 OA 
ENDBRANCH   6  18
TORSDOF 3
ENDMDL
MODEL       98
REMARK 921   NORMALIZED FREE ENERGY PREDICTED BY IDOCK:   -5.42 KCAL/MOL
REMARK 922        TOTAL FREE ENERGY PREDICTED BY IDOCK:   -6.60 KCAL/MOL
REMARK 923 INTER-LIGAND FREE ENERGY PREDICTED BY IDOCK:   -5.82 KCAL/MOL
REMARK 924 INTRA-LIGAND FREE ENERGY PREDICTED BY IDOCK:   -0.77 KCAL/MOL
REMARK 927      BINDING AFFINITY PREDICTED BY RF-SCORE:    0.00 PKD
ROOT
HETATM    1  C   UNL     1      -9.013  16.450  66.256  1.00  0.00    -0.368 C  
HETATM    2  C   UNL     1      -9.711  15.166  66.599  1.00  0.00    -0.274 A  
HETATM    3  C   UNL     1      -9.240  14.351  67.623  1.00  0.00    -0.196 A  
HETATM    4  C   UNL     1      -9.802  13.097  67.833  1.00  0.00    -0.231 A  
HETATM    5  C   UNL     1     -10.818  12.613  66.995  1.00  0.00    -0.253 A  
HETATM    6  C   UNL     1     -11.408  13.485  66.061  1.00  0.00    -0.327 A  
HETATM    7  C   UNL     1     -10.838  14.759  65.873  1.00  0.00    -0.331 A  
ENDROOT
BRANCH   5   8
HETATM    8  N   UNL     1     -11.174  11.242  67.003  1.00  0.00    -0.362 NA 
HETATM    9  H   UNL     1     -12.087  11.001  66.620  1.00  0.00     0.000 HD 
BRANCH   8  10
HETATM   10  C   UNL     1     -10.376  10.168  67.494  1.00  0.00    -0.230 A  
HETATM   11  F   UNL     1     -11.677  10.162  69.473  1.00  0.00    -0.257 F  
HETATM   12  C   UNL     1     -10.629   9.681  68.787  1.00  0.00    -0.216 A  
HETATM   13  C   UNL     1      -9.319   9.564  66.780  1.00  0.00    -0.153 A  
HETATM   14 CL   UNL     1      -9.053   9.832  65.088  1.00  0.00    -0.246 Cl 
HETATM   15  C   UNL     1      -8.465   8.641  67.401  1.00  0.00    -0.123 A  
HETATM   16  C   UNL     1      -9.809   8.729  69.394  1.00  0.00    -0.186 A  
HETATM   17  C   UNL     1      -8.700   8.238  68.714  1.00  0.00    -0.137 A  
ENDBRANCH   8  10
ENDBRANCH   5   8
BRANCH   6  18
HETATM   18  C   UNL     1     -12.607  13.090  65.225  1.00  0.00    -0.516 C  
HETATM   19  O   UNL     1     -13.317  12.003  63.214  1.00  0.00    -0.524 OA 
HETATM   20  C   UNL     1     -12.385  12.318  63.944  1.00  0.00    -0.509 C  
HETATM   21  O   UNL     1     -11.116  11.991  63.620  1.00  0.00    -0.383 OA 
ENDBRANCH   6  18
TORSDOF 3
ENDMDL
MODEL       99
REMARK 921   NORMALIZED FREE ENERGY PREDICTED BY IDOCK:   -5.41 KCAL/MOL
REMARK 922        TOTAL FREE ENERGY PREDICTED BY IDOCK:   -6.59 KCAL/MOL
REMARK 923 INTER-LIGAND FREE ENERGY PREDICTED BY IDOCK:   -5.78 KCAL/MOL
REMARK 924 INTRA-LIGAND FREE ENERGY PREDICTED BY IDOCK:   -0.81 KCAL/MOL
REMARK 927      BINDING AFFINITY PREDICTED BY RF-SCORE:    0.00 PKD
ROOT
HETATM    1  C   UNL     1      -9.784  11.324  63.300  1.00  0.00    -0.405 C  
HETATM    2  C   UNL     1     -10.004  10.842  64.704  1.00  0.00    -0.386 A  
HETATM    3  C   UNL     1      -9.581   9.576  65.097  1.00  0.00    -0.270 A  
HETATM    4  C   UNL     1      -9.921   9.084  66.353  1.00  0.00    -0.370 A  
HETATM    5  C   UNL     1     -10.728   9.830  67.224  1.00  0.00    -0.227 A  
HETATM    6  C   UNL     1     -11.029  11.166  66.904  1.00  0.00    -0.333 A  
HETATM    7  C   UNL     1     -10.661  11.656  65.635  1.00  0.00    -0.330 A  
ENDROOT
BRANCH   5   8
HETATM    8  N   UNL     1     -11.330   9.222  68.353  1.00  0.00    -0.315 NA 
HETATM    9  H   UNL     1     -12.346   9.272  68.417  1.00  0.00     0.000 HD 
BRANCH   8  10
HETATM   10  C   UNL     1     -10.650   8.548  69.410  1.00  0.00    -0.195 A  
HETATM   11  F   UNL     1     -10.764  10.535  70.694  1.00  0.00    -0.324 F  
HETATM   12  C   UNL     1     -10.328   9.272  70.570  1.00  0.00    -0.254 A  
HETATM   13  C   UNL     1     -10.248   7.196  69.369  1.00  0.00    -0.189 A  
HETATM   14 CL   UNL     1     -10.806   6.086  68.159  1.00  0.00    -0.360 Cl 
HETATM   15  C   UNL     1      -9.424   6.659  70.368  1.00  0.00    -0.170 A  
HETATM   16  C   UNL     1      -9.546   8.728  71.589  1.00  0.00    -0.363 A  
HETATM   17  C   UNL     1      -9.058   7.431  71.469  1.00  0.00    -0.148 A  
ENDBRANCH   8  10
ENDBRANCH   5   8
BRANCH   6  18
HETATM   18  C   UNL     1     -11.766  12.085  67.856  1.00  0.00    -0.393 C  
HETATM   19  O   UNL     1     -11.520  13.856  69.448  1.00  0.00    -0.256 OA 
HETATM   20  C   UNL     1     -10.979  13.111  68.640  1.00  0.00    -0.265 C  
HETATM   21  O   UNL     1      -9.647  13.176  68.429  1.00  0.00    -0.225 OA 
ENDBRANCH   6  18
TORSDOF 3
ENDMDL
MODEL      100
REMARK 921   NORMALIZED FREE ENERGY PREDICTED BY IDOCK:   -5.41 KCAL/MOL
REMARK 922        TOTAL FREE ENERGY PREDICTED BY IDOCK:   -6.58 KCAL/MOL
REMARK 923 INTER-LIGAND FREE ENERGY PREDICTED BY IDOCK:   -6.44 KCAL/MOL
REMARK 924 INTRA-LIGAND FREE ENERGY PREDICTED BY IDOCK:   -0.14 KCAL/MOL
REMARK 927      BINDING AFFINITY PREDICTED BY RF-SCORE:    0.00 PKD
ROOT
HETATM    1  C   UNL     1     -10.178  18.218  68.298  1.00  0.00    -0.405 C  
HETATM    2  C   UNL     1     -10.119  16.782  67.864  1.00  0.00    -0.284 A  
HETATM    3  C   UNL     1      -9.612  15.802  68.711  1.00  0.00    -0.216 A  
HETATM    4  C   UNL     1      -9.425  14.505  68.246  1.00  0.00    -0.207 A  
HETATM    5  C   UNL     1      -9.700  14.171  66.912  1.00  0.00    -0.269 A  
HETATM    6  C   UNL     1     -10.358  15.107  66.094  1.00  0.00    -0.313 A  
HETATM    7  C   UNL     1     -10.558  16.412  66.586  1.00  0.00    -0.239 A  
ENDROOT
BRANCH   5   8
HETATM    8  N   UNL     1      -9.227  12.957  66.356  1.00  0.00    -0.404 NA 
HETATM    9  H   UNL     1      -8.539  13.032  65.606  1.00  0.00     0.000 HD 
BRANCH   8  10
HETATM   10  C   UNL     1      -9.620  11.643  66.743  1.00  0.00    -0.192 A  
HETATM   11  F   UNL     1     -11.655  12.537  67.560  1.00  0.00    -0.317 F  
HETATM   12  C   UNL     1     -10.846  11.477  67.408  1.00  0.00    -0.246 A  
HETATM   13  C   UNL     1      -8.848  10.481  66.528  1.00  0.00    -0.144 A  
HETATM   14 CL   UNL     1      -7.465  10.450  65.482  1.00  0.00    -0.149 Cl 
HETATM   15  C   UNL     1      -9.218   9.255  67.100  1.00  0.00    -0.157 A  
HETATM   16  C   UNL     1     -11.240  10.250  67.941  1.00  0.00    -0.290 A  
HETATM   17  C   UNL     1     -10.404   9.145  67.822  1.00  0.00    -0.302 A  
ENDBRANCH   8  10
ENDBRANCH   5   8
BRANCH   6  18
HETATM   18  C   UNL     1     -10.826  14.776  64.692  1.00  0.00    -0.312 C  
HETATM   19  O   UNL     1     -12.660  13.972  63.381  1.00  0.00    -0.845 OA 
HETATM   20  C   UNL     1     -12.242  14.286  64.489  1.00  0.00    -0.455 C  
HETATM   21  O   UNL     1     -13.037  14.193  65.576  1.00  0.00    -0.691 OA 
ENDBRANCH   6  18
TORSDOF 3
ENDMDL
MODEL      101
REMARK 921   NORMALIZED FREE ENERGY PREDICTED BY IDOCK:   -5.40 KCAL/MOL
REMARK 922        TOTAL FREE ENERGY PREDICTED BY IDOCK:   -6.57 KCAL/MOL
REMARK 923 INTER-LIGAND FREE ENERGY PREDICTED BY IDOCK:   -6.05 KCAL/MOL
REMARK 924 INTRA-LIGAND FREE ENERGY PREDICTED BY IDOCK:   -0.52 KCAL/MOL
REMARK 927      BINDING AFFINITY PREDICTED BY RF-SCORE:    0.00 PKD
ROOT
HETATM    1  C   UNL     1      -8.134  10.339  65.923  1.00  0.00    -0.143 C  
HETATM    2  C   UNL     1      -8.967  11.469  66.455  1.00  0.00    -0.190 A  
HETATM    3  C   UNL     1      -8.732  11.991  67.723  1.00  0.00    -0.161 A  
HETATM    4  C   UNL     1      -9.601  12.933  68.263  1.00  0.00    -0.212 A  
HETATM    5  C   UNL     1     -10.748  13.339  67.564  1.00  0.00    -0.250 A  
HETATM    6  C   UNL     1     -10.910  12.939  66.225  1.00  0.00    -0.295 A  
HETATM    7  C   UNL     1     -10.011  12.000  65.686  1.00  0.00    -0.270 A  
ENDROOT
BRANCH   5   8
HETATM    8  N   UNL     1     -11.786  14.045  68.221  1.00  0.00    -0.337 NA 
HETATM    9  H   UNL     1     -12.180  14.847  67.730  1.00  0.00     0.000 HD 
BRANCH   8  10
HETATM   10  C   UNL     1     -12.331  13.740  69.503  1.00  0.00    -0.209 A  
HETATM   11  F   UNL     1     -12.629  16.059  69.880  1.00  0.00    -0.313 F  
HETATM   12  C   UNL     1     -12.698  14.802  70.345  1.00  0.00    -0.316 A  
HETATM   13  C   UNL     1     -12.510  12.434  70.007  1.00  0.00     0.033 A  
HETATM   14 CL   UNL     1     -12.387  11.018  69.014  1.00  0.00    -0.172 Cl 
HETATM   15  C   UNL     1     -12.878  12.223  71.343  1.00  0.00    -0.373 A  
HETATM   16  C   UNL     1     -13.109  14.596  71.662  1.00  0.00    -0.423 A  
HETATM   17  C   UNL     1     -13.160  13.304  72.175  1.00  0.00    -0.486 A  
ENDBRANCH   8  10
ENDBRANCH   5   8
BRANCH   6  18
HETATM   18  C   UNL     1     -12.038  13.454  65.354  1.00  0.00    -0.457 C  
HETATM   19  O   UNL     1     -12.797  15.290  64.019  1.00  0.00    -0.613 OA 
HETATM   20  C   UNL     1     -11.901  14.813  64.705  1.00  0.00    -0.436 C  
HETATM   21  O   UNL     1     -10.756  15.496  64.914  1.00  0.00    -0.428 OA 
ENDBRANCH   6  18
TORSDOF 3
ENDMDL
MODEL      102
REMARK 921   NORMALIZED FREE ENERGY PREDICTED BY IDOCK:   -5.39 KCAL/MOL
REMARK 922        TOTAL FREE ENERGY PREDICTED BY IDOCK:   -6.57 KCAL/MOL
REMARK 923 INTER-LIGAND FREE ENERGY PREDICTED BY IDOCK:   -6.08 KCAL/MOL
REMARK 924 INTRA-LIGAND FREE ENERGY PREDICTED BY IDOCK:   -0.49 KCAL/MOL
REMARK 927      BINDING AFFINITY PREDICTED BY RF-SCORE:    0.00 PKD
ROOT
HETATM    1  C   UNL     1      -9.123   7.766  66.178  1.00  0.00    -0.199 C  
HETATM    2  C   UNL     1      -9.875   9.054  66.343  1.00  0.00    -0.356 A  
HETATM    3  C   UNL     1      -9.797  10.053  65.378  1.00  0.00    -0.384 A  
HETATM    4  C   UNL     1     -10.376  11.296  65.609  1.00  0.00    -0.310 A  
HETATM    5  C   UNL     1     -11.007  11.581  66.830  1.00  0.00    -0.294 A  
HETATM    6  C   UNL     1     -11.228  10.536  67.745  1.00  0.00    -0.344 A  
HETATM    7  C   UNL     1     -10.652   9.277  67.487  1.00  0.00    -0.329 A  
ENDROOT
BRANCH   5   8
HETATM    8  N   UNL     1     -11.316  12.914  67.192  1.00  0.00    -0.289 NA 
HETATM    9  H   UNL     1     -12.083  13.046  67.851  1.00  0.00     0.000 HD 
BRANCH   8  10
HETATM   10  C   UNL     1     -10.657  14.089  66.724  1.00  0.00    -0.277 A  
HETATM   11  F   UNL     1      -8.921  13.687  68.284  1.00  0.00    -0.171 F  
HETATM   12  C   UNL     1      -9.462  14.482  67.347  1.00  0.00    -0.202 A  
HETATM   13  C   UNL     1     -11.135  14.913  65.682  1.00  0.00    -0.348 A  
HETATM   14 CL   UNL     1     -12.419  14.435  64.619  1.00  0.00    -0.419 Cl 
HETATM   15  C   UNL     1     -10.529  16.146  65.405  1.00  0.00    -0.396 A  
HETATM   16  C   UNL     1      -8.830  15.688  67.044  1.00  0.00    -0.250 A  
HETATM   17  C   UNL     1      -9.388  16.542  66.098  1.00  0.00    -0.339 A  
ENDBRANCH   8  10
ENDBRANCH   5   8
BRANCH   6  18
HETATM   18  C   UNL     1     -12.032  10.725  69.016  1.00  0.00    -0.258 C  
HETATM   19  O   UNL     1     -11.988  10.547  71.402  1.00  0.00    -0.330 OA 
HETATM   20  C   UNL     1     -11.374  10.442  70.347  1.00  0.00    -0.337 C  
HETATM   21  O   UNL     1     -10.080  10.057  70.340  1.00  0.00    -0.247 OA 
ENDBRANCH   6  18
TORSDOF 3
ENDMDL
MODEL      103
REMARK 921   NORMALIZED FREE ENERGY PREDICTED BY IDOCK:   -5.36 KCAL/MOL
REMARK 922        TOTAL FREE ENERGY PREDICTED BY IDOCK:   -6.52 KCAL/MOL
REMARK 923 INTER-LIGAND FREE ENERGY PREDICTED BY IDOCK:   -6.18 KCAL/MOL
REMARK 924 INTRA-LIGAND FREE ENERGY PREDICTED BY IDOCK:   -0.34 KCAL/MOL
REMARK 927      BINDING AFFINITY PREDICTED BY RF-SCORE:    0.00 PKD
ROOT
HETATM    1  C   UNL     1      -8.173  18.052  68.457  1.00  0.00    -0.311 C  
HETATM    2  C   UNL     1      -9.211  16.993  68.223  1.00  0.00    -0.255 A  
HETATM    3  C   UNL     1     -10.566  17.285  68.339  1.00  0.00    -0.368 A  
HETATM    4  C   UNL     1     -11.510  16.267  68.267  1.00  0.00    -0.207 A  
HETATM    5  C   UNL     1     -11.116  14.929  68.121  1.00  0.00    -0.283 A  
HETATM    6  C   UNL     1      -9.767  14.639  67.846  1.00  0.00    -0.216 A  
HETATM    7  C   UNL     1      -8.825  15.685  67.904  1.00  0.00    -0.171 A  
ENDROOT
BRANCH   5   8
HETATM    8  N   UNL     1     -12.030  13.873  68.358  1.00  0.00    -0.401 NA 
HETATM    9  H   UNL     1     -12.560  13.534  67.555  1.00  0.00     0.000 HD 
BRANCH   8  10
HETATM   10  C   UNL     1     -12.280  13.241  69.611  1.00  0.00    -0.199 A  
HETATM   11  F   UNL     1     -11.444  11.217  68.709  1.00  0.00    -0.246 F  
HETATM   12  C   UNL     1     -12.020  11.866  69.733  1.00  0.00    -0.307 A  
HETATM   13  C   UNL     1     -12.800  13.895  70.748  1.00  0.00    -0.259 A  
HETATM   14 CL   UNL     1     -12.907  15.622  70.873  1.00  0.00    -0.519 Cl 
HETATM   15  C   UNL     1     -13.190  13.168  71.882  1.00  0.00    -0.526 A  
HETATM   16  C   UNL     1     -12.364  11.145  70.875  1.00  0.00    -0.500 A  
HETATM   17  C   UNL     1     -12.989  11.791  71.938  1.00  0.00    -0.435 A  
ENDBRANCH   8  10
ENDBRANCH   5   8
BRANCH   6  18
HETATM   18  C   UNL     1      -9.285  13.239  67.526  1.00  0.00    -0.213 C  
HETATM   19  O   UNL     1      -9.372  11.456  65.931  1.00  0.00    -0.219 OA 
HETATM   20  C   UNL     1      -9.706  12.598  66.223  1.00  0.00    -0.259 C  
HETATM   21  O   UNL     1     -10.477  13.325  65.386  1.00  0.00    -0.283 OA 
ENDBRANCH   6  18
TORSDOF 3
ENDMDL
MODEL      104
REMARK 921   NORMALIZED FREE ENERGY PREDICTED BY IDOCK:   -5.35 KCAL/MOL
REMARK 922        TOTAL FREE ENERGY PREDICTED BY IDOCK:   -6.51 KCAL/MOL
REMARK 923 INTER-LIGAND FREE ENERGY PREDICTED BY IDOCK:   -5.81 KCAL/MOL
REMARK 924 INTRA-LIGAND FREE ENERGY PREDICTED BY IDOCK:   -0.71 KCAL/MOL
REMARK 927      BINDING AFFINITY PREDICTED BY RF-SCORE:    0.00 PKD
ROOT
HETATM    1  C   UNL     1     -13.978  15.281  71.722  1.00  0.00    -0.638 C  
HETATM    2  C   UNL     1     -13.210  14.216  70.995  1.00  0.00    -0.337 A  
HETATM    3  C   UNL     1     -13.156  12.915  71.487  1.00  0.00    -0.390 A  
HETATM    4  C   UNL     1     -12.324  11.976  70.889  1.00  0.00    -0.384 A  
HETATM    5  C   UNL     1     -11.494  12.329  69.815  1.00  0.00    -0.166 A  
HETATM    6  C   UNL     1     -11.654  13.590  69.212  1.00  0.00    -0.369 A  
HETATM    7  C   UNL     1     -12.516  14.524  69.818  1.00  0.00    -0.259 A  
ENDROOT
BRANCH   5   8
HETATM    8  N   UNL     1     -10.433  11.483  69.410  1.00  0.00    -0.441 NA 
HETATM    9  H   UNL     1      -9.490  11.867  69.466  1.00  0.00     0.000 HD 
BRANCH   8  10
HETATM   10  C   UNL     1     -10.557  10.146  68.931  1.00  0.00    -0.215 A  
HETATM   11  F   UNL     1     -10.527   9.384  71.173  1.00  0.00    -0.314 F  
HETATM   12  C   UNL     1     -10.545   9.095  69.862  1.00  0.00    -0.230 A  
HETATM   13  C   UNL     1     -10.670   9.790  67.569  1.00  0.00    -0.264 A  
HETATM   14 CL   UNL     1     -10.991  10.948  66.319  1.00  0.00    -0.196 Cl 
HETATM   15  C   UNL     1     -10.603   8.448  67.168  1.00  0.00    -0.326 A  
HETATM   16  C   UNL     1     -10.523   7.757  69.470  1.00  0.00    -0.225 A  
HETATM   17  C   UNL     1     -10.511   7.433  68.118  1.00  0.00    -0.241 A  
ENDBRANCH   8  10
ENDBRANCH   5   8
BRANCH   6  18
HETATM   18  C   UNL     1     -10.906  13.992  67.958  1.00  0.00    -0.257 C  
HETATM   19  O   UNL     1      -8.938  15.062  67.112  1.00  0.00    -0.194 OA 
HETATM   20  C   UNL     1      -9.569  14.685  68.093  1.00  0.00    -0.213 C  
HETATM   21  O   UNL     1      -9.089  14.888  69.339  1.00  0.00    -0.147 OA 
ENDBRANCH   6  18
TORSDOF 3
ENDMDL
MODEL      105
REMARK 921   NORMALIZED FREE ENERGY PREDICTED BY IDOCK:   -5.35 KCAL/MOL
REMARK 922        TOTAL FREE ENERGY PREDICTED BY IDOCK:   -6.51 KCAL/MOL
REMARK 923 INTER-LIGAND FREE ENERGY PREDICTED BY IDOCK:   -5.68 KCAL/MOL
REMARK 924 INTRA-LIGAND FREE ENERGY PREDICTED BY IDOCK:   -0.83 KCAL/MOL
REMARK 927      BINDING AFFINITY PREDICTED BY RF-SCORE:    0.00 PKD
ROOT
HETATM    1  C   UNL     1     -11.270   3.754  73.440  1.00  0.00    -0.280 C  
HETATM    2  C   UNL     1     -11.137   5.220  73.149  1.00  0.00    -0.384 A  
HETATM    3  C   UNL     1     -11.992   5.848  72.249  1.00  0.00    -0.211 A  
HETATM    4  C   UNL     1     -11.766   7.168  71.875  1.00  0.00    -0.328 A  
HETATM    5  C   UNL     1     -10.656   7.875  72.361  1.00  0.00    -0.298 A  
HETATM    6  C   UNL     1      -9.879   7.307  73.387  1.00  0.00    -0.324 A  
HETATM    7  C   UNL     1     -10.132   5.975  73.768  1.00  0.00    -0.232 A  
ENDROOT
BRANCH   5   8
HETATM    8  N   UNL     1     -10.249   9.089  71.757  1.00  0.00    -0.344 NA 
HETATM    9  H   UNL     1      -9.563   9.648  72.264  1.00  0.00     0.000 HD 
BRANCH   8  10
HETATM   10  C   UNL     1     -10.706   9.604  70.509  1.00  0.00    -0.311 A  
HETATM   11  F   UNL     1      -9.129   8.222  69.408  1.00  0.00    -0.148 F  
HETATM   12  C   UNL     1     -10.068   9.177  69.332  1.00  0.00    -0.197 A  
HETATM   13  C   UNL     1     -11.750  10.542  70.364  1.00  0.00    -0.344 A  
HETATM   14 CL   UNL     1     -12.829  10.956  71.657  1.00  0.00    -0.555 Cl 
HETATM   15  C   UNL     1     -12.017  11.137  69.122  1.00  0.00    -0.413 A  
HETATM   16  C   UNL     1     -10.361   9.733  68.087  1.00  0.00    -0.241 A  
HETATM   17  C   UNL     1     -11.310  10.745  67.988  1.00  0.00    -0.378 A  
ENDBRANCH   8  10
ENDBRANCH   5   8
BRANCH   6  18
HETATM   18  C   UNL     1      -8.758   8.062  74.071  1.00  0.00    -0.265 C  
HETATM   19  O   UNL     1      -6.497   8.819  73.859  1.00  0.00    -0.241 OA 
HETATM   20  C   UNL     1      -7.447   8.246  73.340  1.00  0.00    -0.119 C  
HETATM   21  O   UNL     1      -7.349   7.746  72.089  1.00  0.00    -0.068 OA 
ENDBRANCH   6  18
TORSDOF 3
ENDMDL
MODEL      106
REMARK 921   NORMALIZED FREE ENERGY PREDICTED BY IDOCK:   -5.34 KCAL/MOL
REMARK 922        TOTAL FREE ENERGY PREDICTED BY IDOCK:   -6.50 KCAL/MOL
REMARK 923 INTER-LIGAND FREE ENERGY PREDICTED BY IDOCK:   -5.67 KCAL/MOL
REMARK 924 INTRA-LIGAND FREE ENERGY PREDICTED BY IDOCK:   -0.84 KCAL/MOL
REMARK 927      BINDING AFFINITY PREDICTED BY RF-SCORE:    0.00 PKD
ROOT
HETATM    1  C   UNL     1      -9.372   2.114  73.314  1.00  0.00    -0.094 C  
HETATM    2  C   UNL     1      -9.844   3.397  72.692  1.00  0.00    -0.209 A  
HETATM    3  C   UNL     1     -10.596   4.309  73.426  1.00  0.00    -0.283 A  
HETATM    4  C   UNL     1     -11.152   5.420  72.800  1.00  0.00    -0.349 A  
HETATM    5  C   UNL     1     -11.005   5.617  71.419  1.00  0.00    -0.190 A  
HETATM    6  C   UNL     1     -10.122   4.792  70.700  1.00  0.00    -0.288 A  
HETATM    7  C   UNL     1      -9.551   3.682  71.353  1.00  0.00    -0.237 A  
ENDROOT
BRANCH   5   8
HETATM    8  N   UNL     1     -11.814   6.554  70.731  1.00  0.00    -0.371 NA 
HETATM    9  H   UNL     1     -12.150   6.282  69.807  1.00  0.00     0.000 HD 
BRANCH   8  10
HETATM   10  C   UNL     1     -12.203   7.841  71.206  1.00  0.00    -0.303 A  
HETATM   11  F   UNL     1     -14.245   6.903  71.952  1.00  0.00    -0.461 F  
HETATM   12  C   UNL     1     -13.478   7.990  71.774  1.00  0.00    -0.341 A  
HETATM   13  C   UNL     1     -11.401   9.000  71.126  1.00  0.00    -0.307 A  
HETATM   14 CL   UNL     1      -9.713   8.950  70.729  1.00  0.00    -0.254 Cl 
HETATM   15  C   UNL     1     -11.924  10.260  71.446  1.00  0.00    -0.419 A  
HETATM   16  C   UNL     1     -13.988   9.237  72.136  1.00  0.00    -0.422 A  
HETATM   17  C   UNL     1     -13.223  10.380  71.933  1.00  0.00    -0.535 A  
ENDBRANCH   8  10
ENDBRANCH   5   8
BRANCH   6  18
HETATM   18  C   UNL     1      -9.791   5.031  69.241  1.00  0.00    -0.266 C  
HETATM   19  O   UNL     1      -8.298   6.134  67.729  1.00  0.00    -0.116 OA 
HETATM   20  C   UNL     1      -8.590   5.881  68.892  1.00  0.00    -0.110 C  
HETATM   21  O   UNL     1      -7.848   6.368  69.909  1.00  0.00    -0.109 OA 
ENDBRANCH   6  18
TORSDOF 3
ENDMDL
MODEL      107
REMARK 921   NORMALIZED FREE ENERGY PREDICTED BY IDOCK:   -5.34 KCAL/MOL
REMARK 922        TOTAL FREE ENERGY PREDICTED BY IDOCK:   -6.50 KCAL/MOL
REMARK 923 INTER-LIGAND FREE ENERGY PREDICTED BY IDOCK:   -5.74 KCAL/MOL
REMARK 924 INTRA-LIGAND FREE ENERGY PREDICTED BY IDOCK:   -0.77 KCAL/MOL
REMARK 927      BINDING AFFINITY PREDICTED BY RF-SCORE:    0.00 PKD
ROOT
HETATM    1  C   UNL     1      -7.267  12.398  69.124  1.00  0.00     0.060 C  
HETATM    2  C   UNL     1      -7.749  13.417  68.132  1.00  0.00    -0.143 A  
HETATM    3  C   UNL     1      -6.891  14.399  67.647  1.00  0.00    -0.202 A  
HETATM    4  C   UNL     1      -7.384  15.423  66.846  1.00  0.00     0.016 A  
HETATM    5  C   UNL     1      -8.752  15.512  66.550  1.00  0.00    -0.305 A  
HETATM    6  C   UNL     1      -9.599  14.444  66.902  1.00  0.00    -0.263 A  
HETATM    7  C   UNL     1      -9.080  13.404  67.697  1.00  0.00    -0.203 A  
ENDROOT
BRANCH   5   8
HETATM    8  N   UNL     1      -9.302  16.700  66.010  1.00  0.00    -0.452 NA 
HETATM    9  H   UNL     1      -9.863  16.604  65.164  1.00  0.00     0.000 HD 
BRANCH   8  10
HETATM   10  C   UNL     1      -9.146  18.016  66.536  1.00  0.00    -0.269 A  
HETATM   11  F   UNL     1     -11.023  17.636  67.929  1.00  0.00    -0.380 F  
HETATM   12  C   UNL     1     -10.081  18.478  67.476  1.00  0.00    -0.357 A  
HETATM   13  C   UNL     1      -8.121  18.911  66.162  1.00  0.00    -0.222 A  
HETATM   14 CL   UNL     1      -6.731  18.421  65.249  1.00  0.00    -0.185 Cl 
HETATM   15  C   UNL     1      -8.143  20.248  66.585  1.00  0.00    -0.297 A  
HETATM   16  C   UNL     1     -10.082  19.795  67.935  1.00  0.00    -0.558 A  
HETATM   17  C   UNL     1      -9.134  20.693  67.457  1.00  0.00    -0.353 A  
ENDBRANCH   8  10
ENDBRANCH   5   8
BRANCH   6  18
HETATM   18  C   UNL     1     -11.055  14.392  66.489  1.00  0.00    -0.331 C  
HETATM   19  O   UNL     1     -12.558  13.999  64.668  1.00  0.00    -0.618 OA 
HETATM   20  C   UNL     1     -11.399  14.023  65.063  1.00  0.00    -0.342 C  
HETATM   21  O   UNL     1     -10.381  13.730  64.227  1.00  0.00    -0.331 OA 
ENDBRANCH   6  18
TORSDOF 3
ENDMDL
MODEL      108
REMARK 921   NORMALIZED FREE ENERGY PREDICTED BY IDOCK:   -5.33 KCAL/MOL
REMARK 922        TOTAL FREE ENERGY PREDICTED BY IDOCK:   -6.49 KCAL/MOL
REMARK 923 INTER-LIGAND FREE ENERGY PREDICTED BY IDOCK:   -5.84 KCAL/MOL
REMARK 924 INTRA-LIGAND FREE ENERGY PREDICTED BY IDOCK:   -0.65 KCAL/MOL
REMARK 927      BINDING AFFINITY PREDICTED BY RF-SCORE:    0.00 PKD
ROOT
HETATM    1  C   UNL     1     -12.637  12.061  63.481  1.00  0.00    -0.625 C  
HETATM    2  C   UNL     1     -12.217  13.006  64.568  1.00  0.00    -0.476 A  
HETATM    3  C   UNL     1     -12.096  14.370  64.320  1.00  0.00    -0.461 A  
HETATM    4  C   UNL     1     -11.566  15.213  65.290  1.00  0.00    -0.206 A  
HETATM    5  C   UNL     1     -11.104  14.703  66.513  1.00  0.00    -0.329 A  
HETATM    6  C   UNL     1     -11.365  13.359  66.836  1.00  0.00    -0.351 A  
HETATM    7  C   UNL     1     -11.920  12.522  65.849  1.00  0.00    -0.472 A  
ENDROOT
BRANCH   5   8
HETATM    8  N   UNL     1     -10.290  15.489  67.365  1.00  0.00    -0.261 NA 
HETATM    9  H   UNL     1     -10.564  15.540  68.346  1.00  0.00     0.000 HD 
BRANCH   8  10
HETATM   10  C   UNL     1      -9.125  16.216  66.981  1.00  0.00    -0.209 A  
HETATM   11  F   UNL     1      -7.827  14.284  67.419  1.00  0.00    -0.158 F  
HETATM   12  C   UNL     1      -7.876  15.581  67.078  1.00  0.00    -0.225 A  
HETATM   13  C   UNL     1      -9.128  17.553  66.529  1.00  0.00    -0.263 A  
HETATM   14 CL   UNL     1     -10.578  18.389  66.076  1.00  0.00    -0.417 Cl 
HETATM   15  C   UNL     1      -7.928  18.254  66.347  1.00  0.00    -0.290 A  
HETATM   16  C   UNL     1      -6.679  16.262  66.855  1.00  0.00    -0.165 A  
HETATM   17  C   UNL     1      -6.704  17.613  66.528  1.00  0.00    -0.268 A  
ENDBRANCH   8  10
ENDBRANCH   5   8
BRANCH   6  18
HETATM   18  C   UNL     1     -11.035  12.771  68.192  1.00  0.00    -0.273 C  
HETATM   19  O   UNL     1      -9.663  11.194  69.359  1.00  0.00    -0.025 OA 
HETATM   20  C   UNL     1      -9.946  11.727  68.293  1.00  0.00    -0.200 C  
HETATM   21  O   UNL     1      -9.295  11.387  67.160  1.00  0.00    -0.169 OA 
ENDBRANCH   6  18
TORSDOF 3
ENDMDL
MODEL      109
REMARK 921   NORMALIZED FREE ENERGY PREDICTED BY IDOCK:   -5.33 KCAL/MOL
REMARK 922        TOTAL FREE ENERGY PREDICTED BY IDOCK:   -6.49 KCAL/MOL
REMARK 923 INTER-LIGAND FREE ENERGY PREDICTED BY IDOCK:   -6.01 KCAL/MOL
REMARK 924 INTRA-LIGAND FREE ENERGY PREDICTED BY IDOCK:   -0.48 KCAL/MOL
REMARK 927      BINDING AFFINITY PREDICTED BY RF-SCORE:    0.00 PKD
ROOT
HETATM    1  C   UNL     1      -6.858   8.579  67.781  1.00  0.00    -0.067 C  
HETATM    2  C   UNL     1      -8.317   8.841  68.019  1.00  0.00    -0.119 A  
HETATM    3  C   UNL     1      -9.085   9.509  67.071  1.00  0.00    -0.154 A  
HETATM    4  C   UNL     1     -10.393   9.877  67.365  1.00  0.00    -0.301 A  
HETATM    5  C   UNL     1     -10.947   9.623  68.628  1.00  0.00    -0.111 A  
HETATM    6  C   UNL     1     -10.239   8.813  69.535  1.00  0.00    -0.208 A  
HETATM    7  C   UNL     1      -8.922   8.433  69.215  1.00  0.00    -0.150 A  
ENDROOT
BRANCH   5   8
HETATM    8  N   UNL     1     -12.145  10.260  69.036  1.00  0.00    -0.614 NA 
HETATM    9  H   UNL     1     -13.019   9.840  68.723  1.00  0.00     0.000 HD 
BRANCH   8  10
HETATM   10  C   UNL     1     -12.243  11.431  69.843  1.00  0.00    -0.277 A  
HETATM   11  F   UNL     1     -13.271  10.130  71.534  1.00  0.00    -0.403 F  
HETATM   12  C   UNL     1     -12.877  11.335  71.092  1.00  0.00    -0.352 A  
HETATM   13  C   UNL     1     -11.766  12.705  69.466  1.00  0.00    -0.308 A  
HETATM   14 CL   UNL     1     -10.714  12.952  68.110  1.00  0.00    -0.246 Cl 
HETATM   15  C   UNL     1     -12.064  13.841  70.232  1.00  0.00    -0.425 A  
HETATM   16  C   UNL     1     -13.137  12.456  71.880  1.00  0.00    -0.471 A  
HETATM   17  C   UNL     1     -12.765  13.718  71.430  1.00  0.00    -0.450 A  
ENDBRANCH   8  10
ENDBRANCH   5   8
BRANCH   6  18
HETATM   18  C   UNL     1     -10.828   8.367  70.857  1.00  0.00    -0.267 C  
HETATM   19  O   UNL     1     -12.083   6.653  71.961  1.00  0.00    -0.321 OA 
HETATM   20  C   UNL     1     -11.559   7.045  70.925  1.00  0.00    -0.328 C  
HETATM   21  O   UNL     1     -11.629   6.307  69.797  1.00  0.00    -0.436 OA 
ENDBRANCH   6  18
TORSDOF 3
ENDMDL
MODEL      110
REMARK 921   NORMALIZED FREE ENERGY PREDICTED BY IDOCK:   -5.32 KCAL/MOL
REMARK 922        TOTAL FREE ENERGY PREDICTED BY IDOCK:   -6.48 KCAL/MOL
REMARK 923 INTER-LIGAND FREE ENERGY PREDICTED BY IDOCK:   -5.61 KCAL/MOL
REMARK 924 INTRA-LIGAND FREE ENERGY PREDICTED BY IDOCK:   -0.87 KCAL/MOL
REMARK 927      BINDING AFFINITY PREDICTED BY RF-SCORE:    0.00 PKD
ROOT
HETATM    1  C   UNL     1     -11.480  12.682  63.759  1.00  0.00    -0.539 C  
HETATM    2  C   UNL     1     -10.827  12.298  65.055  1.00  0.00    -0.337 A  
HETATM    3  C   UNL     1     -10.872  10.986  65.514  1.00  0.00    -0.159 A  
HETATM    4  C   UNL     1     -10.395  10.672  66.781  1.00  0.00    -0.299 A  
HETATM    5  C   UNL     1      -9.903  11.671  67.634  1.00  0.00    -0.186 A  
HETATM    6  C   UNL     1      -9.707  12.969  67.126  1.00  0.00    -0.230 A  
HETATM    7  C   UNL     1     -10.179  13.266  65.833  1.00  0.00    -0.295 A  
ENDROOT
BRANCH   5   8
HETATM    8  N   UNL     1      -9.712  11.418  69.014  1.00  0.00    -0.408 NA 
HETATM    9  H   UNL     1      -8.782  11.600  69.392  1.00  0.00     0.000 HD 
BRANCH   8  10
HETATM   10  C   UNL     1     -10.694  10.931  69.926  1.00  0.00    -0.075 A  
HETATM   11  F   UNL     1      -9.266   9.111  70.429  1.00  0.00    -0.172 F  
HETATM   12  C   UNL     1     -10.452   9.717  70.588  1.00  0.00    -0.312 A  
HETATM   13  C   UNL     1     -11.921  11.574  70.199  1.00  0.00    -0.369 A  
HETATM   14 CL   UNL     1     -12.260  13.201  69.704  1.00  0.00    -0.290 Cl 
HETATM   15  C   UNL     1     -12.910  10.941  70.964  1.00  0.00    -0.472 A  
HETATM   16  C   UNL     1     -11.417   9.104  71.387  1.00  0.00    -0.420 A  
HETATM   17  C   UNL     1     -12.665   9.698  71.543  1.00  0.00    -0.480 A  
ENDBRANCH   8  10
ENDBRANCH   5   8
BRANCH   6  18
HETATM   18  C   UNL     1      -9.043  14.066  67.932  1.00  0.00    -0.188 C  
HETATM   19  O   UNL     1      -6.945  14.962  68.659  1.00  0.00    -0.100 OA 
HETATM   20  C   UNL     1      -7.533  14.116  67.995  1.00  0.00    -0.140 C  
HETATM   21  O   UNL     1      -6.844  13.187  67.299  1.00  0.00    -0.139 OA 
ENDBRANCH   6  18
TORSDOF 3
ENDMDL
MODEL      111
REMARK 921   NORMALIZED FREE ENERGY PREDICTED BY IDOCK:   -5.31 KCAL/MOL
REMARK 922        TOTAL FREE ENERGY PREDICTED BY IDOCK:   -6.46 KCAL/MOL
REMARK 923 INTER-LIGAND FREE ENERGY PREDICTED BY IDOCK:   -5.71 KCAL/MOL
REMARK 924 INTRA-LIGAND FREE ENERGY PREDICTED BY IDOCK:   -0.76 KCAL/MOL
REMARK 927      BINDING AFFINITY PREDICTED BY RF-SCORE:    0.00 PKD
ROOT
HETATM    1  C   UNL     1     -12.360  15.506  69.964  1.00  0.00    -0.345 C  
HETATM    2  C   UNL     1     -11.653  14.666  68.941  1.00  0.00    -0.340 A  
HETATM    3  C   UNL     1     -10.828  13.615  69.329  1.00  0.00    -0.123 A  
HETATM    4  C   UNL     1     -10.063  12.941  68.384  1.00  0.00    -0.227 A  
HETATM    5  C   UNL     1     -10.074  13.331  67.037  1.00  0.00    -0.242 A  
HETATM    6  C   UNL     1     -11.017  14.283  66.608  1.00  0.00    -0.310 A  
HETATM    7  C   UNL     1     -11.798  14.944  67.576  1.00  0.00    -0.256 A  
ENDROOT
BRANCH   5   8
HETATM    8  N   UNL     1      -9.083  12.866  66.139  1.00  0.00    -0.449 NA 
HETATM    9  H   UNL     1      -8.484  13.571  65.709  1.00  0.00     0.000 HD 
BRANCH   8  10
HETATM   10  C   UNL     1      -8.843  11.508  65.778  1.00  0.00    -0.058 A  
HETATM   11  F   UNL     1     -10.031  11.876  63.763  1.00  0.00    -0.295 F  
HETATM   12  C   UNL     1      -9.393  11.024  64.581  1.00  0.00    -0.205 A  
HETATM   13  C   UNL     1      -8.103  10.592  66.557  1.00  0.00    -0.140 A  
HETATM   14 CL   UNL     1      -7.120  11.079  67.900  1.00  0.00    -0.079 Cl 
HETATM   15  C   UNL     1      -8.068   9.230  66.226  1.00  0.00    -0.107 A  
HETATM   16  C   UNL     1      -9.323   9.677  64.224  1.00  0.00    -0.178 A  
HETATM   17  C   UNL     1      -8.693   8.770  65.070  1.00  0.00    -0.183 A  
ENDBRANCH   8  10
ENDBRANCH   5   8
BRANCH   6  18
HETATM   18  C   UNL     1     -11.197  14.650  65.149  1.00  0.00    -0.374 C  
HETATM   19  O   UNL     1     -12.565  14.339  63.209  1.00  0.00    -0.716 OA 
HETATM   20  C   UNL     1     -12.390  14.102  64.398  1.00  0.00    -0.381 C  
HETATM   21  O   UNL     1     -13.260  13.326  65.080  1.00  0.00    -0.698 OA 
ENDBRANCH   6  18
TORSDOF 3
ENDMDL
MODEL      112
REMARK 921   NORMALIZED FREE ENERGY PREDICTED BY IDOCK:   -5.30 KCAL/MOL
REMARK 922        TOTAL FREE ENERGY PREDICTED BY IDOCK:   -6.46 KCAL/MOL
REMARK 923 INTER-LIGAND FREE ENERGY PREDICTED BY IDOCK:   -5.64 KCAL/MOL
REMARK 924 INTRA-LIGAND FREE ENERGY PREDICTED BY IDOCK:   -0.82 KCAL/MOL
REMARK 927      BINDING AFFINITY PREDICTED BY RF-SCORE:    0.00 PKD
ROOT
HETATM    1  C   UNL     1      -5.965  11.735  66.825  1.00  0.00    -0.107 C  
HETATM    2  C   UNL     1      -7.336  11.438  67.358  1.00  0.00    -0.119 A  
HETATM    3  C   UNL     1      -7.512  11.002  68.667  1.00  0.00    -0.112 A  
HETATM    4  C   UNL     1      -8.766  10.588  69.103  1.00  0.00    -0.155 A  
HETATM    5  C   UNL     1      -9.861  10.560  68.226  1.00  0.00    -0.149 A  
HETATM    6  C   UNL     1      -9.732  11.143  66.953  1.00  0.00    -0.216 A  
HETATM    7  C   UNL     1      -8.460  11.575  66.532  1.00  0.00    -0.160 A  
ENDROOT
BRANCH   5   8
HETATM    8  N   UNL     1     -11.043   9.857  68.565  1.00  0.00    -0.443 NA 
HETATM    9  H   UNL     1     -11.519   9.365  67.809  1.00  0.00     0.000 HD 
BRANCH   8  10
HETATM   10  C   UNL     1     -11.631   9.773  69.861  1.00  0.00    -0.079 A  
HETATM   11  F   UNL     1     -10.890   7.528  70.006  1.00  0.00    -0.235 F  
HETATM   12  C   UNL     1     -11.580   8.546  70.543  1.00  0.00    -0.132 A  
HETATM   13  C   UNL     1     -12.290  10.838  70.512  1.00  0.00    -0.369 A  
HETATM   14 CL   UNL     1     -12.199  12.479  69.959  1.00  0.00    -0.310 Cl 
HETATM   15  C   UNL     1     -13.000  10.625  71.702  1.00  0.00    -0.582 A  
HETATM   16  C   UNL     1     -12.248   8.341  71.750  1.00  0.00    -0.367 A  
HETATM   17  C   UNL     1     -12.994   9.372  72.311  1.00  0.00    -0.479 A  
ENDBRANCH   8  10
ENDBRANCH   5   8
BRANCH   6  18
HETATM   18  C   UNL     1     -10.904  11.289  66.003  1.00  0.00    -0.273 C  
HETATM   19  O   UNL     1     -12.723  12.698  65.344  1.00  0.00    -0.635 OA 
HETATM   20  C   UNL     1     -11.745  12.544  66.065  1.00  0.00    -0.417 C  
HETATM   21  O   UNL     1     -11.390  13.495  66.956  1.00  0.00    -0.302 OA 
ENDBRANCH   6  18
TORSDOF 3
ENDMDL
MODEL      113
REMARK 921   NORMALIZED FREE ENERGY PREDICTED BY IDOCK:   -5.30 KCAL/MOL
REMARK 922        TOTAL FREE ENERGY PREDICTED BY IDOCK:   -6.45 KCAL/MOL
REMARK 923 INTER-LIGAND FREE ENERGY PREDICTED BY IDOCK:   -6.70 KCAL/MOL
REMARK 924 INTRA-LIGAND FREE ENERGY PREDICTED BY IDOCK:    0.24 KCAL/MOL
REMARK 927      BINDING AFFINITY PREDICTED BY RF-SCORE:    0.00 PKD
ROOT
HETATM    1  C   UNL     1     -12.498  15.484  70.408  1.00  0.00    -0.443 C  
HETATM    2  C   UNL     1     -12.055  14.210  69.748  1.00  0.00    -0.409 A  
HETATM    3  C   UNL     1     -11.488  14.226  68.478  1.00  0.00    -0.329 A  
HETATM    4  C   UNL     1     -11.219  13.033  67.817  1.00  0.00    -0.313 A  
HETATM    5  C   UNL     1     -11.552  11.799  68.395  1.00  0.00    -0.318 A  
HETATM    6  C   UNL     1     -11.977  11.763  69.736  1.00  0.00    -0.392 A  
HETATM    7  C   UNL     1     -12.227  12.981  70.398  1.00  0.00    -0.386 A  
ENDROOT
BRANCH   5   8
HETATM    8  N   UNL     1     -11.573  10.615  67.617  1.00  0.00    -0.616 NA 
HETATM    9  H   UNL     1     -12.472  10.144  67.520  1.00  0.00     0.000 HD 
BRANCH   8  10
HETATM   10  C   UNL     1     -10.457  10.021  66.957  1.00  0.00    -0.238 A  
HETATM   11  F   UNL     1     -10.982  11.283  65.023  1.00  0.00    -0.346 F  
HETATM   12  C   UNL     1     -10.222  10.347  65.611  1.00  0.00    -0.238 A  
HETATM   13  C   UNL     1      -9.572   9.099  67.555  1.00  0.00    -0.150 A  
HETATM   14 CL   UNL     1      -9.532   8.806  69.264  1.00  0.00    -0.160 Cl 
HETATM   15  C   UNL     1      -8.613   8.422  66.789  1.00  0.00    -0.123 A  
HETATM   16  C   UNL     1      -9.239   9.708  64.855  1.00  0.00    -0.306 A  
HETATM   17  C   UNL     1      -8.459   8.713  65.435  1.00  0.00    -0.189 A  
ENDBRANCH   8  10
ENDBRANCH   5   8
BRANCH   6  18
HETATM   18  C   UNL     1     -12.212  10.465  70.480  1.00  0.00    -0.412 C  
HETATM   19  O   UNL     1     -13.198   9.477  72.425  1.00  0.00    -0.431 OA 
HETATM   20  C   UNL     1     -13.007  10.492  71.766  1.00  0.00    -0.476 C  
HETATM   21  O   UNL     1     -13.497  11.681  72.177  1.00  0.00    -0.423 OA 
ENDBRANCH   6  18
TORSDOF 3
ENDMDL
MODEL      114
REMARK 921   NORMALIZED FREE ENERGY PREDICTED BY IDOCK:   -5.30 KCAL/MOL
REMARK 922        TOTAL FREE ENERGY PREDICTED BY IDOCK:   -6.45 KCAL/MOL
REMARK 923 INTER-LIGAND FREE ENERGY PREDICTED BY IDOCK:   -5.88 KCAL/MOL
REMARK 924 INTRA-LIGAND FREE ENERGY PREDICTED BY IDOCK:   -0.57 KCAL/MOL
REMARK 927      BINDING AFFINITY PREDICTED BY RF-SCORE:    0.00 PKD
ROOT
HETATM    1  C   UNL     1     -10.371   5.591  69.836  1.00  0.00    -0.368 C  
HETATM    2  C   UNL     1     -10.498   7.009  69.357  1.00  0.00    -0.227 A  
HETATM    3  C   UNL     1     -10.196   7.346  68.042  1.00  0.00    -0.234 A  
HETATM    4  C   UNL     1     -10.174   8.680  67.651  1.00  0.00    -0.300 A  
HETATM    5  C   UNL     1     -10.410   9.707  68.577  1.00  0.00    -0.205 A  
HETATM    6  C   UNL     1     -10.869   9.375  69.864  1.00  0.00    -0.259 A  
HETATM    7  C   UNL     1     -10.905   8.018  70.240  1.00  0.00    -0.241 A  
ENDROOT
BRANCH   5   8
HETATM    8  N   UNL     1     -10.087  11.051  68.268  1.00  0.00    -0.171 NA 
HETATM    9  H   UNL     1      -9.484  11.543  68.927  1.00  0.00     0.000 HD 
BRANCH   8  10
HETATM   10  C   UNL     1     -10.523  11.781  67.124  1.00  0.00    -0.220 A  
HETATM   11  F   UNL     1     -12.240  12.741  68.442  1.00  0.00    -0.333 F  
HETATM   12  C   UNL     1     -11.664  12.592  67.240  1.00  0.00    -0.362 A  
HETATM   13  C   UNL     1      -9.901  11.732  65.858  1.00  0.00    -0.238 A  
HETATM   14 CL   UNL     1      -8.338  11.025  65.604  1.00  0.00    -0.113 Cl 
HETATM   15  C   UNL     1     -10.497  12.332  64.739  1.00  0.00    -0.328 A  
HETATM   16  C   UNL     1     -12.236  13.229  66.138  1.00  0.00    -0.466 A  
HETATM   17  C   UNL     1     -11.674  13.065  64.877  1.00  0.00    -0.381 A  
ENDBRANCH   8  10
ENDBRANCH   5   8
BRANCH   6  18
HETATM   18  C   UNL     1     -11.291  10.423  70.873  1.00  0.00    -0.307 C  
HETATM   19  O   UNL     1     -13.126  11.290  72.142  1.00  0.00    -0.458 OA 
HETATM   20  C   UNL     1     -12.725  10.444  71.353  1.00  0.00    -0.446 C  
HETATM   21  O   UNL     1     -13.561   9.499  70.873  1.00  0.00    -0.226 OA 
ENDBRANCH   6  18
TORSDOF 3
ENDMDL
MODEL      115
REMARK 921   NORMALIZED FREE ENERGY PREDICTED BY IDOCK:   -5.29 KCAL/MOL
REMARK 922        TOTAL FREE ENERGY PREDICTED BY IDOCK:   -6.45 KCAL/MOL
REMARK 923 INTER-LIGAND FREE ENERGY PREDICTED BY IDOCK:   -6.12 KCAL/MOL
REMARK 924 INTRA-LIGAND FREE ENERGY PREDICTED BY IDOCK:   -0.33 KCAL/MOL
REMARK 927      BINDING AFFINITY PREDICTED BY RF-SCORE:    0.00 PKD
ROOT
HETATM    1  C   UNL     1      -8.627   9.093  63.946  1.00  0.00    -0.188 C  
HETATM    2  C   UNL     1      -8.842  10.233  64.899  1.00  0.00    -0.213 A  
HETATM    3  C   UNL     1      -7.808  10.690  65.709  1.00  0.00    -0.141 A  
HETATM    4  C   UNL     1      -8.056  11.643  66.690  1.00  0.00    -0.121 A  
HETATM    5  C   UNL     1      -9.354  12.128  66.911  1.00  0.00    -0.203 A  
HETATM    6  C   UNL     1     -10.373  11.794  66.001  1.00  0.00    -0.276 A  
HETATM    7  C   UNL     1     -10.101  10.841  65.001  1.00  0.00    -0.377 A  
ENDROOT
BRANCH   5   8
HETATM    8  N   UNL     1      -9.668  12.848  68.090  1.00  0.00    -0.224 NA 
HETATM    9  H   UNL     1      -9.514  12.369  68.977  1.00  0.00     0.000 HD 
BRANCH   8  10
HETATM   10  C   UNL     1     -10.179  14.177  68.154  1.00  0.00    -0.241 A  
HETATM   11  F   UNL     1      -8.742  14.771  66.368  1.00  0.00    -0.272 F  
HETATM   12  C   UNL     1      -9.638  15.146  67.293  1.00  0.00    -0.209 A  
HETATM   13  C   UNL     1     -11.185  14.606  69.046  1.00  0.00    -0.269 A  
HETATM   14 CL   UNL     1     -12.159  13.504  69.966  1.00  0.00    -0.405 Cl 
HETATM   15  C   UNL     1     -11.502  15.966  69.174  1.00  0.00    -0.377 A  
HETATM   16  C   UNL     1      -9.983  16.494  67.385  1.00  0.00    -0.267 A  
HETATM   17  C   UNL     1     -10.887  16.911  68.356  1.00  0.00    -0.347 A  
ENDBRANCH   8  10
ENDBRANCH   5   8
BRANCH   6  18
HETATM   18  C   UNL     1     -11.763  12.392  66.081  1.00  0.00    -0.460 C  
HETATM   19  O   UNL     1     -13.219  14.077  65.203  1.00  0.00    -0.768 OA 
HETATM   20  C   UNL     1     -12.122  13.535  65.157  1.00  0.00    -0.404 C  
HETATM   21  O   UNL     1     -11.184  13.951  64.279  1.00  0.00    -0.354 OA 
ENDBRANCH   6  18
TORSDOF 3
ENDMDL
MODEL      116
REMARK 921   NORMALIZED FREE ENERGY PREDICTED BY IDOCK:   -5.29 KCAL/MOL
REMARK 922        TOTAL FREE ENERGY PREDICTED BY IDOCK:   -6.44 KCAL/MOL
REMARK 923 INTER-LIGAND FREE ENERGY PREDICTED BY IDOCK:   -6.01 KCAL/MOL
REMARK 924 INTRA-LIGAND FREE ENERGY PREDICTED BY IDOCK:   -0.43 KCAL/MOL
REMARK 927      BINDING AFFINITY PREDICTED BY RF-SCORE:    0.00 PKD
ROOT
HETATM    1  C   UNL     1     -13.197  14.076  71.984  1.00  0.00    -0.499 C  
HETATM    2  C   UNL     1     -12.895  12.708  71.446  1.00  0.00    -0.358 A  
HETATM    3  C   UNL     1     -13.501  11.579  71.987  1.00  0.00    -0.298 A  
HETATM    4  C   UNL     1     -13.103  10.310  71.583  1.00  0.00    -0.553 A  
HETATM    5  C   UNL     1     -12.060  10.141  70.661  1.00  0.00    -0.319 A  
HETATM    6  C   UNL     1     -11.549  11.269  69.992  1.00  0.00    -0.404 A  
HETATM    7  C   UNL     1     -11.976  12.547  70.400  1.00  0.00    -0.335 A  
ENDROOT
BRANCH   5   8
HETATM    8  N   UNL     1     -11.446   8.877  70.483  1.00  0.00    -0.365 NA 
HETATM    9  H   UNL     1     -11.736   8.335  69.670  1.00  0.00     0.000 HD 
BRANCH   8  10
HETATM   10  C   UNL     1     -10.461   8.292  71.332  1.00  0.00    -0.219 A  
HETATM   11  F   UNL     1     -12.183   7.675  72.835  1.00  0.00    -0.183 F  
HETATM   12  C   UNL     1     -10.873   7.737  72.554  1.00  0.00    -0.328 A  
HETATM   13  C   UNL     1      -9.080   8.249  71.044  1.00  0.00    -0.158 A  
HETATM   14 CL   UNL     1      -8.433   8.618  69.478  1.00  0.00    -0.127 Cl 
HETATM   15  C   UNL     1      -8.156   7.823  72.010  1.00  0.00    -0.126 A  
HETATM   16  C   UNL     1      -9.961   7.271  73.501  1.00  0.00    -0.366 A  
HETATM   17  C   UNL     1      -8.596   7.351  73.244  1.00  0.00    -0.185 A  
ENDBRANCH   8  10
ENDBRANCH   5   8
BRANCH   6  18
HETATM   18  C   UNL     1     -10.530  11.160  68.877  1.00  0.00    -0.233 C  
HETATM   19  O   UNL     1     -10.177  11.395  66.521  1.00  0.00    -0.209 OA 
HETATM   20  C   UNL     1     -10.951  11.499  67.464  1.00  0.00    -0.255 C  
HETATM   21  O   UNL     1     -12.222  11.911  67.270  1.00  0.00    -0.495 OA 
ENDBRANCH   6  18
TORSDOF 3
ENDMDL
MODEL      117
REMARK 921   NORMALIZED FREE ENERGY PREDICTED BY IDOCK:   -5.27 KCAL/MOL
REMARK 922        TOTAL FREE ENERGY PREDICTED BY IDOCK:   -6.42 KCAL/MOL
REMARK 923 INTER-LIGAND FREE ENERGY PREDICTED BY IDOCK:   -6.30 KCAL/MOL
REMARK 924 INTRA-LIGAND FREE ENERGY PREDICTED BY IDOCK:   -0.12 KCAL/MOL
REMARK 927      BINDING AFFINITY PREDICTED BY RF-SCORE:    0.00 PKD
ROOT
HETATM    1  C   UNL     1     -10.096  10.401  65.833  1.00  0.00    -0.326 C  
HETATM    2  C   UNL     1      -9.868  11.765  66.418  1.00  0.00    -0.237 A  
HETATM    3  C   UNL     1      -9.543  11.919  67.761  1.00  0.00    -0.190 A  
HETATM    4  C   UNL     1      -9.481  13.189  68.324  1.00  0.00    -0.210 A  
HETATM    5  C   UNL     1      -9.787  14.329  67.566  1.00  0.00    -0.231 A  
HETATM    6  C   UNL     1      -9.962  14.199  66.176  1.00  0.00    -0.328 A  
HETATM    7  C   UNL     1     -10.003  12.907  65.618  1.00  0.00    -0.245 A  
ENDROOT
BRANCH   5   8
HETATM    8  N   UNL     1     -10.030  15.574  68.195  1.00  0.00    -0.216 NA 
HETATM    9  H   UNL     1     -10.962  15.721  68.582  1.00  0.00     0.000 HD 
BRANCH   8  10
HETATM   10  C   UNL     1      -9.096  16.642  68.338  1.00  0.00    -0.226 A  
HETATM   11  F   UNL     1      -7.540  15.105  69.244  1.00  0.00    -0.141 F  
HETATM   12  C   UNL     1      -7.853  16.372  68.932  1.00  0.00    -0.234 A  
HETATM   13  C   UNL     1      -9.339  17.976  67.944  1.00  0.00    -0.264 A  
HETATM   14 CL   UNL     1     -10.681  18.432  66.945  1.00  0.00    -0.364 Cl 
HETATM   15  C   UNL     1      -8.445  19.001  68.285  1.00  0.00    -0.366 A  
HETATM   16  C   UNL     1      -6.940  17.382  69.233  1.00  0.00    -0.175 A  
HETATM   17  C   UNL     1      -7.255  18.706  68.945  1.00  0.00    -0.311 A  
ENDBRANCH   8  10
ENDBRANCH   5   8
BRANCH   6  18
HETATM   18  C   UNL     1     -10.145  15.395  65.265  1.00  0.00    -0.354 C  
HETATM   19  O   UNL     1     -11.659  16.512  63.784  1.00  0.00    -1.109 OA 
HETATM   20  C   UNL     1     -11.469  15.582  64.558  1.00  0.00    -0.308 C  
HETATM   21  O   UNL     1     -12.442  14.677  64.798  1.00  0.00    -0.467 OA 
ENDBRANCH   6  18
TORSDOF 3
ENDMDL
MODEL      118
REMARK 921   NORMALIZED FREE ENERGY PREDICTED BY IDOCK:   -5.27 KCAL/MOL
REMARK 922        TOTAL FREE ENERGY PREDICTED BY IDOCK:   -6.42 KCAL/MOL
REMARK 923 INTER-LIGAND FREE ENERGY PREDICTED BY IDOCK:   -6.42 KCAL/MOL
REMARK 924 INTRA-LIGAND FREE ENERGY PREDICTED BY IDOCK:    0.00 KCAL/MOL
REMARK 927      BINDING AFFINITY PREDICTED BY RF-SCORE:    0.00 PKD
ROOT
HETATM    1  C   UNL     1     -12.501  15.411  74.376  1.00  0.00    -0.717 C  
HETATM    2  C   UNL     1     -12.289  15.206  72.904  1.00  0.00    -0.495 A  
HETATM    3  C   UNL     1     -12.205  16.291  72.039  1.00  0.00    -0.428 A  
HETATM    4  C   UNL     1     -12.158  16.087  70.664  1.00  0.00    -0.259 A  
HETATM    5  C   UNL     1     -12.238  14.795  70.125  1.00  0.00    -0.337 A  
HETATM    6  C   UNL     1     -12.165  13.687  70.988  1.00  0.00    -0.374 A  
HETATM    7  C   UNL     1     -12.194  13.911  72.379  1.00  0.00     0.221 A  
ENDROOT
BRANCH   5   8
HETATM    8  N   UNL     1     -12.504  14.599  68.747  1.00  0.00    -0.567 NA 
HETATM    9  H   UNL     1     -13.482  14.501  68.476  1.00  0.00     0.000 HD 
BRANCH   8  10
HETATM   10  C   UNL     1     -11.534  14.526  67.704  1.00  0.00    -0.353 A  
HETATM   11  F   UNL     1     -12.229  12.304  67.272  1.00  0.00    -0.351 F  
HETATM   12  C   UNL     1     -11.386  13.314  67.010  1.00  0.00    -0.312 A  
HETATM   13  C   UNL     1     -10.683  15.586  67.327  1.00  0.00    -0.308 A  
HETATM   14 CL   UNL     1     -10.917  17.218  67.865  1.00  0.00    -0.275 Cl 
HETATM   15  C   UNL     1      -9.633  15.379  66.421  1.00  0.00    -0.319 A  
HETATM   16  C   UNL     1     -10.371  13.116  66.074  1.00  0.00    -0.292 A  
HETATM   17  C   UNL     1      -9.467  14.138  65.808  1.00  0.00    -0.070 A  
ENDBRANCH   8  10
ENDBRANCH   5   8
BRANCH   6  18
HETATM   18  C   UNL     1     -12.094  12.262  70.479  1.00  0.00    -0.371 C  
HETATM   19  O   UNL     1     -12.873  10.024  70.815  1.00  0.00    -0.321 OA 
HETATM   20  C   UNL     1     -12.920  11.197  71.165  1.00  0.00    -0.296 C  
HETATM   21  O   UNL     1     -13.709  11.578  72.192  1.00  0.00    -0.197 OA 
ENDBRANCH   6  18
TORSDOF 3
ENDMDL
MODEL      119
REMARK 921   NORMALIZED FREE ENERGY PREDICTED BY IDOCK:   -5.27 KCAL/MOL
REMARK 922        TOTAL FREE ENERGY PREDICTED BY IDOCK:   -6.42 KCAL/MOL
REMARK 923 INTER-LIGAND FREE ENERGY PREDICTED BY IDOCK:   -5.70 KCAL/MOL
REMARK 924 INTRA-LIGAND FREE ENERGY PREDICTED BY IDOCK:   -0.72 KCAL/MOL
REMARK 927      BINDING AFFINITY PREDICTED BY RF-SCORE:    0.00 PKD
ROOT
HETATM    1  C   UNL     1     -10.418   5.575  66.919  1.00  0.00    -0.348 C  
HETATM    2  C   UNL     1     -10.550   6.902  67.609  1.00  0.00    -0.328 A  
HETATM    3  C   UNL     1     -10.640   8.080  66.875  1.00  0.00    -0.324 A  
HETATM    4  C   UNL     1     -10.611   9.310  67.523  1.00  0.00    -0.329 A  
HETATM    5  C   UNL     1     -10.449   9.389  68.914  1.00  0.00    -0.216 A  
HETATM    6  C   UNL     1     -10.516   8.210  69.678  1.00  0.00    -0.224 A  
HETATM    7  C   UNL     1     -10.564   6.972  69.008  1.00  0.00    -0.234 A  
ENDROOT
BRANCH   5   8
HETATM    8  N   UNL     1     -10.109  10.615  69.536  1.00  0.00    -0.385 NA 
HETATM    9  H   UNL     1      -9.292  10.611  70.146  1.00  0.00     0.000 HD 
BRANCH   8  10
HETATM   10  C   UNL     1     -10.800  11.854  69.391  1.00  0.00    -0.032 A  
HETATM   11  F   UNL     1      -9.362  12.397  67.590  1.00  0.00    -0.169 F  
HETATM   12  C   UNL     1     -10.351  12.763  68.419  1.00  0.00    -0.243 A  
HETATM   13  C   UNL     1     -11.903  12.252  70.176  1.00  0.00    -0.272 A  
HETATM   14 CL   UNL     1     -12.766  11.158  71.209  1.00  0.00    -0.524 Cl 
HETATM   15  C   UNL     1     -12.410  13.557  70.096  1.00  0.00    -0.345 A  
HETATM   16  C   UNL     1     -10.881  14.048  68.305  1.00  0.00    -0.268 A  
HETATM   17  C   UNL     1     -11.887  14.460  69.174  1.00  0.00    -0.359 A  
ENDBRANCH   8  10
ENDBRANCH   5   8
BRANCH   6  18
HETATM   18  C   UNL     1     -10.501   8.221  71.193  1.00  0.00    -0.254 C  
HETATM   19  O   UNL     1     -11.813   7.873  73.164  1.00  0.00    -0.216 OA 
HETATM   20  C   UNL     1     -11.761   7.848  71.941  1.00  0.00    -0.297 C  
HETATM   21  O   UNL     1     -12.842   7.493  71.213  1.00  0.00    -0.334 OA 
ENDBRANCH   6  18
TORSDOF 3
ENDMDL
MODEL      120
REMARK 921   NORMALIZED FREE ENERGY PREDICTED BY IDOCK:   -5.27 KCAL/MOL
REMARK 922        TOTAL FREE ENERGY PREDICTED BY IDOCK:   -6.42 KCAL/MOL
REMARK 923 INTER-LIGAND FREE ENERGY PREDICTED BY IDOCK:   -5.55 KCAL/MOL
REMARK 924 INTRA-LIGAND FREE ENERGY PREDICTED BY IDOCK:   -0.86 KCAL/MOL
REMARK 927      BINDING AFFINITY PREDICTED BY RF-SCORE:    0.00 PKD
ROOT
HETATM    1  C   UNL     1     -10.082   4.469  65.818  1.00  0.00    -0.274 C  
HETATM    2  C   UNL     1     -10.319   5.358  67.004  1.00  0.00    -0.299 A  
HETATM    3  C   UNL     1     -10.578   6.715  66.838  1.00  0.00    -0.376 A  
HETATM    4  C   UNL     1     -10.647   7.554  67.944  1.00  0.00    -0.250 A  
HETATM    5  C   UNL     1     -10.416   7.063  69.237  1.00  0.00    -0.210 A  
HETATM    6  C   UNL     1     -10.310   5.673  69.432  1.00  0.00    -0.343 A  
HETATM    7  C   UNL     1     -10.260   4.834  68.302  1.00  0.00    -0.054 A  
ENDROOT
BRANCH   5   8
HETATM    8  N   UNL     1     -10.177   7.947  70.317  1.00  0.00    -0.197 NA 
HETATM    9  H   UNL     1      -9.278   7.863  70.792  1.00  0.00     0.000 HD 
BRANCH   8  10
HETATM   10  C   UNL     1     -11.073   8.943  70.805  1.00  0.00    -0.261 A  
HETATM   11  F   UNL     1     -11.887   7.378  72.385  1.00  0.00    -0.293 F  
HETATM   12  C   UNL     1     -11.972   8.595  71.826  1.00  0.00    -0.336 A  
HETATM   13  C   UNL     1     -11.143  10.265  70.315  1.00  0.00    -0.319 A  
HETATM   14 CL   UNL     1      -9.936  10.948  69.275  1.00  0.00    -0.184 Cl 
HETATM   15  C   UNL     1     -12.173  11.128  70.717  1.00  0.00    -0.484 A  
HETATM   16  C   UNL     1     -12.971   9.466  72.262  1.00  0.00    -0.479 A  
HETATM   17  C   UNL     1     -13.097  10.721  71.677  1.00  0.00    -0.551 A  
ENDBRANCH   8  10
ENDBRANCH   5   8
BRANCH   6  18
HETATM   18  C   UNL     1     -10.211   5.051  70.810  1.00  0.00    -0.299 C  
HETATM   19  O   UNL     1      -8.738   4.558  72.631  1.00  0.00    -0.112 OA 
HETATM   20  C   UNL     1      -8.882   5.076  71.531  1.00  0.00    -0.132 C  
HETATM   21  O   UNL     1      -7.845   5.684  70.915  1.00  0.00    -0.099 OA 
ENDBRANCH   6  18
TORSDOF 3
ENDMDL
MODEL      121
REMARK 921   NORMALIZED FREE ENERGY PREDICTED BY IDOCK:   -5.25 KCAL/MOL
REMARK 922        TOTAL FREE ENERGY PREDICTED BY IDOCK:   -6.40 KCAL/MOL
REMARK 923 INTER-LIGAND FREE ENERGY PREDICTED BY IDOCK:   -5.75 KCAL/MOL
REMARK 924 INTRA-LIGAND FREE ENERGY PREDICTED BY IDOCK:   -0.66 KCAL/MOL
REMARK 927      BINDING AFFINITY PREDICTED BY RF-SCORE:    0.00 PKD
ROOT
HETATM    1  C   UNL     1      -8.365   6.537  65.794  1.00  0.00    -0.143 C  
HETATM    2  C   UNL     1      -8.569   7.680  66.745  1.00  0.00    -0.129 A  
HETATM    3  C   UNL     1      -7.717   7.866  67.829  1.00  0.00    -0.121 A  
HETATM    4  C   UNL     1      -8.002   8.836  68.784  1.00  0.00    -0.106 A  
HETATM    5  C   UNL     1      -9.169   9.610  68.698  1.00  0.00    -0.136 A  
HETATM    6  C   UNL     1      -9.952   9.541  67.531  1.00  0.00    -0.235 A  
HETATM    7  C   UNL     1      -9.639   8.566  66.564  1.00  0.00    -0.303 A  
ENDROOT
BRANCH   5   8
HETATM    8  N   UNL     1      -9.621  10.366  69.807  1.00  0.00    -0.413 NA 
HETATM    9  H   UNL     1      -9.130  11.239  70.001  1.00  0.00     0.000 HD 
BRANCH   8  10
HETATM   10  C   UNL     1     -10.696  10.022  70.679  1.00  0.00    -0.254 A  
HETATM   11  F   UNL     1      -9.381   8.246  71.532  1.00  0.00    -0.165 F  
HETATM   12  C   UNL     1     -10.555   8.896  71.506  1.00  0.00    -0.329 A  
HETATM   13  C   UNL     1     -11.918  10.724  70.758  1.00  0.00    -0.362 A  
HETATM   14 CL   UNL     1     -12.155  12.283  70.037  1.00  0.00    -0.373 Cl 
HETATM   15  C   UNL     1     -12.992  10.217  71.502  1.00  0.00    -0.547 A  
HETATM   16  C   UNL     1     -11.607   8.412  72.284  1.00  0.00    -0.453 A  
HETATM   17  C   UNL     1     -12.842   9.051  72.250  1.00  0.00    -0.474 A  
ENDBRANCH   8  10
ENDBRANCH   5   8
BRANCH   6  18
HETATM   18  C   UNL     1     -11.140  10.451  67.294  1.00  0.00    -0.251 C  
HETATM   19  O   UNL     1     -11.836  12.578  66.445  1.00  0.00    -0.428 OA 
HETATM   20  C   UNL     1     -10.916  11.790  66.629  1.00  0.00    -0.294 C  
HETATM   21  O   UNL     1      -9.657  12.101  66.251  1.00  0.00    -0.229 OA 
ENDBRANCH   6  18
TORSDOF 3
ENDMDL
MODEL      122
REMARK 921   NORMALIZED FREE ENERGY PREDICTED BY IDOCK:   -5.24 KCAL/MOL
REMARK 922        TOTAL FREE ENERGY PREDICTED BY IDOCK:   -6.39 KCAL/MOL
REMARK 923 INTER-LIGAND FREE ENERGY PREDICTED BY IDOCK:   -5.74 KCAL/MOL
REMARK 924 INTRA-LIGAND FREE ENERGY PREDICTED BY IDOCK:   -0.65 KCAL/MOL
REMARK 927      BINDING AFFINITY PREDICTED BY RF-SCORE:    0.00 PKD
ROOT
HETATM    1  C   UNL     1      -7.627  11.614  68.236  1.00  0.00    -0.120 C  
HETATM    2  C   UNL     1      -8.616  12.712  67.971  1.00  0.00    -0.189 A  
HETATM    3  C   UNL     1      -8.286  13.786  67.150  1.00  0.00    -0.153 A  
HETATM    4  C   UNL     1      -9.152  14.867  67.032  1.00  0.00    -0.255 A  
HETATM    5  C   UNL     1     -10.346  14.918  67.766  1.00  0.00    -0.244 A  
HETATM    6  C   UNL     1     -10.763  13.776  68.473  1.00  0.00    -0.274 A  
HETATM    7  C   UNL     1      -9.883  12.681  68.568  1.00  0.00    -0.152 A  
ENDROOT
BRANCH   5   8
HETATM    8  N   UNL     1     -11.068  16.130  67.893  1.00  0.00    -0.325 NA 
HETATM    9  H   UNL     1     -11.965  16.083  68.375  1.00  0.00     0.000 HD 
BRANCH   8  10
HETATM   10  C   UNL     1     -10.660  17.408  67.411  1.00  0.00    -0.308 A  
HETATM   11  F   UNL     1      -9.953  17.962  69.602  1.00  0.00    -0.097 F  
HETATM   12  C   UNL     1     -10.146  18.339  68.329  1.00  0.00    -0.386 A  
HETATM   13  C   UNL     1     -10.757  17.825  66.066  1.00  0.00    -0.119 A  
HETATM   14 CL   UNL     1     -11.090  16.729  64.764  1.00  0.00    -0.220 Cl 
HETATM   15  C   UNL     1     -10.508  19.157  65.705  1.00  0.00    -0.404 A  
HETATM   16  C   UNL     1      -9.854  19.653  67.966  1.00  0.00    -0.524 A  
HETATM   17  C   UNL     1     -10.074  20.075  66.659  1.00  0.00    -0.607 A  
ENDBRANCH   8  10
ENDBRANCH   5   8
BRANCH   6  18
HETATM   18  C   UNL     1     -12.108  13.695  69.167  1.00  0.00    -0.361 C  
HETATM   19  O   UNL     1     -13.393  14.460  71.036  1.00  0.00    -0.361 OA 
HETATM   20  C   UNL     1     -12.337  14.514  70.417  1.00  0.00    -0.338 C  
HETATM   21  O   UNL     1     -11.330  15.306  70.843  1.00  0.00    -0.301 OA 
ENDBRANCH   6  18
TORSDOF 3
ENDMDL
MODEL      123
REMARK 921   NORMALIZED FREE ENERGY PREDICTED BY IDOCK:   -5.24 KCAL/MOL
REMARK 922        TOTAL FREE ENERGY PREDICTED BY IDOCK:   -6.38 KCAL/MOL
REMARK 923 INTER-LIGAND FREE ENERGY PREDICTED BY IDOCK:   -5.60 KCAL/MOL
REMARK 924 INTRA-LIGAND FREE ENERGY PREDICTED BY IDOCK:   -0.78 KCAL/MOL
REMARK 927      BINDING AFFINITY PREDICTED BY RF-SCORE:    0.00 PKD
ROOT
HETATM    1  C   UNL     1     -12.920  15.440  71.037  1.00  0.00    -0.556 C  
HETATM    2  C   UNL     1     -12.468  14.253  70.237  1.00  0.00    -0.422 A  
HETATM    3  C   UNL     1     -12.640  12.960  70.721  1.00  0.00    -0.314 A  
HETATM    4  C   UNL     1     -12.086  11.880  70.044  1.00  0.00    -0.366 A  
HETATM    5  C   UNL     1     -11.309  12.074  68.892  1.00  0.00    -0.278 A  
HETATM    6  C   UNL     1     -11.259  13.353  68.308  1.00  0.00    -0.310 A  
HETATM    7  C   UNL     1     -11.843  14.434  68.997  1.00  0.00    -0.358 A  
ENDROOT
BRANCH   5   8
HETATM    8  N   UNL     1     -10.494  11.033  68.383  1.00  0.00    -0.171 NA 
HETATM    9  H   UNL     1     -10.719  10.686  67.451  1.00  0.00     0.000 HD 
BRANCH   8  10
HETATM   10  C   UNL     1      -9.390  10.426  69.049  1.00  0.00    -0.194 A  
HETATM   11  F   UNL     1     -10.846   8.728  69.826  1.00  0.00    -0.230 F  
HETATM   12  C   UNL     1      -9.622   9.278  69.824  1.00  0.00    -0.190 A  
HETATM   13  C   UNL     1      -8.065  10.911  69.008  1.00  0.00    -0.126 A  
HETATM   14 CL   UNL     1      -7.543  12.126  67.887  1.00  0.00    -0.113 Cl 
HETATM   15  C   UNL     1      -7.073  10.366  69.836  1.00  0.00    -0.160 A  
HETATM   16  C   UNL     1      -8.627   8.705  70.616  1.00  0.00    -0.183 A  
HETATM   17  C   UNL     1      -7.360   9.275  70.653  1.00  0.00    -0.129 A  
ENDBRANCH   8  10
ENDBRANCH   5   8
BRANCH   6  18
HETATM   18  C   UNL     1     -10.570  13.616  66.985  1.00  0.00    -0.274 C  
HETATM   19  O   UNL     1     -10.754  13.407  64.607  1.00  0.00    -0.365 OA 
HETATM   20  C   UNL     1     -11.280  13.246  65.702  1.00  0.00    -0.285 C  
HETATM   21  O   UNL     1     -12.519  12.718  65.800  1.00  0.00    -0.579 OA 
ENDBRANCH   6  18
TORSDOF 3
ENDMDL
MODEL      124
REMARK 921   NORMALIZED FREE ENERGY PREDICTED BY IDOCK:   -5.20 KCAL/MOL
REMARK 922        TOTAL FREE ENERGY PREDICTED BY IDOCK:   -6.34 KCAL/MOL
REMARK 923 INTER-LIGAND FREE ENERGY PREDICTED BY IDOCK:   -5.74 KCAL/MOL
REMARK 924 INTRA-LIGAND FREE ENERGY PREDICTED BY IDOCK:   -0.60 KCAL/MOL
REMARK 927      BINDING AFFINITY PREDICTED BY RF-SCORE:    0.00 PKD
ROOT
HETATM    1  C   UNL     1      -7.753   6.624  66.162  1.00  0.00    -0.095 C  
HETATM    2  C   UNL     1      -8.162   7.746  67.072  1.00  0.00    -0.117 A  
HETATM    3  C   UNL     1      -7.395   8.077  68.185  1.00  0.00    -0.096 A  
HETATM    4  C   UNL     1      -7.859   9.015  69.100  1.00  0.00    -0.093 A  
HETATM    5  C   UNL     1      -9.120   9.610  68.945  1.00  0.00    -0.144 A  
HETATM    6  C   UNL     1      -9.832   9.404  67.749  1.00  0.00    -0.207 A  
HETATM    7  C   UNL     1      -9.339   8.464  66.823  1.00  0.00    -0.235 A  
ENDROOT
BRANCH   5   8
HETATM    8  N   UNL     1      -9.725  10.316  70.013  1.00  0.00    -0.405 NA 
HETATM    9  H   UNL     1      -9.256  11.164  70.330  1.00  0.00     0.000 HD 
BRANCH   8  10
HETATM   10  C   UNL     1     -10.928   9.953  70.688  1.00  0.00    -0.337 A  
HETATM   11  F   UNL     1     -11.863  12.034  70.053  1.00  0.00    -0.348 F  
HETATM   12  C   UNL     1     -11.979  10.884  70.734  1.00  0.00    -0.346 A  
HETATM   13  C   UNL     1     -11.137   8.721  71.344  1.00  0.00    -0.291 A  
HETATM   14 CL   UNL     1     -10.081   7.360  71.148  1.00  0.00    -0.187 Cl 
HETATM   15  C   UNL     1     -12.273   8.513  72.139  1.00  0.00    -0.446 A  
HETATM   16  C   UNL     1     -13.131  10.663  71.487  1.00  0.00    -0.527 A  
HETATM   17  C   UNL     1     -13.261   9.491  72.225  1.00  0.00    -0.507 A  
ENDBRANCH   8  10
ENDBRANCH   5   8
BRANCH   6  18
HETATM   18  C   UNL     1     -11.126  10.126  67.438  1.00  0.00    -0.219 C  
HETATM   19  O   UNL     1     -12.082  12.122  66.524  1.00  0.00    -0.627 OA 
HETATM   20  C   UNL     1     -11.067  11.480  66.767  1.00  0.00    -0.302 C  
HETATM   21  O   UNL     1      -9.850  11.971  66.450  1.00  0.00    -0.210 OA 
ENDBRANCH   6  18
TORSDOF 3
ENDMDL
MODEL      125
REMARK 921   NORMALIZED FREE ENERGY PREDICTED BY IDOCK:   -5.18 KCAL/MOL
REMARK 922        TOTAL FREE ENERGY PREDICTED BY IDOCK:   -6.31 KCAL/MOL
REMARK 923 INTER-LIGAND FREE ENERGY PREDICTED BY IDOCK:   -6.44 KCAL/MOL
REMARK 924 INTRA-LIGAND FREE ENERGY PREDICTED BY IDOCK:    0.13 KCAL/MOL
REMARK 927      BINDING AFFINITY PREDICTED BY RF-SCORE:    0.00 PKD
ROOT
HETATM    1  C   UNL     1     -10.532  18.291  67.115  1.00  0.00    -0.417 C  
HETATM    2  C   UNL     1     -10.713  16.801  67.128  1.00  0.00    -0.189 A  
HETATM    3  C   UNL     1     -10.274  16.020  66.064  1.00  0.00    -0.360 A  
HETATM    4  C   UNL     1     -10.579  14.664  66.020  1.00  0.00    -0.314 A  
HETATM    5  C   UNL     1     -11.367  14.070  67.016  1.00  0.00    -0.330 A  
HETATM    6  C   UNL     1     -11.683  14.809  68.170  1.00  0.00    -0.353 A  
HETATM    7  C   UNL     1     -11.350  16.177  68.209  1.00  0.00    -0.316 A  
ENDROOT
BRANCH   5   8
HETATM    8  N   UNL     1     -11.937  12.788  66.821  1.00  0.00    -0.466 NA 
HETATM    9  H   UNL     1     -12.943  12.750  66.660  1.00  0.00     0.000 HD 
BRANCH   8  10
HETATM   10  C   UNL     1     -11.238  11.545  66.829  1.00  0.00    -0.285 A  
HETATM   11  F   UNL     1     -10.477  12.007  64.635  1.00  0.00    -0.279 F  
HETATM   12  C   UNL     1     -10.549  11.155  65.669  1.00  0.00    -0.223 A  
HETATM   13  C   UNL     1     -11.204  10.653  67.922  1.00  0.00    -0.308 A  
HETATM   14 CL   UNL     1     -11.745  11.090  69.511  1.00  0.00    -0.363 Cl 
HETATM   15  C   UNL     1     -10.650   9.372  67.788  1.00  0.00    -0.317 A  
HETATM   16  C   UNL     1      -9.957   9.899  65.546  1.00  0.00    -0.363 A  
HETATM   17  C   UNL     1     -10.043   8.989  66.595  1.00  0.00    -0.355 A  
ENDBRANCH   8  10
ENDBRANCH   5   8
BRANCH   6  18
HETATM   18  C   UNL     1     -12.400  14.198  69.357  1.00  0.00    -0.246 C  
HETATM   19  O   UNL     1     -12.455  14.052  71.745  1.00  0.00    -0.313 OA 
HETATM   20  C   UNL     1     -11.933  14.544  70.752  1.00  0.00    -0.322 C  
HETATM   21  O   UNL     1     -10.906  15.412  70.874  1.00  0.00    -0.323 OA 
ENDBRANCH   6  18
TORSDOF 3
ENDMDL
MODEL      126
REMARK 921   NORMALIZED FREE ENERGY PREDICTED BY IDOCK:   -5.17 KCAL/MOL
REMARK 922        TOTAL FREE ENERGY PREDICTED BY IDOCK:   -6.31 KCAL/MOL
REMARK 923 INTER-LIGAND FREE ENERGY PREDICTED BY IDOCK:   -6.00 KCAL/MOL
REMARK 924 INTRA-LIGAND FREE ENERGY PREDICTED BY IDOCK:   -0.30 KCAL/MOL
REMARK 927      BINDING AFFINITY PREDICTED BY RF-SCORE:    0.00 PKD
ROOT
HETATM    1  C   UNL     1     -11.014  11.514  64.817  1.00  0.00    -0.338 C  
HETATM    2  C   UNL     1     -10.811  12.954  65.189  1.00  0.00    -0.320 A  
HETATM    3  C   UNL     1     -11.710  13.931  64.776  1.00  0.00    -0.399 A  
HETATM    4  C   UNL     1     -11.434  15.275  64.999  1.00  0.00    -0.300 A  
HETATM    5  C   UNL     1     -10.232  15.673  65.601  1.00  0.00    -0.375 A  
HETATM    6  C   UNL     1      -9.391  14.695  66.163  1.00  0.00    -0.265 A  
HETATM    7  C   UNL     1      -9.695  13.337  65.945  1.00  0.00    -0.188 A  
ENDROOT
BRANCH   5   8
HETATM    8  N   UNL     1      -9.807  17.023  65.550  1.00  0.00    -0.544 NA 
HETATM    9  H   UNL     1      -9.745  17.452  64.627  1.00  0.00     0.000 HD 
BRANCH   8  10
HETATM   10  C   UNL     1      -9.457  17.839  66.665  1.00  0.00    -0.292 A  
HETATM   11  F   UNL     1     -11.409  17.088  67.775  1.00  0.00    -0.249 F  
HETATM   12  C   UNL     1     -10.332  17.888  67.762  1.00  0.00    -0.387 A  
HETATM   13  C   UNL     1      -8.292  18.632  66.743  1.00  0.00    -0.281 A  
HETATM   14 CL   UNL     1      -6.973  18.477  65.628  1.00  0.00    -0.282 Cl 
HETATM   15  C   UNL     1      -8.111  19.546  67.791  1.00  0.00    -0.331 A  
HETATM   16  C   UNL     1     -10.134  18.764  68.830  1.00  0.00    -0.407 A  
HETATM   17  C   UNL     1      -9.042  19.624  68.824  1.00  0.00    -0.322 A  
ENDBRANCH   8  10
ENDBRANCH   5   8
BRANCH   6  18
HETATM   18  C   UNL     1      -8.153  15.048  66.961  1.00  0.00    -0.225 C  
HETATM   19  O   UNL     1      -7.287  15.433  69.159  1.00  0.00    -0.144 OA 
HETATM   20  C   UNL     1      -8.249  15.120  68.469  1.00  0.00    -0.148 C  
HETATM   21  O   UNL     1      -9.441  14.837  69.036  1.00  0.00    -0.208 OA 
ENDBRANCH   6  18
TORSDOF 3
ENDMDL
MODEL      127
REMARK 921   NORMALIZED FREE ENERGY PREDICTED BY IDOCK:   -5.17 KCAL/MOL
REMARK 922        TOTAL FREE ENERGY PREDICTED BY IDOCK:   -6.30 KCAL/MOL
REMARK 923 INTER-LIGAND FREE ENERGY PREDICTED BY IDOCK:   -5.80 KCAL/MOL
REMARK 924 INTRA-LIGAND FREE ENERGY PREDICTED BY IDOCK:   -0.50 KCAL/MOL
REMARK 927      BINDING AFFINITY PREDICTED BY RF-SCORE:    0.00 PKD
ROOT
HETATM    1  C   UNL     1     -12.146  14.123  69.011  1.00  0.00    -0.348 C  
HETATM    2  C   UNL     1     -11.678  12.713  68.798  1.00  0.00    -0.364 A  
HETATM    3  C   UNL     1     -11.437  12.228  67.516  1.00  0.00    -0.414 A  
HETATM    4  C   UNL     1     -11.149  10.882  67.320  1.00  0.00    -0.350 A  
HETATM    5  C   UNL     1     -11.139   9.984  68.397  1.00  0.00    -0.182 A  
HETATM    6  C   UNL     1     -11.225  10.486  69.708  1.00  0.00    -0.361 A  
HETATM    7  C   UNL     1     -11.498  11.855  69.891  1.00  0.00    -0.264 A  
ENDROOT
BRANCH   5   8
HETATM    8  N   UNL     1     -11.158   8.585  68.174  1.00  0.00    -0.366 NA 
HETATM    9  H   UNL     1     -11.925   8.218  67.612  1.00  0.00     0.000 HD 
BRANCH   8  10
HETATM   10  C   UNL     1     -10.207   7.641  68.662  1.00  0.00    -0.199 A  
HETATM   11  F   UNL     1     -11.997   6.314  69.462  1.00  0.00    -0.445 F  
HETATM   12  C   UNL     1     -10.675   6.520  69.366  1.00  0.00    -0.277 A  
HETATM   13  C   UNL     1      -8.809   7.762  68.510  1.00  0.00    -0.130 A  
HETATM   14 CL   UNL     1      -8.075   8.909  67.436  1.00  0.00    -0.108 Cl 
HETATM   15  C   UNL     1      -7.935   6.891  69.176  1.00  0.00    -0.119 A  
HETATM   16  C   UNL     1      -9.809   5.624  69.993  1.00  0.00    -0.247 A  
HETATM   17  C   UNL     1      -8.435   5.834  69.932  1.00  0.00    -0.123 A  
ENDBRANCH   8  10
ENDBRANCH   5   8
BRANCH   6  18
HETATM   18  C   UNL     1     -11.071   9.602  70.929  1.00  0.00    -0.422 C  
HETATM   19  O   UNL     1     -12.246   8.424  72.650  1.00  0.00    -0.380 OA 
HETATM   20  C   UNL     1     -12.313   9.112  71.639  1.00  0.00    -0.360 C  
HETATM   21  O   UNL     1     -13.511   9.469  71.128  1.00  0.00    -0.341 OA 
ENDBRANCH   6  18
TORSDOF 3
ENDMDL
MODEL      128
REMARK 921   NORMALIZED FREE ENERGY PREDICTED BY IDOCK:   -5.15 KCAL/MOL
REMARK 922        TOTAL FREE ENERGY PREDICTED BY IDOCK:   -6.28 KCAL/MOL
REMARK 923 INTER-LIGAND FREE ENERGY PREDICTED BY IDOCK:   -5.83 KCAL/MOL
REMARK 924 INTRA-LIGAND FREE ENERGY PREDICTED BY IDOCK:   -0.45 KCAL/MOL
REMARK 927      BINDING AFFINITY PREDICTED BY RF-SCORE:    0.00 PKD
ROOT
HETATM    1  C   UNL     1      -8.350  10.320  65.334  1.00  0.00    -0.164 C  
HETATM    2  C   UNL     1      -8.973   9.384  66.329  1.00  0.00    -0.189 A  
HETATM    3  C   UNL     1      -9.108   8.029  66.045  1.00  0.00    -0.193 A  
HETATM    4  C   UNL     1      -9.817   7.201  66.908  1.00  0.00    -0.271 A  
HETATM    5  C   UNL     1     -10.444   7.720  68.051  1.00  0.00    -0.185 A  
HETATM    6  C   UNL     1     -10.185   9.050  68.430  1.00  0.00    -0.232 A  
HETATM    7  C   UNL     1      -9.448   9.870  67.554  1.00  0.00    -0.173 A  
ENDROOT
BRANCH   5   8
HETATM    8  N   UNL     1     -11.413   6.962  68.753  1.00  0.00    -0.511 NA 
HETATM    9  H   UNL     1     -12.367   6.988  68.394  1.00  0.00     0.000 HD 
BRANCH   8  10
HETATM   10  C   UNL     1     -11.182   6.169  69.915  1.00  0.00    -0.414 A  
HETATM   11  F   UNL     1     -12.652   7.579  71.121  1.00  0.00    -0.336 F  
HETATM   12  C   UNL     1     -11.790   6.551  71.121  1.00  0.00    -0.325 A  
HETATM   13  C   UNL     1     -10.356   5.024  69.951  1.00  0.00    -0.228 A  
HETATM   14 CL   UNL     1      -9.765   4.246  68.519  1.00  0.00    -0.195 Cl 
HETATM   15  C   UNL     1     -10.033   4.408  71.168  1.00  0.00    -0.243 A  
HETATM   16  C   UNL     1     -11.507   5.913  72.329  1.00  0.00    -0.351 A  
HETATM   17  C   UNL     1     -10.595   4.863  72.359  1.00  0.00    -0.263 A  
ENDBRANCH   8  10
ENDBRANCH   5   8
BRANCH   6  18
HETATM   18  C   UNL     1     -10.700   9.641  69.726  1.00  0.00    -0.269 C  
HETATM   19  O   UNL     1     -12.179  11.260  70.685  1.00  0.00    -0.349 OA 
HETATM   20  C   UNL     1     -11.753  10.724  69.669  1.00  0.00    -0.323 C  
HETATM   21  O   UNL     1     -12.208  11.096  68.453  1.00  0.00    -0.610 OA 
ENDBRANCH   6  18
TORSDOF 3
ENDMDL
MODEL      129
REMARK 921   NORMALIZED FREE ENERGY PREDICTED BY IDOCK:   -5.13 KCAL/MOL
REMARK 922        TOTAL FREE ENERGY PREDICTED BY IDOCK:   -6.26 KCAL/MOL
REMARK 923 INTER-LIGAND FREE ENERGY PREDICTED BY IDOCK:   -5.55 KCAL/MOL
REMARK 924 INTRA-LIGAND FREE ENERGY PREDICTED BY IDOCK:   -0.71 KCAL/MOL
REMARK 927      BINDING AFFINITY PREDICTED BY RF-SCORE:    0.00 PKD
ROOT
HETATM    1  C   UNL     1      -8.904  19.773  66.645  1.00  0.00    -0.418 C  
HETATM    2  C   UNL     1      -9.185  18.306  66.489  1.00  0.00    -0.298 A  
HETATM    3  C   UNL     1     -10.406  17.864  65.991  1.00  0.00    -0.318 A  
HETATM    4  C   UNL     1     -10.711  16.507  65.990  1.00  0.00    -0.180 A  
HETATM    5  C   UNL     1      -9.818  15.568  66.528  1.00  0.00    -0.264 A  
HETATM    6  C   UNL     1      -8.523  15.983  66.888  1.00  0.00    -0.275 A  
HETATM    7  C   UNL     1      -8.223  17.359  66.865  1.00  0.00    -0.258 A  
ENDROOT
BRANCH   5   8
HETATM    8  N   UNL     1     -10.241  14.247  66.814  1.00  0.00    -0.268 NA 
HETATM    9  H   UNL     1     -10.406  14.019  67.794  1.00  0.00     0.000 HD 
BRANCH   8  10
HETATM   10  C   UNL     1     -10.457  13.207  65.863  1.00  0.00    -0.280 A  
HETATM   11  F   UNL     1      -8.428  12.205  66.561  1.00  0.00    -0.184 F  
HETATM   12  C   UNL     1      -9.477  12.211  65.725  1.00  0.00    -0.147 A  
HETATM   13  C   UNL     1     -11.586  13.114  65.021  1.00  0.00    -0.325 A  
HETATM   14 CL   UNL     1     -13.011  14.075  65.250  1.00  0.00    -0.422 Cl 
HETATM   15  C   UNL     1     -11.637  12.168  63.988  1.00  0.00    -0.504 A  
HETATM   16  C   UNL     1      -9.545  11.239  64.726  1.00  0.00    -0.269 A  
HETATM   17  C   UNL     1     -10.608  11.242  63.830  1.00  0.00    -0.455 A  
ENDBRANCH   8  10
ENDBRANCH   5   8
BRANCH   6  18
HETATM   18  C   UNL     1      -7.452  15.009  67.334  1.00  0.00    -0.234 C  
HETATM   19  O   UNL     1      -6.371  14.025  69.229  1.00  0.00    -0.098 OA 
HETATM   20  C   UNL     1      -7.245  14.776  68.813  1.00  0.00    -0.125 C  
HETATM   21  O   UNL     1      -8.052  15.434  69.672  1.00  0.00    -0.230 OA 
ENDBRANCH   6  18
TORSDOF 3
ENDMDL
MODEL      130
REMARK 921   NORMALIZED FREE ENERGY PREDICTED BY IDOCK:   -5.13 KCAL/MOL
REMARK 922        TOTAL FREE ENERGY PREDICTED BY IDOCK:   -6.26 KCAL/MOL
REMARK 923 INTER-LIGAND FREE ENERGY PREDICTED BY IDOCK:   -6.03 KCAL/MOL
REMARK 924 INTRA-LIGAND FREE ENERGY PREDICTED BY IDOCK:   -0.23 KCAL/MOL
REMARK 927      BINDING AFFINITY PREDICTED BY RF-SCORE:    0.00 PKD
ROOT
HETATM    1  C   UNL     1      -9.628  10.458  63.828  1.00  0.00    -0.366 C  
HETATM    2  C   UNL     1      -9.955  10.380  65.291  1.00  0.00    -0.376 A  
HETATM    3  C   UNL     1     -10.161   9.152  65.910  1.00  0.00    -0.118 A  
HETATM    4  C   UNL     1     -10.608   9.099  67.226  1.00  0.00    -0.303 A  
HETATM    5  C   UNL     1     -10.901  10.273  67.935  1.00  0.00    -0.284 A  
HETATM    6  C   UNL     1     -10.549  11.515  67.376  1.00  0.00    -0.252 A  
HETATM    7  C   UNL     1     -10.080  11.551  66.049  1.00  0.00    -0.270 A  
ENDROOT
BRANCH   5   8
HETATM    8  N   UNL     1     -11.641  10.226  69.142  1.00  0.00    -0.466 NA 
HETATM    9  H   UNL     1     -12.526  10.731  69.159  1.00  0.00     0.000 HD 
BRANCH   8  10
HETATM   10  C   UNL     1     -11.266   9.539  70.334  1.00  0.00    -0.270 A  
HETATM   11  F   UNL     1      -9.021  10.190  69.952  1.00  0.00    -0.210 F  
HETATM   12  C   UNL     1      -9.907   9.496  70.684  1.00  0.00    -0.262 A  
HETATM   13  C   UNL     1     -12.167   8.869  71.189  1.00  0.00    -0.255 A  
HETATM   14 CL   UNL     1     -13.887   9.058  71.076  1.00  0.00    -0.138 Cl 
HETATM   15  C   UNL     1     -11.701   8.064  72.238  1.00  0.00    -0.428 A  
HETATM   16  C   UNL     1      -9.441   8.733  71.754  1.00  0.00    -0.363 A  
HETATM   17  C   UNL     1     -10.337   7.982  72.509  1.00  0.00    -0.374 A  
ENDBRANCH   8  10
ENDBRANCH   5   8
BRANCH   6  18
HETATM   18  C   UNL     1     -10.693  12.818  68.136  1.00  0.00    -0.243 C  
HETATM   19  O   UNL     1     -11.823  14.927  68.206  1.00  0.00    -0.324 OA 
HETATM   20  C   UNL     1     -11.691  13.844  67.649  1.00  0.00    -0.368 C  
HETATM   21  O   UNL     1     -12.432  13.534  66.564  1.00  0.00    -0.359 OA 
ENDBRANCH   6  18
TORSDOF 3
ENDMDL
MODEL      131
REMARK 921   NORMALIZED FREE ENERGY PREDICTED BY IDOCK:   -5.13 KCAL/MOL
REMARK 922        TOTAL FREE ENERGY PREDICTED BY IDOCK:   -6.26 KCAL/MOL
REMARK 923 INTER-LIGAND FREE ENERGY PREDICTED BY IDOCK:   -5.57 KCAL/MOL
REMARK 924 INTRA-LIGAND FREE ENERGY PREDICTED BY IDOCK:   -0.69 KCAL/MOL
REMARK 927      BINDING AFFINITY PREDICTED BY RF-SCORE:    0.00 PKD
ROOT
HETATM    1  C   UNL     1     -11.188  12.167  63.769  1.00  0.00    -0.509 C  
HETATM    2  C   UNL     1     -10.596  11.862  65.115  1.00  0.00    -0.333 A  
HETATM    3  C   UNL     1     -10.565  10.559  65.600  1.00  0.00    -0.132 A  
HETATM    4  C   UNL     1     -10.152  10.308  66.904  1.00  0.00    -0.274 A  
HETATM    5  C   UNL     1      -9.804  11.360  67.764  1.00  0.00    -0.175 A  
HETATM    6  C   UNL     1      -9.680  12.660  67.240  1.00  0.00    -0.207 A  
HETATM    7  C   UNL     1     -10.085  12.894  65.912  1.00  0.00    -0.295 A  
ENDROOT
BRANCH   5   8
HETATM    8  N   UNL     1      -9.687  11.147  69.159  1.00  0.00    -0.407 NA 
HETATM    9  H   UNL     1      -9.025  11.737  69.661  1.00  0.00     0.000 HD 
BRANCH   8  10
HETATM   10  C   UNL     1     -10.408  10.186  69.928  1.00  0.00    -0.261 A  
HETATM   11  F   UNL     1      -8.749   8.581  69.401  1.00  0.00    -0.129 F  
HETATM   12  C   UNL     1      -9.925   8.869  69.980  1.00  0.00    -0.190 A  
HETATM   13  C   UNL     1     -11.601  10.457  70.631  1.00  0.00    -0.349 A  
HETATM   14 CL   UNL     1     -12.181  12.066  70.917  1.00  0.00    -0.408 Cl 
HETATM   15  C   UNL     1     -12.347   9.419  71.210  1.00  0.00    -0.422 A  
HETATM   16  C   UNL     1     -10.640   7.841  70.593  1.00  0.00    -0.222 A  
HETATM   17  C   UNL     1     -11.875   8.109  71.174  1.00  0.00    -0.303 A  
ENDBRANCH   8  10
ENDBRANCH   5   8
BRANCH   6  18
HETATM   18  C   UNL     1      -9.165  13.822  68.063  1.00  0.00    -0.195 C  
HETATM   19  O   UNL     1      -9.797  15.723  69.373  1.00  0.00    -0.251 OA 
HETATM   20  C   UNL     1     -10.160  14.749  68.725  1.00  0.00    -0.237 C  
HETATM   21  O   UNL     1     -11.473  14.476  68.570  1.00  0.00    -0.271 OA 
ENDBRANCH   6  18
TORSDOF 3
ENDMDL
MODEL      132
REMARK 921   NORMALIZED FREE ENERGY PREDICTED BY IDOCK:   -5.11 KCAL/MOL
REMARK 922        TOTAL FREE ENERGY PREDICTED BY IDOCK:   -6.24 KCAL/MOL
REMARK 923 INTER-LIGAND FREE ENERGY PREDICTED BY IDOCK:   -5.43 KCAL/MOL
REMARK 924 INTRA-LIGAND FREE ENERGY PREDICTED BY IDOCK:   -0.80 KCAL/MOL
REMARK 927      BINDING AFFINITY PREDICTED BY RF-SCORE:    0.00 PKD
ROOT
HETATM    1  C   UNL     1     -10.626  12.607  64.438  1.00  0.00    -0.388 C  
HETATM    2  C   UNL     1     -10.382  13.750  65.380  1.00  0.00    -0.347 A  
HETATM    3  C   UNL     1     -10.804  15.037  65.063  1.00  0.00    -0.439 A  
HETATM    4  C   UNL     1     -10.443  16.110  65.871  1.00  0.00    -0.366 A  
HETATM    5  C   UNL     1      -9.615  15.924  66.988  1.00  0.00    -0.223 A  
HETATM    6  C   UNL     1      -9.314  14.615  67.406  1.00  0.00    -0.196 A  
HETATM    7  C   UNL     1      -9.703  13.538  66.587  1.00  0.00    -0.281 A  
ENDROOT
BRANCH   5   8
HETATM    8  N   UNL     1      -8.995  17.028  67.623  1.00  0.00    -0.219 NA 
HETATM    9  H   UNL     1      -8.989  17.030  68.642  1.00  0.00     0.000 HD 
BRANCH   8  10
HETATM   10  C   UNL     1      -8.379  18.137  66.972  1.00  0.00    -0.240 A  
HETATM   11  F   UNL     1      -6.671  16.686  66.208  1.00  0.00    -0.226 F  
HETATM   12  C   UNL     1      -7.160  17.932  66.305  1.00  0.00    -0.286 A  
HETATM   13  C   UNL     1      -8.896  19.451  66.966  1.00  0.00    -0.300 A  
HETATM   14 CL   UNL     1     -10.509  19.828  67.479  1.00  0.00    -0.566 Cl 
HETATM   15  C   UNL     1      -8.141  20.519  66.463  1.00  0.00    -0.121 A  
HETATM   16  C   UNL     1      -6.425  18.986  65.763  1.00  0.00    -0.280 A  
HETATM   17  C   UNL     1      -6.898  20.289  65.878  1.00  0.00    -0.281 A  
ENDBRANCH   8  10
ENDBRANCH   5   8
BRANCH   6  18
HETATM   18  C   UNL     1      -8.554  14.325  68.684  1.00  0.00    -0.149 C  
HETATM   19  O   UNL     1      -6.442  13.662  69.596  1.00  0.00    -0.118 OA 
HETATM   20  C   UNL     1      -7.094  13.940  68.597  1.00  0.00    -0.110 C  
HETATM   21  O   UNL     1      -6.527  13.900  67.372  1.00  0.00    -0.299 OA 
ENDBRANCH   6  18
TORSDOF 3
ENDMDL
MODEL      133
REMARK 921   NORMALIZED FREE ENERGY PREDICTED BY IDOCK:   -5.09 KCAL/MOL
REMARK 922        TOTAL FREE ENERGY PREDICTED BY IDOCK:   -6.21 KCAL/MOL
REMARK 923 INTER-LIGAND FREE ENERGY PREDICTED BY IDOCK:   -5.49 KCAL/MOL
REMARK 924 INTRA-LIGAND FREE ENERGY PREDICTED BY IDOCK:   -0.73 KCAL/MOL
REMARK 927      BINDING AFFINITY PREDICTED BY RF-SCORE:    0.00 PKD
ROOT
HETATM    1  C   UNL     1      -7.854   7.231  68.916  1.00  0.00    -0.118 C  
HETATM    2  C   UNL     1      -8.333   8.342  68.027  1.00  0.00    -0.128 A  
HETATM    3  C   UNL     1      -8.202   8.256  66.645  1.00  0.00    -0.106 A  
HETATM    4  C   UNL     1      -8.511   9.349  65.844  1.00  0.00    -0.135 A  
HETATM    5  C   UNL     1      -8.917  10.566  66.411  1.00  0.00    -0.159 A  
HETATM    6  C   UNL     1      -9.204  10.618  67.787  1.00  0.00    -0.151 A  
HETATM    7  C   UNL     1      -8.903   9.495  68.583  1.00  0.00    -0.132 A  
ENDROOT
BRANCH   5   8
HETATM    8  N   UNL     1      -8.931  11.756  65.642  1.00  0.00    -0.407 NA 
HETATM    9  H   UNL     1      -8.067  12.296  65.614  1.00  0.00     0.000 HD 
BRANCH   8  10
HETATM   10  C   UNL     1     -10.038  12.269  64.904  1.00  0.00    -0.250 A  
HETATM   11  F   UNL     1     -10.095  14.131  66.367  1.00  0.00    -0.262 F  
HETATM   12  C   UNL     1     -10.642  13.459  65.342  1.00  0.00    -0.303 A  
HETATM   13  C   UNL     1     -10.596  11.651  63.765  1.00  0.00    -0.416 A  
HETATM   14 CL   UNL     1      -9.815  10.353  62.921  1.00  0.00    -0.266 Cl 
HETATM   15  C   UNL     1     -11.795  12.119  63.208  1.00  0.00    -0.466 A  
HETATM   16  C   UNL     1     -11.810  13.954  64.762  1.00  0.00    -0.414 A  
HETATM   17  C   UNL     1     -12.410  13.259  63.718  1.00  0.00    -0.440 A  
ENDBRANCH   8  10
ENDBRANCH   5   8
BRANCH   6  18
HETATM   18  C   UNL     1      -9.789  11.847  68.450  1.00  0.00    -0.201 C  
HETATM   19  O   UNL     1     -11.815  12.927  69.127  1.00  0.00    -0.296 OA 
HETATM   20  C   UNL     1     -11.288  11.941  68.628  1.00  0.00    -0.276 C  
HETATM   21  O   UNL     1     -12.036  10.899  68.206  1.00  0.00    -0.562 OA 
ENDBRANCH   6  18
TORSDOF 3
ENDMDL
MODEL      134
REMARK 921   NORMALIZED FREE ENERGY PREDICTED BY IDOCK:   -5.08 KCAL/MOL
REMARK 922        TOTAL FREE ENERGY PREDICTED BY IDOCK:   -6.19 KCAL/MOL
REMARK 923 INTER-LIGAND FREE ENERGY PREDICTED BY IDOCK:   -5.73 KCAL/MOL
REMARK 924 INTRA-LIGAND FREE ENERGY PREDICTED BY IDOCK:   -0.47 KCAL/MOL
REMARK 927      BINDING AFFINITY PREDICTED BY RF-SCORE:    0.00 PKD
ROOT
HETATM    1  C   UNL     1      -6.437  12.429  67.439  1.00  0.00    -0.154 C  
HETATM    2  C   UNL     1      -7.705  11.878  68.023  1.00  0.00    -0.132 A  
HETATM    3  C   UNL     1      -7.668  10.911  69.022  1.00  0.00    -0.135 A  
HETATM    4  C   UNL     1      -8.842  10.301  69.449  1.00  0.00    -0.177 A  
HETATM    5  C   UNL     1     -10.073  10.614  68.855  1.00  0.00    -0.202 A  
HETATM    6  C   UNL     1     -10.146  11.697  67.960  1.00  0.00    -0.198 A  
HETATM    7  C   UNL     1      -8.949  12.317  67.551  1.00  0.00    -0.180 A  
ENDROOT
BRANCH   5   8
HETATM    8  N   UNL     1     -11.207   9.790  69.059  1.00  0.00    -0.436 NA 
HETATM    9  H   UNL     1     -11.967   9.877  68.384  1.00  0.00     0.000 HD 
BRANCH   8  10
HETATM   10  C   UNL     1     -11.388   8.852  70.117  1.00  0.00    -0.106 A  
HETATM   11  F   UNL     1     -12.125  10.623  71.506  1.00  0.00    -0.426 F  
HETATM   12  C   UNL     1     -11.805   9.327  71.371  1.00  0.00    -0.358 A  
HETATM   13  C   UNL     1     -11.152   7.465  70.006  1.00  0.00    -0.220 A  
HETATM   14 CL   UNL     1     -10.918   6.670  68.483  1.00  0.00    -0.315 Cl 
HETATM   15  C   UNL     1     -11.175   6.638  71.138  1.00  0.00    -0.340 A  
HETATM   16  C   UNL     1     -11.872   8.499  72.492  1.00  0.00    -0.398 A  
HETATM   17  C   UNL     1     -11.517   7.159  72.384  1.00  0.00    -0.303 A  
ENDBRANCH   8  10
ENDBRANCH   5   8
BRANCH   6  18
HETATM   18  C   UNL     1     -11.458  12.196  67.391  1.00  0.00    -0.415 C  
HETATM   19  O   UNL     1     -12.700  12.574  65.380  1.00  0.00    -0.624 OA 
HETATM   20  C   UNL     1     -11.671  12.152  65.895  1.00  0.00    -0.328 C  
HETATM   21  O   UNL     1     -10.681  11.640  65.133  1.00  0.00    -0.282 OA 
ENDBRANCH   6  18
TORSDOF 3
ENDMDL
MODEL      135
REMARK 921   NORMALIZED FREE ENERGY PREDICTED BY IDOCK:   -5.06 KCAL/MOL
REMARK 922        TOTAL FREE ENERGY PREDICTED BY IDOCK:   -6.18 KCAL/MOL
REMARK 923 INTER-LIGAND FREE ENERGY PREDICTED BY IDOCK:   -5.30 KCAL/MOL
REMARK 924 INTRA-LIGAND FREE ENERGY PREDICTED BY IDOCK:   -0.88 KCAL/MOL
REMARK 927      BINDING AFFINITY PREDICTED BY RF-SCORE:    0.00 PKD
ROOT
HETATM    1  C   UNL     1     -12.626  14.762  72.380  1.00  0.00    -0.421 C  
HETATM    2  C   UNL     1     -12.090  14.806  70.978  1.00  0.00    -0.391 A  
HETATM    3  C   UNL     1     -12.633  14.002  69.982  1.00  0.00    -0.250 A  
HETATM    4  C   UNL     1     -12.035  13.941  68.728  1.00  0.00    -0.393 A  
HETATM    5  C   UNL     1     -10.854  14.649  68.459  1.00  0.00    -0.250 A  
HETATM    6  C   UNL     1     -10.386  15.583  69.401  1.00  0.00    -0.258 A  
HETATM    7  C   UNL     1     -11.015  15.647  70.659  1.00  0.00    -0.364 A  
ENDROOT
BRANCH   5   8
HETATM    8  N   UNL     1     -10.078  14.354  67.311  1.00  0.00    -0.250 NA 
HETATM    9  H   UNL     1      -9.915  15.118  66.657  1.00  0.00     0.000 HD 
BRANCH   8  10
HETATM   10  C   UNL     1      -9.502  13.091  66.986  1.00  0.00    -0.237 A  
HETATM   11  F   UNL     1     -11.171  12.805  65.330  1.00  0.00    -0.302 F  
HETATM   12  C   UNL     1     -10.125  12.303  66.004  1.00  0.00    -0.248 A  
HETATM   13  C   UNL     1      -8.351  12.553  67.600  1.00  0.00    -0.172 A  
HETATM   14 CL   UNL     1      -7.299  13.492  68.609  1.00  0.00    -0.112 Cl 
HETATM   15  C   UNL     1      -7.957  11.230  67.356  1.00  0.00    -0.132 A  
HETATM   16  C   UNL     1      -9.709  11.001  65.725  1.00  0.00    -0.268 A  
HETATM   17  C   UNL     1      -8.647  10.449  66.432  1.00  0.00    -0.137 A  
ENDBRANCH   8  10
ENDBRANCH   5   8
BRANCH   6  18
HETATM   18  C   UNL     1      -9.209  16.495  69.126  1.00  0.00    -0.197 C  
HETATM   19  O   UNL     1      -8.542  18.610  68.224  1.00  0.00    -0.302 OA 
HETATM   20  C   UNL     1      -9.461  17.848  68.498  1.00  0.00    -0.313 C  
HETATM   21  O   UNL     1     -10.741  18.190  68.236  1.00  0.00    -0.303 OA 
ENDBRANCH   6  18
TORSDOF 3
ENDMDL
MODEL      136
REMARK 921   NORMALIZED FREE ENERGY PREDICTED BY IDOCK:   -5.06 KCAL/MOL
REMARK 922        TOTAL FREE ENERGY PREDICTED BY IDOCK:   -6.17 KCAL/MOL
REMARK 923 INTER-LIGAND FREE ENERGY PREDICTED BY IDOCK:   -6.31 KCAL/MOL
REMARK 924 INTRA-LIGAND FREE ENERGY PREDICTED BY IDOCK:    0.14 KCAL/MOL
REMARK 927      BINDING AFFINITY PREDICTED BY RF-SCORE:    0.00 PKD
ROOT
HETATM    1  C   UNL     1     -10.760  13.669  67.254  1.00  0.00    -0.283 C  
HETATM    2  C   UNL     1     -10.952  12.501  68.177  1.00  0.00    -0.260 A  
HETATM    3  C   UNL     1     -10.344  11.278  67.913  1.00  0.00    -0.205 A  
HETATM    4  C   UNL     1     -10.646  10.165  68.690  1.00  0.00    -0.236 A  
HETATM    5  C   UNL     1     -11.597  10.241  69.718  1.00  0.00    -0.227 A  
HETATM    6  C   UNL     1     -12.099  11.500  70.094  1.00  0.00    -0.432 A  
HETATM    7  C   UNL     1     -11.768  12.622  69.309  1.00  0.00    -0.379 A  
ENDROOT
BRANCH   5   8
HETATM    8  N   UNL     1     -12.135   9.065  70.297  1.00  0.00    -0.425 NA 
HETATM    9  H   UNL     1     -13.145   8.941  70.233  1.00  0.00     0.000 HD 
BRANCH   8  10
HETATM   10  C   UNL     1     -11.399   8.040  70.960  1.00  0.00    -0.273 A  
HETATM   11  F   UNL     1     -12.117   8.925  73.036  1.00  0.00    -0.239 F  
HETATM   12  C   UNL     1     -11.368   8.037  72.364  1.00  0.00    -0.382 A  
HETATM   13  C   UNL     1     -10.667   7.027  70.304  1.00  0.00    -0.241 A  
HETATM   14 CL   UNL     1     -10.823   6.704  68.607  1.00  0.00    -0.301 Cl 
HETATM   15  C   UNL     1      -9.822   6.170  71.021  1.00  0.00    -0.213 A  
HETATM   16  C   UNL     1     -10.563   7.156  73.086  1.00  0.00    -0.377 A  
HETATM   17  C   UNL     1      -9.756   6.246  72.411  1.00  0.00    -0.162 A  
ENDBRANCH   8  10
ENDBRANCH   5   8
BRANCH   6  18
HETATM   18  C   UNL     1     -13.012  11.688  71.288  1.00  0.00    -0.368 C  
HETATM   19  O   UNL     1     -13.765  13.239  72.949  1.00  0.00    -0.580 OA 
HETATM   20  C   UNL     1     -13.070  13.042  71.960  1.00  0.00    -0.379 C  
HETATM   21  O   UNL     1     -12.316  14.034  71.440  1.00  0.00    -0.350 OA 
ENDBRANCH   6  18
TORSDOF 3
ENDMDL
MODEL      137
REMARK 921   NORMALIZED FREE ENERGY PREDICTED BY IDOCK:   -5.04 KCAL/MOL
REMARK 922        TOTAL FREE ENERGY PREDICTED BY IDOCK:   -6.15 KCAL/MOL
REMARK 923 INTER-LIGAND FREE ENERGY PREDICTED BY IDOCK:   -5.38 KCAL/MOL
REMARK 924 INTRA-LIGAND FREE ENERGY PREDICTED BY IDOCK:   -0.77 KCAL/MOL
REMARK 927      BINDING AFFINITY PREDICTED BY RF-SCORE:    0.00 PKD
ROOT
HETATM    1  C   UNL     1     -10.168  10.642  64.045  1.00  0.00    -0.334 C  
HETATM    2  C   UNL     1     -10.010  10.686  65.538  1.00  0.00    -0.333 A  
HETATM    3  C   UNL     1     -10.241   9.553  66.311  1.00  0.00    -0.290 A  
HETATM    4  C   UNL     1     -10.237   9.642  67.699  1.00  0.00    -0.267 A  
HETATM    5  C   UNL     1     -10.044  10.874  68.341  1.00  0.00    -0.183 A  
HETATM    6  C   UNL     1      -9.655  11.990  67.579  1.00  0.00    -0.177 A  
HETATM    7  C   UNL     1      -9.646  11.879  66.175  1.00  0.00    -0.250 A  
ENDROOT
BRANCH   5   8
HETATM    8  N   UNL     1     -10.345  11.029  69.717  1.00  0.00    -0.433 NA 
HETATM    9  H   UNL     1     -10.382  11.983  70.075  1.00  0.00     0.000 HD 
BRANCH   8  10
HETATM   10  C   UNL     1     -10.600   9.980  70.647  1.00  0.00    -0.202 A  
HETATM   11  F   UNL     1     -12.919  10.408  70.429  1.00  0.00    -0.388 F  
HETATM   12  C   UNL     1     -11.928   9.730  71.029  1.00  0.00    -0.352 A  
HETATM   13  C   UNL     1      -9.604   9.176  71.241  1.00  0.00    -0.261 A  
HETATM   14 CL   UNL     1      -7.963   9.145  70.680  1.00  0.00    -0.155 Cl 
HETATM   15  C   UNL     1      -9.918   8.291  72.282  1.00  0.00    -0.366 A  
HETATM   16  C   UNL     1     -12.252   8.818  72.034  1.00  0.00    -0.447 A  
HETATM   17  C   UNL     1     -11.240   8.126  72.690  1.00  0.00    -0.447 A  
ENDBRANCH   8  10
ENDBRANCH   5   8
BRANCH   6  18
HETATM   18  C   UNL     1      -9.281  13.316  68.209  1.00  0.00    -0.197 C  
HETATM   19  O   UNL     1      -7.502  14.585  69.185  1.00  0.00    -0.130 OA 
HETATM   20  C   UNL     1      -7.850  13.545  68.639  1.00  0.00    -0.084 C  
HETATM   21  O   UNL     1      -6.960  12.555  68.413  1.00  0.00    -0.081 OA 
ENDBRANCH   6  18
TORSDOF 3
ENDMDL
MODEL      138
REMARK 921   NORMALIZED FREE ENERGY PREDICTED BY IDOCK:   -5.02 KCAL/MOL
REMARK 922        TOTAL FREE ENERGY PREDICTED BY IDOCK:   -6.13 KCAL/MOL
REMARK 923 INTER-LIGAND FREE ENERGY PREDICTED BY IDOCK:   -5.32 KCAL/MOL
REMARK 924 INTRA-LIGAND FREE ENERGY PREDICTED BY IDOCK:   -0.81 KCAL/MOL
REMARK 927      BINDING AFFINITY PREDICTED BY RF-SCORE:    0.00 PKD
ROOT
HETATM    1  C   UNL     1     -10.723   6.534  67.161  1.00  0.00    -0.438 C  
HETATM    2  C   UNL     1     -10.492   8.018  67.186  1.00  0.00    -0.408 A  
HETATM    3  C   UNL     1     -10.887   8.781  68.280  1.00  0.00    -0.025 A  
HETATM    4  C   UNL     1     -10.804  10.168  68.230  1.00  0.00    -0.297 A  
HETATM    5  C   UNL     1     -10.365  10.823  67.069  1.00  0.00    -0.228 A  
HETATM    6  C   UNL     1      -9.817  10.062  66.020  1.00  0.00    -0.321 A  
HETATM    7  C   UNL     1      -9.892   8.657  66.094  1.00  0.00    -0.269 A  
ENDROOT
BRANCH   5   8
HETATM    8  N   UNL     1     -10.571  12.214  66.899  1.00  0.00    -0.225 NA 
HETATM    9  H   UNL     1     -11.104  12.504  66.080  1.00  0.00     0.000 HD 
BRANCH   8  10
HETATM   10  C   UNL     1     -10.103  13.246  67.764  1.00  0.00    -0.229 A  
HETATM   11  F   UNL     1     -12.335  13.613  68.466  1.00  0.00    -0.389 F  
HETATM   12  C   UNL     1     -11.044  13.977  68.507  1.00  0.00    -0.257 A  
HETATM   13  C   UNL     1      -8.748  13.612  67.915  1.00  0.00    -0.184 A  
HETATM   14 CL   UNL     1      -7.441  12.646  67.310  1.00  0.00    -0.138 Cl 
HETATM   15  C   UNL     1      -8.387  14.755  68.641  1.00  0.00    -0.165 A  
HETATM   16  C   UNL     1     -10.685  15.089  69.268  1.00  0.00    -0.250 A  
HETATM   17  C   UNL     1      -9.358  15.504  69.303  1.00  0.00    -0.266 A  
ENDBRANCH   8  10
ENDBRANCH   5   8
BRANCH   6  18
HETATM   18  C   UNL     1      -9.185  10.697  64.799  1.00  0.00    -0.255 C  
HETATM   19  O   UNL     1      -9.622  11.833  62.738  1.00  0.00    -0.318 OA 
HETATM   20  C   UNL     1     -10.079  11.336  63.760  1.00  0.00    -0.361 C  
HETATM   21  O   UNL     1     -11.410  11.332  63.988  1.00  0.00    -0.297 OA 
ENDBRANCH   6  18
TORSDOF 3
ENDMDL
MODEL      139
REMARK 921   NORMALIZED FREE ENERGY PREDICTED BY IDOCK:   -5.01 KCAL/MOL
REMARK 922        TOTAL FREE ENERGY PREDICTED BY IDOCK:   -6.12 KCAL/MOL
REMARK 923 INTER-LIGAND FREE ENERGY PREDICTED BY IDOCK:   -6.34 KCAL/MOL
REMARK 924 INTRA-LIGAND FREE ENERGY PREDICTED BY IDOCK:    0.22 KCAL/MOL
REMARK 927      BINDING AFFINITY PREDICTED BY RF-SCORE:    0.00 PKD
ROOT
HETATM    1  C   UNL     1      -9.126   9.710  63.312  1.00  0.00    -0.223 C  
HETATM    2  C   UNL     1      -9.290  10.509  64.572  1.00  0.00    -0.299 A  
HETATM    3  C   UNL     1      -8.302  10.503  65.552  1.00  0.00    -0.170 A  
HETATM    4  C   UNL     1      -8.528  11.124  66.776  1.00  0.00    -0.153 A  
HETATM    5  C   UNL     1      -9.762  11.727  67.061  1.00  0.00    -0.185 A  
HETATM    6  C   UNL     1     -10.705  11.877  66.028  1.00  0.00    -0.326 A  
HETATM    7  C   UNL     1     -10.454  11.258  64.788  1.00  0.00    -0.384 A  
ENDROOT
BRANCH   5   8
HETATM    8  N   UNL     1     -10.107  12.079  68.389  1.00  0.00    -0.208 NA 
HETATM    9  H   UNL     1      -9.717  12.949  68.750  1.00  0.00     0.000 HD 
BRANCH   8  10
HETATM   10  C   UNL     1     -10.947  11.333  69.266  1.00  0.00    -0.243 A  
HETATM   11  F   UNL     1     -12.145  13.320  69.741  1.00  0.00    -0.337 F  
HETATM   12  C   UNL     1     -11.943  12.016  69.984  1.00  0.00    -0.324 A  
HETATM   13  C   UNL     1     -10.837   9.944  69.491  1.00  0.00    -0.246 A  
HETATM   14 CL   UNL     1      -9.874   8.903  68.494  1.00  0.00    -0.173 Cl 
HETATM   15  C   UNL     1     -11.577   9.319  70.505  1.00  0.00    -0.266 A  
HETATM   16  C   UNL     1     -12.714  11.389  70.962  1.00  0.00    -0.447 A  
HETATM   17  C   UNL     1     -12.502  10.045  71.252  1.00  0.00    -0.494 A  
ENDBRANCH   8  10
ENDBRANCH   5   8
BRANCH   6  18
HETATM   18  C   UNL     1     -11.996  12.647  66.212  1.00  0.00    -0.439 C  
HETATM   19  O   UNL     1     -13.493  14.223  65.208  1.00  0.00    -0.564 OA 
HETATM   20  C   UNL     1     -12.474  13.552  65.098  1.00  0.00    -0.451 C  
HETATM   21  O   UNL     1     -11.731  13.609  63.972  1.00  0.00    -0.403 OA 
ENDBRANCH   6  18
TORSDOF 3
ENDMDL
MODEL      140
REMARK 921   NORMALIZED FREE ENERGY PREDICTED BY IDOCK:   -5.01 KCAL/MOL
REMARK 922        TOTAL FREE ENERGY PREDICTED BY IDOCK:   -6.11 KCAL/MOL
REMARK 923 INTER-LIGAND FREE ENERGY PREDICTED BY IDOCK:   -5.29 KCAL/MOL
REMARK 924 INTRA-LIGAND FREE ENERGY PREDICTED BY IDOCK:   -0.82 KCAL/MOL
REMARK 927      BINDING AFFINITY PREDICTED BY RF-SCORE:    0.00 PKD
ROOT
HETATM    1  C   UNL     1     -13.332  10.895  71.727  1.00  0.00    -0.413 C  
HETATM    2  C   UNL     1     -12.206   9.923  71.525  1.00  0.00    -0.505 A  
HETATM    3  C   UNL     1     -11.095  10.269  70.764  1.00  0.00    -0.303 A  
HETATM    4  C   UNL     1     -10.130   9.315  70.461  1.00  0.00    -0.313 A  
HETATM    5  C   UNL     1     -10.279   7.983  70.876  1.00  0.00    -0.192 A  
HETATM    6  C   UNL     1     -11.312   7.658  71.774  1.00  0.00    -0.293 A  
HETATM    7  C   UNL     1     -12.270   8.641  72.087  1.00  0.00    -0.453 A  
ENDROOT
BRANCH   5   8
HETATM    8  N   UNL     1      -9.480   6.955  70.318  1.00  0.00    -0.163 NA 
HETATM    9  H   UNL     1      -8.909   6.413  70.965  1.00  0.00     0.000 HD 
BRANCH   8  10
HETATM   10  C   UNL     1      -9.398   6.608  68.937  1.00  0.00    -0.128 A  
HETATM   11  F   UNL     1     -11.689   6.012  68.994  1.00  0.00    -0.373 F  
HETATM   12  C   UNL     1     -10.536   6.075  68.310  1.00  0.00    -0.261 A  
HETATM   13  C   UNL     1      -8.236   6.739  68.147  1.00  0.00    -0.114 A  
HETATM   14 CL   UNL     1      -6.843   7.634  68.663  1.00  0.00    -0.064 Cl 
HETATM   15  C   UNL     1      -8.183   6.205  66.851  1.00  0.00    -0.106 A  
HETATM   16  C   UNL     1     -10.502   5.584  67.006  1.00  0.00    -0.336 A  
HETATM   17  C   UNL     1      -9.311   5.612  66.288  1.00  0.00    -0.169 A  
ENDBRANCH   8  10
ENDBRANCH   5   8
BRANCH   6  18
HETATM   18  C   UNL     1     -11.452   6.280  72.388  1.00  0.00    -0.335 C  
HETATM   19  O   UNL     1     -10.650   4.810  74.099  1.00  0.00    -0.263 OA 
HETATM   20  C   UNL     1     -10.600   5.921  73.585  1.00  0.00    -0.272 C  
HETATM   21  O   UNL     1      -9.767   6.867  74.069  1.00  0.00    -0.236 OA 
ENDBRANCH   6  18
TORSDOF 3
ENDMDL
MODEL      141
REMARK 921   NORMALIZED FREE ENERGY PREDICTED BY IDOCK:   -5.01 KCAL/MOL
REMARK 922        TOTAL FREE ENERGY PREDICTED BY IDOCK:   -6.11 KCAL/MOL
REMARK 923 INTER-LIGAND FREE ENERGY PREDICTED BY IDOCK:   -5.45 KCAL/MOL
REMARK 924 INTRA-LIGAND FREE ENERGY PREDICTED BY IDOCK:   -0.66 KCAL/MOL
REMARK 927      BINDING AFFINITY PREDICTED BY RF-SCORE:    0.00 PKD
ROOT
HETATM    1  C   UNL     1      -7.353   9.880  63.834  1.00  0.00    -0.131 C  
HETATM    2  C   UNL     1      -8.588  10.445  64.473  1.00  0.00    -0.187 A  
HETATM    3  C   UNL     1      -9.674  10.839  63.698  1.00  0.00    -0.376 A  
HETATM    4  C   UNL     1     -10.749  11.497  64.285  1.00  0.00    -0.416 A  
HETATM    5  C   UNL     1     -10.741  11.813  65.651  1.00  0.00    -0.280 A  
HETATM    6  C   UNL     1      -9.727  11.284  66.470  1.00  0.00    -0.230 A  
HETATM    7  C   UNL     1      -8.654  10.603  65.863  1.00  0.00    -0.177 A  
ENDROOT
BRANCH   5   8
HETATM    8  N   UNL     1     -11.668  12.741  66.186  1.00  0.00    -0.382 NA 
HETATM    9  H   UNL     1     -12.611  12.398  66.366  1.00  0.00     0.000 HD 
BRANCH   8  10
HETATM   10  C   UNL     1     -11.408  14.108  66.496  1.00  0.00    -0.341 A  
HETATM   11  F   UNL     1     -11.153  14.542  64.182  1.00  0.00    -0.262 F  
HETATM   12  C   UNL     1     -11.093  14.986  65.447  1.00  0.00    -0.374 A  
HETATM   13  C   UNL     1     -11.419  14.649  67.800  1.00  0.00    -0.340 A  
HETATM   14 CL   UNL     1     -12.061  13.797  69.167  1.00  0.00    -0.390 Cl 
HETATM   15  C   UNL     1     -10.973  15.957  68.040  1.00  0.00    -0.336 A  
HETATM   16  C   UNL     1     -10.691  16.302  65.677  1.00  0.00    -0.297 A  
HETATM   17  C   UNL     1     -10.592  16.776  66.981  1.00  0.00    -0.234 A  
ENDBRANCH   8  10
ENDBRANCH   5   8
BRANCH   6  18
HETATM   18  C   UNL     1      -9.728  11.451  67.976  1.00  0.00    -0.190 C  
HETATM   19  O   UNL     1     -10.626  10.624  70.035  1.00  0.00    -0.230 OA 
HETATM   20  C   UNL     1     -10.563  10.512  68.817  1.00  0.00    -0.207 C  
HETATM   21  O   UNL     1     -11.253   9.542  68.179  1.00  0.00    -0.073 OA 
ENDBRANCH   6  18
TORSDOF 3
ENDMDL
MODEL      142
REMARK 921   NORMALIZED FREE ENERGY PREDICTED BY IDOCK:   -5.00 KCAL/MOL
REMARK 922        TOTAL FREE ENERGY PREDICTED BY IDOCK:   -6.10 KCAL/MOL
REMARK 923 INTER-LIGAND FREE ENERGY PREDICTED BY IDOCK:   -5.42 KCAL/MOL
REMARK 924 INTRA-LIGAND FREE ENERGY PREDICTED BY IDOCK:   -0.68 KCAL/MOL
REMARK 927      BINDING AFFINITY PREDICTED BY RF-SCORE:    0.00 PKD
ROOT
HETATM    1  C   UNL     1     -12.626  11.988  63.515  1.00  0.00    -0.625 C  
HETATM    2  C   UNL     1     -11.824  12.104  64.778  1.00  0.00    -0.385 A  
HETATM    3  C   UNL     1     -10.689  11.323  64.976  1.00  0.00    -0.322 A  
HETATM    4  C   UNL     1     -10.042  11.331  66.207  1.00  0.00    -0.271 A  
HETATM    5  C   UNL     1     -10.541  12.085  67.279  1.00  0.00    -0.222 A  
HETATM    6  C   UNL     1     -11.589  12.995  67.046  1.00  0.00    -0.413 A  
HETATM    7  C   UNL     1     -12.222  12.989  65.789  1.00  0.00    -0.511 A  
ENDROOT
BRANCH   5   8
HETATM    8  N   UNL     1     -10.082  11.860  68.600  1.00  0.00    -0.312 NA 
HETATM    9  H   UNL     1     -10.417  12.499  69.319  1.00  0.00     0.000 HD 
BRANCH   8  10
HETATM   10  C   UNL     1      -9.195  10.825  69.018  1.00  0.00    -0.146 A  
HETATM   11  F   UNL     1      -7.367  12.203  68.410  1.00  0.00    -0.081 F  
HETATM   12  C   UNL     1      -7.813  11.017  68.852  1.00  0.00    -0.138 A  
HETATM   13  C   UNL     1      -9.606   9.594  69.573  1.00  0.00    -0.198 A  
HETATM   14 CL   UNL     1     -11.227   9.302  70.114  1.00  0.00    -0.258 Cl 
HETATM   15  C   UNL     1      -8.686   8.558  69.788  1.00  0.00    -0.132 A  
HETATM   16  C   UNL     1      -6.889  10.004  69.106  1.00  0.00    -0.056 A  
HETATM   17  C   UNL     1      -7.330   8.758  69.537  1.00  0.00    -0.067 A  
ENDBRANCH   8  10
ENDBRANCH   5   8
BRANCH   6  18
HETATM   18  C   UNL     1     -12.085  13.953  68.110  1.00  0.00    -0.317 C  
HETATM   19  O   UNL     1     -11.829  16.143  69.042  1.00  0.00    -0.327 OA 
HETATM   20  C   UNL     1     -11.489  15.341  68.181  1.00  0.00    -0.346 C  
HETATM   21  O   UNL     1     -10.553  15.670  67.265  1.00  0.00    -0.294 OA 
ENDBRANCH   6  18
TORSDOF 3
ENDMDL
MODEL      143
REMARK 921   NORMALIZED FREE ENERGY PREDICTED BY IDOCK:   -4.99 KCAL/MOL
REMARK 922        TOTAL FREE ENERGY PREDICTED BY IDOCK:   -6.09 KCAL/MOL
REMARK 923 INTER-LIGAND FREE ENERGY PREDICTED BY IDOCK:   -5.24 KCAL/MOL
REMARK 924 INTRA-LIGAND FREE ENERGY PREDICTED BY IDOCK:   -0.85 KCAL/MOL
REMARK 927      BINDING AFFINITY PREDICTED BY RF-SCORE:    0.00 PKD
ROOT
HETATM    1  C   UNL     1     -13.907   9.426  72.446  1.00  0.00    -0.422 C  
HETATM    2  C   UNL     1     -12.604   9.636  71.730  1.00  0.00    -0.497 A  
HETATM    3  C   UNL     1     -12.363  10.808  71.020  1.00  0.00    -0.509 A  
HETATM    4  C   UNL     1     -11.218  10.930  70.241  1.00  0.00    -0.271 A  
HETATM    5  C   UNL     1     -10.312   9.866  70.119  1.00  0.00    -0.282 A  
HETATM    6  C   UNL     1     -10.463   8.742  70.951  1.00  0.00    -0.278 A  
HETATM    7  C   UNL     1     -11.619   8.641  71.750  1.00  0.00    -0.403 A  
ENDROOT
BRANCH   5   8
HETATM    8  N   UNL     1      -9.328   9.865  69.101  1.00  0.00    -0.181 NA 
HETATM    9  H   UNL     1      -8.404   9.514  69.354  1.00  0.00     0.000 HD 
BRANCH   8  10
HETATM   10  C   UNL     1      -9.504  10.307  67.758  1.00  0.00    -0.148 A  
HETATM   11  F   UNL     1     -10.682   8.305  67.298  1.00  0.00    -0.343 F  
HETATM   12  C   UNL     1     -10.154   9.454  66.850  1.00  0.00    -0.248 A  
HETATM   13  C   UNL     1      -9.048  11.545  67.256  1.00  0.00    -0.164 A  
HETATM   14 CL   UNL     1      -8.493  12.828  68.281  1.00  0.00    -0.172 Cl 
HETATM   15  C   UNL     1      -9.098  11.827  65.883  1.00  0.00    -0.128 A  
HETATM   16  C   UNL     1     -10.246   9.750  65.491  1.00  0.00    -0.114 A  
HETATM   17  C   UNL     1      -9.680  10.922  64.999  1.00  0.00    -0.319 A  
ENDBRANCH   8  10
ENDBRANCH   5   8
BRANCH   6  18
HETATM   18  C   UNL     1      -9.447   7.618  70.991  1.00  0.00    -0.164 C  
HETATM   19  O   UNL     1      -7.474   6.803  72.075  1.00  0.00    -0.091 OA 
HETATM   20  C   UNL     1      -8.341   7.668  72.021  1.00  0.00    -0.110 C  
HETATM   21  O   UNL     1      -8.329   8.709  72.881  1.00  0.00    -0.400 OA 
ENDBRANCH   6  18
TORSDOF 3
ENDMDL
MODEL      144
REMARK 921   NORMALIZED FREE ENERGY PREDICTED BY IDOCK:   -4.99 KCAL/MOL
REMARK 922        TOTAL FREE ENERGY PREDICTED BY IDOCK:   -6.09 KCAL/MOL
REMARK 923 INTER-LIGAND FREE ENERGY PREDICTED BY IDOCK:   -5.56 KCAL/MOL
REMARK 924 INTRA-LIGAND FREE ENERGY PREDICTED BY IDOCK:   -0.53 KCAL/MOL
REMARK 927      BINDING AFFINITY PREDICTED BY RF-SCORE:    0.00 PKD
ROOT
HETATM    1  C   UNL     1      -9.567  18.119  66.544  1.00  0.00    -0.318 C  
HETATM    2  C   UNL     1     -10.013  16.919  67.327  1.00  0.00    -0.277 A  
HETATM    3  C   UNL     1      -9.479  16.650  68.584  1.00  0.00    -0.249 A  
HETATM    4  C   UNL     1      -9.788  15.461  69.234  1.00  0.00    -0.262 A  
HETATM    5  C   UNL     1     -10.601  14.495  68.623  1.00  0.00    -0.255 A  
HETATM    6  C   UNL     1     -11.269  14.820  67.429  1.00  0.00    -0.346 A  
HETATM    7  C   UNL     1     -10.961  16.037  66.791  1.00  0.00    -0.112 A  
ENDROOT
BRANCH   5   8
HETATM    8  N   UNL     1     -10.664  13.174  69.130  1.00  0.00    -0.436 NA 
HETATM    9  H   UNL     1     -11.206  13.033  69.982  1.00  0.00     0.000 HD 
BRANCH   8  10
HETATM   10  C   UNL     1     -10.042  12.023  68.563  1.00  0.00    -0.196 A  
HETATM   11  F   UNL     1     -12.123  10.899  68.664  1.00  0.00    -0.383 F  
HETATM   12  C   UNL     1     -10.810  10.860  68.393  1.00  0.00    -0.222 A  
HETATM   13  C   UNL     1      -8.686  11.955  68.176  1.00  0.00    -0.173 A  
HETATM   14 CL   UNL     1      -7.674  13.357  68.043  1.00  0.00    -0.131 Cl 
HETATM   15  C   UNL     1      -8.105  10.736  67.799  1.00  0.00    -0.111 A  
HETATM   16  C   UNL     1     -10.246   9.654  67.975  1.00  0.00    -0.235 A  
HETATM   17  C   UNL     1      -8.882   9.582  67.717  1.00  0.00    -0.119 A  
ENDBRANCH   8  10
ENDBRANCH   5   8
BRANCH   6  18
HETATM   18  C   UNL     1     -12.280  13.893  66.784  1.00  0.00    -0.438 C  
HETATM   19  O   UNL     1     -12.652  12.345  64.998  1.00  0.00    -0.601 OA 
HETATM   20  C   UNL     1     -11.865  13.083  65.577  1.00  0.00    -0.395 C  
HETATM   21  O   UNL     1     -10.592  13.207  65.144  1.00  0.00    -0.297 OA 
ENDBRANCH   6  18
TORSDOF 3
ENDMDL
MODEL      145
REMARK 921   NORMALIZED FREE ENERGY PREDICTED BY IDOCK:   -4.98 KCAL/MOL
REMARK 922        TOTAL FREE ENERGY PREDICTED BY IDOCK:   -6.08 KCAL/MOL
REMARK 923 INTER-LIGAND FREE ENERGY PREDICTED BY IDOCK:   -6.52 KCAL/MOL
REMARK 924 INTRA-LIGAND FREE ENERGY PREDICTED BY IDOCK:    0.44 KCAL/MOL
REMARK 927      BINDING AFFINITY PREDICTED BY RF-SCORE:    0.00 PKD
ROOT
HETATM    1  C   UNL     1     -10.671  11.794  64.054  1.00  0.00    -0.434 C  
HETATM    2  C   UNL     1     -10.774  13.194  64.585  1.00  0.00    -0.398 A  
HETATM    3  C   UNL     1     -11.951  13.923  64.450  1.00  0.00    -0.480 A  
HETATM    4  C   UNL     1     -11.988  15.265  64.811  1.00  0.00    -0.184 A  
HETATM    5  C   UNL     1     -10.836  15.918  65.275  1.00  0.00    -0.387 A  
HETATM    6  C   UNL     1      -9.688  15.158  65.564  1.00  0.00    -0.303 A  
HETATM    7  C   UNL     1      -9.673  13.795  65.209  1.00  0.00    -0.037 A  
ENDROOT
BRANCH   5   8
HETATM    8  N   UNL     1     -10.783  17.332  65.345  1.00  0.00    -0.573 NA 
HETATM    9  H   UNL     1     -10.911  17.841  64.472  1.00  0.00     0.000 HD 
BRANCH   8  10
HETATM   10  C   UNL     1     -10.567  18.109  66.521  1.00  0.00    -0.272 A  
HETATM   11  F   UNL     1     -10.151  19.993  65.149  1.00  0.00    -0.231 F  
HETATM   12  C   UNL     1     -10.189  19.454  66.377  1.00  0.00    -0.465 A  
HETATM   13  C   UNL     1     -10.682  17.616  67.839  1.00  0.00    -0.337 A  
HETATM   14 CL   UNL     1     -11.409  16.086  68.211  1.00  0.00    -0.350 Cl 
HETATM   15  C   UNL     1     -10.275  18.390  68.935  1.00  0.00    -0.284 A  
HETATM   16  C   UNL     1      -9.826  20.243  67.468  1.00  0.00    -0.576 A  
HETATM   17  C   UNL     1      -9.830  19.696  68.747  1.00  0.00    -0.519 A  
ENDBRANCH   8  10
ENDBRANCH   5   8
BRANCH   6  18
HETATM   18  C   UNL     1      -8.456  15.759  66.207  1.00  0.00    -0.245 C  
HETATM   19  O   UNL     1      -7.011  15.684  68.115  1.00  0.00    -0.109 OA 
HETATM   20  C   UNL     1      -7.982  15.213  67.535  1.00  0.00    -0.174 C  
HETATM   21  O   UNL     1      -8.673  14.186  68.075  1.00  0.00    -0.160 OA 
ENDBRANCH   6  18
TORSDOF 3
ENDMDL
MODEL      146
REMARK 921   NORMALIZED FREE ENERGY PREDICTED BY IDOCK:   -4.96 KCAL/MOL
REMARK 922        TOTAL FREE ENERGY PREDICTED BY IDOCK:   -6.06 KCAL/MOL
REMARK 923 INTER-LIGAND FREE ENERGY PREDICTED BY IDOCK:   -5.49 KCAL/MOL
REMARK 924 INTRA-LIGAND FREE ENERGY PREDICTED BY IDOCK:   -0.57 KCAL/MOL
REMARK 927      BINDING AFFINITY PREDICTED BY RF-SCORE:    0.00 PKD
ROOT
HETATM    1  C   UNL     1     -11.268   3.377  73.521  1.00  0.00    -0.280 C  
HETATM    2  C   UNL     1     -10.630   4.695  73.191  1.00  0.00    -0.283 A  
HETATM    3  C   UNL     1     -10.523   5.695  74.151  1.00  0.00    -0.281 A  
HETATM    4  C   UNL     1     -10.067   6.960  73.796  1.00  0.00    -0.373 A  
HETATM    5  C   UNL     1      -9.750   7.263  72.464  1.00  0.00    -0.154 A  
HETATM    6  C   UNL     1      -9.703   6.223  71.518  1.00  0.00    -0.179 A  
HETATM    7  C   UNL     1     -10.150   4.943  71.898  1.00  0.00    -0.262 A  
ENDROOT
BRANCH   5   8
HETATM    8  N   UNL     1      -9.590   8.606  72.044  1.00  0.00    -0.297 NA 
HETATM    9  H   UNL     1      -8.756   9.094  72.370  1.00  0.00     0.000 HD 
BRANCH   8  10
HETATM   10  C   UNL     1     -10.483   9.340  71.210  1.00  0.00    -0.338 A  
HETATM   11  F   UNL     1      -8.663   9.857  69.786  1.00  0.00    -0.163 F  
HETATM   12  C   UNL     1      -9.960  10.014  70.095  1.00  0.00    -0.184 A  
HETATM   13  C   UNL     1     -11.871   9.464  71.437  1.00  0.00    -0.374 A  
HETATM   14 CL   UNL     1     -12.728   8.480  72.580  1.00  0.00    -0.386 Cl 
HETATM   15  C   UNL     1     -12.648  10.351  70.679  1.00  0.00    -0.435 A  
HETATM   16  C   UNL     1     -10.738  10.864  69.309  1.00  0.00    -0.271 A  
HETATM   17  C   UNL     1     -12.077  11.064  69.627  1.00  0.00    -0.411 A  
ENDBRANCH   8  10
ENDBRANCH   5   8
BRANCH   6  18
HETATM   18  C   UNL     1      -9.225   6.437  70.096  1.00  0.00    -0.160 C  
HETATM   19  O   UNL     1      -9.914   6.667  67.815  1.00  0.00    -0.124 OA 
HETATM   20  C   UNL     1     -10.247   6.528  68.986  1.00  0.00    -0.177 C  
HETATM   21  O   UNL     1     -11.552   6.439  69.324  1.00  0.00    -0.354 OA 
ENDBRANCH   6  18
TORSDOF 3
ENDMDL
MODEL      147
REMARK 921   NORMALIZED FREE ENERGY PREDICTED BY IDOCK:   -4.95 KCAL/MOL
REMARK 922        TOTAL FREE ENERGY PREDICTED BY IDOCK:   -6.04 KCAL/MOL
REMARK 923 INTER-LIGAND FREE ENERGY PREDICTED BY IDOCK:   -5.44 KCAL/MOL
REMARK 924 INTRA-LIGAND FREE ENERGY PREDICTED BY IDOCK:   -0.60 KCAL/MOL
REMARK 927      BINDING AFFINITY PREDICTED BY RF-SCORE:    0.00 PKD
ROOT
HETATM    1  C   UNL     1      -9.461   3.698  70.333  1.00  0.00    -0.255 C  
HETATM    2  C   UNL     1     -10.025   5.014  70.782  1.00  0.00    -0.291 A  
HETATM    3  C   UNL     1     -11.019   5.651  70.046  1.00  0.00    -0.311 A  
HETATM    4  C   UNL     1     -11.427   6.936  70.389  1.00  0.00    -0.387 A  
HETATM    5  C   UNL     1     -10.819   7.627  71.447  1.00  0.00    -0.225 A  
HETATM    6  C   UNL     1      -9.929   6.939  72.292  1.00  0.00    -0.176 A  
HETATM    7  C   UNL     1      -9.539   5.631  71.942  1.00  0.00    -0.176 A  
ENDROOT
BRANCH   5   8
HETATM    8  N   UNL     1     -11.002   9.023  71.602  1.00  0.00    -0.342 NA 
HETATM    9  H   UNL     1     -11.100   9.371  72.555  1.00  0.00     0.000 HD 
BRANCH   8  10
HETATM   10  C   UNL     1     -11.064   9.986  70.553  1.00  0.00    -0.331 A  
HETATM   11  F   UNL     1     -12.808  11.084  71.720  1.00  0.00    -0.478 F  
HETATM   12  C   UNL     1     -12.040  10.993  70.623  1.00  0.00    -0.373 A  
HETATM   13  C   UNL     1     -10.222   9.991  69.420  1.00  0.00    -0.222 A  
HETATM   14 CL   UNL     1      -8.793   9.016  69.307  1.00  0.00    -0.137 Cl 
HETATM   15  C   UNL     1     -10.466  10.859  68.346  1.00  0.00    -0.206 A  
HETATM   16  C   UNL     1     -12.258  11.889  69.576  1.00  0.00    -0.197 A  
HETATM   17  C   UNL     1     -11.495  11.795  68.417  1.00  0.00    -0.354 A  
ENDBRANCH   8  10
ENDBRANCH   5   8
BRANCH   6  18
HETATM   18  C   UNL     1      -9.345   7.565  73.542  1.00  0.00    -0.316 C  
HETATM   19  O   UNL     1      -7.479   8.767  74.439  1.00  0.00    -0.403 OA 
HETATM   20  C   UNL     1      -8.012   8.273  73.452  1.00  0.00    -0.154 C  
HETATM   21  O   UNL     1      -7.413   8.335  72.244  1.00  0.00    -0.107 OA 
ENDBRANCH   6  18
TORSDOF 3
ENDMDL
MODEL      148
REMARK 921   NORMALIZED FREE ENERGY PREDICTED BY IDOCK:   -4.93 KCAL/MOL
REMARK 922        TOTAL FREE ENERGY PREDICTED BY IDOCK:   -6.02 KCAL/MOL
REMARK 923 INTER-LIGAND FREE ENERGY PREDICTED BY IDOCK:   -5.19 KCAL/MOL
REMARK 924 INTRA-LIGAND FREE ENERGY PREDICTED BY IDOCK:   -0.84 KCAL/MOL
REMARK 927      BINDING AFFINITY PREDICTED BY RF-SCORE:    0.00 PKD
ROOT
HETATM    1  C   UNL     1      -8.340  10.320  62.612  1.00  0.00    -0.175 C  
HETATM    2  C   UNL     1      -8.846  10.014  63.992  1.00  0.00    -0.246 A  
HETATM    3  C   UNL     1      -8.454   8.854  64.652  1.00  0.00    -0.185 A  
HETATM    4  C   UNL     1      -9.042   8.507  65.864  1.00  0.00    -0.237 A  
HETATM    5  C   UNL     1     -10.065   9.291  66.419  1.00  0.00    -0.267 A  
HETATM    6  C   UNL     1     -10.357  10.541  65.844  1.00  0.00    -0.275 A  
HETATM    7  C   UNL     1      -9.739  10.886  64.626  1.00  0.00    -0.333 A  
ENDROOT
BRANCH   5   8
HETATM    8  N   UNL     1     -10.873   8.791  67.469  1.00  0.00    -0.475 NA 
HETATM    9  H   UNL     1     -11.832   9.134  67.516  1.00  0.00     0.000 HD 
BRANCH   8  10
HETATM   10  C   UNL     1     -10.472   7.854  68.467  1.00  0.00    -0.167 A  
HETATM   11  F   UNL     1     -11.278   6.105  67.089  1.00  0.00    -0.374 F  
HETATM   12  C   UNL     1     -10.749   6.493  68.260  1.00  0.00    -0.278 A  
HETATM   13  C   UNL     1      -9.831   8.198  69.677  1.00  0.00    -0.184 A  
HETATM   14 CL   UNL     1      -9.159   9.770  69.971  1.00  0.00    -0.258 Cl 
HETATM   15  C   UNL     1      -9.637   7.244  70.685  1.00  0.00    -0.172 A  
HETATM   16  C   UNL     1     -10.516   5.532  69.243  1.00  0.00    -0.336 A  
HETATM   17  C   UNL     1      -9.996   5.915  70.474  1.00  0.00    -0.243 A  
ENDBRANCH   8  10
ENDBRANCH   5   8
BRANCH   6  18
HETATM   18  C   UNL     1     -11.339  11.512  66.466  1.00  0.00    -0.263 C  
HETATM   19  O   UNL     1     -11.606  13.257  68.083  1.00  0.00    -0.295 OA 
HETATM   20  C   UNL     1     -10.847  12.474  67.524  1.00  0.00    -0.232 C  
HETATM   21  O   UNL     1      -9.537  12.437  67.846  1.00  0.00    -0.192 OA 
ENDBRANCH   6  18
TORSDOF 3
ENDMDL
MODEL      149
REMARK 921   NORMALIZED FREE ENERGY PREDICTED BY IDOCK:   -4.91 KCAL/MOL
REMARK 922        TOTAL FREE ENERGY PREDICTED BY IDOCK:   -6.00 KCAL/MOL
REMARK 923 INTER-LIGAND FREE ENERGY PREDICTED BY IDOCK:   -5.14 KCAL/MOL
REMARK 924 INTRA-LIGAND FREE ENERGY PREDICTED BY IDOCK:   -0.86 KCAL/MOL
REMARK 927      BINDING AFFINITY PREDICTED BY RF-SCORE:    0.00 PKD
ROOT
HETATM    1  C   UNL     1     -10.550   8.305  69.215  1.00  0.00    -0.191 C  
HETATM    2  C   UNL     1      -9.964   9.412  68.388  1.00  0.00    -0.191 A  
HETATM    3  C   UNL     1      -9.118  10.357  68.960  1.00  0.00    -0.193 A  
HETATM    4  C   UNL     1      -8.701  11.460  68.223  1.00  0.00    -0.160 A  
HETATM    5  C   UNL     1      -9.157  11.664  66.912  1.00  0.00    -0.188 A  
HETATM    6  C   UNL     1      -9.882  10.642  66.273  1.00  0.00    -0.263 A  
HETATM    7  C   UNL     1     -10.280   9.522  67.028  1.00  0.00    -0.321 A  
ENDROOT
BRANCH   5   8
HETATM    8  N   UNL     1      -8.995  12.919  66.276  1.00  0.00    -0.439 NA 
HETATM    9  H   UNL     1      -8.664  12.906  65.312  1.00  0.00     0.000 HD 
BRANCH   8  10
HETATM   10  C   UNL     1      -9.251  14.196  66.854  1.00  0.00    -0.257 A  
HETATM   11  F   UNL     1      -6.915  14.548  67.009  1.00  0.00    -0.153 F  
HETATM   12  C   UNL     1      -8.160  14.977  67.268  1.00  0.00    -0.210 A  
HETATM   13  C   UNL     1     -10.538  14.735  67.068  1.00  0.00    -0.290 A  
HETATM   14 CL   UNL     1     -11.971  14.054  66.367  1.00  0.00    -0.437 Cl 
HETATM   15  C   UNL     1     -10.712  15.913  67.808  1.00  0.00    -0.320 A  
HETATM   16  C   UNL     1      -8.326  16.173  67.966  1.00  0.00    -0.163 A  
HETATM   17  C   UNL     1      -9.606  16.622  68.272  1.00  0.00    -0.233 A  
ENDBRANCH   8  10
ENDBRANCH   5   8
BRANCH   6  18
HETATM   18  C   UNL     1     -10.281  10.719  64.814  1.00  0.00    -0.403 C  
HETATM   19  O   UNL     1      -9.572  10.294  62.567  1.00  0.00    -0.302 OA 
HETATM   20  C   UNL     1      -9.314  10.223  63.762  1.00  0.00    -0.295 C  
HETATM   21  O   UNL     1      -8.140   9.706  64.183  1.00  0.00    -0.132 OA 
ENDBRANCH   6  18
TORSDOF 3
ENDMDL
MODEL      150
REMARK 921   NORMALIZED FREE ENERGY PREDICTED BY IDOCK:   -4.91 KCAL/MOL
REMARK 922        TOTAL FREE ENERGY PREDICTED BY IDOCK:   -5.99 KCAL/MOL
REMARK 923 INTER-LIGAND FREE ENERGY PREDICTED BY IDOCK:   -5.43 KCAL/MOL
REMARK 924 INTRA-LIGAND FREE ENERGY PREDICTED BY IDOCK:   -0.56 KCAL/MOL
REMARK 927      BINDING AFFINITY PREDICTED BY RF-SCORE:    0.00 PKD
ROOT
HETATM    1  C   UNL     1      -9.600  16.100  67.478  1.00  0.00    -0.229 C  
HETATM    2  C   UNL     1     -10.272  14.764  67.351  1.00  0.00    -0.236 A  
HETATM    3  C   UNL     1     -11.425  14.475  68.073  1.00  0.00    -0.345 A  
HETATM    4  C   UNL     1     -11.953  13.188  68.062  1.00  0.00    -0.345 A  
HETATM    5  C   UNL     1     -11.314  12.153  67.363  1.00  0.00    -0.326 A  
HETATM    6  C   UNL     1     -10.243  12.466  66.507  1.00  0.00    -0.244 A  
HETATM    7  C   UNL     1      -9.731  13.778  66.515  1.00  0.00    -0.301 A  
ENDROOT
BRANCH   5   8
HETATM    8  N   UNL     1     -11.659  10.800  67.597  1.00  0.00    -0.604 NA 
HETATM    9  H   UNL     1     -12.379  10.398  66.997  1.00  0.00     0.000 HD 
BRANCH   8  10
HETATM   10  C   UNL     1     -11.096   9.946  68.591  1.00  0.00    -0.134 A  
HETATM   11  F   UNL     1     -12.050  11.329  70.259  1.00  0.00    -0.338 F  
HETATM   12  C   UNL     1     -11.271  10.283  69.943  1.00  0.00    -0.299 A  
HETATM   13  C   UNL     1     -10.344   8.784  68.315  1.00  0.00    -0.207 A  
HETATM   14 CL   UNL     1     -10.272   8.062  66.740  1.00  0.00    -0.370 Cl 
HETATM   15  C   UNL     1      -9.671   8.103  69.339  1.00  0.00    -0.170 A  
HETATM   16  C   UNL     1     -10.639   9.582  70.969  1.00  0.00    -0.392 A  
HETATM   17  C   UNL     1      -9.804   8.513  70.663  1.00  0.00    -0.218 A  
ENDBRANCH   8  10
ENDBRANCH   5   8
BRANCH   6  18
HETATM   18  C   UNL     1      -9.596  11.435  65.605  1.00  0.00    -0.258 C  
HETATM   19  O   UNL     1      -7.714   9.980  65.332  1.00  0.00    -0.125 OA 
HETATM   20  C   UNL     1      -8.297  10.794  66.039  1.00  0.00    -0.163 C  
HETATM   21  O   UNL     1      -7.786  11.157  67.235  1.00  0.00    -0.125 OA 
ENDBRANCH   6  18
TORSDOF 3
ENDMDL
MODEL      151
REMARK 921   NORMALIZED FREE ENERGY PREDICTED BY IDOCK:   -4.91 KCAL/MOL
REMARK 922        TOTAL FREE ENERGY PREDICTED BY IDOCK:   -5.99 KCAL/MOL
REMARK 923 INTER-LIGAND FREE ENERGY PREDICTED BY IDOCK:   -5.54 KCAL/MOL
REMARK 924 INTRA-LIGAND FREE ENERGY PREDICTED BY IDOCK:   -0.45 KCAL/MOL
REMARK 927      BINDING AFFINITY PREDICTED BY RF-SCORE:    0.00 PKD
ROOT
HETATM    1  C   UNL     1      -9.456   7.746  66.397  1.00  0.00    -0.245 C  
HETATM    2  C   UNL     1      -9.879   9.162  66.660  1.00  0.00    -0.307 A  
HETATM    3  C   UNL     1      -9.372  10.210  65.899  1.00  0.00    -0.224 A  
HETATM    4  C   UNL     1      -9.655  11.526  66.245  1.00  0.00    -0.239 A  
HETATM    5  C   UNL     1     -10.415  11.824  67.386  1.00  0.00    -0.211 A  
HETATM    6  C   UNL     1     -11.061  10.777  68.070  1.00  0.00    -0.359 A  
HETATM    7  C   UNL     1     -10.779   9.449  67.694  1.00  0.00    -0.295 A  
ENDROOT
BRANCH   5   8
HETATM    8  N   UNL     1     -10.444  13.137  67.916  1.00  0.00    -0.234 NA 
HETATM    9  H   UNL     1     -11.050  13.295  68.721  1.00  0.00     0.000 HD 
BRANCH   8  10
HETATM   10  C   UNL     1      -9.708  14.257  67.432  1.00  0.00    -0.235 A  
HETATM   11  F   UNL     1     -11.695  15.082  66.442  1.00  0.00    -0.339 F  
HETATM   12  C   UNL     1     -10.372  15.202  66.633  1.00  0.00    -0.274 A  
HETATM   13  C   UNL     1      -8.336  14.481  67.677  1.00  0.00    -0.180 A  
HETATM   14 CL   UNL     1      -7.436  13.591  68.863  1.00  0.00    -0.064 Cl 
HETATM   15  C   UNL     1      -7.644  15.505  67.015  1.00  0.00    -0.228 A  
HETATM   16  C   UNL     1      -9.696  16.250  66.007  1.00  0.00    -0.370 A  
HETATM   17  C   UNL     1      -8.320  16.377  66.167  1.00  0.00    -0.291 A  
ENDBRANCH   8  10
ENDBRANCH   5   8
BRANCH   6  18
HETATM   18  C   UNL     1     -12.019  11.025  69.217  1.00  0.00    -0.410 C  
HETATM   19  O   UNL     1     -12.429  10.628  71.542  1.00  0.00    -0.377 OA 
HETATM   20  C   UNL     1     -11.675  10.486  70.587  1.00  0.00    -0.357 C  
HETATM   21  O   UNL     1     -10.505   9.826  70.728  1.00  0.00    -0.303 OA 
ENDBRANCH   6  18
TORSDOF 3
ENDMDL
MODEL      152
REMARK 921   NORMALIZED FREE ENERGY PREDICTED BY IDOCK:   -4.90 KCAL/MOL
REMARK 922        TOTAL FREE ENERGY PREDICTED BY IDOCK:   -5.99 KCAL/MOL
REMARK 923 INTER-LIGAND FREE ENERGY PREDICTED BY IDOCK:   -5.16 KCAL/MOL
REMARK 924 INTRA-LIGAND FREE ENERGY PREDICTED BY IDOCK:   -0.83 KCAL/MOL
REMARK 927      BINDING AFFINITY PREDICTED BY RF-SCORE:    0.00 PKD
ROOT
HETATM    1  C   UNL     1      -6.199  13.098  67.742  1.00  0.00    -0.156 C  
HETATM    2  C   UNL     1      -7.435  12.355  68.159  1.00  0.00    -0.118 A  
HETATM    3  C   UNL     1      -7.349  11.227  68.968  1.00  0.00    -0.115 A  
HETATM    4  C   UNL     1      -8.482  10.463  69.225  1.00  0.00    -0.162 A  
HETATM    5  C   UNL     1      -9.717  10.787  68.643  1.00  0.00    -0.186 A  
HETATM    6  C   UNL     1      -9.850  12.007  67.955  1.00  0.00    -0.199 A  
HETATM    7  C   UNL     1      -8.696  12.779  67.719  1.00  0.00    -0.184 A  
ENDROOT
BRANCH   5   8
HETATM    8  N   UNL     1     -10.785   9.857  68.643  1.00  0.00    -0.223 NA 
HETATM    9  H   UNL     1     -11.723  10.233  68.776  1.00  0.00     0.000 HD 
BRANCH   8  10
HETATM   10  C   UNL     1     -10.673   8.445  68.477  1.00  0.00    -0.021 A  
HETATM   11  F   UNL     1     -10.405   8.783  66.148  1.00  0.00    -0.366 F  
HETATM   12  C   UNL     1     -10.536   7.931  67.177  1.00  0.00    -0.344 A  
HETATM   13  C   UNL     1     -10.713   7.509  69.532  1.00  0.00    -0.217 A  
HETATM   14 CL   UNL     1     -10.587   7.965  71.200  1.00  0.00    -0.230 Cl 
HETATM   15  C   UNL     1     -10.782   6.133  69.271  1.00  0.00    -0.383 A  
HETATM   16  C   UNL     1     -10.558   6.562  66.915  1.00  0.00    -0.376 A  
HETATM   17  C   UNL     1     -10.723   5.661  67.962  1.00  0.00    -0.235 A  
ENDBRANCH   8  10
ENDBRANCH   5   8
BRANCH   6  18
HETATM   18  C   UNL     1     -11.181  12.502  67.428  1.00  0.00    -0.344 C  
HETATM   19  O   UNL     1     -12.594  12.632  65.500  1.00  0.00    -0.634 OA 
HETATM   20  C   UNL     1     -11.546  12.225  65.986  1.00  0.00    -0.393 C  
HETATM   21  O   UNL     1     -10.669  11.520  65.240  1.00  0.00    -0.280 OA 
ENDBRANCH   6  18
TORSDOF 3
ENDMDL
MODEL      153
REMARK 921   NORMALIZED FREE ENERGY PREDICTED BY IDOCK:   -4.90 KCAL/MOL
REMARK 922        TOTAL FREE ENERGY PREDICTED BY IDOCK:   -5.99 KCAL/MOL
REMARK 923 INTER-LIGAND FREE ENERGY PREDICTED BY IDOCK:   -5.54 KCAL/MOL
REMARK 924 INTRA-LIGAND FREE ENERGY PREDICTED BY IDOCK:   -0.44 KCAL/MOL
REMARK 927      BINDING AFFINITY PREDICTED BY RF-SCORE:    0.00 PKD
ROOT
HETATM    1  C   UNL     1      -9.654   5.368  72.890  1.00  0.00    -0.158 C  
HETATM    2  C   UNL     1     -10.244   6.544  72.168  1.00  0.00    -0.203 A  
HETATM    3  C   UNL     1     -11.616   6.640  71.964  1.00  0.00    -0.341 A  
HETATM    4  C   UNL     1     -12.136   7.655  71.168  1.00  0.00    -0.322 A  
HETATM    5  C   UNL     1     -11.290   8.569  70.524  1.00  0.00    -0.217 A  
HETATM    6  C   UNL     1      -9.921   8.579  70.846  1.00  0.00    -0.237 A  
HETATM    7  C   UNL     1      -9.413   7.556  71.670  1.00  0.00    -0.170 A  
ENDROOT
BRANCH   5   8
HETATM    8  N   UNL     1     -11.775   9.395  69.481  1.00  0.00    -0.313 NA 
HETATM    9  H   UNL     1     -12.005   8.937  68.599  1.00  0.00     0.000 HD 
BRANCH   8  10
HETATM   10  C   UNL     1     -11.974  10.806  69.546  1.00  0.00    -0.292 A  
HETATM   11  F   UNL     1     -11.289  10.965  67.285  1.00  0.00    -0.356 F  
HETATM   12  C   UNL     1     -11.659  11.581  68.418  1.00  0.00    -0.308 A  
HETATM   13  C   UNL     1     -12.446  11.496  70.683  1.00  0.00    -0.314 A  
HETATM   14 CL   UNL     1     -13.150  10.689  72.047  1.00  0.00    -0.578 Cl 
HETATM   15  C   UNL     1     -12.438  12.897  70.729  1.00  0.00    -0.370 A  
HETATM   16  C   UNL     1     -11.692  12.975  68.444  1.00  0.00    -0.386 A  
HETATM   17  C   UNL     1     -12.044  13.636  69.616  1.00  0.00    -0.378 A  
ENDBRANCH   8  10
ENDBRANCH   5   8
BRANCH   6  18
HETATM   18  C   UNL     1      -8.967   9.628  70.311  1.00  0.00    -0.263 C  
HETATM   19  O   UNL     1      -7.515  10.207  68.499  1.00  0.00    -0.082 OA 
HETATM   20  C   UNL     1      -8.319   9.408  68.963  1.00  0.00    -0.124 C  
HETATM   21  O   UNL     1      -8.646   8.288  68.283  1.00  0.00    -0.131 OA 
ENDBRANCH   6  18
TORSDOF 3
ENDMDL
MODEL      154
REMARK 921   NORMALIZED FREE ENERGY PREDICTED BY IDOCK:   -4.89 KCAL/MOL
REMARK 922        TOTAL FREE ENERGY PREDICTED BY IDOCK:   -5.98 KCAL/MOL
REMARK 923 INTER-LIGAND FREE ENERGY PREDICTED BY IDOCK:   -5.12 KCAL/MOL
REMARK 924 INTRA-LIGAND FREE ENERGY PREDICTED BY IDOCK:   -0.86 KCAL/MOL
REMARK 927      BINDING AFFINITY PREDICTED BY RF-SCORE:    0.00 PKD
ROOT
HETATM    1  C   UNL     1      -9.841   4.373  65.725  1.00  0.00    -0.232 C  
HETATM    2  C   UNL     1     -10.054   5.184  66.971  1.00  0.00    -0.252 A  
HETATM    3  C   UNL     1     -11.004   6.200  67.006  1.00  0.00    -0.414 A  
HETATM    4  C   UNL     1     -11.089   7.039  68.112  1.00  0.00    -0.097 A  
HETATM    5  C   UNL     1     -10.198   6.907  69.187  1.00  0.00    -0.187 A  
HETATM    6  C   UNL     1      -9.343   5.791  69.233  1.00  0.00    -0.148 A  
HETATM    7  C   UNL     1      -9.281   4.939  68.113  1.00  0.00    -0.151 A  
ENDROOT
BRANCH   5   8
HETATM    8  N   UNL     1     -10.073   7.932  70.156  1.00  0.00    -0.192 NA 
HETATM    9  H   UNL     1      -9.149   8.071  70.563  1.00  0.00     0.000 HD 
BRANCH   8  10
HETATM   10  C   UNL     1     -11.117   8.788  70.615  1.00  0.00    -0.246 A  
HETATM   11  F   UNL     1     -10.282  10.495  69.201  1.00  0.00    -0.184 F  
HETATM   12  C   UNL     1     -11.155  10.111  70.145  1.00  0.00    -0.315 A  
HETATM   13  C   UNL     1     -12.115   8.410  71.538  1.00  0.00    -0.301 A  
HETATM   14 CL   UNL     1     -12.396   6.761  71.996  1.00  0.00    -0.343 Cl 
HETATM   15  C   UNL     1     -12.993   9.360  72.079  1.00  0.00    -0.508 A  
HETATM   16  C   UNL     1     -12.056  11.050  70.647  1.00  0.00    -0.471 A  
HETATM   17  C   UNL     1     -12.951  10.683  71.646  1.00  0.00    -0.582 A  
ENDBRANCH   8  10
ENDBRANCH   5   8
BRANCH   6  18
HETATM   18  C   UNL     1      -8.459   5.493  70.427  1.00  0.00    -0.122 C  
HETATM   19  O   UNL     1      -8.346   4.395  72.551  1.00  0.00    -0.105 OA 
HETATM   20  C   UNL     1      -9.006   4.638  71.548  1.00  0.00    -0.133 C  
HETATM   21  O   UNL     1     -10.260   4.155  71.416  1.00  0.00    -0.138 OA 
ENDBRANCH   6  18
TORSDOF 3
ENDMDL
MODEL      155
REMARK 921   NORMALIZED FREE ENERGY PREDICTED BY IDOCK:   -4.88 KCAL/MOL
REMARK 922        TOTAL FREE ENERGY PREDICTED BY IDOCK:   -5.96 KCAL/MOL
REMARK 923 INTER-LIGAND FREE ENERGY PREDICTED BY IDOCK:   -5.18 KCAL/MOL
REMARK 924 INTRA-LIGAND FREE ENERGY PREDICTED BY IDOCK:   -0.78 KCAL/MOL
REMARK 927      BINDING AFFINITY PREDICTED BY RF-SCORE:    0.00 PKD
ROOT
HETATM    1  C   UNL     1     -11.457  15.662  71.308  1.00  0.00    -0.469 C  
HETATM    2  C   UNL     1     -10.928  15.205  69.980  1.00  0.00    -0.291 A  
HETATM    3  C   UNL     1     -11.467  14.092  69.344  1.00  0.00    -0.343 A  
HETATM    4  C   UNL     1     -10.874  13.591  68.190  1.00  0.00    -0.271 A  
HETATM    5  C   UNL     1      -9.703  14.166  67.674  1.00  0.00    -0.228 A  
HETATM    6  C   UNL     1      -9.242  15.380  68.214  1.00  0.00    -0.188 A  
HETATM    7  C   UNL     1      -9.865  15.885  69.371  1.00  0.00    -0.280 A  
ENDROOT
BRANCH   5   8
HETATM    8  N   UNL     1      -8.929  13.486  66.702  1.00  0.00    -0.421 NA 
HETATM    9  H   UNL     1      -7.919  13.626  66.737  1.00  0.00     0.000 HD 
BRANCH   8  10
HETATM   10  C   UNL     1      -9.426  12.625  65.680  1.00  0.00     0.025 A  
HETATM   11  F   UNL     1     -10.206  14.532  64.512  1.00  0.00    -0.410 F  
HETATM   12  C   UNL     1     -10.124  13.196  64.603  1.00  0.00    -0.226 A  
HETATM   13  C   UNL     1      -9.289  11.221  65.679  1.00  0.00    -0.224 A  
HETATM   14 CL   UNL     1      -8.224  10.379  66.758  1.00  0.00    -0.124 Cl 
HETATM   15  C   UNL     1      -9.964  10.432  64.736  1.00  0.00    -0.409 A  
HETATM   16  C   UNL     1     -10.760  12.417  63.636  1.00  0.00    -0.497 A  
HETATM   17  C   UNL     1     -10.713  11.030  63.726  1.00  0.00    -0.294 A  
ENDBRANCH   8  10
ENDBRANCH   5   8
BRANCH   6  18
HETATM   18  C   UNL     1      -8.076  16.144  67.619  1.00  0.00    -0.163 C  
HETATM   19  O   UNL     1      -5.690  16.296  67.509  1.00  0.00    -0.135 OA 
HETATM   20  C   UNL     1      -6.668  15.694  67.936  1.00  0.00    -0.150 C  
HETATM   21  O   UNL     1      -6.517  14.605  68.720  1.00  0.00    -0.083 OA 
ENDBRANCH   6  18
TORSDOF 3
ENDMDL
MODEL      156
REMARK 921   NORMALIZED FREE ENERGY PREDICTED BY IDOCK:   -4.88 KCAL/MOL
REMARK 922        TOTAL FREE ENERGY PREDICTED BY IDOCK:   -5.96 KCAL/MOL
REMARK 923 INTER-LIGAND FREE ENERGY PREDICTED BY IDOCK:   -5.11 KCAL/MOL
REMARK 924 INTRA-LIGAND FREE ENERGY PREDICTED BY IDOCK:   -0.85 KCAL/MOL
REMARK 927      BINDING AFFINITY PREDICTED BY RF-SCORE:    0.00 PKD
ROOT
HETATM    1  C   UNL     1     -12.741  12.173  63.408  1.00  0.00    -0.508 C  
HETATM    2  C   UNL     1     -11.684  11.951  64.451  1.00  0.00    -0.357 A  
HETATM    3  C   UNL     1     -10.570  11.164  64.180  1.00  0.00    -0.436 A  
HETATM    4  C   UNL     1      -9.676  10.844  65.196  1.00  0.00    -0.312 A  
HETATM    5  C   UNL     1      -9.901  11.269  66.514  1.00  0.00    -0.208 A  
HETATM    6  C   UNL     1     -10.932  12.192  66.768  1.00  0.00    -0.325 A  
HETATM    7  C   UNL     1     -11.818  12.520  65.724  1.00  0.00    -0.494 A  
ENDROOT
BRANCH   5   8
HETATM    8  N   UNL     1      -9.183  10.698  67.593  1.00  0.00    -0.146 NA 
HETATM    9  H   UNL     1      -9.180  11.218  68.470  1.00  0.00     0.000 HD 
BRANCH   8  10
HETATM   10  C   UNL     1      -8.463   9.468  67.568  1.00  0.00    -0.126 A  
HETATM   11  F   UNL     1     -10.466   8.334  68.128  1.00  0.00    -0.229 F  
HETATM   12  C   UNL     1      -9.143   8.286  67.903  1.00  0.00    -0.133 A  
HETATM   13  C   UNL     1      -7.093   9.348  67.251  1.00  0.00    -0.086 A  
HETATM   14 CL   UNL     1      -6.175  10.636  66.541  1.00  0.00    -0.087 Cl 
HETATM   15  C   UNL     1      -6.417   8.132  67.429  1.00  0.00    -0.057 A  
HETATM   16  C   UNL     1      -8.484   7.064  68.038  1.00  0.00    -0.125 A  
HETATM   17  C   UNL     1      -7.110   6.995  67.839  1.00  0.00    -0.086 A  
ENDBRANCH   8  10
ENDBRANCH   5   8
BRANCH   6  18
HETATM   18  C   UNL     1     -11.147  12.815  68.132  1.00  0.00    -0.288 C  
HETATM   19  O   UNL     1     -12.089  12.483  70.308  1.00  0.00    -0.349 OA 
HETATM   20  C   UNL     1     -11.859  12.015  69.199  1.00  0.00    -0.311 C  
HETATM   21  O   UNL     1     -12.249  10.760  68.888  1.00  0.00    -0.447 OA 
ENDBRANCH   6  18
TORSDOF 3
ENDMDL
MODEL      157
REMARK 921   NORMALIZED FREE ENERGY PREDICTED BY IDOCK:   -4.86 KCAL/MOL
REMARK 922        TOTAL FREE ENERGY PREDICTED BY IDOCK:   -5.94 KCAL/MOL
REMARK 923 INTER-LIGAND FREE ENERGY PREDICTED BY IDOCK:   -5.49 KCAL/MOL
REMARK 924 INTRA-LIGAND FREE ENERGY PREDICTED BY IDOCK:   -0.45 KCAL/MOL
REMARK 927      BINDING AFFINITY PREDICTED BY RF-SCORE:    0.00 PKD
ROOT
HETATM    1  C   UNL     1     -10.466   7.917  68.071  1.00  0.00    -0.245 C  
HETATM    2  C   UNL     1     -10.166   9.209  67.368  1.00  0.00    -0.310 A  
HETATM    3  C   UNL     1      -8.894   9.468  66.867  1.00  0.00    -0.140 A  
HETATM    4  C   UNL     1      -8.588  10.723  66.352  1.00  0.00    -0.159 A  
HETATM    5  C   UNL     1      -9.535  11.758  66.367  1.00  0.00    -0.221 A  
HETATM    6  C   UNL     1     -10.863  11.465  66.724  1.00  0.00    -0.336 A  
HETATM    7  C   UNL     1     -11.162  10.184  67.226  1.00  0.00    -0.024 A  
ENDROOT
BRANCH   5   8
HETATM    8  N   UNL     1      -9.144  13.101  66.140  1.00  0.00    -0.458 NA 
HETATM    9  H   UNL     1      -8.956  13.369  65.175  1.00  0.00     0.000 HD 
BRANCH   8  10
HETATM   10  C   UNL     1      -8.990  14.112  67.133  1.00  0.00    -0.225 A  
HETATM   11  F   UNL     1     -10.579  15.433  65.976  1.00  0.00    -0.280 F  
HETATM   12  C   UNL     1      -9.699  15.315  66.983  1.00  0.00    -0.226 A  
HETATM   13  C   UNL     1      -8.147  14.006  68.260  1.00  0.00    -0.148 A  
HETATM   14 CL   UNL     1      -7.429  12.508  68.759  1.00  0.00    -0.087 Cl 
HETATM   15  C   UNL     1      -7.909  15.111  69.089  1.00  0.00    -0.199 A  
HETATM   16  C   UNL     1      -9.500  16.404  67.831  1.00  0.00    -0.223 A  
HETATM   17  C   UNL     1      -8.572  16.316  68.863  1.00  0.00    -0.260 A  
ENDBRANCH   8  10
ENDBRANCH   5   8
BRANCH   6  18
HETATM   18  C   UNL     1     -11.977  12.488  66.623  1.00  0.00    -0.351 C  
HETATM   19  O   UNL     1     -13.258  13.843  65.122  1.00  0.00    -0.768 OA 
HETATM   20  C   UNL     1     -12.387  12.992  65.258  1.00  0.00    -0.486 C  
HETATM   21  O   UNL     1     -11.752  12.479  64.182  1.00  0.00    -0.343 OA 
ENDBRANCH   6  18
TORSDOF 3
ENDMDL
MODEL      158
REMARK 921   NORMALIZED FREE ENERGY PREDICTED BY IDOCK:   -4.84 KCAL/MOL
REMARK 922        TOTAL FREE ENERGY PREDICTED BY IDOCK:   -5.92 KCAL/MOL
REMARK 923 INTER-LIGAND FREE ENERGY PREDICTED BY IDOCK:   -5.87 KCAL/MOL
REMARK 924 INTRA-LIGAND FREE ENERGY PREDICTED BY IDOCK:   -0.05 KCAL/MOL
REMARK 927      BINDING AFFINITY PREDICTED BY RF-SCORE:    0.00 PKD
ROOT
HETATM    1  C   UNL     1     -10.633  10.765  64.431  1.00  0.00    -0.246 C  
HETATM    2  C   UNL     1     -10.183  11.849  65.367  1.00  0.00    -0.300 A  
HETATM    3  C   UNL     1      -9.687  11.540  66.630  1.00  0.00    -0.221 A  
HETATM    4  C   UNL     1      -9.414  12.554  67.541  1.00  0.00    -0.185 A  
HETATM    5  C   UNL     1      -9.672  13.896  67.224  1.00  0.00    -0.245 A  
HETATM    6  C   UNL     1     -10.022  14.232  65.903  1.00  0.00    -0.340 A  
HETATM    7  C   UNL     1     -10.276  13.194  64.987  1.00  0.00    -0.296 A  
ENDROOT
BRANCH   5   8
HETATM    8  N   UNL     1      -9.695  14.889  68.234  1.00  0.00    -0.209 NA 
HETATM    9  H   UNL     1     -10.530  14.933  68.817  1.00  0.00     0.000 HD 
BRANCH   8  10
HETATM   10  C   UNL     1      -8.661  15.831  68.513  1.00  0.00    -0.184 A  
HETATM   11  F   UNL     1     -10.203  17.580  68.101  1.00  0.00    -0.286 F  
HETATM   12  C   UNL     1      -8.947  17.199  68.378  1.00  0.00    -0.259 A  
HETATM   13  C   UNL     1      -7.347  15.487  68.896  1.00  0.00    -0.150 A  
HETATM   14 CL   UNL     1      -6.899  13.886  69.388  1.00  0.00    -0.098 Cl 
HETATM   15  C   UNL     1      -6.342  16.462  68.972  1.00  0.00    -0.164 A  
HETATM   16  C   UNL     1      -7.959  18.177  68.497  1.00  0.00    -0.312 A  
HETATM   17  C   UNL     1      -6.645  17.804  68.755  1.00  0.00    -0.227 A  
ENDBRANCH   8  10
ENDBRANCH   5   8
BRANCH   6  18
HETATM   18  C   UNL     1     -10.170  15.667  65.442  1.00  0.00    -0.401 C  
HETATM   19  O   UNL     1     -11.532  17.189  64.193  1.00  0.00    -0.993 OA 
HETATM   20  C   UNL     1     -11.380  16.051  64.620  1.00  0.00    -0.306 C  
HETATM   21  O   UNL     1     -12.292  15.090  64.358  1.00  0.00    -0.449 OA 
ENDBRANCH   6  18
TORSDOF 3
ENDMDL
MODEL      159
REMARK 921   NORMALIZED FREE ENERGY PREDICTED BY IDOCK:   -4.83 KCAL/MOL
REMARK 922        TOTAL FREE ENERGY PREDICTED BY IDOCK:   -5.91 KCAL/MOL
REMARK 923 INTER-LIGAND FREE ENERGY PREDICTED BY IDOCK:   -5.27 KCAL/MOL
REMARK 924 INTRA-LIGAND FREE ENERGY PREDICTED BY IDOCK:   -0.64 KCAL/MOL
REMARK 927      BINDING AFFINITY PREDICTED BY RF-SCORE:    0.00 PKD
ROOT
HETATM    1  C   UNL     1     -13.019  15.432  70.867  1.00  0.00    -0.539 C  
HETATM    2  C   UNL     1     -12.408  14.295  70.100  1.00  0.00    -0.413 A  
HETATM    3  C   UNL     1     -12.331  13.022  70.654  1.00  0.00    -0.391 A  
HETATM    4  C   UNL     1     -11.633  12.014  69.998  1.00  0.00    -0.275 A  
HETATM    5  C   UNL     1     -10.958  12.271  68.795  1.00  0.00    -0.236 A  
HETATM    6  C   UNL     1     -11.158  13.505  68.149  1.00  0.00    -0.283 A  
HETATM    7  C   UNL     1     -11.885  14.509  68.818  1.00  0.00    -0.350 A  
ENDROOT
BRANCH   5   8
HETATM    8  N   UNL     1     -10.002  11.357  68.290  1.00  0.00    -0.192 NA 
HETATM    9  H   UNL     1     -10.285  10.788  67.492  1.00  0.00     0.000 HD 
BRANCH   8  10
HETATM   10  C   UNL     1      -8.682  11.156  68.791  1.00  0.00    -0.128 A  
HETATM   11  F   UNL     1      -7.962  13.024  67.527  1.00  0.00    -0.133 F  
HETATM   12  C   UNL     1      -7.655  11.996  68.332  1.00  0.00    -0.128 A  
HETATM   13  C   UNL     1      -8.319  10.146  69.708  1.00  0.00    -0.137 A  
HETATM   14 CL   UNL     1      -9.486   9.216  70.592  1.00  0.00    -0.288 Cl 
HETATM   15  C   UNL     1      -6.973   9.898  70.010  1.00  0.00    -0.119 A  
HETATM   16  C   UNL     1      -6.317  11.781  68.665  1.00  0.00    -0.057 A  
HETATM   17  C   UNL     1      -5.971  10.704  69.474  1.00  0.00    -0.048 A  
ENDBRANCH   8  10
ENDBRANCH   5   8
BRANCH   6  18
HETATM   18  C   UNL     1     -10.590  13.806  66.777  1.00  0.00    -0.273 C  
HETATM   19  O   UNL     1     -10.917  13.533  64.421  1.00  0.00    -0.378 OA 
HETATM   20  C   UNL     1     -11.349  13.346  65.553  1.00  0.00    -0.293 C  
HETATM   21  O   UNL     1     -12.522  12.706  65.744  1.00  0.00    -0.607 OA 
ENDBRANCH   6  18
TORSDOF 3
ENDMDL
MODEL      160
REMARK 921   NORMALIZED FREE ENERGY PREDICTED BY IDOCK:   -4.83 KCAL/MOL
REMARK 922        TOTAL FREE ENERGY PREDICTED BY IDOCK:   -5.90 KCAL/MOL
REMARK 923 INTER-LIGAND FREE ENERGY PREDICTED BY IDOCK:   -5.46 KCAL/MOL
REMARK 924 INTRA-LIGAND FREE ENERGY PREDICTED BY IDOCK:   -0.44 KCAL/MOL
REMARK 927      BINDING AFFINITY PREDICTED BY RF-SCORE:    0.00 PKD
ROOT
HETATM    1  C   UNL     1     -11.883  13.435  69.480  1.00  0.00    -0.391 C  
HETATM    2  C   UNL     1     -11.333  14.446  68.517  1.00  0.00    -0.307 A  
HETATM    3  C   UNL     1     -11.126  14.118  67.181  1.00  0.00    -0.315 A  
HETATM    4  C   UNL     1     -10.480  15.011  66.333  1.00  0.00    -0.296 A  
HETATM    5  C   UNL     1      -9.988  16.233  66.815  1.00  0.00    -0.261 A  
HETATM    6  C   UNL     1     -10.329  16.643  68.117  1.00  0.00    -0.303 A  
HETATM    7  C   UNL     1     -11.000  15.734  68.957  1.00  0.00    -0.262 A  
ENDROOT
BRANCH   5   8
HETATM    8  N   UNL     1      -9.071  16.997  66.052  1.00  0.00    -0.510 NA 
HETATM    9  H   UNL     1      -9.405  17.364  65.162  1.00  0.00     0.000 HD 
BRANCH   8  10
HETATM   10  C   UNL     1      -7.724  17.299  66.411  1.00  0.00    -0.311 A  
HETATM   11  F   UNL     1      -7.376  15.003  66.875  1.00  0.00    -0.209 F  
HETATM   12  C   UNL     1      -6.905  16.260  66.882  1.00  0.00    -0.160 A  
HETATM   13  C   UNL     1      -7.150  18.587  66.351  1.00  0.00    -0.235 A  
HETATM   14 CL   UNL     1      -7.907  19.917  65.534  1.00  0.00    -0.144 Cl 
HETATM   15  C   UNL     1      -5.881  18.836  66.894  1.00  0.00    -0.170 A  
HETATM   16  C   UNL     1      -5.625  16.494  67.382  1.00  0.00    -0.184 A  
HETATM   17  C   UNL     1      -5.127  17.792  67.425  1.00  0.00    -0.142 A  
ENDBRANCH   8  10
ENDBRANCH   5   8
BRANCH   6  18
HETATM   18  C   UNL     1      -9.967  18.010  68.660  1.00  0.00    -0.396 C  
HETATM   19  O   UNL     1     -10.194  20.369  68.327  1.00  0.00    -0.322 OA 
HETATM   20  C   UNL     1     -10.484  19.240  67.950  1.00  0.00    -0.410 C  
HETATM   21  O   UNL     1     -11.274  19.057  66.871  1.00  0.00    -0.127 OA 
ENDBRANCH   6  18
TORSDOF 3
ENDMDL
MODEL      161
REMARK 921   NORMALIZED FREE ENERGY PREDICTED BY IDOCK:   -4.81 KCAL/MOL
REMARK 922        TOTAL FREE ENERGY PREDICTED BY IDOCK:   -5.88 KCAL/MOL
REMARK 923 INTER-LIGAND FREE ENERGY PREDICTED BY IDOCK:   -5.38 KCAL/MOL
REMARK 924 INTRA-LIGAND FREE ENERGY PREDICTED BY IDOCK:   -0.50 KCAL/MOL
REMARK 927      BINDING AFFINITY PREDICTED BY RF-SCORE:    0.00 PKD
ROOT
HETATM    1  C   UNL     1     -10.261  19.825  67.951  1.00  0.00    -0.576 C  
HETATM    2  C   UNL     1      -9.827  18.517  67.357  1.00  0.00    -0.330 A  
HETATM    3  C   UNL     1     -10.402  18.042  66.183  1.00  0.00    -0.368 A  
HETATM    4  C   UNL     1     -10.100  16.765  65.724  1.00  0.00    -0.276 A  
HETATM    5  C   UNL     1      -9.251  15.919  66.452  1.00  0.00    -0.309 A  
HETATM    6  C   UNL     1      -8.543  16.441  67.551  1.00  0.00    -0.185 A  
HETATM    7  C   UNL     1      -8.847  17.744  67.993  1.00  0.00    -0.259 A  
ENDROOT
BRANCH   5   8
HETATM    8  N   UNL     1      -9.186  14.534  66.166  1.00  0.00    -0.498 NA 
HETATM    9  H   UNL     1      -8.740  14.265  65.289  1.00  0.00     0.000 HD 
BRANCH   8  10
HETATM   10  C   UNL     1      -9.685  13.479  66.986  1.00  0.00    -0.251 A  
HETATM   11  F   UNL     1      -7.662  12.301  66.630  1.00  0.00    -0.103 F  
HETATM   12  C   UNL     1      -8.898  12.329  67.153  1.00  0.00    -0.194 A  
HETATM   13  C   UNL     1     -10.940  13.494  67.632  1.00  0.00    -0.263 A  
HETATM   14 CL   UNL     1     -11.907  14.926  67.776  1.00  0.00    -0.338 Cl 
HETATM   15  C   UNL     1     -11.435  12.347  68.268  1.00  0.00    -0.360 A  
HETATM   16  C   UNL     1      -9.368  11.200  67.823  1.00  0.00    -0.166 A  
HETATM   17  C   UNL     1     -10.657  11.194  68.347  1.00  0.00    -0.223 A  
ENDBRANCH   8  10
ENDBRANCH   5   8
BRANCH   6  18
HETATM   18  C   UNL     1      -7.496  15.642  68.298  1.00  0.00    -0.116 C  
HETATM   19  O   UNL     1      -5.194  14.986  68.334  1.00  0.00    -0.096 OA 
HETATM   20  C   UNL     1      -6.073  15.642  67.788  1.00  0.00    -0.157 C  
HETATM   21  O   UNL     1      -5.797  16.385  66.695  1.00  0.00    -0.317 OA 
ENDBRANCH   6  18
TORSDOF 3
ENDMDL
MODEL      162
REMARK 921   NORMALIZED FREE ENERGY PREDICTED BY IDOCK:   -4.80 KCAL/MOL
REMARK 922        TOTAL FREE ENERGY PREDICTED BY IDOCK:   -5.87 KCAL/MOL
REMARK 923 INTER-LIGAND FREE ENERGY PREDICTED BY IDOCK:   -5.89 KCAL/MOL
REMARK 924 INTRA-LIGAND FREE ENERGY PREDICTED BY IDOCK:    0.02 KCAL/MOL
REMARK 927      BINDING AFFINITY PREDICTED BY RF-SCORE:    0.00 PKD
ROOT
HETATM    1  C   UNL     1     -10.026  11.229  63.215  1.00  0.00    -0.428 C  
HETATM    2  C   UNL     1     -10.421  11.611  64.612  1.00  0.00    -0.354 A  
HETATM    3  C   UNL     1     -11.707  12.065  64.889  1.00  0.00    -0.321 A  
HETATM    4  C   UNL     1     -12.017  12.556  66.153  1.00  0.00    -0.432 A  
HETATM    5  C   UNL     1     -11.037  12.643  67.153  1.00  0.00    -0.280 A  
HETATM    6  C   UNL     1      -9.783  12.045  66.935  1.00  0.00    -0.213 A  
HETATM    7  C   UNL     1      -9.490  11.535  65.656  1.00  0.00    -0.244 A  
ENDROOT
BRANCH   5   8
HETATM    8  N   UNL     1     -11.258  13.417  68.318  1.00  0.00    -0.263 NA 
HETATM    9  H   UNL     1     -10.993  14.401  68.275  1.00  0.00     0.000 HD 
BRANCH   8  10
HETATM   10  C   UNL     1     -11.814  12.951  69.546  1.00  0.00    -0.320 A  
HETATM   11  F   UNL     1     -11.802  10.752  68.668  1.00  0.00    -0.347 F  
HETATM   12  C   UNL     1     -12.131  11.588  69.664  1.00  0.00    -0.296 A  
HETATM   13  C   UNL     1     -12.096  13.771  70.659  1.00  0.00    -0.333 A  
HETATM   14 CL   UNL     1     -11.513  15.398  70.800  1.00  0.00    -0.348 Cl 
HETATM   15  C   UNL     1     -12.811  13.273  71.758  1.00  0.00    -0.367 A  
HETATM   16  C   UNL     1     -12.802  11.078  70.775  1.00  0.00    -0.354 A  
HETATM   17  C   UNL     1     -13.179  11.931  71.807  1.00  0.00    -0.426 A  
ENDBRANCH   8  10
ENDBRANCH   5   8
BRANCH   6  18
HETATM   18  C   UNL     1      -8.724  11.962  68.015  1.00  0.00    -0.173 C  
HETATM   19  O   UNL     1      -6.994  13.163  69.154  1.00  0.00    -0.098 OA 
HETATM   20  C   UNL     1      -7.886  13.185  68.315  1.00  0.00    -0.143 C  
HETATM   21  O   UNL     1      -8.145  14.311  67.615  1.00  0.00    -0.150 OA 
ENDBRANCH   6  18
TORSDOF 3
ENDMDL
MODEL      163
REMARK 921   NORMALIZED FREE ENERGY PREDICTED BY IDOCK:   -4.80 KCAL/MOL
REMARK 922        TOTAL FREE ENERGY PREDICTED BY IDOCK:   -5.87 KCAL/MOL
REMARK 923 INTER-LIGAND FREE ENERGY PREDICTED BY IDOCK:   -5.09 KCAL/MOL
REMARK 924 INTRA-LIGAND FREE ENERGY PREDICTED BY IDOCK:   -0.78 KCAL/MOL
REMARK 927      BINDING AFFINITY PREDICTED BY RF-SCORE:    0.00 PKD
ROOT
HETATM    1  C   UNL     1     -12.372  12.529  70.714  1.00  0.00    -0.376 C  
HETATM    2  C   UNL     1     -11.814  12.661  69.327  1.00  0.00    -0.358 A  
HETATM    3  C   UNL     1     -11.999  11.654  68.386  1.00  0.00    -0.266 A  
HETATM    4  C   UNL     1     -11.354  11.719  67.156  1.00  0.00    -0.387 A  
HETATM    5  C   UNL     1     -10.476  12.771  66.858  1.00  0.00    -0.240 A  
HETATM    6  C   UNL     1     -10.404  13.871  67.733  1.00  0.00    -0.240 A  
HETATM    7  C   UNL     1     -11.078  13.798  68.967  1.00  0.00    -0.296 A  
ENDROOT
BRANCH   5   8
HETATM    8  N   UNL     1      -9.590  12.686  65.756  1.00  0.00    -0.428 NA 
HETATM    9  H   UNL     1      -8.996  13.496  65.580  1.00  0.00     0.000 HD 
BRANCH   8  10
HETATM   10  C   UNL     1      -9.449  11.577  64.872  1.00  0.00    -0.129 A  
HETATM   11  F   UNL     1      -7.844  10.655  66.350  1.00  0.00    -0.119 F  
HETATM   12  C   UNL     1      -8.504  10.586  65.183  1.00  0.00    -0.166 A  
HETATM   13  C   UNL     1     -10.181  11.408  63.677  1.00  0.00    -0.397 A  
HETATM   14 CL   UNL     1     -11.574  12.363  63.285  1.00  0.00    -0.500 Cl 
HETATM   15  C   UNL     1      -9.856  10.388  62.771  1.00  0.00    -0.115 A  
HETATM   16  C   UNL     1      -8.207   9.543  64.305  1.00  0.00    -0.157 A  
HETATM   17  C   UNL     1      -8.856   9.468  63.078  1.00  0.00    -0.242 A  
ENDBRANCH   8  10
ENDBRANCH   5   8
BRANCH   6  18
HETATM   18  C   UNL     1      -9.598  15.113  67.413  1.00  0.00    -0.208 C  
HETATM   19  O   UNL     1      -7.392  16.035  67.291  1.00  0.00    -0.167 OA 
HETATM   20  C   UNL     1      -8.089  15.051  67.506  1.00  0.00    -0.181 C  
HETATM   21  O   UNL     1      -7.529  13.871  67.847  1.00  0.00    -0.118 OA 
ENDBRANCH   6  18
TORSDOF 3
ENDMDL
MODEL      164
REMARK 921   NORMALIZED FREE ENERGY PREDICTED BY IDOCK:   -4.79 KCAL/MOL
REMARK 922        TOTAL FREE ENERGY PREDICTED BY IDOCK:   -5.86 KCAL/MOL
REMARK 923 INTER-LIGAND FREE ENERGY PREDICTED BY IDOCK:   -5.08 KCAL/MOL
REMARK 924 INTRA-LIGAND FREE ENERGY PREDICTED BY IDOCK:   -0.78 KCAL/MOL
REMARK 927      BINDING AFFINITY PREDICTED BY RF-SCORE:    0.00 PKD
ROOT
HETATM    1  C   UNL     1      -9.907  20.220  69.773  1.00  0.00     0.371 C  
HETATM    2  C   UNL     1      -9.848  19.477  68.470  1.00  0.00    -0.518 A  
HETATM    3  C   UNL     1     -11.008  19.201  67.754  1.00  0.00    -0.297 A  
HETATM    4  C   UNL     1     -10.958  18.386  66.628  1.00  0.00     0.099 A  
HETATM    5  C   UNL     1      -9.754  17.795  66.220  1.00  0.00    -0.267 A  
HETATM    6  C   UNL     1      -8.553  18.190  66.839  1.00  0.00    -0.268 A  
HETATM    7  C   UNL     1      -8.619  19.031  67.966  1.00  0.00    -0.337 A  
ENDROOT
BRANCH   5   8
HETATM    8  N   UNL     1      -9.748  16.733  65.282  1.00  0.00    -0.188 NA 
HETATM    9  H   UNL     1      -9.183  16.862  64.444  1.00  0.00     0.000 HD 
BRANCH   8  10
HETATM   10  C   UNL     1     -10.459  15.502  65.399  1.00  0.00    -0.405 A  
HETATM   11  F   UNL     1     -12.081  16.344  63.893  1.00  0.00    -0.291 F  
HETATM   12  C   UNL     1     -11.678  15.364  64.716  1.00  0.00    -0.232 A  
HETATM   13  C   UNL     1     -10.036  14.405  66.179  1.00  0.00    -0.311 A  
HETATM   14 CL   UNL     1      -8.440  14.286  66.848  1.00  0.00    -0.183 Cl 
HETATM   15  C   UNL     1     -10.878  13.304  66.389  1.00  0.00    -0.296 A  
HETATM   16  C   UNL     1     -12.500  14.250  64.885  1.00  0.00    -0.403 A  
HETATM   17  C   UNL     1     -12.117  13.235  65.756  1.00  0.00    -0.491 A  
ENDBRANCH   8  10
ENDBRANCH   5   8
BRANCH   6  18
HETATM   18  C   UNL     1      -7.197  17.714  66.360  1.00  0.00    -0.319 C  
HETATM   19  O   UNL     1      -5.246  18.311  65.108  1.00  0.00    -0.160 OA 
HETATM   20  C   UNL     1      -6.336  18.656  65.548  1.00  0.00    -0.285 C  
HETATM   21  O   UNL     1      -6.812  19.897  65.311  1.00  0.00    -0.292 OA 
ENDBRANCH   6  18
TORSDOF 3
ENDMDL
MODEL      165
REMARK 921   NORMALIZED FREE ENERGY PREDICTED BY IDOCK:   -4.79 KCAL/MOL
REMARK 922        TOTAL FREE ENERGY PREDICTED BY IDOCK:   -5.86 KCAL/MOL
REMARK 923 INTER-LIGAND FREE ENERGY PREDICTED BY IDOCK:   -5.07 KCAL/MOL
REMARK 924 INTRA-LIGAND FREE ENERGY PREDICTED BY IDOCK:   -0.79 KCAL/MOL
REMARK 927      BINDING AFFINITY PREDICTED BY RF-SCORE:    0.00 PKD
ROOT
HETATM    1  C   UNL     1      -9.897  16.968  66.866  1.00  0.00    -0.273 C  
HETATM    2  C   UNL     1     -10.432  15.596  67.161  1.00  0.00    -0.303 A  
HETATM    3  C   UNL     1     -10.485  15.118  68.466  1.00  0.00    -0.233 A  
HETATM    4  C   UNL     1     -10.841  13.796  68.712  1.00  0.00    -0.281 A  
HETATM    5  C   UNL     1     -11.108  12.914  67.655  1.00  0.00    -0.264 A  
HETATM    6  C   UNL     1     -11.211  13.422  66.348  1.00  0.00    -0.323 A  
HETATM    7  C   UNL     1     -10.866  14.768  66.117  1.00  0.00    -0.321 A  
ENDROOT
BRANCH   5   8
HETATM    8  N   UNL     1     -11.162  11.515  67.875  1.00  0.00    -0.256 NA 
HETATM    9  H   UNL     1     -11.868  10.994  67.355  1.00  0.00     0.000 HD 
BRANCH   8  10
HETATM   10  C   UNL     1     -10.324  10.767  68.753  1.00  0.00    -0.192 A  
HETATM   11  F   UNL     1      -8.500  11.188  67.302  1.00  0.00    -0.128 F  
HETATM   12  C   UNL     1      -8.979  10.575  68.395  1.00  0.00    -0.141 A  
HETATM   13  C   UNL     1     -10.754  10.176  69.960  1.00  0.00    -0.305 A  
HETATM   14 CL   UNL     1     -12.280  10.546  70.697  1.00  0.00    -0.413 Cl 
HETATM   15  C   UNL     1      -9.918   9.304  70.672  1.00  0.00    -0.336 A  
HETATM   16  C   UNL     1      -8.130   9.744  69.125  1.00  0.00    -0.107 A  
HETATM   17  C   UNL     1      -8.613   9.074  70.244  1.00  0.00    -0.193 A  
ENDBRANCH   8  10
ENDBRANCH   5   8
BRANCH   6  18
HETATM   18  C   UNL     1     -11.644  12.568  65.175  1.00  0.00    -0.395 C  
HETATM   19  O   UNL     1     -10.879  11.213  63.355  1.00  0.00    -0.335 OA 
HETATM   20  C   UNL     1     -10.586  11.888  64.335  1.00  0.00    -0.319 C  
HETATM   21  O   UNL     1      -9.295  12.056  64.693  1.00  0.00     0.052 OA 
ENDBRANCH   6  18
TORSDOF 3
ENDMDL
MODEL      166
REMARK 921   NORMALIZED FREE ENERGY PREDICTED BY IDOCK:   -4.77 KCAL/MOL
REMARK 922        TOTAL FREE ENERGY PREDICTED BY IDOCK:   -5.83 KCAL/MOL
REMARK 923 INTER-LIGAND FREE ENERGY PREDICTED BY IDOCK:   -5.30 KCAL/MOL
REMARK 924 INTRA-LIGAND FREE ENERGY PREDICTED BY IDOCK:   -0.53 KCAL/MOL
REMARK 927      BINDING AFFINITY PREDICTED BY RF-SCORE:    0.00 PKD
ROOT
HETATM    1  C   UNL     1      -9.829   8.635  66.442  1.00  0.00    -0.341 C  
HETATM    2  C   UNL     1      -9.766   8.807  67.931  1.00  0.00    -0.188 A  
HETATM    3  C   UNL     1      -9.041   7.921  68.721  1.00  0.00    -0.140 A  
HETATM    4  C   UNL     1      -9.112   8.002  70.108  1.00  0.00    -0.151 A  
HETATM    5  C   UNL     1      -9.943   8.943  70.733  1.00  0.00    -0.226 A  
HETATM    6  C   UNL     1     -10.555   9.941  69.953  1.00  0.00    -0.312 A  
HETATM    7  C   UNL     1     -10.459   9.856  68.550  1.00  0.00    -0.232 A  
ENDROOT
BRANCH   5   8
HETATM    8  N   UNL     1     -10.259   8.830  72.109  1.00  0.00    -0.326 NA 
HETATM    9  H   UNL     1     -10.607   9.670  72.572  1.00  0.00     0.000 HD 
BRANCH   8  10
HETATM   10  C   UNL     1     -10.137   7.656  72.908  1.00  0.00    -0.286 A  
HETATM   11  F   UNL     1      -8.302   8.655  74.022  1.00  0.00    -0.272 F  
HETATM   12  C   UNL     1      -9.086   7.582  73.837  1.00  0.00    -0.264 A  
HETATM   13  C   UNL     1     -10.989   6.535  72.819  1.00  0.00    -0.253 A  
HETATM   14 CL   UNL     1     -12.490   6.561  71.949  1.00  0.00    -0.367 Cl 
HETATM   15  C   UNL     1     -10.693   5.349  73.506  1.00  0.00    -0.331 A  
HETATM   16  C   UNL     1      -8.814   6.419  74.557  1.00  0.00    -0.171 A  
HETATM   17  C   UNL     1      -9.596   5.286  74.361  1.00  0.00    -0.155 A  
ENDBRANCH   8  10
ENDBRANCH   5   8
BRANCH   6  18
HETATM   18  C   UNL     1     -11.344  11.081  70.564  1.00  0.00    -0.116 C  
HETATM   19  O   UNL     1     -13.349  11.665  71.734  1.00  0.00    -0.399 OA 
HETATM   20  C   UNL     1     -12.655  10.777  71.253  1.00  0.00    -0.426 C  
HETATM   21  O   UNL     1     -13.049   9.487  71.314  1.00  0.00    -0.345 OA 
ENDBRANCH   6  18
TORSDOF 3
ENDMDL
MODEL      167
REMARK 921   NORMALIZED FREE ENERGY PREDICTED BY IDOCK:   -4.75 KCAL/MOL
REMARK 922        TOTAL FREE ENERGY PREDICTED BY IDOCK:   -5.81 KCAL/MOL
REMARK 923 INTER-LIGAND FREE ENERGY PREDICTED BY IDOCK:   -5.31 KCAL/MOL
REMARK 924 INTRA-LIGAND FREE ENERGY PREDICTED BY IDOCK:   -0.50 KCAL/MOL
REMARK 927      BINDING AFFINITY PREDICTED BY RF-SCORE:    0.00 PKD
ROOT
HETATM    1  C   UNL     1      -5.660   9.040  69.229  1.00  0.00    -0.035 C  
HETATM    2  C   UNL     1      -6.616   9.820  68.375  1.00  0.00    -0.056 A  
HETATM    3  C   UNL     1      -6.269  10.202  67.083  1.00  0.00    -0.062 A  
HETATM    4  C   UNL     1      -7.099  11.048  66.357  1.00  0.00    -0.120 A  
HETATM    5  C   UNL     1      -8.273  11.566  66.923  1.00  0.00    -0.167 A  
HETATM    6  C   UNL     1      -8.713  11.066  68.163  1.00  0.00    -0.141 A  
HETATM    7  C   UNL     1      -7.869  10.194  68.878  1.00  0.00    -0.100 A  
ENDROOT
BRANCH   5   8
HETATM    8  N   UNL     1      -8.950  12.655  66.321  1.00  0.00    -0.430 NA 
HETATM    9  H   UNL     1      -8.533  13.578  66.439  1.00  0.00     0.000 HD 
BRANCH   8  10
HETATM   10  C   UNL     1     -10.158  12.583  65.568  1.00  0.00    -0.265 A  
HETATM   11  F   UNL     1      -9.162  10.921  64.207  1.00  0.00    -0.201 F  
HETATM   12  C   UNL     1     -10.207  11.724  64.458  1.00  0.00    -0.284 A  
HETATM   13  C   UNL     1     -11.319  13.338  65.842  1.00  0.00    -0.311 A  
HETATM   14 CL   UNL     1     -11.541  14.220  67.319  1.00  0.00    -0.378 Cl 
HETATM   15  C   UNL     1     -12.399  13.348  64.948  1.00  0.00    -0.457 A  
HETATM   16  C   UNL     1     -11.298  11.697  63.589  1.00  0.00    -0.485 A  
HETATM   17  C   UNL     1     -12.380  12.541  63.813  1.00  0.00    -0.595 A  
ENDBRANCH   8  10
ENDBRANCH   5   8
BRANCH   6  18
HETATM   18  C   UNL     1     -10.043  11.460  68.772  1.00  0.00    -0.199 C  
HETATM   19  O   UNL     1     -12.390  10.991  68.815  1.00  0.00    -0.533 OA 
HETATM   20  C   UNL     1     -11.285  10.693  68.378  1.00  0.00    -0.288 C  
HETATM   21  O   UNL     1     -11.142   9.666  67.513  1.00  0.00    -0.206 OA 
ENDBRANCH   6  18
TORSDOF 3
ENDMDL
MODEL      168
REMARK 921   NORMALIZED FREE ENERGY PREDICTED BY IDOCK:   -4.74 KCAL/MOL
REMARK 922        TOTAL FREE ENERGY PREDICTED BY IDOCK:   -5.80 KCAL/MOL
REMARK 923 INTER-LIGAND FREE ENERGY PREDICTED BY IDOCK:   -5.58 KCAL/MOL
REMARK 924 INTRA-LIGAND FREE ENERGY PREDICTED BY IDOCK:   -0.23 KCAL/MOL
REMARK 927      BINDING AFFINITY PREDICTED BY RF-SCORE:    0.00 PKD
ROOT
HETATM    1  C   UNL     1     -13.405  13.886  72.561  1.00  0.00    -0.656 C  
HETATM    2  C   UNL     1     -12.867  13.327  71.275  1.00  0.00    -0.398 A  
HETATM    3  C   UNL     1     -12.630  11.964  71.135  1.00  0.00    -0.390 A  
HETATM    4  C   UNL     1     -11.996  11.478  69.998  1.00  0.00    -0.435 A  
HETATM    5  C   UNL     1     -11.545  12.350  68.996  1.00  0.00    -0.311 A  
HETATM    6  C   UNL     1     -11.917  13.706  69.051  1.00  0.00    -0.392 A  
HETATM    7  C   UNL     1     -12.577  14.179  70.202  1.00  0.00    -0.325 A  
ENDROOT
BRANCH   5   8
HETATM    8  N   UNL     1     -10.637  11.908  68.003  1.00  0.00    -0.200 NA 
HETATM    9  H   UNL     1     -11.028  11.676  67.091  1.00  0.00     0.000 HD 
BRANCH   8  10
HETATM   10  C   UNL     1      -9.228  11.755  68.159  1.00  0.00    -0.186 A  
HETATM   11  F   UNL     1      -8.912  13.671  66.805  1.00  0.00    -0.227 F  
HETATM   12  C   UNL     1      -8.377  12.644  67.483  1.00  0.00    -0.177 A  
HETATM   13  C   UNL     1      -8.613  10.748  68.933  1.00  0.00    -0.153 A  
HETATM   14 CL   UNL     1      -9.489   9.755  70.054  1.00  0.00    -0.272 Cl 
HETATM   15  C   UNL     1      -7.225  10.551  68.888  1.00  0.00    -0.086 A  
HETATM   16  C   UNL     1      -6.992  12.481  67.471  1.00  0.00    -0.149 A  
HETATM   17  C   UNL     1      -6.417  11.407  68.142  1.00  0.00    -0.056 A  
ENDBRANCH   8  10
ENDBRANCH   5   8
BRANCH   6  18
HETATM   18  C   UNL     1     -11.601  14.682  67.937  1.00  0.00    -0.373 C  
HETATM   19  O   UNL     1     -10.261  16.562  67.305  1.00  0.00    -0.275 OA 
HETATM   20  C   UNL     1     -10.532  15.728  68.160  1.00  0.00    -0.263 C  
HETATM   21  O   UNL     1      -9.886  15.723  69.346  1.00  0.00    -0.251 OA 
ENDBRANCH   6  18
TORSDOF 3
ENDMDL
MODEL      169
REMARK 921   NORMALIZED FREE ENERGY PREDICTED BY IDOCK:   -4.73 KCAL/MOL
REMARK 922        TOTAL FREE ENERGY PREDICTED BY IDOCK:   -5.79 KCAL/MOL
REMARK 923 INTER-LIGAND FREE ENERGY PREDICTED BY IDOCK:   -5.05 KCAL/MOL
REMARK 924 INTRA-LIGAND FREE ENERGY PREDICTED BY IDOCK:   -0.74 KCAL/MOL
REMARK 927      BINDING AFFINITY PREDICTED BY RF-SCORE:    0.00 PKD
ROOT
HETATM    1  C   UNL     1      -8.493  17.070  68.940  1.00  0.00    -0.193 C  
HETATM    2  C   UNL     1      -8.804  15.696  68.420  1.00  0.00    -0.184 A  
HETATM    3  C   UNL     1      -7.833  14.701  68.412  1.00  0.00    -0.131 A  
HETATM    4  C   UNL     1      -8.087  13.481  67.794  1.00  0.00    -0.177 A  
HETATM    5  C   UNL     1      -9.301  13.248  67.132  1.00  0.00    -0.240 A  
HETATM    6  C   UNL     1     -10.345  14.182  67.268  1.00  0.00    -0.267 A  
HETATM    7  C   UNL     1     -10.078  15.405  67.914  1.00  0.00    -0.226 A  
ENDROOT
BRANCH   5   8
HETATM    8  N   UNL     1      -9.446  12.152  66.247  1.00  0.00    -0.232 NA 
HETATM    9  H   UNL     1      -9.600  12.371  65.264  1.00  0.00     0.000 HD 
BRANCH   8  10
HETATM   10  C   UNL     1      -9.399  10.771  66.602  1.00  0.00    -0.166 A  
HETATM   11  F   UNL     1      -7.211  10.659  65.702  1.00  0.00    -0.142 F  
HETATM   12  C   UNL     1      -8.259  10.028  66.254  1.00  0.00    -0.124 A  
HETATM   13  C   UNL     1     -10.435  10.079  67.264  1.00  0.00    -0.254 A  
HETATM   14 CL   UNL     1     -11.773  10.884  68.018  1.00  0.00    -0.299 Cl 
HETATM   15  C   UNL     1     -10.389   8.685  67.411  1.00  0.00    -0.353 A  
HETATM   16  C   UNL     1      -8.189   8.648  66.440  1.00  0.00    -0.111 A  
HETATM   17  C   UNL     1      -9.274   7.968  66.983  1.00  0.00    -0.181 A  
ENDBRANCH   8  10
ENDBRANCH   5   8
BRANCH   6  18
HETATM   18  C   UNL     1     -11.733  13.937  66.713  1.00  0.00    -0.423 C  
HETATM   19  O   UNL     1     -13.158  14.227  64.811  1.00  0.00    -0.599 OA 
HETATM   20  C   UNL     1     -12.042  14.371  65.297  1.00  0.00    -0.380 C  
HETATM   21  O   UNL     1     -11.047  14.937  64.582  1.00  0.00    -0.372 OA 
ENDBRANCH   6  18
TORSDOF 3
ENDMDL
MODEL      170
REMARK 921   NORMALIZED FREE ENERGY PREDICTED BY IDOCK:   -4.73 KCAL/MOL
REMARK 922        TOTAL FREE ENERGY PREDICTED BY IDOCK:   -5.79 KCAL/MOL
REMARK 923 INTER-LIGAND FREE ENERGY PREDICTED BY IDOCK:   -5.09 KCAL/MOL
REMARK 924 INTRA-LIGAND FREE ENERGY PREDICTED BY IDOCK:   -0.70 KCAL/MOL
REMARK 927      BINDING AFFINITY PREDICTED BY RF-SCORE:    0.00 PKD
ROOT
HETATM    1  C   UNL     1     -10.514   3.440  73.911  1.00  0.00    -0.257 C  
HETATM    2  C   UNL     1     -10.615   4.415  72.774  1.00  0.00    -0.254 A  
HETATM    3  C   UNL     1     -11.389   5.565  72.888  1.00  0.00    -0.348 A  
HETATM    4  C   UNL     1     -11.594   6.382  71.782  1.00  0.00    -0.367 A  
HETATM    5  C   UNL     1     -11.066   6.043  70.528  1.00  0.00    -0.314 A  
HETATM    6  C   UNL     1     -10.156   4.973  70.435  1.00  0.00    -0.330 A  
HETATM    7  C   UNL     1      -9.944   4.166  71.570  1.00  0.00    -0.230 A  
ENDROOT
BRANCH   5   8
HETATM    8  N   UNL     1     -11.521   6.686  69.351  1.00  0.00    -0.617 NA 
HETATM    9  H   UNL     1     -12.434   6.403  68.995  1.00  0.00     0.000 HD 
BRANCH   8  10
HETATM   10  C   UNL     1     -10.825   7.690  68.617  1.00  0.00     0.028 A  
HETATM   11  F   UNL     1     -11.050   6.363  66.668  1.00  0.00    -0.400 F  
HETATM   12  C   UNL     1     -10.554   7.462  67.258  1.00  0.00    -0.323 A  
HETATM   13  C   UNL     1     -10.359   8.904  69.165  1.00  0.00    -0.220 A  
HETATM   14 CL   UNL     1     -10.847   9.480  70.727  1.00  0.00    -0.356 Cl 
HETATM   15  C   UNL     1      -9.525   9.755  68.426  1.00  0.00    -0.146 A  
HETATM   16  C   UNL     1      -9.761   8.327  66.504  1.00  0.00    -0.323 A  
HETATM   17  C   UNL     1      -9.212   9.457  67.102  1.00  0.00    -0.159 A  
ENDBRANCH   8  10
ENDBRANCH   5   8
BRANCH   6  18
HETATM   18  C   UNL     1      -9.426   4.636  69.151  1.00  0.00    -0.224 C  
HETATM   19  O   UNL     1      -7.510   5.128  67.804  1.00  0.00    -0.078 OA 
HETATM   20  C   UNL     1      -8.123   5.338  68.843  1.00  0.00    -0.086 C  
HETATM   21  O   UNL     1      -7.656   6.222  69.751  1.00  0.00    -0.082 OA 
ENDBRANCH   6  18
TORSDOF 3
ENDMDL
MODEL      171
REMARK 921   NORMALIZED FREE ENERGY PREDICTED BY IDOCK:   -4.73 KCAL/MOL
REMARK 922        TOTAL FREE ENERGY PREDICTED BY IDOCK:   -5.79 KCAL/MOL
REMARK 923 INTER-LIGAND FREE ENERGY PREDICTED BY IDOCK:   -5.14 KCAL/MOL
REMARK 924 INTRA-LIGAND FREE ENERGY PREDICTED BY IDOCK:   -0.64 KCAL/MOL
REMARK 927      BINDING AFFINITY PREDICTED BY RF-SCORE:    0.00 PKD
ROOT
HETATM    1  C   UNL     1     -13.934   9.243  72.587  1.00  0.00    -0.325 C  
HETATM    2  C   UNL     1     -12.613   9.116  71.887  1.00  0.00    -0.463 A  
HETATM    3  C   UNL     1     -12.122  10.151  71.097  1.00  0.00    -0.485 A  
HETATM    4  C   UNL     1     -10.973   9.966  70.336  1.00  0.00    -0.379 A  
HETATM    5  C   UNL     1     -10.315   8.728  70.315  1.00  0.00    -0.203 A  
HETATM    6  C   UNL     1     -10.708   7.728  71.224  1.00  0.00    -0.251 A  
HETATM    7  C   UNL     1     -11.863   7.938  72.002  1.00  0.00    -0.364 A  
ENDROOT
BRANCH   5   8
HETATM    8  N   UNL     1      -9.348   8.437  69.321  1.00  0.00    -0.154 NA 
HETATM    9  H   UNL     1      -8.683   7.693  69.530  1.00  0.00     0.000 HD 
BRANCH   8  10
HETATM   10  C   UNL     1      -9.215   9.088  68.059  1.00  0.00    -0.135 A  
HETATM   11  F   UNL     1      -7.520  10.455  68.989  1.00  0.00    -0.076 F  
HETATM   12  C   UNL     1      -8.308  10.154  67.946  1.00  0.00    -0.117 A  
HETATM   13  C   UNL     1      -9.954   8.752  66.905  1.00  0.00    -0.257 A  
HETATM   14 CL   UNL     1     -10.893   7.300  66.778  1.00  0.00    -0.295 Cl 
HETATM   15  C   UNL     1      -9.900   9.556  65.757  1.00  0.00    -0.363 A  
HETATM   16  C   UNL     1      -8.218  10.930  66.791  1.00  0.00    -0.140 A  
HETATM   17  C   UNL     1      -9.045  10.655  65.707  1.00  0.00    -0.208 A  
ENDBRANCH   8  10
ENDBRANCH   5   8
BRANCH   6  18
HETATM   18  C   UNL     1      -9.956   6.421  71.370  1.00  0.00    -0.206 C  
HETATM   19  O   UNL     1      -9.603   4.252  70.422  1.00  0.00    -0.161 OA 
HETATM   20  C   UNL     1     -10.160   5.339  70.333  1.00  0.00    -0.254 C  
HETATM   21  O   UNL     1     -10.990   5.605  69.303  1.00  0.00    -0.304 OA 
ENDBRANCH   6  18
TORSDOF 3
ENDMDL
MODEL      172
REMARK 921   NORMALIZED FREE ENERGY PREDICTED BY IDOCK:   -4.73 KCAL/MOL
REMARK 922        TOTAL FREE ENERGY PREDICTED BY IDOCK:   -5.78 KCAL/MOL
REMARK 923 INTER-LIGAND FREE ENERGY PREDICTED BY IDOCK:   -5.62 KCAL/MOL
REMARK 924 INTRA-LIGAND FREE ENERGY PREDICTED BY IDOCK:   -0.16 KCAL/MOL
REMARK 927      BINDING AFFINITY PREDICTED BY RF-SCORE:    0.00 PKD
ROOT
HETATM    1  C   UNL     1      -9.656  10.232  62.836  1.00  0.00    -0.290 C  
HETATM    2  C   UNL     1      -9.906  11.285  63.876  1.00  0.00    -0.341 A  
HETATM    3  C   UNL     1     -10.403  12.535  63.520  1.00  0.00    -0.311 A  
HETATM    4  C   UNL     1     -10.490  13.548  64.468  1.00  0.00    -0.426 A  
HETATM    5  C   UNL     1     -10.041  13.347  65.782  1.00  0.00    -0.288 A  
HETATM    6  C   UNL     1      -9.686  12.049  66.192  1.00  0.00    -0.254 A  
HETATM    7  C   UNL     1      -9.621  11.028  65.223  1.00  0.00    -0.270 A  
ENDROOT
BRANCH   5   8
HETATM    8  N   UNL     1      -9.836  14.443  66.654  1.00  0.00    -0.269 NA 
HETATM    9  H   UNL     1      -9.196  15.171  66.337  1.00  0.00     0.000 HD 
BRANCH   8  10
HETATM   10  C   UNL     1     -10.438  14.626  67.934  1.00  0.00    -0.242 A  
HETATM   11  F   UNL     1     -12.427  13.657  67.090  1.00  0.00    -0.383 F  
HETATM   12  C   UNL     1     -11.784  14.262  68.100  1.00  0.00    -0.350 A  
HETATM   13  C   UNL     1      -9.782  15.174  69.057  1.00  0.00    -0.234 A  
HETATM   14 CL   UNL     1      -8.064  15.406  69.122  1.00  0.00    -0.215 Cl 
HETATM   15  C   UNL     1     -10.493  15.490  70.223  1.00  0.00    -0.282 A  
HETATM   16  C   UNL     1     -12.486  14.534  69.274  1.00  0.00    -0.066 A  
HETATM   17  C   UNL     1     -11.849  15.187  70.324  1.00  0.00    -0.352 A  
ENDBRANCH   8  10
ENDBRANCH   5   8
BRANCH   6  18
HETATM   18  C   UNL     1      -9.335  11.717  67.628  1.00  0.00    -0.178 C  
HETATM   19  O   UNL     1     -10.161  10.810  69.683  1.00  0.00    -0.180 OA 
HETATM   20  C   UNL     1     -10.381  11.068  68.506  1.00  0.00    -0.190 C  
HETATM   21  O   UNL     1     -11.581  10.789  67.953  1.00  0.00    -0.504 OA 
ENDBRANCH   6  18
TORSDOF 3
ENDMDL
MODEL      173
REMARK 921   NORMALIZED FREE ENERGY PREDICTED BY IDOCK:   -4.72 KCAL/MOL
REMARK 922        TOTAL FREE ENERGY PREDICTED BY IDOCK:   -5.78 KCAL/MOL
REMARK 923 INTER-LIGAND FREE ENERGY PREDICTED BY IDOCK:   -5.11 KCAL/MOL
REMARK 924 INTRA-LIGAND FREE ENERGY PREDICTED BY IDOCK:   -0.67 KCAL/MOL
REMARK 927      BINDING AFFINITY PREDICTED BY RF-SCORE:    0.00 PKD
ROOT
HETATM    1  C   UNL     1      -8.647   7.274  65.849  1.00  0.00    -0.159 C  
HETATM    2  C   UNL     1      -9.217   8.285  66.802  1.00  0.00    -0.212 A  
HETATM    3  C   UNL     1     -10.183   9.193  66.383  1.00  0.00    -0.300 A  
HETATM    4  C   UNL     1     -10.594  10.217  67.229  1.00  0.00    -0.321 A  
HETATM    5  C   UNL     1     -10.014  10.381  68.496  1.00  0.00    -0.167 A  
HETATM    6  C   UNL     1      -9.155   9.382  68.989  1.00  0.00    -0.142 A  
HETATM    7  C   UNL     1      -8.763   8.340  68.126  1.00  0.00    -0.136 A  
ENDROOT
BRANCH   5   8
HETATM    8  N   UNL     1     -10.194  11.581  69.226  1.00  0.00    -0.425 NA 
HETATM    9  H   UNL     1     -10.215  11.503  70.243  1.00  0.00     0.000 HD 
BRANCH   8  10
HETATM   10  C   UNL     1     -10.348  12.887  68.676  1.00  0.00    -0.188 A  
HETATM   11  F   UNL     1     -12.212  13.221  70.098  1.00  0.00    -0.366 F  
HETATM   12  C   UNL     1     -11.428  13.674  69.107  1.00  0.00    -0.297 A  
HETATM   13  C   UNL     1      -9.500  13.449  67.697  1.00  0.00    -0.216 A  
HETATM   14 CL   UNL     1      -7.973  12.751  67.264  1.00  0.00    -0.173 Cl 
HETATM   15  C   UNL     1      -9.825  14.662  67.074  1.00  0.00    -0.244 A  
HETATM   16  C   UNL     1     -11.730  14.903  68.522  1.00  0.00    -0.338 A  
HETATM   17  C   UNL     1     -10.950  15.380  67.474  1.00  0.00    -0.315 A  
ENDBRANCH   8  10
ENDBRANCH   5   8
BRANCH   6  18
HETATM   18  C   UNL     1      -8.606   9.406  70.401  1.00  0.00    -0.266 C  
HETATM   19  O   UNL     1      -9.018   8.764  72.670  1.00  0.00    -0.380 OA 
HETATM   20  C   UNL     1      -9.399   8.744  71.506  1.00  0.00    -0.267 C  
HETATM   21  O   UNL     1     -10.556   8.134  71.171  1.00  0.00    -0.201 OA 
ENDBRANCH   6  18
TORSDOF 3
ENDMDL
MODEL      174
REMARK 921   NORMALIZED FREE ENERGY PREDICTED BY IDOCK:   -4.70 KCAL/MOL
REMARK 922        TOTAL FREE ENERGY PREDICTED BY IDOCK:   -5.75 KCAL/MOL
REMARK 923 INTER-LIGAND FREE ENERGY PREDICTED BY IDOCK:   -5.30 KCAL/MOL
REMARK 924 INTRA-LIGAND FREE ENERGY PREDICTED BY IDOCK:   -0.45 KCAL/MOL
REMARK 927      BINDING AFFINITY PREDICTED BY RF-SCORE:    0.00 PKD
ROOT
HETATM    1  C   UNL     1     -10.661   4.765  65.864  1.00  0.00    -0.225 C  
HETATM    2  C   UNL     1     -10.255   5.701  66.965  1.00  0.00    -0.265 A  
HETATM    3  C   UNL     1     -10.087   5.240  68.267  1.00  0.00    -0.219 A  
HETATM    4  C   UNL     1      -9.857   6.138  69.303  1.00  0.00    -0.182 A  
HETATM    5  C   UNL     1      -9.834   7.520  69.066  1.00  0.00    -0.170 A  
HETATM    6  C   UNL     1      -9.844   7.987  67.739  1.00  0.00    -0.207 A  
HETATM    7  C   UNL     1     -10.059   7.062  66.699  1.00  0.00    -0.219 A  
ENDROOT
BRANCH   5   8
HETATM    8  N   UNL     1      -9.913   8.441  70.139  1.00  0.00    -0.185 NA 
HETATM    9  H   UNL     1      -9.033   8.729  70.565  1.00  0.00     0.000 HD 
BRANCH   8  10
HETATM   10  C   UNL     1     -11.107   9.004  70.679  1.00  0.00    -0.265 A  
HETATM   11  F   UNL     1     -10.541  11.070  69.668  1.00  0.00    -0.253 F  
HETATM   12  C   UNL     1     -11.364  10.368  70.463  1.00  0.00    -0.341 A  
HETATM   13  C   UNL     1     -12.053   8.291  71.446  1.00  0.00    -0.300 A  
HETATM   14 CL   UNL     1     -12.052   6.561  71.568  1.00  0.00    -0.390 Cl 
HETATM   15  C   UNL     1     -13.103   8.956  72.095  1.00  0.00    -0.475 A  
HETATM   16  C   UNL     1     -12.433  11.026  71.070  1.00  0.00    -0.512 A  
HETATM   17  C   UNL     1     -13.282  10.326  71.921  1.00  0.00    -0.550 A  
ENDBRANCH   8  10
ENDBRANCH   5   8
BRANCH   6  18
HETATM   18  C   UNL     1      -9.671   9.451  67.391  1.00  0.00    -0.205 C  
HETATM   19  O   UNL     1      -8.075  11.180  66.948  1.00  0.00    -0.137 OA 
HETATM   20  C   UNL     1      -8.274   9.997  67.197  1.00  0.00    -0.117 C  
HETATM   21  O   UNL     1      -7.240   9.137  67.319  1.00  0.00    -0.082 OA 
ENDBRANCH   6  18
TORSDOF 3
ENDMDL
MODEL      175
REMARK 921   NORMALIZED FREE ENERGY PREDICTED BY IDOCK:   -4.69 KCAL/MOL
REMARK 922        TOTAL FREE ENERGY PREDICTED BY IDOCK:   -5.74 KCAL/MOL
REMARK 923 INTER-LIGAND FREE ENERGY PREDICTED BY IDOCK:   -5.29 KCAL/MOL
REMARK 924 INTRA-LIGAND FREE ENERGY PREDICTED BY IDOCK:   -0.45 KCAL/MOL
REMARK 927      BINDING AFFINITY PREDICTED BY RF-SCORE:    0.00 PKD
ROOT
HETATM    1  C   UNL     1     -12.144  13.047  63.208  1.00  0.00    -0.499 C  
HETATM    2  C   UNL     1     -11.507  12.275  64.326  1.00  0.00    -0.429 A  
HETATM    3  C   UNL     1     -10.581  11.271  64.062  1.00  0.00    -0.450 A  
HETATM    4  C   UNL     1     -10.111  10.465  65.093  1.00  0.00    -0.379 A  
HETATM    5  C   UNL     1     -10.591  10.617  66.402  1.00  0.00    -0.175 A  
HETATM    6  C   UNL     1     -11.403  11.723  66.709  1.00  0.00    -0.385 A  
HETATM    7  C   UNL     1     -11.856  12.542  65.657  1.00  0.00    -0.493 A  
ENDROOT
BRANCH   5   8
HETATM    8  N   UNL     1     -10.361   9.617  67.379  1.00  0.00    -0.231 NA 
HETATM    9  H   UNL     1     -11.118   8.956  67.548  1.00  0.00     0.000 HD 
BRANCH   8  10
HETATM   10  C   UNL     1      -9.172   9.449  68.148  1.00  0.00    -0.130 A  
HETATM   11  F   UNL     1     -10.365  10.154  70.069  1.00  0.00    -0.257 F  
HETATM   12  C   UNL     1      -9.200   9.788  69.511  1.00  0.00    -0.213 A  
HETATM   13  C   UNL     1      -7.944   8.982  67.632  1.00  0.00    -0.101 A  
HETATM   14 CL   UNL     1      -7.799   8.251  66.066  1.00  0.00    -0.093 Cl 
HETATM   15  C   UNL     1      -6.777   9.019  68.408  1.00  0.00    -0.060 A  
HETATM   16  C   UNL     1      -8.050   9.784  70.299  1.00  0.00    -0.181 A  
HETATM   17  C   UNL     1      -6.827   9.438  69.736  1.00  0.00    -0.055 A  
ENDBRANCH   8  10
ENDBRANCH   5   8
BRANCH   6  18
HETATM   18  C   UNL     1     -11.839  12.044  68.124  1.00  0.00    -0.352 C  
HETATM   19  O   UNL     1     -11.693  13.641  69.901  1.00  0.00    -0.288 OA 
HETATM   20  C   UNL     1     -11.397  13.348  68.749  1.00  0.00    -0.292 C  
HETATM   21  O   UNL     1     -10.648  14.183  67.997  1.00  0.00    -0.233 OA 
ENDBRANCH   6  18
TORSDOF 3
ENDMDL
MODEL      176
REMARK 921   NORMALIZED FREE ENERGY PREDICTED BY IDOCK:   -4.67 KCAL/MOL
REMARK 922        TOTAL FREE ENERGY PREDICTED BY IDOCK:   -5.72 KCAL/MOL
REMARK 923 INTER-LIGAND FREE ENERGY PREDICTED BY IDOCK:   -6.03 KCAL/MOL
REMARK 924 INTRA-LIGAND FREE ENERGY PREDICTED BY IDOCK:    0.31 KCAL/MOL
REMARK 927      BINDING AFFINITY PREDICTED BY RF-SCORE:    0.00 PKD
ROOT
HETATM    1  C   UNL     1      -9.770   9.986  64.376  1.00  0.00    -0.277 C  
HETATM    2  C   UNL     1      -9.579  11.258  65.149  1.00  0.00    -0.269 A  
HETATM    3  C   UNL     1      -8.672  11.323  66.202  1.00  0.00    -0.179 A  
HETATM    4  C   UNL     1      -8.611  12.457  67.003  1.00  0.00    -0.191 A  
HETATM    5  C   UNL     1      -9.486  13.534  66.796  1.00  0.00    -0.269 A  
HETATM    6  C   UNL     1     -10.295  13.546  65.645  1.00  0.00    -0.303 A  
HETATM    7  C   UNL     1     -10.331  12.397  64.832  1.00  0.00    -0.319 A  
ENDROOT
BRANCH   5   8
HETATM    8  N   UNL     1      -9.644  14.540  67.781  1.00  0.00    -0.212 NA 
HETATM    9  H   UNL     1      -8.974  15.308  67.766  1.00  0.00     0.000 HD 
BRANCH   8  10
HETATM   10  C   UNL     1     -10.650  14.580  68.790  1.00  0.00    -0.248 A  
HETATM   11  F   UNL     1     -10.493  12.225  68.982  1.00  0.00    -0.216 F  
HETATM   12  C   UNL     1     -11.098  13.368  69.340  1.00  0.00    -0.103 A  
HETATM   13  C   UNL     1     -11.257  15.761  69.269  1.00  0.00    -0.324 A  
HETATM   14 CL   UNL     1     -10.637  17.343  68.924  1.00  0.00    -0.302 Cl 
HETATM   15  C   UNL     1     -12.364  15.704  70.127  1.00  0.00    -0.366 A  
HETATM   16  C   UNL     1     -12.171  13.309  70.229  1.00  0.00    -0.391 A  
HETATM   17  C   UNL     1     -12.833  14.477  70.592  1.00  0.00    -0.399 A  
ENDBRANCH   8  10
ENDBRANCH   5   8
BRANCH   6  18
HETATM   18  C   UNL     1     -11.155  14.735  65.269  1.00  0.00    -0.374 C  
HETATM   19  O   UNL     1     -11.197  17.114  65.007  1.00  0.00    -0.474 OA 
HETATM   20  C   UNL     1     -10.538  16.115  65.270  1.00  0.00    -0.369 C  
HETATM   21  O   UNL     1      -9.229  16.218  65.584  1.00  0.00    -0.444 OA 
ENDBRANCH   6  18
TORSDOF 3
ENDMDL
MODEL      177
REMARK 921   NORMALIZED FREE ENERGY PREDICTED BY IDOCK:   -4.66 KCAL/MOL
REMARK 922        TOTAL FREE ENERGY PREDICTED BY IDOCK:   -5.71 KCAL/MOL
REMARK 923 INTER-LIGAND FREE ENERGY PREDICTED BY IDOCK:   -5.21 KCAL/MOL
REMARK 924 INTRA-LIGAND FREE ENERGY PREDICTED BY IDOCK:   -0.50 KCAL/MOL
REMARK 927      BINDING AFFINITY PREDICTED BY RF-SCORE:    0.00 PKD
ROOT
HETATM    1  C   UNL     1     -11.057   5.024  73.472  1.00  0.00    -0.386 C  
HETATM    2  C   UNL     1     -10.934   6.092  72.425  1.00  0.00    -0.299 A  
HETATM    3  C   UNL     1     -10.773   7.427  72.784  1.00  0.00    -0.362 A  
HETATM    4  C   UNL     1     -10.809   8.421  71.813  1.00  0.00    -0.353 A  
HETATM    5  C   UNL     1     -11.050   8.106  70.468  1.00  0.00    -0.253 A  
HETATM    6  C   UNL     1     -11.056   6.756  70.072  1.00  0.00    -0.366 A  
HETATM    7  C   UNL     1     -11.000   5.760  71.066  1.00  0.00    -0.300 A  
ENDROOT
BRANCH   5   8
HETATM    8  N   UNL     1     -11.396   9.116  69.537  1.00  0.00    -0.435 NA 
HETATM    9  H   UNL     1     -12.293   9.017  69.062  1.00  0.00     0.000 HD 
BRANCH   8  10
HETATM   10  C   UNL     1     -10.609  10.256  69.200  1.00  0.00    -0.230 A  
HETATM   11  F   UNL     1     -12.528  11.613  69.491  1.00  0.00    -0.273 F  
HETATM   12  C   UNL     1     -11.239  11.510  69.133  1.00  0.00    -0.274 A  
HETATM   13  C   UNL     1      -9.230  10.218  68.902  1.00  0.00    -0.175 A  
HETATM   14 CL   UNL     1      -8.239   8.830  69.214  1.00  0.00    -0.107 Cl 
HETATM   15  C   UNL     1      -8.570  11.350  68.403  1.00  0.00    -0.156 A  
HETATM   16  C   UNL     1     -10.575  12.649  68.679  1.00  0.00    -0.245 A  
HETATM   17  C   UNL     1      -9.248  12.560  68.274  1.00  0.00    -0.186 A  
ENDBRANCH   8  10
ENDBRANCH   5   8
BRANCH   6  18
HETATM   18  C   UNL     1     -11.159   6.335  68.620  1.00  0.00    -0.409 C  
HETATM   19  O   UNL     1      -9.998   5.310  66.795  1.00  0.00    -0.158 OA 
HETATM   20  C   UNL     1      -9.981   5.641  67.974  1.00  0.00    -0.143 C  
HETATM   21  O   UNL     1      -8.894   5.404  68.739  1.00  0.00    -0.103 OA 
ENDBRANCH   6  18
TORSDOF 3
ENDMDL
MODEL      178
REMARK 921   NORMALIZED FREE ENERGY PREDICTED BY IDOCK:   -4.66 KCAL/MOL
REMARK 922        TOTAL FREE ENERGY PREDICTED BY IDOCK:   -5.70 KCAL/MOL
REMARK 923 INTER-LIGAND FREE ENERGY PREDICTED BY IDOCK:   -5.07 KCAL/MOL
REMARK 924 INTRA-LIGAND FREE ENERGY PREDICTED BY IDOCK:   -0.63 KCAL/MOL
REMARK 927      BINDING AFFINITY PREDICTED BY RF-SCORE:    0.00 PKD
ROOT
HETATM    1  C   UNL     1      -8.073  18.680  67.649  1.00  0.00    -0.262 C  
HETATM    2  C   UNL     1      -8.538  17.254  67.721  1.00  0.00    -0.225 A  
HETATM    3  C   UNL     1      -7.714  16.214  67.306  1.00  0.00    -0.212 A  
HETATM    4  C   UNL     1      -8.207  14.916  67.237  1.00  0.00    -0.234 A  
HETATM    5  C   UNL     1      -9.548  14.638  67.541  1.00  0.00    -0.206 A  
HETATM    6  C   UNL     1     -10.344  15.648  68.110  1.00  0.00    -0.246 A  
HETATM    7  C   UNL     1      -9.824  16.954  68.190  1.00  0.00    -0.264 A  
ENDROOT
BRANCH   5   8
HETATM    8  N   UNL     1     -10.132  13.399  67.178  1.00  0.00    -0.238 NA 
HETATM    9  H   UNL     1     -10.665  13.378  66.310  1.00  0.00     0.000 HD 
BRANCH   8  10
HETATM   10  C   UNL     1     -10.045  12.180  67.913  1.00  0.00    -0.197 A  
HETATM   11  F   UNL     1     -12.384  12.279  68.272  1.00  0.00    -0.301 F  
HETATM   12  C   UNL     1     -11.211  11.669  68.506  1.00  0.00    -0.256 A  
HETATM   13  C   UNL     1      -8.854  11.449  68.114  1.00  0.00    -0.162 A  
HETATM   14 CL   UNL     1      -7.397  11.765  67.229  1.00  0.00    -0.132 Cl 
HETATM   15  C   UNL     1      -8.817  10.363  69.000  1.00  0.00    -0.176 A  
HETATM   16  C   UNL     1     -11.188  10.562  69.353  1.00  0.00    -0.327 A  
HETATM   17  C   UNL     1      -9.981   9.931  69.633  1.00  0.00    -0.255 A  
ENDBRANCH   8  10
ENDBRANCH   5   8
BRANCH   6  18
HETATM   18  C   UNL     1     -11.753  15.391  68.604  1.00  0.00    -0.371 C  
HETATM   19  O   UNL     1     -13.104  14.992  70.539  1.00  0.00    -0.336 OA 
HETATM   20  C   UNL     1     -11.991  15.234  70.089  1.00  0.00    -0.338 C  
HETATM   21  O   UNL     1     -10.928  15.359  70.912  1.00  0.00    -0.331 OA 
ENDBRANCH   6  18
TORSDOF 3
ENDMDL
MODEL      179
REMARK 921   NORMALIZED FREE ENERGY PREDICTED BY IDOCK:   -4.65 KCAL/MOL
REMARK 922        TOTAL FREE ENERGY PREDICTED BY IDOCK:   -5.69 KCAL/MOL
REMARK 923 INTER-LIGAND FREE ENERGY PREDICTED BY IDOCK:   -4.89 KCAL/MOL
REMARK 924 INTRA-LIGAND FREE ENERGY PREDICTED BY IDOCK:   -0.80 KCAL/MOL
REMARK 927      BINDING AFFINITY PREDICTED BY RF-SCORE:    0.00 PKD
ROOT
HETATM    1  C   UNL     1      -9.269   6.774  66.217  1.00  0.00    -0.161 C  
HETATM    2  C   UNL     1      -9.436   8.079  66.939  1.00  0.00    -0.244 A  
HETATM    3  C   UNL     1     -10.171   9.117  66.374  1.00  0.00    -0.300 A  
HETATM    4  C   UNL     1     -10.195  10.368  66.980  1.00  0.00    -0.277 A  
HETATM    5  C   UNL     1      -9.448  10.620  68.141  1.00  0.00    -0.154 A  
HETATM    6  C   UNL     1      -8.831   9.544  68.805  1.00  0.00    -0.132 A  
HETATM    7  C   UNL     1      -8.832   8.278  68.187  1.00  0.00    -0.139 A  
ENDROOT
BRANCH   5   8
HETATM    8  N   UNL     1      -9.218  11.946  68.581  1.00  0.00    -0.371 NA 
HETATM    9  H   UNL     1      -8.326  12.131  69.040  1.00  0.00     0.000 HD 
BRANCH   8  10
HETATM   10  C   UNL     1     -10.114  13.047  68.444  1.00  0.00    -0.225 A  
HETATM   11  F   UNL     1      -8.729  13.906  66.726  1.00  0.00    -0.228 F  
HETATM   12  C   UNL     1      -9.798  14.058  67.522  1.00  0.00    -0.236 A  
HETATM   13  C   UNL     1     -11.299  13.212  69.192  1.00  0.00    -0.281 A  
HETATM   14 CL   UNL     1     -11.990  11.944  70.152  1.00  0.00    -0.424 Cl 
HETATM   15  C   UNL     1     -12.028  14.408  69.131  1.00  0.00    -0.357 A  
HETATM   16  C   UNL     1     -10.546  15.232  67.425  1.00  0.00    -0.282 A  
HETATM   17  C   UNL     1     -11.641  15.425  68.261  1.00  0.00    -0.361 A  
ENDBRANCH   8  10
ENDBRANCH   5   8
BRANCH   6  18
HETATM   18  C   UNL     1      -8.135   9.705  70.140  1.00  0.00    -0.205 C  
HETATM   19  O   UNL     1      -6.114  10.396  71.221  1.00  0.00    -0.322 OA 
HETATM   20  C   UNL     1      -6.735  10.276  70.172  1.00  0.00    -0.146 C  
HETATM   21  O   UNL     1      -6.180  10.644  68.998  1.00  0.00    -0.043 OA 
ENDBRANCH   6  18
TORSDOF 3
ENDMDL
MODEL      180
REMARK 921   NORMALIZED FREE ENERGY PREDICTED BY IDOCK:   -4.65 KCAL/MOL
REMARK 922        TOTAL FREE ENERGY PREDICTED BY IDOCK:   -5.69 KCAL/MOL
REMARK 923 INTER-LIGAND FREE ENERGY PREDICTED BY IDOCK:   -4.93 KCAL/MOL
REMARK 924 INTRA-LIGAND FREE ENERGY PREDICTED BY IDOCK:   -0.75 KCAL/MOL
REMARK 927      BINDING AFFINITY PREDICTED BY RF-SCORE:    0.00 PKD
ROOT
HETATM    1  C   UNL     1     -11.587  11.662  67.385  1.00  0.00    -0.330 C  
HETATM    2  C   UNL     1     -11.234  10.632  68.419  1.00  0.00    -0.347 A  
HETATM    3  C   UNL     1     -10.279   9.655  68.154  1.00  0.00    -0.225 A  
HETATM    4  C   UNL     1     -10.068   8.622  69.059  1.00  0.00    -0.207 A  
HETATM    5  C   UNL     1     -10.837   8.518  70.228  1.00  0.00    -0.238 A  
HETATM    6  C   UNL     1     -11.690   9.580  70.581  1.00  0.00    -0.330 A  
HETATM    7  C   UNL     1     -11.879  10.630  69.662  1.00  0.00    -0.358 A  
ENDROOT
BRANCH   5   8
HETATM    8  N   UNL     1     -10.847   7.322  70.985  1.00  0.00    -0.236 NA 
HETATM    9  H   UNL     1     -11.739   6.833  71.062  1.00  0.00     0.000 HD 
BRANCH   8  10
HETATM   10  C   UNL     1      -9.731   6.735  71.650  1.00  0.00    -0.162 A  
HETATM   11  F   UNL     1      -9.676   8.599  73.111  1.00  0.00    -0.268 F  
HETATM   12  C   UNL     1      -9.124   7.448  72.697  1.00  0.00    -0.143 A  
HETATM   13  C   UNL     1      -9.165   5.486  71.316  1.00  0.00    -0.146 A  
HETATM   14 CL   UNL     1      -9.946   4.352  70.262  1.00  0.00    -0.283 Cl 
HETATM   15  C   UNL     1      -7.959   5.065  71.893  1.00  0.00    -0.111 A  
HETATM   16  C   UNL     1      -7.948   7.011  73.306  1.00  0.00    -0.110 A  
HETATM   17  C   UNL     1      -7.341   5.836  72.875  1.00  0.00    -0.091 A  
ENDBRANCH   8  10
ENDBRANCH   5   8
BRANCH   6  18
HETATM   18  C   UNL     1     -12.439   9.616  71.897  1.00  0.00    -0.459 C  
HETATM   19  O   UNL     1     -14.310   8.740  73.107  1.00  0.00    -0.324 OA 
HETATM   20  C   UNL     1     -13.648   8.725  72.076  1.00  0.00    -0.427 C  
HETATM   21  O   UNL     1     -13.987   7.912  71.052  1.00  0.00    -0.138 OA 
ENDBRANCH   6  18
TORSDOF 3
ENDMDL
MODEL      181
REMARK 921   NORMALIZED FREE ENERGY PREDICTED BY IDOCK:   -4.60 KCAL/MOL
REMARK 922        TOTAL FREE ENERGY PREDICTED BY IDOCK:   -5.63 KCAL/MOL
REMARK 923 INTER-LIGAND FREE ENERGY PREDICTED BY IDOCK:   -5.59 KCAL/MOL
REMARK 924 INTRA-LIGAND FREE ENERGY PREDICTED BY IDOCK:   -0.05 KCAL/MOL
REMARK 927      BINDING AFFINITY PREDICTED BY RF-SCORE:    0.00 PKD
ROOT
HETATM    1  C   UNL     1      -7.533  18.786  68.565  1.00  0.00    -0.328 C  
HETATM    2  C   UNL     1      -8.410  17.661  68.097  1.00  0.00    -0.259 A  
HETATM    3  C   UNL     1      -9.587  17.918  67.401  1.00  0.00    -0.271 A  
HETATM    4  C   UNL     1     -10.464  16.881  67.103  1.00  0.00    -0.296 A  
HETATM    5  C   UNL     1     -10.203  15.572  67.534  1.00  0.00    -0.254 A  
HETATM    6  C   UNL     1      -8.949  15.273  68.098  1.00  0.00    -0.173 A  
HETATM    7  C   UNL     1      -8.064  16.333  68.375  1.00  0.00    -0.183 A  
ENDROOT
BRANCH   5   8
HETATM    8  N   UNL     1     -11.220  14.585  67.512  1.00  0.00    -0.307 NA 
HETATM    9  H   UNL     1     -11.639  14.377  66.607  1.00  0.00     0.000 HD 
BRANCH   8  10
HETATM   10  C   UNL     1     -11.711  13.857  68.635  1.00  0.00    -0.361 A  
HETATM   11  F   UNL     1     -12.229  15.913  69.689  1.00  0.00    -0.354 F  
HETATM   12  C   UNL     1     -12.167  14.574  69.753  1.00  0.00    -0.312 A  
HETATM   13  C   UNL     1     -11.753  12.449  68.720  1.00  0.00    -0.332 A  
HETATM   14 CL   UNL     1     -11.507  11.416  67.348  1.00  0.00    -0.355 Cl 
HETATM   15  C   UNL     1     -12.076  11.809  69.925  1.00  0.00    -0.359 A  
HETATM   16  C   UNL     1     -12.534  13.941  70.940  1.00  0.00    -0.447 A  
HETATM   17  C   UNL     1     -12.449  12.557  71.040  1.00  0.00    -0.353 A  
ENDBRANCH   8  10
ENDBRANCH   5   8
BRANCH   6  18
HETATM   18  C   UNL     1      -8.532  13.861  68.450  1.00  0.00    -0.159 C  
HETATM   19  O   UNL     1      -6.829  12.200  68.181  1.00  0.00    -0.065 OA 
HETATM   20  C   UNL     1      -7.200  13.345  67.954  1.00  0.00    -0.133 C  
HETATM   21  O   UNL     1      -6.428  14.188  67.234  1.00  0.00    -0.288 OA 
ENDBRANCH   6  18
TORSDOF 3
ENDMDL
MODEL      182
REMARK 921   NORMALIZED FREE ENERGY PREDICTED BY IDOCK:   -4.60 KCAL/MOL
REMARK 922        TOTAL FREE ENERGY PREDICTED BY IDOCK:   -5.63 KCAL/MOL
REMARK 923 INTER-LIGAND FREE ENERGY PREDICTED BY IDOCK:   -5.38 KCAL/MOL
REMARK 924 INTRA-LIGAND FREE ENERGY PREDICTED BY IDOCK:   -0.24 KCAL/MOL
REMARK 927      BINDING AFFINITY PREDICTED BY RF-SCORE:    0.00 PKD
ROOT
HETATM    1  C   UNL     1     -11.494  12.228  62.964  1.00  0.00    -0.056 C  
HETATM    2  C   UNL     1     -10.966  12.473  64.348  1.00  0.00    -0.378 A  
HETATM    3  C   UNL     1     -10.283  11.476  65.036  1.00  0.00    -0.328 A  
HETATM    4  C   UNL     1      -9.930  11.663  66.368  1.00  0.00    -0.235 A  
HETATM    5  C   UNL     1     -10.292  12.832  67.052  1.00  0.00    -0.234 A  
HETATM    6  C   UNL     1     -10.841  13.907  66.328  1.00  0.00    -0.290 A  
HETATM    7  C   UNL     1     -11.175  13.709  64.975  1.00  0.00    -0.329 A  
ENDROOT
BRANCH   5   8
HETATM    8  N   UNL     1     -10.217  12.899  68.465  1.00  0.00    -0.302 NA 
HETATM    9  H   UNL     1      -9.462  13.460  68.860  1.00  0.00     0.000 HD 
BRANCH   8  10
HETATM   10  C   UNL     1     -11.094  12.257  69.387  1.00  0.00    -0.101 A  
HETATM   11  F   UNL     1      -9.927  10.229  69.021  1.00  0.00    -0.173 F  
HETATM   12  C   UNL     1     -10.949  10.876  69.601  1.00  0.00    -0.252 A  
HETATM   13  C   UNL     1     -12.129  12.907  70.093  1.00  0.00    -0.302 A  
HETATM   14 CL   UNL     1     -12.271  14.633  70.176  1.00  0.00    -0.370 Cl 
HETATM   15  C   UNL     1     -13.064  12.173  70.837  1.00  0.00     0.088 A  
HETATM   16  C   UNL     1     -11.850  10.148  70.378  1.00  0.00    -0.373 A  
HETATM   17  C   UNL     1     -12.934  10.792  70.965  1.00  0.00    -0.425 A  
ENDBRANCH   8  10
ENDBRANCH   5   8
BRANCH   6  18
HETATM   18  C   UNL     1     -11.119  15.255  66.960  1.00  0.00    -0.305 C  
HETATM   19  O   UNL     1     -10.642  17.599  66.858  1.00  0.00    -0.317 OA 
HETATM   20  C   UNL     1     -10.478  16.489  66.366  1.00  0.00    -0.274 C  
HETATM   21  O   UNL     1      -9.701  16.329  65.273  1.00  0.00    -0.429 OA 
ENDBRANCH   6  18
TORSDOF 3
ENDMDL
MODEL      183
REMARK 921   NORMALIZED FREE ENERGY PREDICTED BY IDOCK:   -4.59 KCAL/MOL
REMARK 922        TOTAL FREE ENERGY PREDICTED BY IDOCK:   -5.62 KCAL/MOL
REMARK 923 INTER-LIGAND FREE ENERGY PREDICTED BY IDOCK:   -4.77 KCAL/MOL
REMARK 924 INTRA-LIGAND FREE ENERGY PREDICTED BY IDOCK:   -0.85 KCAL/MOL
REMARK 927      BINDING AFFINITY PREDICTED BY RF-SCORE:    0.00 PKD
ROOT
HETATM    1  C   UNL     1     -12.695   9.979  70.992  1.00  0.00    -0.455 C  
HETATM    2  C   UNL     1     -11.914  10.225  69.734  1.00  0.00    -0.176 A  
HETATM    3  C   UNL     1     -11.213   9.194  69.117  1.00  0.00     0.147 A  
HETATM    4  C   UNL     1     -10.376   9.464  68.040  1.00  0.00    -0.267 A  
HETATM    5  C   UNL     1     -10.188  10.778  67.586  1.00  0.00    -0.189 A  
HETATM    6  C   UNL     1     -11.006  11.802  68.096  1.00  0.00    -0.275 A  
HETATM    7  C   UNL     1     -11.863  11.509  69.175  1.00  0.00    -0.406 A  
ENDROOT
BRANCH   5   8
HETATM    8  N   UNL     1      -9.118  11.098  66.714  1.00  0.00    -0.162 NA 
HETATM    9  H   UNL     1      -8.600  11.952  66.914  1.00  0.00     0.000 HD 
BRANCH   8  10
HETATM   10  C   UNL     1      -8.699  10.338  65.582  1.00  0.00    -0.162 A  
HETATM   11  F   UNL     1     -10.245  11.542  64.253  1.00  0.00    -0.264 F  
HETATM   12  C   UNL     1      -9.340  10.556  64.352  1.00  0.00    -0.262 A  
HETATM   13  C   UNL     1      -7.690   9.352  65.610  1.00  0.00    -0.099 A  
HETATM   14 CL   UNL     1      -6.605   9.153  66.948  1.00  0.00    -0.067 Cl 
HETATM   15  C   UNL     1      -7.463   8.523  64.502  1.00  0.00    -0.105 A  
HETATM   16  C   UNL     1      -9.087   9.763  63.233  1.00  0.00    -0.267 A  
HETATM   17  C   UNL     1      -8.175   8.717  63.320  1.00  0.00    -0.162 A  
ENDBRANCH   8  10
ENDBRANCH   5   8
BRANCH   6  18
HETATM   18  C   UNL     1     -10.971  13.217  67.555  1.00  0.00    -0.282 C  
HETATM   19  O   UNL     1     -11.785  14.674  65.839  1.00  0.00    -0.353 OA 
HETATM   20  C   UNL     1     -11.802  13.555  66.338  1.00  0.00    -0.394 C  
HETATM   21  O   UNL     1     -12.564  12.576  65.804  1.00  0.00    -0.569 OA 
ENDBRANCH   6  18
TORSDOF 3
ENDMDL
MODEL      184
REMARK 921   NORMALIZED FREE ENERGY PREDICTED BY IDOCK:   -4.59 KCAL/MOL
REMARK 922        TOTAL FREE ENERGY PREDICTED BY IDOCK:   -5.62 KCAL/MOL
REMARK 923 INTER-LIGAND FREE ENERGY PREDICTED BY IDOCK:   -5.20 KCAL/MOL
REMARK 924 INTRA-LIGAND FREE ENERGY PREDICTED BY IDOCK:   -0.42 KCAL/MOL
REMARK 927      BINDING AFFINITY PREDICTED BY RF-SCORE:    0.00 PKD
ROOT
HETATM    1  C   UNL     1      -9.788  16.024  67.971  1.00  0.00    -0.222 C  
HETATM    2  C   UNL     1     -10.301  14.621  67.824  1.00  0.00    -0.237 A  
HETATM    3  C   UNL     1     -11.652  14.377  67.602  1.00  0.00    -0.396 A  
HETATM    4  C   UNL     1     -12.138  13.074  67.616  1.00  0.00    -0.262 A  
HETATM    5  C   UNL     1     -11.291  11.992  67.896  1.00  0.00    -0.305 A  
HETATM    6  C   UNL     1      -9.903  12.210  67.966  1.00  0.00    -0.202 A  
HETATM    7  C   UNL     1      -9.424  13.534  67.931  1.00  0.00    -0.215 A  
ENDROOT
BRANCH   5   8
HETATM    8  N   UNL     1     -11.822  10.719  68.218  1.00  0.00    -0.765 NA 
HETATM    9  H   UNL     1     -12.429  10.284  67.524  1.00  0.00     0.000 HD 
BRANCH   8  10
HETATM   10  C   UNL     1     -11.589   9.988  69.420  1.00  0.00    -0.023 A  
HETATM   11  F   UNL     1     -10.429   8.357  68.155  1.00  0.00    -0.230 F  
HETATM   12  C   UNL     1     -10.921   8.756  69.338  1.00  0.00    -0.030 A  
HETATM   13  C   UNL     1     -12.005  10.404  70.703  1.00  0.00    -0.351 A  
HETATM   14 CL   UNL     1     -12.576  12.008  71.033  1.00  0.00    -0.430 Cl 
HETATM   15  C   UNL     1     -11.901   9.546  71.807  1.00  0.00    -0.430 A  
HETATM   16  C   UNL     1     -10.775   7.917  70.442  1.00  0.00    -0.233 A  
HETATM   17  C   UNL     1     -11.303   8.295  71.672  1.00  0.00    -0.329 A  
ENDBRANCH   8  10
ENDBRANCH   5   8
BRANCH   6  18
HETATM   18  C   UNL     1      -8.908  11.077  68.114  1.00  0.00    -0.141 C  
HETATM   19  O   UNL     1      -7.598   9.458  66.935  1.00  0.00    -0.090 OA 
HETATM   20  C   UNL     1      -8.378  10.400  66.870  1.00  0.00    -0.124 C  
HETATM   21  O   UNL     1      -8.801  10.862  65.674  1.00  0.00    -0.185 OA 
ENDBRANCH   6  18
TORSDOF 3
ENDMDL
MODEL      185
REMARK 921   NORMALIZED FREE ENERGY PREDICTED BY IDOCK:   -4.56 KCAL/MOL
REMARK 922        TOTAL FREE ENERGY PREDICTED BY IDOCK:   -5.59 KCAL/MOL
REMARK 923 INTER-LIGAND FREE ENERGY PREDICTED BY IDOCK:   -5.18 KCAL/MOL
REMARK 924 INTRA-LIGAND FREE ENERGY PREDICTED BY IDOCK:   -0.40 KCAL/MOL
REMARK 927      BINDING AFFINITY PREDICTED BY RF-SCORE:    0.00 PKD
ROOT
HETATM    1  C   UNL     1      -9.262  19.337  68.890  1.00  0.00    -0.383 C  
HETATM    2  C   UNL     1      -9.605  18.000  68.301  1.00  0.00    -0.321 A  
HETATM    3  C   UNL     1     -10.920  17.544  68.286  1.00  0.00    -0.103 A  
HETATM    4  C   UNL     1     -11.205  16.247  67.875  1.00  0.00    -0.213 A  
HETATM    5  C   UNL     1     -10.177  15.364  67.512  1.00  0.00    -0.244 A  
HETATM    6  C   UNL     1      -8.868  15.858  67.373  1.00  0.00    -0.201 A  
HETATM    7  C   UNL     1      -8.598  17.181  67.776  1.00  0.00    -0.216 A  
ENDROOT
BRANCH   5   8
HETATM    8  N   UNL     1     -10.423  13.974  67.397  1.00  0.00    -0.262 NA 
HETATM    9  H   UNL     1     -10.637  13.471  68.258  1.00  0.00     0.000 HD 
BRANCH   8  10
HETATM   10  C   UNL     1     -10.398  13.211  66.193  1.00  0.00    -0.284 A  
HETATM   11  F   UNL     1     -11.542  14.974  65.102  1.00  0.00    -0.345 F  
HETATM   12  C   UNL     1     -11.032  13.734  65.054  1.00  0.00    -0.357 A  
HETATM   13  C   UNL     1      -9.797  11.940  66.062  1.00  0.00    -0.235 A  
HETATM   14 CL   UNL     1      -8.734  11.275  67.260  1.00  0.00    -0.142 Cl 
HETATM   15  C   UNL     1      -9.975  11.176  64.900  1.00  0.00    -0.331 A  
HETATM   16  C   UNL     1     -11.173  12.995  63.880  1.00  0.00    -0.434 A  
HETATM   17  C   UNL     1     -10.678  11.696  63.816  1.00  0.00    -0.482 A  
ENDBRANCH   8  10
ENDBRANCH   5   8
BRANCH   6  18
HETATM   18  C   UNL     1      -7.730  15.010  66.842  1.00  0.00     0.005 C  
HETATM   19  O   UNL     1      -5.958  13.517  67.443  1.00  0.00    -0.341 OA 
HETATM   20  C   UNL     1      -6.909  14.194  67.815  1.00  0.00    -0.176 C  
HETATM   21  O   UNL     1      -7.252  14.241  69.120  1.00  0.00    -0.119 OA 
ENDBRANCH   6  18
TORSDOF 3
ENDMDL
MODEL      186
REMARK 921   NORMALIZED FREE ENERGY PREDICTED BY IDOCK:   -4.55 KCAL/MOL
REMARK 922        TOTAL FREE ENERGY PREDICTED BY IDOCK:   -5.57 KCAL/MOL
REMARK 923 INTER-LIGAND FREE ENERGY PREDICTED BY IDOCK:   -5.03 KCAL/MOL
REMARK 924 INTRA-LIGAND FREE ENERGY PREDICTED BY IDOCK:   -0.54 KCAL/MOL
REMARK 927      BINDING AFFINITY PREDICTED BY RF-SCORE:    0.00 PKD
ROOT
HETATM    1  C   UNL     1     -11.238  12.472  63.681  1.00  0.00    -0.545 C  
HETATM    2  C   UNL     1     -10.799  11.784  64.941  1.00  0.00    -0.353 A  
HETATM    3  C   UNL     1     -10.281  10.494  64.905  1.00  0.00    -0.371 A  
HETATM    4  C   UNL     1     -10.019   9.813  66.089  1.00  0.00    -0.338 A  
HETATM    5  C   UNL     1     -10.310  10.392  67.333  1.00  0.00    -0.228 A  
HETATM    6  C   UNL     1     -10.684  11.747  67.386  1.00  0.00    -0.277 A  
HETATM    7  C   UNL     1     -10.927  12.429  66.178  1.00  0.00    -0.321 A  
ENDROOT
BRANCH   5   8
HETATM    8  N   UNL     1     -10.341   9.604  68.510  1.00  0.00    -0.197 NA 
HETATM    9  H   UNL     1     -11.123   9.757  69.146  1.00  0.00     0.000 HD 
BRANCH   8  10
HETATM   10  C   UNL     1      -9.383   8.618  68.889  1.00  0.00    -0.145 A  
HETATM   11  F   UNL     1      -7.997  10.347  69.725  1.00  0.00    -0.145 F  
HETATM   12  C   UNL     1      -8.171   9.044  69.457  1.00  0.00    -0.114 A  
HETATM   13  C   UNL     1      -9.553   7.228  68.714  1.00  0.00    -0.142 A  
HETATM   14 CL   UNL     1     -11.078   6.511  68.304  1.00  0.00    -0.354 Cl 
HETATM   15  C   UNL     1      -8.493   6.340  68.942  1.00  0.00    -0.120 A  
HETATM   16  C   UNL     1      -7.129   8.158  69.728  1.00  0.00    -0.060 A  
HETATM   17  C   UNL     1      -7.275   6.807  69.432  1.00  0.00    -0.089 A  
ENDBRANCH   8  10
ENDBRANCH   5   8
BRANCH   6  18
HETATM   18  C   UNL     1     -10.869  12.488  68.694  1.00  0.00    -0.280 C  
HETATM   19  O   UNL     1     -12.168  12.619  70.701  1.00  0.00    -0.374 OA 
HETATM   20  C   UNL     1     -11.953  12.034  69.646  1.00  0.00    -0.293 C  
HETATM   21  O   UNL     1     -12.692  10.961  69.291  1.00  0.00    -0.282 OA 
ENDBRANCH   6  18
TORSDOF 3
ENDMDL
MODEL      187
REMARK 921   NORMALIZED FREE ENERGY PREDICTED BY IDOCK:   -4.52 KCAL/MOL
REMARK 922        TOTAL FREE ENERGY PREDICTED BY IDOCK:   -5.54 KCAL/MOL
REMARK 923 INTER-LIGAND FREE ENERGY PREDICTED BY IDOCK:   -5.09 KCAL/MOL
REMARK 924 INTRA-LIGAND FREE ENERGY PREDICTED BY IDOCK:   -0.44 KCAL/MOL
REMARK 927      BINDING AFFINITY PREDICTED BY RF-SCORE:    0.00 PKD
ROOT
HETATM    1  C   UNL     1      -7.943   5.015  74.066  1.00  0.00    -0.101 C  
HETATM    2  C   UNL     1      -8.406   6.118  73.158  1.00  0.00    -0.118 A  
HETATM    3  C   UNL     1      -7.495   6.843  72.397  1.00  0.00    -0.087 A  
HETATM    4  C   UNL     1      -7.915   7.955  71.676  1.00  0.00    -0.112 A  
HETATM    5  C   UNL     1      -9.247   8.391  71.736  1.00  0.00    -0.220 A  
HETATM    6  C   UNL     1     -10.205   7.580  72.372  1.00  0.00    -0.261 A  
HETATM    7  C   UNL     1      -9.765   6.446  73.082  1.00  0.00    -0.169 A  
ENDROOT
BRANCH   5   8
HETATM    8  N   UNL     1      -9.611   9.677  71.268  1.00  0.00    -0.289 NA 
HETATM    9  H   UNL     1      -9.431  10.463  71.894  1.00  0.00     0.000 HD 
BRANCH   8  10
HETATM   10  C   UNL     1     -10.203   9.979  70.007  1.00  0.00    -0.255 A  
HETATM   11  F   UNL     1      -8.468   8.763  68.948  1.00  0.00    -0.123 F  
HETATM   12  C   UNL     1      -9.557   9.541  68.840  1.00  0.00    -0.156 A  
HETATM   13  C   UNL     1     -11.395  10.715  69.838  1.00  0.00    -0.313 A  
HETATM   14 CL   UNL     1     -12.468  11.082  71.150  1.00  0.00    -0.494 Cl 
HETATM   15  C   UNL     1     -11.813  11.126  68.564  1.00  0.00    -0.330 A  
HETATM   16  C   UNL     1      -9.994   9.909  67.568  1.00  0.00    -0.229 A  
HETATM   17  C   UNL     1     -11.102  10.738  67.431  1.00  0.00    -0.363 A  
ENDBRANCH   8  10
ENDBRANCH   5   8
BRANCH   6  18
HETATM   18  C   UNL     1     -11.685   7.902  72.352  1.00  0.00    -0.423 C  
HETATM   19  O   UNL     1     -13.740   7.581  71.168  1.00  0.00    -0.285 OA 
HETATM   20  C   UNL     1     -12.545   7.325  71.251  1.00  0.00    -0.366 C  
HETATM   21  O   UNL     1     -11.949   6.521  70.344  1.00  0.00    -0.397 OA 
ENDBRANCH   6  18
TORSDOF 3
ENDMDL
MODEL      188
REMARK 921   NORMALIZED FREE ENERGY PREDICTED BY IDOCK:   -4.51 KCAL/MOL
REMARK 922        TOTAL FREE ENERGY PREDICTED BY IDOCK:   -5.53 KCAL/MOL
REMARK 923 INTER-LIGAND FREE ENERGY PREDICTED BY IDOCK:   -4.91 KCAL/MOL
REMARK 924 INTRA-LIGAND FREE ENERGY PREDICTED BY IDOCK:   -0.62 KCAL/MOL
REMARK 927      BINDING AFFINITY PREDICTED BY RF-SCORE:    0.00 PKD
ROOT
HETATM    1  C   UNL     1     -11.293  11.749  67.243  1.00  0.00    -0.379 C  
HETATM    2  C   UNL     1     -11.028  10.629  68.206  1.00  0.00    -0.314 A  
HETATM    3  C   UNL     1     -10.213   9.559  67.848  1.00  0.00    -0.251 A  
HETATM    4  C   UNL     1     -10.095   8.458  68.690  1.00  0.00    -0.210 A  
HETATM    5  C   UNL     1     -10.824   8.384  69.886  1.00  0.00    -0.207 A  
HETATM    6  C   UNL     1     -11.525   9.520  70.332  1.00  0.00    -0.297 A  
HETATM    7  C   UNL     1     -11.619  10.635  69.476  1.00  0.00    -0.360 A  
ENDROOT
BRANCH   5   8
HETATM    8  N   UNL     1     -10.953   7.157  70.582  1.00  0.00    -0.249 NA 
HETATM    9  H   UNL     1     -11.888   6.755  70.637  1.00  0.00     0.000 HD 
BRANCH   8  10
HETATM   10  C   UNL     1      -9.900   6.432  71.213  1.00  0.00    -0.181 A  
HETATM   11  F   UNL     1     -10.613   4.484  70.070  1.00  0.00    -0.220 F  
HETATM   12  C   UNL     1      -9.795   5.053  70.968  1.00  0.00    -0.198 A  
HETATM   13  C   UNL     1      -8.956   6.998  72.096  1.00  0.00    -0.130 A  
HETATM   14 CL   UNL     1      -8.754   8.710  72.286  1.00  0.00    -0.245 Cl 
HETATM   15  C   UNL     1      -8.068   6.187  72.817  1.00  0.00    -0.106 A  
HETATM   16  C   UNL     1      -8.883   4.248  71.650  1.00  0.00    -0.145 A  
HETATM   17  C   UNL     1      -8.044   4.810  72.607  1.00  0.00    -0.100 A  
ENDBRANCH   8  10
ENDBRANCH   5   8
BRANCH   6  18
HETATM   18  C   UNL     1     -12.211   9.574  71.681  1.00  0.00    -0.477 C  
HETATM   19  O   UNL     1     -14.218   9.049  72.876  1.00  0.00    -0.528 OA 
HETATM   20  C   UNL     1     -13.604   9.001  71.817  1.00  0.00    -0.413 C  
HETATM   21  O   UNL     1     -14.162   8.440  70.723  1.00  0.00     0.099 OA 
ENDBRANCH   6  18
TORSDOF 3
ENDMDL
MODEL      189
REMARK 921   NORMALIZED FREE ENERGY PREDICTED BY IDOCK:   -4.50 KCAL/MOL
REMARK 922        TOTAL FREE ENERGY PREDICTED BY IDOCK:   -5.51 KCAL/MOL
REMARK 923 INTER-LIGAND FREE ENERGY PREDICTED BY IDOCK:   -5.41 KCAL/MOL
REMARK 924 INTRA-LIGAND FREE ENERGY PREDICTED BY IDOCK:   -0.10 KCAL/MOL
REMARK 927      BINDING AFFINITY PREDICTED BY RF-SCORE:    0.00 PKD
ROOT
HETATM    1  C   UNL     1     -12.092  13.291  65.353  1.00  0.00    -0.464 C  
HETATM    2  C   UNL     1     -11.540  12.705  66.619  1.00  0.00    -0.443 A  
HETATM    3  C   UNL     1     -10.709  11.590  66.585  1.00  0.00    -0.311 A  
HETATM    4  C   UNL     1     -10.324  10.967  67.767  1.00  0.00    -0.218 A  
HETATM    5  C   UNL     1     -10.799  11.420  69.007  1.00  0.00    -0.219 A  
HETATM    6  C   UNL     1     -11.508  12.634  69.066  1.00  0.00    -0.354 A  
HETATM    7  C   UNL     1     -11.873  13.263  67.860  1.00  0.00    -0.388 A  
ENDROOT
BRANCH   5   8
HETATM    8  N   UNL     1     -10.671  10.620  70.169  1.00  0.00    -0.463 NA 
HETATM    9  H   UNL     1     -11.008  11.022  71.043  1.00  0.00     0.000 HD 
BRANCH   8  10
HETATM   10  C   UNL     1     -10.117   9.308  70.231  1.00  0.00    -0.219 A  
HETATM   11  F   UNL     1     -12.305   8.441  70.489  1.00  0.00    -0.112 F  
HETATM   12  C   UNL     1     -10.982   8.224  70.453  1.00  0.00    -0.239 A  
HETATM   13  C   UNL     1      -8.742   9.014  70.110  1.00  0.00    -0.173 A  
HETATM   14 CL   UNL     1      -7.578  10.172  69.552  1.00  0.00    -0.123 Cl 
HETATM   15  C   UNL     1      -8.257   7.723  70.366  1.00  0.00    -0.121 A  
HETATM   16  C   UNL     1     -10.508   6.930  70.664  1.00  0.00    -0.233 A  
HETATM   17  C   UNL     1      -9.139   6.686  70.661  1.00  0.00    -0.155 A  
ENDBRANCH   8  10
ENDBRANCH   5   8
BRANCH   6  18
HETATM   18  C   UNL     1     -11.924  13.270  70.377  1.00  0.00    -0.350 C  
HETATM   19  O   UNL     1     -13.230  12.981  72.362  1.00  0.00    -0.480 OA 
HETATM   20  C   UNL     1     -12.836  12.501  71.306  1.00  0.00    -0.241 C  
HETATM   21  O   UNL     1     -13.216  11.261  70.930  1.00  0.00    -0.107 OA 
ENDBRANCH   6  18
TORSDOF 3
ENDMDL
MODEL      190
REMARK 921   NORMALIZED FREE ENERGY PREDICTED BY IDOCK:   -4.50 KCAL/MOL
REMARK 922        TOTAL FREE ENERGY PREDICTED BY IDOCK:   -5.51 KCAL/MOL
REMARK 923 INTER-LIGAND FREE ENERGY PREDICTED BY IDOCK:   -5.06 KCAL/MOL
REMARK 924 INTRA-LIGAND FREE ENERGY PREDICTED BY IDOCK:   -0.45 KCAL/MOL
REMARK 927      BINDING AFFINITY PREDICTED BY RF-SCORE:    0.00 PKD
ROOT
HETATM    1  C   UNL     1     -10.411  11.933  67.604  1.00  0.00    -0.232 C  
HETATM    2  C   UNL     1     -10.423  10.505  68.066  1.00  0.00    -0.232 A  
HETATM    3  C   UNL     1     -10.173   9.466  67.176  1.00  0.00    -0.319 A  
HETATM    4  C   UNL     1     -10.332   8.145  67.580  1.00  0.00    -0.313 A  
HETATM    5  C   UNL     1     -10.788   7.836  68.870  1.00  0.00     0.006 A  
HETATM    6  C   UNL     1     -10.892   8.866  69.823  1.00  0.00    -0.207 A  
HETATM    7  C   UNL     1     -10.708  10.197  69.403  1.00  0.00    -0.266 A  
ENDROOT
BRANCH   5   8
HETATM    8  N   UNL     1     -11.246   6.534  69.186  1.00  0.00    -0.515 NA 
HETATM    9  H   UNL     1     -12.256   6.392  69.199  1.00  0.00     0.000 HD 
BRANCH   8  10
HETATM   10  C   UNL     1     -10.431   5.403  69.485  1.00  0.00    -0.273 A  
HETATM   11  F   UNL     1     -10.932   5.703  71.780  1.00  0.00    -0.291 F  
HETATM   12  C   UNL     1     -10.250   5.044  70.831  1.00  0.00    -0.217 A  
HETATM   13  C   UNL     1      -9.762   4.620  68.520  1.00  0.00    -0.142 A  
HETATM   14 CL   UNL     1     -10.096   4.733  66.822  1.00  0.00    -0.250 Cl 
HETATM   15  C   UNL     1      -8.835   3.641  68.904  1.00  0.00    -0.158 A  
HETATM   16  C   UNL     1      -9.362   4.041  71.217  1.00  0.00    -0.212 A  
HETATM   17  C   UNL     1      -8.621   3.365  70.253  1.00  0.00    -0.105 A  
ENDBRANCH   8  10
ENDBRANCH   5   8
BRANCH   6  18
HETATM   18  C   UNL     1     -11.230   8.598  71.276  1.00  0.00    -0.338 C  
HETATM   19  O   UNL     1     -12.848   8.952  73.004  1.00  0.00    -0.271 OA 
HETATM   20  C   UNL     1     -12.540   9.112  71.829  1.00  0.00    -0.370 C  
HETATM   21  O   UNL     1     -13.365   9.767  70.985  1.00  0.00    -0.355 OA 
ENDBRANCH   6  18
TORSDOF 3
ENDMDL
MODEL      191
REMARK 921   NORMALIZED FREE ENERGY PREDICTED BY IDOCK:   -4.48 KCAL/MOL
REMARK 922        TOTAL FREE ENERGY PREDICTED BY IDOCK:   -5.50 KCAL/MOL
REMARK 923 INTER-LIGAND FREE ENERGY PREDICTED BY IDOCK:   -4.90 KCAL/MOL
REMARK 924 INTRA-LIGAND FREE ENERGY PREDICTED BY IDOCK:   -0.60 KCAL/MOL
REMARK 927      BINDING AFFINITY PREDICTED BY RF-SCORE:    0.00 PKD
ROOT
HETATM    1  C   UNL     1      -8.615  15.394  67.409  1.00  0.00    -0.197 C  
HETATM    2  C   UNL     1      -9.623  14.297  67.596  1.00  0.00    -0.219 A  
HETATM    3  C   UNL     1     -10.417  14.247  68.738  1.00  0.00    -0.249 A  
HETATM    4  C   UNL     1     -11.238  13.149  68.970  1.00  0.00    -0.309 A  
HETATM    5  C   UNL     1     -11.250  12.059  68.088  1.00  0.00    -0.260 A  
HETATM    6  C   UNL     1     -10.575  12.166  66.858  1.00  0.00    -0.257 A  
HETATM    7  C   UNL     1      -9.762  13.294  66.629  1.00  0.00    -0.270 A  
ENDROOT
BRANCH   5   8
HETATM    8  N   UNL     1     -11.832  10.825  68.468  1.00  0.00    -0.718 NA 
HETATM    9  H   UNL     1     -12.491  10.405  67.812  1.00  0.00     0.000 HD 
BRANCH   8  10
HETATM   10  C   UNL     1     -11.584  10.114  69.679  1.00  0.00    -0.153 A  
HETATM   11  F   UNL     1     -13.913  10.120  70.110  1.00  0.00     0.015 F  
HETATM   12  C   UNL     1     -12.670   9.822  70.520  1.00  0.00     0.003 A  
HETATM   13  C   UNL     1     -10.309   9.697  70.115  1.00  0.00    -0.266 A  
HETATM   14 CL   UNL     1      -8.911   9.711  69.088  1.00  0.00    -0.145 Cl 
HETATM   15  C   UNL     1     -10.125   9.168  71.401  1.00  0.00    -0.392 A  
HETATM   16  C   UNL     1     -12.498   9.255  71.782  1.00  0.00    -0.458 A  
HETATM   17  C   UNL     1     -11.218   8.964  72.240  1.00  0.00    -0.269 A  
ENDBRANCH   8  10
ENDBRANCH   5   8
BRANCH   6  18
HETATM   18  C   UNL     1     -10.662  11.098  65.787  1.00  0.00    -0.252 C  
HETATM   19  O   UNL     1      -9.428   9.451  64.564  1.00  0.00    -0.129 OA 
HETATM   20  C   UNL     1      -9.422  10.303  65.444  1.00  0.00    -0.232 C  
HETATM   21  O   UNL     1      -8.294  10.569  66.137  1.00  0.00    -0.143 OA 
ENDBRANCH   6  18
TORSDOF 3
ENDMDL
MODEL      192
REMARK 921   NORMALIZED FREE ENERGY PREDICTED BY IDOCK:   -4.48 KCAL/MOL
REMARK 922        TOTAL FREE ENERGY PREDICTED BY IDOCK:   -5.49 KCAL/MOL
REMARK 923 INTER-LIGAND FREE ENERGY PREDICTED BY IDOCK:   -4.76 KCAL/MOL
REMARK 924 INTRA-LIGAND FREE ENERGY PREDICTED BY IDOCK:   -0.73 KCAL/MOL
REMARK 927      BINDING AFFINITY PREDICTED BY RF-SCORE:    0.00 PKD
ROOT
HETATM    1  C   UNL     1     -12.459  11.754  63.097  1.00  0.00    -0.274 C  
HETATM    2  C   UNL     1     -12.068  12.038  64.518  1.00  0.00    -0.340 A  
HETATM    3  C   UNL     1     -12.592  13.134  65.196  1.00  0.00    -0.525 A  
HETATM    4  C   UNL     1     -12.112  13.472  66.456  1.00  0.00    -0.460 A  
HETATM    5  C   UNL     1     -11.067  12.746  67.047  1.00  0.00    -0.278 A  
HETATM    6  C   UNL     1     -10.640  11.549  66.446  1.00  0.00    -0.304 A  
HETATM    7  C   UNL     1     -11.150  11.210  65.177  1.00  0.00    -0.079 A  
ENDROOT
BRANCH   5   8
HETATM    8  N   UNL     1     -10.371  13.261  68.168  1.00  0.00    -0.238 NA 
HETATM    9  H   UNL     1      -9.757  12.616  68.665  1.00  0.00     0.000 HD 
BRANCH   8  10
HETATM   10  C   UNL     1     -10.446  14.594  68.667  1.00  0.00    -0.244 A  
HETATM   11  F   UNL     1      -9.156  15.316  66.818  1.00  0.00    -0.207 F  
HETATM   12  C   UNL     1      -9.763  15.609  67.978  1.00  0.00    -0.204 A  
HETATM   13  C   UNL     1     -11.146  14.974  69.833  1.00  0.00    -0.274 A  
HETATM   14 CL   UNL     1     -12.269  13.927  70.639  1.00  0.00    -0.425 Cl 
HETATM   15  C   UNL     1     -11.020  16.268  70.358  1.00  0.00    -0.282 A  
HETATM   16  C   UNL     1      -9.672  16.910  68.473  1.00  0.00    -0.264 A  
HETATM   17  C   UNL     1     -10.268  17.230  69.688  1.00  0.00     0.070 A  
ENDBRANCH   8  10
ENDBRANCH   5   8
BRANCH   6  18
HETATM   18  C   UNL     1      -9.625  10.630  67.094  1.00  0.00    -0.189 C  
HETATM   19  O   UNL     1      -7.307  10.334  67.615  1.00  0.00    -0.087 OA 
HETATM   20  C   UNL     1      -8.174  11.053  67.133  1.00  0.00    -0.133 C  
HETATM   21  O   UNL     1      -7.855  12.255  66.606  1.00  0.00    -0.020 OA 
ENDBRANCH   6  18
TORSDOF 3
ENDMDL
MODEL      193
REMARK 921   NORMALIZED FREE ENERGY PREDICTED BY IDOCK:   -4.47 KCAL/MOL
REMARK 922        TOTAL FREE ENERGY PREDICTED BY IDOCK:   -5.48 KCAL/MOL
REMARK 923 INTER-LIGAND FREE ENERGY PREDICTED BY IDOCK:   -5.00 KCAL/MOL
REMARK 924 INTRA-LIGAND FREE ENERGY PREDICTED BY IDOCK:   -0.48 KCAL/MOL
REMARK 927      BINDING AFFINITY PREDICTED BY RF-SCORE:    0.00 PKD
ROOT
HETATM    1  C   UNL     1     -12.264  12.863  63.503  1.00  0.00    -0.595 C  
HETATM    2  C   UNL     1     -11.262  12.306  64.472  1.00  0.00    -0.378 A  
HETATM    3  C   UNL     1     -10.522  11.171  64.159  1.00  0.00    -0.442 A  
HETATM    4  C   UNL     1      -9.709  10.580  65.119  1.00  0.00    -0.341 A  
HETATM    5  C   UNL     1      -9.652  11.086  66.426  1.00  0.00    -0.198 A  
HETATM    6  C   UNL     1     -10.269  12.318  66.710  1.00  0.00    -0.229 A  
HETATM    7  C   UNL     1     -11.075  12.914  65.720  1.00  0.00    -0.312 A  
ENDROOT
BRANCH   5   8
HETATM    8  N   UNL     1      -9.084  10.323  67.475  1.00  0.00    -0.137 NA 
HETATM    9  H   UNL     1      -8.163  10.609  67.807  1.00  0.00     0.000 HD 
BRANCH   8  10
HETATM   10  C   UNL     1      -9.677   9.193  68.112  1.00  0.00    -0.154 A  
HETATM   11  F   UNL     1     -10.684  10.656  69.678  1.00  0.00    -0.235 F  
HETATM   12  C   UNL     1     -10.443   9.400  69.270  1.00  0.00    -0.218 A  
HETATM   13  C   UNL     1      -9.531   7.859  67.673  1.00  0.00    -0.144 A  
HETATM   14 CL   UNL     1      -8.874   7.446  66.122  1.00  0.00    -0.179 Cl 
HETATM   15  C   UNL     1      -9.990   6.790  68.455  1.00  0.00    -0.149 A  
HETATM   16  C   UNL     1     -10.941   8.341  70.029  1.00  0.00    -0.197 A  
HETATM   17  C   UNL     1     -10.679   7.031  69.642  1.00  0.00    -0.265 A  
ENDBRANCH   8  10
ENDBRANCH   5   8
BRANCH   6  18
HETATM   18  C   UNL     1     -10.129  13.007  68.051  1.00  0.00    -0.235 C  
HETATM   19  O   UNL     1      -9.125  14.845  69.211  1.00  0.00    -0.176 OA 
HETATM   20  C   UNL     1      -9.299  14.267  68.145  1.00  0.00    -0.206 C  
HETATM   21  O   UNL     1      -8.738  14.736  67.009  1.00  0.00    -0.210 OA 
ENDBRANCH   6  18
TORSDOF 3
ENDMDL
MODEL      194
REMARK 921   NORMALIZED FREE ENERGY PREDICTED BY IDOCK:   -4.46 KCAL/MOL
REMARK 922        TOTAL FREE ENERGY PREDICTED BY IDOCK:   -5.47 KCAL/MOL
REMARK 923 INTER-LIGAND FREE ENERGY PREDICTED BY IDOCK:   -5.15 KCAL/MOL
REMARK 924 INTRA-LIGAND FREE ENERGY PREDICTED BY IDOCK:   -0.32 KCAL/MOL
REMARK 927      BINDING AFFINITY PREDICTED BY RF-SCORE:    0.00 PKD
ROOT
HETATM    1  C   UNL     1      -7.063   6.283  67.357  1.00  0.00    -0.070 C  
HETATM    2  C   UNL     1      -8.360   7.039  67.396  1.00  0.00    -0.122 A  
HETATM    3  C   UNL     1      -8.833   7.698  66.266  1.00  0.00    -0.182 A  
HETATM    4  C   UNL     1      -9.955   8.515  66.353  1.00  0.00    -0.314 A  
HETATM    5  C   UNL     1     -10.600   8.725  67.580  1.00  0.00    -0.213 A  
HETATM    6  C   UNL     1     -10.229   7.945  68.691  1.00  0.00    -0.223 A  
HETATM    7  C   UNL     1      -9.102   7.108  68.582  1.00  0.00    -0.133 A  
ENDROOT
BRANCH   5   8
HETATM    8  N   UNL     1     -11.532   9.780  67.739  1.00  0.00    -0.453 NA 
HETATM    9  H   UNL     1     -12.500   9.516  67.918  1.00  0.00     0.000 HD 
BRANCH   8  10
HETATM   10  C   UNL     1     -11.244  11.175  67.672  1.00  0.00    -0.297 A  
HETATM   11  F   UNL     1     -11.021  10.974  65.323  1.00  0.00    -0.309 F  
HETATM   12  C   UNL     1     -10.932  11.737  66.423  1.00  0.00    -0.294 A  
HETATM   13  C   UNL     1     -11.225  12.043  68.785  1.00  0.00    -0.263 A  
HETATM   14 CL   UNL     1     -11.858  11.596  70.336  1.00  0.00    -0.423 Cl 
HETATM   15  C   UNL     1     -10.754  13.358  68.664  1.00  0.00    -0.275 A  
HETATM   16  C   UNL     1     -10.506  13.058  66.291  1.00  0.00    -0.285 A  
HETATM   17  C   UNL     1     -10.377  13.859  67.420  1.00  0.00    -0.252 A  
ENDBRANCH   8  10
ENDBRANCH   5   8
BRANCH   6  18
HETATM   18  C   UNL     1     -10.972   8.002  70.009  1.00  0.00    -0.202 C  
HETATM   19  O   UNL     1     -10.886   8.781  72.271  1.00  0.00    -0.352 OA 
HETATM   20  C   UNL     1     -10.344   8.734  71.174  1.00  0.00    -0.246 C  
HETATM   21  O   UNL     1      -9.150   9.331  70.970  1.00  0.00    -0.239 OA 
ENDBRANCH   6  18
TORSDOF 3
ENDMDL
MODEL      195
REMARK 921   NORMALIZED FREE ENERGY PREDICTED BY IDOCK:   -4.45 KCAL/MOL
REMARK 922        TOTAL FREE ENERGY PREDICTED BY IDOCK:   -5.46 KCAL/MOL
REMARK 923 INTER-LIGAND FREE ENERGY PREDICTED BY IDOCK:   -4.83 KCAL/MOL
REMARK 924 INTRA-LIGAND FREE ENERGY PREDICTED BY IDOCK:   -0.63 KCAL/MOL
REMARK 927      BINDING AFFINITY PREDICTED BY RF-SCORE:    0.00 PKD
ROOT
HETATM    1  C   UNL     1      -9.059  12.011  66.643  1.00  0.00    -0.205 C  
HETATM    2  C   UNL     1      -9.401  10.643  67.157  1.00  0.00    -0.172 A  
HETATM    3  C   UNL     1     -10.226   9.793  66.427  1.00  0.00    -0.288 A  
HETATM    4  C   UNL     1     -10.655   8.591  66.978  1.00  0.00    -0.305 A  
HETATM    5  C   UNL     1     -10.305   8.234  68.289  1.00  0.00    -0.198 A  
HETATM    6  C   UNL     1      -9.349   9.005  68.976  1.00  0.00    -0.140 A  
HETATM    7  C   UNL     1      -8.909  10.210  68.395  1.00  0.00    -0.123 A  
ENDROOT
BRANCH   5   8
HETATM    8  N   UNL     1     -10.979   7.185  68.960  1.00  0.00    -0.422 NA 
HETATM    9  H   UNL     1     -11.878   7.413  69.385  1.00  0.00     0.000 HD 
BRANCH   8  10
HETATM   10  C   UNL     1     -10.522   5.841  69.097  1.00  0.00    -0.276 A  
HETATM   11  F   UNL     1     -10.780   6.038  71.443  1.00  0.00    -0.263 F  
HETATM   12  C   UNL     1     -10.380   5.310  70.389  1.00  0.00    -0.275 A  
HETATM   13  C   UNL     1     -10.173   5.000  68.019  1.00  0.00    -0.078 A  
HETATM   14 CL   UNL     1     -10.554   5.378  66.370  1.00  0.00    -0.343 Cl 
HETATM   15  C   UNL     1      -9.559   3.760  68.243  1.00  0.00    -0.171 A  
HETATM   16  C   UNL     1      -9.810   4.057  70.617  1.00  0.00    -0.229 A  
HETATM   17  C   UNL     1      -9.361   3.297  69.542  1.00  0.00    -0.235 A  
ENDBRANCH   8  10
ENDBRANCH   5   8
BRANCH   6  18
HETATM   18  C   UNL     1      -8.804   8.605  70.332  1.00  0.00    -0.170 C  
HETATM   19  O   UNL     1      -9.199   8.663  72.692  1.00  0.00    -0.299 OA 
HETATM   20  C   UNL     1      -9.608   8.933  71.569  1.00  0.00    -0.292 C  
HETATM   21  O   UNL     1     -10.798   9.549  71.401  1.00  0.00    -0.347 OA 
ENDBRANCH   6  18
TORSDOF 3
ENDMDL
MODEL      196
REMARK 921   NORMALIZED FREE ENERGY PREDICTED BY IDOCK:   -4.44 KCAL/MOL
REMARK 922        TOTAL FREE ENERGY PREDICTED BY IDOCK:   -5.45 KCAL/MOL
REMARK 923 INTER-LIGAND FREE ENERGY PREDICTED BY IDOCK:   -4.59 KCAL/MOL
REMARK 924 INTRA-LIGAND FREE ENERGY PREDICTED BY IDOCK:   -0.86 KCAL/MOL
REMARK 927      BINDING AFFINITY PREDICTED BY RF-SCORE:    0.00 PKD
ROOT
HETATM    1  C   UNL     1     -11.786  12.802  66.385  1.00  0.00    -0.472 C  
HETATM    2  C   UNL     1     -10.818  11.675  66.595  1.00  0.00    -0.327 A  
HETATM    3  C   UNL     1     -10.413  10.875  65.531  1.00  0.00    -0.286 A  
HETATM    4  C   UNL     1      -9.635   9.746  65.761  1.00  0.00    -0.318 A  
HETATM    5  C   UNL     1      -9.282   9.369  67.065  1.00  0.00    -0.142 A  
HETATM    6  C   UNL     1      -9.549  10.250  68.129  1.00  0.00    -0.151 A  
HETATM    7  C   UNL     1     -10.322  11.399  67.876  1.00  0.00    -0.204 A  
ENDROOT
BRANCH   5   8
HETATM    8  N   UNL     1      -8.768   8.076  67.331  1.00  0.00    -0.124 NA 
HETATM    9  H   UNL     1      -8.118   7.991  68.112  1.00  0.00     0.000 HD 
BRANCH   8  10
HETATM   10  C   UNL     1      -9.073   6.883  66.612  1.00  0.00    -0.151 A  
HETATM   11  F   UNL     1     -11.208   6.861  67.635  1.00  0.00    -0.310 F  
HETATM   12  C   UNL     1     -10.311   6.261  66.838  1.00  0.00    -0.244 A  
HETATM   13  C   UNL     1      -8.202   6.258  65.693  1.00  0.00    -0.143 A  
HETATM   14 CL   UNL     1      -6.774   7.027  65.078  1.00  0.00    -0.046 Cl 
HETATM   15  C   UNL     1      -8.499   4.993  65.167  1.00  0.00    -0.143 A  
HETATM   16  C   UNL     1     -10.630   5.022  66.281  1.00  0.00    -0.332 A  
HETATM   17  C   UNL     1      -9.705   4.368  65.476  1.00  0.00    -0.206 A  
ENDBRANCH   8  10
ENDBRANCH   5   8
BRANCH   6  18
HETATM   18  C   UNL     1      -9.068   9.988  69.541  1.00  0.00    -0.236 C  
HETATM   19  O   UNL     1      -9.648   9.037  71.660  1.00  0.00    -0.288 OA 
HETATM   20  C   UNL     1      -9.974   9.245  70.497  1.00  0.00    -0.249 C  
HETATM   21  O   UNL     1     -11.169   8.823  70.031  1.00  0.00    -0.215 OA 
ENDBRANCH   6  18
TORSDOF 3
ENDMDL
MODEL      197
REMARK 921   NORMALIZED FREE ENERGY PREDICTED BY IDOCK:   -4.42 KCAL/MOL
REMARK 922        TOTAL FREE ENERGY PREDICTED BY IDOCK:   -5.43 KCAL/MOL
REMARK 923 INTER-LIGAND FREE ENERGY PREDICTED BY IDOCK:   -4.69 KCAL/MOL
REMARK 924 INTRA-LIGAND FREE ENERGY PREDICTED BY IDOCK:   -0.74 KCAL/MOL
REMARK 927      BINDING AFFINITY PREDICTED BY RF-SCORE:    0.00 PKD
ROOT
HETATM    1  C   UNL     1      -5.402   8.835  68.515  1.00  0.00    -0.037 C  
HETATM    2  C   UNL     1      -6.759   9.357  68.143  1.00  0.00    -0.059 A  
HETATM    3  C   UNL     1      -7.153  10.641  68.506  1.00  0.00    -0.069 A  
HETATM    4  C   UNL     1      -8.460  11.060  68.286  1.00  0.00    -0.138 A  
HETATM    5  C   UNL     1      -9.414  10.188  67.739  1.00  0.00    -0.144 A  
HETATM    6  C   UNL     1      -8.992   8.948  67.226  1.00  0.00    -0.140 A  
HETATM    7  C   UNL     1      -7.659   8.546  67.439  1.00  0.00    -0.097 A  
ENDROOT
BRANCH   5   8
HETATM    8  N   UNL     1     -10.795  10.493  67.802  1.00  0.00    -0.272 NA 
HETATM    9  H   UNL     1     -11.436   9.809  67.401  1.00  0.00     0.000 HD 
BRANCH   8  10
HETATM   10  C   UNL     1     -11.375  11.665  68.372  1.00  0.00    -0.279 A  
HETATM   11  F   UNL     1     -11.454  12.627  66.209  1.00  0.00    -0.320 F  
HETATM   12  C   UNL     1     -11.645  12.757  67.531  1.00  0.00    -0.356 A  
HETATM   13  C   UNL     1     -11.680  11.822  69.741  1.00  0.00    -0.335 A  
HETATM   14 CL   UNL     1     -11.686  10.498  70.861  1.00  0.00    -0.440 Cl 
HETATM   15  C   UNL     1     -12.075  13.067  70.251  1.00  0.00    -0.388 A  
HETATM   16  C   UNL     1     -12.081  13.985  68.028  1.00  0.00    -0.312 A  
HETATM   17  C   UNL     1     -12.257  14.152  69.398  1.00  0.00    -0.329 A  
ENDBRANCH   8  10
ENDBRANCH   5   8
BRANCH   6  18
HETATM   18  C   UNL     1      -9.927   8.014  66.485  1.00  0.00    -0.283 C  
HETATM   19  O   UNL     1     -11.389   6.132  66.705  1.00  0.00    -0.188 OA 
HETATM   20  C   UNL     1     -10.648   6.934  67.260  1.00  0.00    -0.322 C  
HETATM   21  O   UNL     1     -10.441   6.872  68.593  1.00  0.00    -0.178 OA 
ENDBRANCH   6  18
TORSDOF 3
ENDMDL
MODEL      198
REMARK 921   NORMALIZED FREE ENERGY PREDICTED BY IDOCK:   -4.42 KCAL/MOL
REMARK 922        TOTAL FREE ENERGY PREDICTED BY IDOCK:   -5.42 KCAL/MOL
REMARK 923 INTER-LIGAND FREE ENERGY PREDICTED BY IDOCK:   -4.55 KCAL/MOL
REMARK 924 INTRA-LIGAND FREE ENERGY PREDICTED BY IDOCK:   -0.87 KCAL/MOL
REMARK 927      BINDING AFFINITY PREDICTED BY RF-SCORE:    0.00 PKD
ROOT
HETATM    1  C   UNL     1     -10.635   5.085  72.593  1.00  0.00    -0.274 C  
HETATM    2  C   UNL     1     -10.527   5.885  71.327  1.00  0.00    -0.289 A  
HETATM    3  C   UNL     1     -10.396   7.269  71.369  1.00  0.00    -0.212 A  
HETATM    4  C   UNL     1     -10.447   8.012  70.194  1.00  0.00    -0.225 A  
HETATM    5  C   UNL     1     -10.674   7.390  68.958  1.00  0.00    -0.148 A  
HETATM    6  C   UNL     1     -10.650   5.985  68.884  1.00  0.00    -0.356 A  
HETATM    7  C   UNL     1     -10.578   5.246  70.081  1.00  0.00    -0.297 A  
ENDROOT
BRANCH   5   8
HETATM    8  N   UNL     1     -11.035   8.150  67.819  1.00  0.00    -0.492 NA 
HETATM    9  H   UNL     1     -11.849   7.833  67.293  1.00  0.00     0.000 HD 
BRANCH   8  10
HETATM   10  C   UNL     1     -10.368   9.315  67.337  1.00  0.00    -0.263 A  
HETATM   11  F   UNL     1      -9.193   7.954  65.796  1.00  0.00    -0.199 F  
HETATM   12  C   UNL     1      -9.390   9.164  66.340  1.00  0.00    -0.204 A  
HETATM   13  C   UNL     1     -10.601  10.624  67.810  1.00  0.00    -0.236 A  
HETATM   14 CL   UNL     1     -11.954  11.033  68.815  1.00  0.00    -0.363 Cl 
HETATM   15  C   UNL     1      -9.777  11.688  67.418  1.00  0.00    -0.186 A  
HETATM   16  C   UNL     1      -8.597  10.229  65.914  1.00  0.00    -0.160 A  
HETATM   17  C   UNL     1      -8.764  11.487  66.484  1.00  0.00    -0.183 A  
ENDBRANCH   8  10
ENDBRANCH   5   8
BRANCH   6  18
HETATM   18  C   UNL     1     -10.735   5.238  67.569  1.00  0.00    -0.063 C  
HETATM   19  O   UNL     1      -9.471   4.325  65.752  1.00  0.00    -0.150 OA 
HETATM   20  C   UNL     1      -9.457   4.898  66.835  1.00  0.00    -0.148 C  
HETATM   21  O   UNL     1      -8.289   5.257  67.409  1.00  0.00    -0.107 OA 
ENDBRANCH   6  18
TORSDOF 3
ENDMDL
MODEL      199
REMARK 921   NORMALIZED FREE ENERGY PREDICTED BY IDOCK:   -4.41 KCAL/MOL
REMARK 922        TOTAL FREE ENERGY PREDICTED BY IDOCK:   -5.41 KCAL/MOL
REMARK 923 INTER-LIGAND FREE ENERGY PREDICTED BY IDOCK:   -4.55 KCAL/MOL
REMARK 924 INTRA-LIGAND FREE ENERGY PREDICTED BY IDOCK:   -0.86 KCAL/MOL
REMARK 927      BINDING AFFINITY PREDICTED BY RF-SCORE:    0.00 PKD
ROOT
HETATM    1  C   UNL     1     -13.131  10.577  71.990  1.00  0.00    -0.511 C  
HETATM    2  C   UNL     1     -12.169   9.848  71.097  1.00  0.00    -0.468 A  
HETATM    3  C   UNL     1     -11.385  10.540  70.179  1.00  0.00    -0.400 A  
HETATM    4  C   UNL     1     -10.610   9.845  69.258  1.00  0.00    -0.245 A  
HETATM    5  C   UNL     1     -10.636   8.444  69.206  1.00  0.00    -0.182 A  
HETATM    6  C   UNL     1     -11.297   7.733  70.224  1.00  0.00    -0.174 A  
HETATM    7  C   UNL     1     -12.063   8.453  71.162  1.00  0.00    -0.275 A  
ENDROOT
BRANCH   5   8
HETATM    8  N   UNL     1     -10.106   7.749  68.091  1.00  0.00    -0.179 NA 
HETATM    9  H   UNL     1     -10.610   6.918  67.784  1.00  0.00     0.000 HD 
BRANCH   8  10
HETATM   10  C   UNL     1      -8.935   8.102  67.358  1.00  0.00    -0.137 A  
HETATM   11  F   UNL     1     -10.316   9.110  65.719  1.00  0.00    -0.330 F  
HETATM   12  C   UNL     1      -9.088   8.748  66.120  1.00  0.00    -0.202 A  
HETATM   13  C   UNL     1      -7.616   7.825  67.775  1.00  0.00    -0.113 A  
HETATM   14 CL   UNL     1      -7.227   7.304  69.383  1.00  0.00    -0.082 Cl 
HETATM   15  C   UNL     1      -6.529   8.038  66.915  1.00  0.00    -0.056 A  
HETATM   16  C   UNL     1      -8.005   9.003  65.279  1.00  0.00    -0.114 A  
HETATM   17  C   UNL     1      -6.727   8.610  65.660  1.00  0.00    -0.064 A  
ENDBRANCH   8  10
ENDBRANCH   5   8
BRANCH   6  18
HETATM   18  C   UNL     1     -11.247   6.223  70.327  1.00  0.00    -0.455 C  
HETATM   19  O   UNL     1     -10.102   4.367  71.314  1.00  0.00    -0.186 OA 
HETATM   20  C   UNL     1     -10.208   5.584  71.221  1.00  0.00    -0.222 C  
HETATM   21  O   UNL     1      -9.385   6.402  71.912  1.00  0.00    -0.153 OA 
ENDBRANCH   6  18
TORSDOF 3
ENDMDL
MODEL      200
REMARK 921   NORMALIZED FREE ENERGY PREDICTED BY IDOCK:   -4.40 KCAL/MOL
REMARK 922        TOTAL FREE ENERGY PREDICTED BY IDOCK:   -5.40 KCAL/MOL
REMARK 923 INTER-LIGAND FREE ENERGY PREDICTED BY IDOCK:   -4.96 KCAL/MOL
REMARK 924 INTRA-LIGAND FREE ENERGY PREDICTED BY IDOCK:   -0.43 KCAL/MOL
REMARK 927      BINDING AFFINITY PREDICTED BY RF-SCORE:    0.00 PKD
ROOT
HETATM    1  C   UNL     1      -5.629  10.397  69.980  1.00  0.00    -0.051 C  
HETATM    2  C   UNL     1      -6.554  10.975  68.949  1.00  0.00    -0.058 A  
HETATM    3  C   UNL     1      -6.062  11.457  67.741  1.00  0.00    -0.049 A  
HETATM    4  C   UNL     1      -6.905  12.124  66.858  1.00  0.00     0.004 A  
HETATM    5  C   UNL     1      -8.249  12.360  67.186  1.00  0.00    -0.176 A  
HETATM    6  C   UNL     1      -8.794  11.743  68.327  1.00  0.00    -0.172 A  
HETATM    7  C   UNL     1      -7.930  11.056  69.201  1.00  0.00    -0.081 A  
ENDROOT
BRANCH   5   8
HETATM    8  N   UNL     1      -9.021  13.293  66.451  1.00  0.00    -0.458 NA 
HETATM    9  H   UNL     1      -8.834  14.281  66.621  1.00  0.00     0.000 HD 
BRANCH   8  10
HETATM   10  C   UNL     1     -10.035  12.982  65.498  1.00  0.00    -0.214 A  
HETATM   11  F   UNL     1     -11.097  15.033  66.021  1.00  0.00    -0.323 F  
HETATM   12  C   UNL     1     -11.111  13.872  65.348  1.00  0.00    -0.310 A  
HETATM   13  C   UNL     1     -10.053  11.819  64.699  1.00  0.00    -0.272 A  
HETATM   14 CL   UNL     1      -8.683  10.767  64.539  1.00  0.00    -0.141 Cl 
HETATM   15  C   UNL     1     -11.174  11.497  63.922  1.00  0.00    -0.439 A  
HETATM   16  C   UNL     1     -12.210  13.577  64.542  1.00  0.00    -0.445 A  
HETATM   17  C   UNL     1     -12.260  12.367  63.858  1.00  0.00    -0.603 A  
ENDBRANCH   8  10
ENDBRANCH   5   8
BRANCH   6  18
HETATM   18  C   UNL     1     -10.267  11.824  68.669  1.00  0.00    -0.211 C  
HETATM   19  O   UNL     1     -12.407  10.799  68.352  1.00  0.00    -0.396 OA 
HETATM   20  C   UNL     1     -11.202  10.763  68.133  1.00  0.00    -0.302 C  
HETATM   21  O   UNL     1     -10.667   9.771  67.390  1.00  0.00    -0.268 OA 
ENDBRANCH   6  18
TORSDOF 3
ENDMDL
MODEL      201
REMARK 921   NORMALIZED FREE ENERGY PREDICTED BY IDOCK:   -4.39 KCAL/MOL
REMARK 922        TOTAL FREE ENERGY PREDICTED BY IDOCK:   -5.39 KCAL/MOL
REMARK 923 INTER-LIGAND FREE ENERGY PREDICTED BY IDOCK:   -4.64 KCAL/MOL
REMARK 924 INTRA-LIGAND FREE ENERGY PREDICTED BY IDOCK:   -0.75 KCAL/MOL
REMARK 927      BINDING AFFINITY PREDICTED BY RF-SCORE:    0.00 PKD
ROOT
HETATM    1  C   UNL     1      -9.430   3.327  71.404  1.00  0.00    -0.221 C  
HETATM    2  C   UNL     1      -9.853   4.578  70.690  1.00  0.00    -0.292 A  
HETATM    3  C   UNL     1      -9.097   5.090  69.641  1.00  0.00    -0.151 A  
HETATM    4  C   UNL     1      -9.416   6.325  69.087  1.00  0.00    -0.139 A  
HETATM    5  C   UNL     1     -10.471   7.094  69.600  1.00  0.00    -0.229 A  
HETATM    6  C   UNL     1     -11.336   6.521  70.550  1.00  0.00    -0.426 A  
HETATM    7  C   UNL     1     -11.010   5.261  71.088  1.00  0.00    -0.049 A  
ENDROOT
BRANCH   5   8
HETATM    8  N   UNL     1     -10.604   8.462  69.259  1.00  0.00    -0.303 NA 
HETATM    9  H   UNL     1     -11.535   8.869  69.342  1.00  0.00     0.000 HD 
BRANCH   8  10
HETATM   10  C   UNL     1      -9.560   9.323  68.811  1.00  0.00    -0.154 A  
HETATM   11  F   UNL     1      -8.805   9.505  71.048  1.00  0.00    -0.252 F  
HETATM   12  C   UNL     1      -8.694   9.882  69.765  1.00  0.00    -0.212 A  
HETATM   13  C   UNL     1      -9.341   9.682  67.463  1.00  0.00    -0.130 A  
HETATM   14 CL   UNL     1     -10.115   8.875  66.138  1.00  0.00    -0.313 Cl 
HETATM   15  C   UNL     1      -8.412  10.676  67.125  1.00  0.00    -0.128 A  
HETATM   16  C   UNL     1      -7.737  10.839  69.428  1.00  0.00    -0.107 A  
HETATM   17  C   UNL     1      -7.623  11.267  68.109  1.00  0.00    -0.105 A  
ENDBRANCH   8  10
ENDBRANCH   5   8
BRANCH   6  18
HETATM   18  C   UNL     1     -12.584   7.225  71.042  1.00  0.00    -0.304 C  
HETATM   19  O   UNL     1     -13.416   8.965  72.459  1.00  0.00    -0.438 OA 
HETATM   20  C   UNL     1     -12.440   8.383  72.004  1.00  0.00    -0.359 C  
HETATM   21  O   UNL     1     -11.191   8.753  72.359  1.00  0.00    -0.329 OA 
ENDBRANCH   6  18
TORSDOF 3
ENDMDL
MODEL      202
REMARK 921   NORMALIZED FREE ENERGY PREDICTED BY IDOCK:   -4.39 KCAL/MOL
REMARK 922        TOTAL FREE ENERGY PREDICTED BY IDOCK:   -5.38 KCAL/MOL
REMARK 923 INTER-LIGAND FREE ENERGY PREDICTED BY IDOCK:   -5.71 KCAL/MOL
REMARK 924 INTRA-LIGAND FREE ENERGY PREDICTED BY IDOCK:    0.32 KCAL/MOL
REMARK 927      BINDING AFFINITY PREDICTED BY RF-SCORE:    0.00 PKD
ROOT
HETATM    1  C   UNL     1      -8.567  19.092  68.112  1.00  0.00    -0.359 C  
HETATM    2  C   UNL     1      -8.661  17.630  67.788  1.00  0.00    -0.232 A  
HETATM    3  C   UNL     1      -7.695  16.736  68.239  1.00  0.00    -0.187 A  
HETATM    4  C   UNL     1      -7.711  15.414  67.811  1.00  0.00    -0.160 A  
HETATM    5  C   UNL     1      -8.668  14.967  66.887  1.00  0.00    -0.256 A  
HETATM    6  C   UNL     1      -9.738  15.815  66.547  1.00  0.00    -0.285 A  
HETATM    7  C   UNL     1      -9.717  17.147  67.005  1.00  0.00    -0.265 A  
ENDROOT
BRANCH   5   8
HETATM    8  N   UNL     1      -8.506  13.731  66.216  1.00  0.00    -0.061 NA 
HETATM    9  H   UNL     1      -7.777  13.684  65.505  1.00  0.00     0.000 HD 
BRANCH   8  10
HETATM   10  C   UNL     1      -9.266  12.545  66.439  1.00  0.00    -0.177 A  
HETATM   11  F   UNL     1      -8.731  12.686  68.742  1.00  0.00    -0.115 F  
HETATM   12  C   UNL     1      -9.310  12.011  67.737  1.00  0.00    -0.190 A  
HETATM   13  C   UNL     1      -9.969  11.844  65.436  1.00  0.00    -0.252 A  
HETATM   14 CL   UNL     1     -10.265  12.503  63.859  1.00  0.00    -0.422 Cl 
HETATM   15  C   UNL     1     -10.539  10.590  65.699  1.00  0.00    -0.132 A  
HETATM   16  C   UNL     1      -9.914  10.784  68.013  1.00  0.00    -0.183 A  
HETATM   17  C   UNL     1     -10.495  10.052  66.983  1.00  0.00    -0.302 A  
ENDBRANCH   8  10
ENDBRANCH   5   8
BRANCH   6  18
HETATM   18  C   UNL     1     -10.891  15.359  65.677  1.00  0.00    -0.363 C  
HETATM   19  O   UNL     1     -12.448  16.027  63.985  1.00  0.00    -0.703 OA 
HETATM   20  C   UNL     1     -11.493  16.333  64.689  1.00  0.00    -0.167 C  
HETATM   21  O   UNL     1     -10.948  17.566  64.611  1.00  0.00    -0.892 OA 
ENDBRANCH   6  18
TORSDOF 3
ENDMDL
MODEL      203
REMARK 921   NORMALIZED FREE ENERGY PREDICTED BY IDOCK:   -4.37 KCAL/MOL
REMARK 922        TOTAL FREE ENERGY PREDICTED BY IDOCK:   -5.36 KCAL/MOL
REMARK 923 INTER-LIGAND FREE ENERGY PREDICTED BY IDOCK:   -4.80 KCAL/MOL
REMARK 924 INTRA-LIGAND FREE ENERGY PREDICTED BY IDOCK:   -0.56 KCAL/MOL
REMARK 927      BINDING AFFINITY PREDICTED BY RF-SCORE:    0.00 PKD
ROOT
HETATM    1  C   UNL     1      -8.154  11.825  67.619  1.00  0.00    -0.144 C  
HETATM    2  C   UNL     1      -8.823  10.579  68.120  1.00  0.00    -0.134 A  
HETATM    3  C   UNL     1      -9.283   9.611  67.232  1.00  0.00    -0.154 A  
HETATM    4  C   UNL     1     -10.031   8.535  67.696  1.00  0.00    -0.253 A  
HETATM    5  C   UNL     1     -10.373   8.427  69.053  1.00  0.00    -0.218 A  
HETATM    6  C   UNL     1      -9.785   9.309  69.978  1.00  0.00    -0.234 A  
HETATM    7  C   UNL     1      -9.014  10.383  69.493  1.00  0.00    -0.127 A  
ENDROOT
BRANCH   5   8
HETATM    8  N   UNL     1     -11.378   7.525  69.478  1.00  0.00    -0.455 NA 
HETATM    9  H   UNL     1     -12.309   7.651  69.081  1.00  0.00     0.000 HD 
BRANCH   8  10
HETATM   10  C   UNL     1     -11.213   6.456  70.407  1.00  0.00    -0.372 A  
HETATM   11  F   UNL     1     -12.852   7.461  71.789  1.00  0.00    -0.327 F  
HETATM   12  C   UNL     1     -11.945   6.490  71.606  1.00  0.00    -0.335 A  
HETATM   13  C   UNL     1     -10.339   5.364  70.224  1.00  0.00    -0.287 A  
HETATM   14 CL   UNL     1      -9.584   5.007  68.704  1.00  0.00    -0.189 Cl 
HETATM   15  C   UNL     1     -10.096   4.454  71.263  1.00  0.00    -0.202 A  
HETATM   16  C   UNL     1     -11.740   5.561  72.625  1.00  0.00    -0.240 A  
HETATM   17  C   UNL     1     -10.784   4.564  72.469  1.00  0.00    -0.192 A  
ENDBRANCH   8  10
ENDBRANCH   5   8
BRANCH   6  18
HETATM   18  C   UNL     1      -9.982   9.167  71.474  1.00  0.00    -0.358 C  
HETATM   19  O   UNL     1      -9.119   8.176  73.475  1.00  0.00    -0.260 OA 
HETATM   20  C   UNL     1      -8.988   8.351  72.269  1.00  0.00    -0.233 C  
HETATM   21  O   UNL     1      -7.947   7.805  71.604  1.00  0.00    -0.089 OA 
ENDBRANCH   6  18
TORSDOF 3
ENDMDL
MODEL      204
REMARK 921   NORMALIZED FREE ENERGY PREDICTED BY IDOCK:   -4.33 KCAL/MOL
REMARK 922        TOTAL FREE ENERGY PREDICTED BY IDOCK:   -5.32 KCAL/MOL
REMARK 923 INTER-LIGAND FREE ENERGY PREDICTED BY IDOCK:   -4.46 KCAL/MOL
REMARK 924 INTRA-LIGAND FREE ENERGY PREDICTED BY IDOCK:   -0.86 KCAL/MOL
REMARK 927      BINDING AFFINITY PREDICTED BY RF-SCORE:    0.00 PKD
ROOT
HETATM    1  C   UNL     1      -7.560   5.814  66.242  1.00  0.00    -0.091 C  
HETATM    2  C   UNL     1      -8.160   6.553  67.402  1.00  0.00    -0.121 A  
HETATM    3  C   UNL     1      -9.415   7.144  67.297  1.00  0.00    -0.169 A  
HETATM    4  C   UNL     1      -9.897   7.950  68.323  1.00  0.00    -0.187 A  
HETATM    5  C   UNL     1      -9.115   8.217  69.457  1.00  0.00    -0.151 A  
HETATM    6  C   UNL     1      -7.917   7.503  69.645  1.00  0.00    -0.125 A  
HETATM    7  C   UNL     1      -7.452   6.676  68.604  1.00  0.00    -0.088 A  
ENDROOT
BRANCH   5   8
HETATM    8  N   UNL     1      -9.458   9.266  70.344  1.00  0.00    -0.227 NA 
HETATM    9  H   UNL     1      -8.708   9.898  70.621  1.00  0.00     0.000 HD 
BRANCH   8  10
HETATM   10  C   UNL     1     -10.752   9.522  70.885  1.00  0.00    -0.333 A  
HETATM   11  F   UNL     1     -10.354   7.851  72.515  1.00  0.00    -0.250 F  
HETATM   12  C   UNL     1     -11.196   8.737  71.961  1.00  0.00    -0.373 A  
HETATM   13  C   UNL     1     -11.643  10.503  70.400  1.00  0.00    -0.342 A  
HETATM   14 CL   UNL     1     -11.163  11.741  69.285  1.00  0.00    -0.314 Cl 
HETATM   15  C   UNL     1     -12.964  10.568  70.865  1.00  0.00    -0.455 A  
HETATM   16  C   UNL     1     -12.496   8.829  72.459  1.00  0.00    -0.368 A  
HETATM   17  C   UNL     1     -13.395   9.719  71.881  1.00  0.00    -0.530 A  
ENDBRANCH   8  10
ENDBRANCH   5   8
BRANCH   6  18
HETATM   18  C   UNL     1      -7.091   7.621  70.909  1.00  0.00    -0.054 C  
HETATM   19  O   UNL     1      -6.762   6.757  73.118  1.00  0.00    -0.070 OA 
HETATM   20  C   UNL     1      -7.377   6.683  72.061  1.00  0.00    -0.090 C  
HETATM   21  O   UNL     1      -8.348   5.760  71.893  1.00  0.00    -0.118 OA 
ENDBRANCH   6  18
TORSDOF 3
ENDMDL
MODEL      205
REMARK 921   NORMALIZED FREE ENERGY PREDICTED BY IDOCK:   -4.32 KCAL/MOL
REMARK 922        TOTAL FREE ENERGY PREDICTED BY IDOCK:   -5.31 KCAL/MOL
REMARK 923 INTER-LIGAND FREE ENERGY PREDICTED BY IDOCK:   -4.81 KCAL/MOL
REMARK 924 INTRA-LIGAND FREE ENERGY PREDICTED BY IDOCK:   -0.50 KCAL/MOL
REMARK 927      BINDING AFFINITY PREDICTED BY RF-SCORE:    0.00 PKD
ROOT
HETATM    1  C   UNL     1      -8.519   9.132  65.115  1.00  0.00    -0.182 C  
HETATM    2  C   UNL     1      -9.133   8.388  66.265  1.00  0.00    -0.241 A  
HETATM    3  C   UNL     1      -9.684   7.124  66.083  1.00  0.00     0.041 A  
HETATM    4  C   UNL     1     -10.379   6.509  67.118  1.00  0.00    -0.311 A  
HETATM    5  C   UNL     1     -10.576   7.164  68.343  1.00  0.00    -0.186 A  
HETATM    6  C   UNL     1      -9.893   8.369  68.592  1.00  0.00    -0.180 A  
HETATM    7  C   UNL     1      -9.177   8.970  67.539  1.00  0.00    -0.152 A  
ENDROOT
BRANCH   5   8
HETATM    8  N   UNL     1     -11.531   6.689  69.274  1.00  0.00    -0.628 NA 
HETATM    9  H   UNL     1     -12.513   6.781  69.015  1.00  0.00     0.000 HD 
BRANCH   8  10
HETATM   10  C   UNL     1     -11.251   6.094  70.540  1.00  0.00    -0.334 A  
HETATM   11  F   UNL     1      -9.746   4.615  69.464  1.00  0.00    -0.202 F  
HETATM   12  C   UNL     1     -10.374   4.998  70.586  1.00  0.00    -0.208 A  
HETATM   13  C   UNL     1     -11.814   6.514  71.764  1.00  0.00    -0.335 A  
HETATM   14 CL   UNL     1     -12.676   8.009  71.939  1.00  0.00    -0.340 Cl 
HETATM   15  C   UNL     1     -11.632   5.764  72.934  1.00  0.00    -0.210 A  
HETATM   16  C   UNL     1     -10.154   4.275  71.758  1.00  0.00    -0.227 A  
HETATM   17  C   UNL     1     -10.817   4.634  72.927  1.00  0.00    -0.295 A  
ENDBRANCH   8  10
ENDBRANCH   5   8
BRANCH   6  18
HETATM   18  C   UNL     1      -9.931   9.061  69.939  1.00  0.00    -0.203 C  
HETATM   19  O   UNL     1      -8.956   9.144  72.123  1.00  0.00    -0.315 OA 
HETATM   20  C   UNL     1      -8.947   8.640  71.007  1.00  0.00    -0.196 C  
HETATM   21  O   UNL     1      -8.055   7.675  70.694  1.00  0.00    -0.104 OA 
ENDBRANCH   6  18
TORSDOF 3
ENDMDL
MODEL      206
REMARK 921   NORMALIZED FREE ENERGY PREDICTED BY IDOCK:   -4.29 KCAL/MOL
REMARK 922        TOTAL FREE ENERGY PREDICTED BY IDOCK:   -5.26 KCAL/MOL
REMARK 923 INTER-LIGAND FREE ENERGY PREDICTED BY IDOCK:   -5.02 KCAL/MOL
REMARK 924 INTRA-LIGAND FREE ENERGY PREDICTED BY IDOCK:   -0.25 KCAL/MOL
REMARK 927      BINDING AFFINITY PREDICTED BY RF-SCORE:    0.00 PKD
ROOT
HETATM    1  C   UNL     1      -9.545  13.720  66.715  1.00  0.00    -0.283 C  
HETATM    2  C   UNL     1      -9.722  12.238  66.868  1.00  0.00    -0.217 A  
HETATM    3  C   UNL     1     -10.097  11.449  65.785  1.00  0.00    -0.289 A  
HETATM    4  C   UNL     1     -10.401  10.105  65.971  1.00  0.00    -0.234 A  
HETATM    5  C   UNL     1     -10.381   9.532  67.251  1.00  0.00    -0.255 A  
HETATM    6  C   UNL     1      -9.854  10.274  68.324  1.00  0.00    -0.161 A  
HETATM    7  C   UNL     1      -9.532  11.629  68.116  1.00  0.00    -0.191 A  
ENDROOT
BRANCH   5   8
HETATM    8  N   UNL     1     -10.982   8.273  67.491  1.00  0.00    -0.477 NA 
HETATM    9  H   UNL     1     -11.992   8.263  67.630  1.00  0.00     0.000 HD 
BRANCH   8  10
HETATM   10  C   UNL     1     -10.309   7.017  67.558  1.00  0.00    -0.225 A  
HETATM   11  F   UNL     1      -9.009   7.661  65.686  1.00  0.00    -0.180 F  
HETATM   12  C   UNL     1      -9.345   6.720  66.581  1.00  0.00    -0.165 A  
HETATM   13  C   UNL     1     -10.558   6.026  68.532  1.00  0.00    -0.265 A  
HETATM   14 CL   UNL     1     -11.489   6.328  69.964  1.00  0.00    -0.494 Cl 
HETATM   15  C   UNL     1      -9.990   4.749  68.421  1.00  0.00    -0.156 A  
HETATM   16  C   UNL     1      -8.742   5.465  66.493  1.00  0.00    -0.117 A  
HETATM   17  C   UNL     1      -9.096   4.464  67.391  1.00  0.00    -0.148 A  
ENDBRANCH   8  10
ENDBRANCH   5   8
BRANCH   6  18
HETATM   18  C   UNL     1      -9.656   9.680  69.704  1.00  0.00    -0.225 C  
HETATM   19  O   UNL     1     -10.667   9.331  71.846  1.00  0.00    -0.339 OA 
HETATM   20  C   UNL     1     -10.785   9.765  70.706  1.00  0.00    -0.323 C  
HETATM   21  O   UNL     1     -11.936  10.349  70.309  1.00  0.00    -0.272 OA 
ENDBRANCH   6  18
TORSDOF 3
ENDMDL
MODEL      207
REMARK 921   NORMALIZED FREE ENERGY PREDICTED BY IDOCK:   -4.28 KCAL/MOL
REMARK 922        TOTAL FREE ENERGY PREDICTED BY IDOCK:   -5.26 KCAL/MOL
REMARK 923 INTER-LIGAND FREE ENERGY PREDICTED BY IDOCK:   -4.49 KCAL/MOL
REMARK 924 INTRA-LIGAND FREE ENERGY PREDICTED BY IDOCK:   -0.78 KCAL/MOL
REMARK 927      BINDING AFFINITY PREDICTED BY RF-SCORE:    0.00 PKD
ROOT
HETATM    1  C   UNL     1      -9.734   3.107  69.547  1.00  0.00     0.034 C  
HETATM    2  C   UNL     1      -9.912   4.596  69.614  1.00  0.00    -0.281 A  
HETATM    3  C   UNL     1     -10.009   5.355  68.452  1.00  0.00    -0.217 A  
HETATM    4  C   UNL     1     -10.025   6.743  68.524  1.00  0.00    -0.149 A  
HETATM    5  C   UNL     1      -9.900   7.403  69.755  1.00  0.00    -0.171 A  
HETATM    6  C   UNL     1      -9.960   6.651  70.943  1.00  0.00    -0.204 A  
HETATM    7  C   UNL     1      -9.963   5.246  70.854  1.00  0.00    -0.274 A  
ENDROOT
BRANCH   5   8
HETATM    8  N   UNL     1      -9.603   8.787  69.810  1.00  0.00    -0.169 NA 
HETATM    9  H   UNL     1      -8.748   9.056  70.296  1.00  0.00     0.000 HD 
BRANCH   8  10
HETATM   10  C   UNL     1     -10.387   9.839  69.252  1.00  0.00    -0.215 A  
HETATM   11  F   UNL     1      -9.169   9.617  67.232  1.00  0.00    -0.137 F  
HETATM   12  C   UNL     1     -10.096  10.273  67.948  1.00  0.00    -0.170 A  
HETATM   13  C   UNL     1     -11.433  10.503  69.927  1.00  0.00    -0.310 A  
HETATM   14 CL   UNL     1     -12.116   9.919  71.410  1.00  0.00    -0.473 Cl 
HETATM   15  C   UNL     1     -12.031  11.647  69.379  1.00  0.00    -0.381 A  
HETATM   16  C   UNL     1     -10.720  11.384  67.380  1.00  0.00    -0.274 A  
HETATM   17  C   UNL     1     -11.661  12.097  68.114  1.00  0.00    -0.402 A  
ENDBRANCH   8  10
ENDBRANCH   5   8
BRANCH   6  18
HETATM   18  C   UNL     1      -9.984   7.297  72.313  1.00  0.00    -0.199 C  
HETATM   19  O   UNL     1      -8.637   8.069  74.135  1.00  0.00    -0.263 OA 
HETATM   20  C   UNL     1      -8.674   7.580  73.013  1.00  0.00    -0.149 C  
HETATM   21  O   UNL     1      -7.533   7.264  72.362  1.00  0.00    -0.081 OA 
ENDBRANCH   6  18
TORSDOF 3
ENDMDL
MODEL      208
REMARK 921   NORMALIZED FREE ENERGY PREDICTED BY IDOCK:   -4.25 KCAL/MOL
REMARK 922        TOTAL FREE ENERGY PREDICTED BY IDOCK:   -5.23 KCAL/MOL
REMARK 923 INTER-LIGAND FREE ENERGY PREDICTED BY IDOCK:   -4.73 KCAL/MOL
REMARK 924 INTRA-LIGAND FREE ENERGY PREDICTED BY IDOCK:   -0.50 KCAL/MOL
REMARK 927      BINDING AFFINITY PREDICTED BY RF-SCORE:    0.00 PKD
ROOT
HETATM    1  C   UNL     1     -12.002  13.026  66.214  1.00  0.00    -0.477 C  
HETATM    2  C   UNL     1     -10.957  11.963  66.392  1.00  0.00    -0.337 A  
HETATM    3  C   UNL     1     -10.499  11.226  65.305  1.00  0.00    -0.341 A  
HETATM    4  C   UNL     1      -9.644  10.147  65.502  1.00  0.00    -0.310 A  
HETATM    5  C   UNL     1      -9.263   9.757  66.795  1.00  0.00    -0.148 A  
HETATM    6  C   UNL     1      -9.590  10.585  67.884  1.00  0.00    -0.164 A  
HETATM    7  C   UNL     1     -10.442  11.685  67.665  1.00  0.00    -0.219 A  
ENDROOT
BRANCH   5   8
HETATM    8  N   UNL     1      -8.660   8.496  67.023  1.00  0.00    -0.120 NA 
HETATM    9  H   UNL     1      -7.772   8.318  66.556  1.00  0.00     0.000 HD 
BRANCH   8  10
HETATM   10  C   UNL     1      -9.177   7.451  67.844  1.00  0.00    -0.131 A  
HETATM   11  F   UNL     1     -11.252   7.652  66.721  1.00  0.00    -0.308 F  
HETATM   12  C   UNL     1     -10.526   7.087  67.697  1.00  0.00    -0.237 A  
HETATM   13  C   UNL     1      -8.433   6.760  68.825  1.00  0.00    -0.124 A  
HETATM   14 CL   UNL     1      -6.707   6.870  68.946  1.00  0.00    -0.057 Cl 
HETATM   15  C   UNL     1      -9.060   5.877  69.715  1.00  0.00    -0.147 A  
HETATM   16  C   UNL     1     -11.145   6.175  68.552  1.00  0.00    -0.352 A  
HETATM   17  C   UNL     1     -10.419   5.598  69.589  1.00  0.00    -0.374 A  
ENDBRANCH   8  10
ENDBRANCH   5   8
BRANCH   6  18
HETATM   18  C   UNL     1      -9.091  10.316  69.289  1.00  0.00    -0.206 C  
HETATM   19  O   UNL     1      -9.707   9.540  71.468  1.00  0.00    -0.195 OA 
HETATM   20  C   UNL     1     -10.049   9.745  70.310  1.00  0.00    -0.266 C  
HETATM   21  O   UNL     1     -11.310   9.475  69.907  1.00  0.00    -0.217 OA 
ENDBRANCH   6  18
TORSDOF 3
ENDMDL
MODEL      209
REMARK 921   NORMALIZED FREE ENERGY PREDICTED BY IDOCK:   -4.25 KCAL/MOL
REMARK 922        TOTAL FREE ENERGY PREDICTED BY IDOCK:   -5.22 KCAL/MOL
REMARK 923 INTER-LIGAND FREE ENERGY PREDICTED BY IDOCK:   -4.82 KCAL/MOL
REMARK 924 INTRA-LIGAND FREE ENERGY PREDICTED BY IDOCK:   -0.40 KCAL/MOL
REMARK 927      BINDING AFFINITY PREDICTED BY RF-SCORE:    0.00 PKD
ROOT
HETATM    1  C   UNL     1      -6.738  10.762  66.805  1.00  0.00    -0.110 C  
HETATM    2  C   UNL     1      -7.791  11.625  67.437  1.00  0.00    -0.147 A  
HETATM    3  C   UNL     1      -8.636  11.115  68.417  1.00  0.00    -0.152 A  
HETATM    4  C   UNL     1      -9.701  11.876  68.888  1.00  0.00     0.041 A  
HETATM    5  C   UNL     1      -9.968  13.146  68.357  1.00  0.00    -0.223 A  
HETATM    6  C   UNL     1      -9.034  13.734  67.484  1.00  0.00    -0.201 A  
HETATM    7  C   UNL     1      -7.951  12.956  67.031  1.00  0.00    -0.031 A  
ENDROOT
BRANCH   5   8
HETATM    8  N   UNL     1     -11.208  13.786  68.598  1.00  0.00    -0.263 NA 
HETATM    9  H   UNL     1     -11.750  14.064  67.781  1.00  0.00     0.000 HD 
BRANCH   8  10
HETATM   10  C   UNL     1     -11.770  14.080  69.876  1.00  0.00    -0.303 A  
HETATM   11  F   UNL     1     -12.348  11.794  70.100  1.00  0.00    -0.346 F  
HETATM   12  C   UNL     1     -12.395  13.043  70.588  1.00  0.00    -0.310 A  
HETATM   13  C   UNL     1     -11.768  15.357  70.477  1.00  0.00    -0.325 A  
HETATM   14 CL   UNL     1     -10.804  16.672  69.887  1.00  0.00    -0.296 Cl 
HETATM   15  C   UNL     1     -12.500  15.603  71.647  1.00  0.00    -0.503 A  
HETATM   16  C   UNL     1     -13.087  13.274  71.777  1.00  0.00    -0.472 A  
HETATM   17  C   UNL     1     -13.174  14.565  72.286  1.00  0.00    -0.477 A  
ENDBRANCH   8  10
ENDBRANCH   5   8
BRANCH   6  18
HETATM   18  C   UNL     1      -9.172  15.157  66.985  1.00  0.00    -0.239 C  
HETATM   19  O   UNL     1      -8.366  17.399  67.222  1.00  0.00    -0.201 OA 
HETATM   20  C   UNL     1      -8.274  16.227  67.566  1.00  0.00    -0.148 C  
HETATM   21  O   UNL     1      -7.366  15.850  68.491  1.00  0.00    -0.119 OA 
ENDBRANCH   6  18
TORSDOF 3
ENDMDL
MODEL      210
REMARK 921   NORMALIZED FREE ENERGY PREDICTED BY IDOCK:   -4.25 KCAL/MOL
REMARK 922        TOTAL FREE ENERGY PREDICTED BY IDOCK:   -5.22 KCAL/MOL
REMARK 923 INTER-LIGAND FREE ENERGY PREDICTED BY IDOCK:   -4.40 KCAL/MOL
REMARK 924 INTRA-LIGAND FREE ENERGY PREDICTED BY IDOCK:   -0.82 KCAL/MOL
REMARK 927      BINDING AFFINITY PREDICTED BY RF-SCORE:    0.00 PKD
ROOT
HETATM    1  C   UNL     1      -6.669  12.913  68.980  1.00  0.00    -0.095 C  
HETATM    2  C   UNL     1      -7.752  11.962  68.560  1.00  0.00    -0.135 A  
HETATM    3  C   UNL     1      -7.899  10.728  69.185  1.00  0.00    -0.142 A  
HETATM    4  C   UNL     1      -8.805   9.797  68.691  1.00  0.00    -0.126 A  
HETATM    5  C   UNL     1      -9.552  10.063  67.534  1.00  0.00    -0.153 A  
HETATM    6  C   UNL     1      -9.529  11.360  66.987  1.00  0.00    -0.186 A  
HETATM    7  C   UNL     1      -8.618  12.298  67.511  1.00  0.00    -0.174 A  
ENDROOT
BRANCH   5   8
HETATM    8  N   UNL     1     -10.232   9.023  66.854  1.00  0.00    -0.260 NA 
HETATM    9  H   UNL     1     -11.223   9.167  66.665  1.00  0.00     0.000 HD 
BRANCH   8  10
HETATM   10  C   UNL     1      -9.662   7.794  66.410  1.00  0.00    -0.149 A  
HETATM   11  F   UNL     1      -8.180   9.027  65.034  1.00  0.00    -0.121 F  
HETATM   12  C   UNL     1      -8.652   7.837  65.435  1.00  0.00    -0.070 A  
HETATM   13  C   UNL     1     -10.057   6.518  66.864  1.00  0.00    -0.192 A  
HETATM   14 CL   UNL     1     -11.068   6.286  68.254  1.00  0.00    -0.406 Cl 
HETATM   15  C   UNL     1      -9.579   5.354  66.246  1.00  0.00    -0.175 A  
HETATM   16  C   UNL     1      -8.139   6.680  64.848  1.00  0.00    -0.115 A  
HETATM   17  C   UNL     1      -8.634   5.436  65.226  1.00  0.00    -0.151 A  
ENDBRANCH   8  10
ENDBRANCH   5   8
BRANCH   6  18
HETATM   18  C   UNL     1     -10.419  11.771  65.832  1.00  0.00    -0.296 C  
HETATM   19  O   UNL     1     -12.594  12.564  65.226  1.00  0.00    -0.645 OA 
HETATM   20  C   UNL     1     -11.822  12.252  66.125  1.00  0.00    -0.329 C  
HETATM   21  O   UNL     1     -12.208  12.316  67.417  1.00  0.00    -0.478 OA 
ENDBRANCH   6  18
TORSDOF 3
ENDMDL
MODEL      211
REMARK 921   NORMALIZED FREE ENERGY PREDICTED BY IDOCK:   -4.23 KCAL/MOL
REMARK 922        TOTAL FREE ENERGY PREDICTED BY IDOCK:   -5.20 KCAL/MOL
REMARK 923 INTER-LIGAND FREE ENERGY PREDICTED BY IDOCK:   -4.75 KCAL/MOL
REMARK 924 INTRA-LIGAND FREE ENERGY PREDICTED BY IDOCK:   -0.45 KCAL/MOL
REMARK 927      BINDING AFFINITY PREDICTED BY RF-SCORE:    0.00 PKD
ROOT
HETATM    1  C   UNL     1     -10.161  17.462  68.430  1.00  0.00    -0.347 C  
HETATM    2  C   UNL     1      -9.723  16.111  67.943  1.00  0.00    -0.225 A  
HETATM    3  C   UNL     1      -8.831  15.991  66.882  1.00  0.00    -0.258 A  
HETATM    4  C   UNL     1      -8.548  14.740  66.345  1.00  0.00     0.042 A  
HETATM    5  C   UNL     1      -9.185  13.588  66.828  1.00  0.00    -0.240 A  
HETATM    6  C   UNL     1      -9.964  13.676  67.997  1.00  0.00    -0.247 A  
HETATM    7  C   UNL     1     -10.225  14.948  68.541  1.00  0.00    -0.235 A  
ENDROOT
BRANCH   5   8
HETATM    8  N   UNL     1      -9.145  12.376  66.097  1.00  0.00    -0.419 NA 
HETATM    9  H   UNL     1      -9.537  12.392  65.156  1.00  0.00     0.000 HD 
BRANCH   8  10
HETATM   10  C   UNL     1      -8.608  11.135  66.552  1.00  0.00    -0.169 A  
HETATM   11  F   UNL     1     -10.260  10.005  65.286  1.00  0.00    -0.379 F  
HETATM   12  C   UNL     1      -9.243   9.946  66.159  1.00  0.00    -0.168 A  
HETATM   13  C   UNL     1      -7.486  11.010  67.398  1.00  0.00    -0.106 A  
HETATM   14 CL   UNL     1      -6.417  12.331  67.744  1.00  0.00    -0.092 Cl 
HETATM   15  C   UNL     1      -7.134   9.770  67.948  1.00  0.00    -0.083 A  
HETATM   16  C   UNL     1      -8.868   8.703  66.668  1.00  0.00    -0.155 A  
HETATM   17  C   UNL     1      -7.836   8.619  67.597  1.00  0.00    -0.103 A  
ENDBRANCH   8  10
ENDBRANCH   5   8
BRANCH   6  18
HETATM   18  C   UNL     1     -10.561  12.457  68.669  1.00  0.00    -0.243 C  
HETATM   19  O   UNL     1     -12.327  10.843  68.581  1.00  0.00    -0.501 OA 
HETATM   20  C   UNL     1     -11.784  11.809  68.059  1.00  0.00    -0.293 C  
HETATM   21  O   UNL     1     -12.272  12.340  66.918  1.00  0.00    -0.530 OA 
ENDBRANCH   6  18
TORSDOF 3
ENDMDL
MODEL      212
REMARK 921   NORMALIZED FREE ENERGY PREDICTED BY IDOCK:   -4.22 KCAL/MOL
REMARK 922        TOTAL FREE ENERGY PREDICTED BY IDOCK:   -5.19 KCAL/MOL
REMARK 923 INTER-LIGAND FREE ENERGY PREDICTED BY IDOCK:   -4.43 KCAL/MOL
REMARK 924 INTRA-LIGAND FREE ENERGY PREDICTED BY IDOCK:   -0.76 KCAL/MOL
REMARK 927      BINDING AFFINITY PREDICTED BY RF-SCORE:    0.00 PKD
ROOT
HETATM    1  C   UNL     1      -5.537   9.410  68.946  1.00  0.00    -0.036 C  
HETATM    2  C   UNL     1      -6.885   9.854  68.456  1.00  0.00    -0.059 A  
HETATM    3  C   UNL     1      -7.063  10.271  67.141  1.00  0.00    -0.089 A  
HETATM    4  C   UNL     1      -8.276  10.818  66.740  1.00  0.00    -0.135 A  
HETATM    5  C   UNL     1      -9.323  11.001  67.656  1.00  0.00    -0.157 A  
HETATM    6  C   UNL     1      -9.211  10.443  68.942  1.00  0.00    -0.179 A  
HETATM    7  C   UNL     1      -7.982   9.874  69.328  1.00  0.00    -0.121 A  
ENDROOT
BRANCH   5   8
HETATM    8  N   UNL     1     -10.427  11.829  67.339  1.00  0.00    -0.206 NA 
HETATM    9  H   UNL     1     -11.345  11.512  67.650  1.00  0.00     0.000 HD 
BRANCH   8  10
HETATM   10  C   UNL     1     -10.378  13.064  66.628  1.00  0.00    -0.260 A  
HETATM   11  F   UNL     1      -9.331  14.056  68.507  1.00  0.00    -0.195 F  
HETATM   12  C   UNL     1      -9.861  14.195  67.282  1.00  0.00    -0.238 A  
HETATM   13  C   UNL     1     -10.838  13.246  65.306  1.00  0.00    -0.301 A  
HETATM   14 CL   UNL     1     -11.233  11.922  64.258  1.00  0.00    -0.402 Cl 
HETATM   15  C   UNL     1     -10.924  14.527  64.744  1.00  0.00    -0.404 A  
HETATM   16  C   UNL     1      -9.903  15.466  66.709  1.00  0.00    -0.255 A  
HETATM   17  C   UNL     1     -10.474  15.639  65.453  1.00  0.00    -0.435 A  
ENDBRANCH   8  10
ENDBRANCH   5   8
BRANCH   6  18
HETATM   18  C   UNL     1     -10.351  10.464  69.939  1.00  0.00    -0.231 C  
HETATM   19  O   UNL     1     -12.102   9.170  70.935  1.00  0.00    -0.283 OA 
HETATM   20  C   UNL     1     -11.150   9.199  70.166  1.00  0.00    -0.222 C  
HETATM   21  O   UNL     1     -10.785   8.095  69.480  1.00  0.00    -0.227 OA 
ENDBRANCH   6  18
TORSDOF 3
ENDMDL
MODEL      213
REMARK 921   NORMALIZED FREE ENERGY PREDICTED BY IDOCK:   -4.21 KCAL/MOL
REMARK 922        TOTAL FREE ENERGY PREDICTED BY IDOCK:   -5.18 KCAL/MOL
REMARK 923 INTER-LIGAND FREE ENERGY PREDICTED BY IDOCK:   -4.64 KCAL/MOL
REMARK 924 INTRA-LIGAND FREE ENERGY PREDICTED BY IDOCK:   -0.54 KCAL/MOL
REMARK 927      BINDING AFFINITY PREDICTED BY RF-SCORE:    0.00 PKD
ROOT
HETATM    1  C   UNL     1      -8.150   3.421  70.099  1.00  0.00    -0.057 C  
HETATM    2  C   UNL     1      -9.097   4.407  69.480  1.00  0.00    -0.175 A  
HETATM    3  C   UNL     1      -9.676   4.159  68.240  1.00  0.00    -0.148 A  
HETATM    4  C   UNL     1     -10.431   5.142  67.611  1.00  0.00    -0.130 A  
HETATM    5  C   UNL     1     -10.588   6.410  68.189  1.00  0.00    -0.255 A  
HETATM    6  C   UNL     1     -10.144   6.620  69.507  1.00  0.00    -0.197 A  
HETATM    7  C   UNL     1      -9.396   5.608  70.138  1.00  0.00    -0.188 A  
ENDROOT
BRANCH   5   8
HETATM    8  N   UNL     1     -11.081   7.498  67.428  1.00  0.00    -0.541 NA 
HETATM    9  H   UNL     1     -12.089   7.541  67.285  1.00  0.00     0.000 HD 
BRANCH   8  10
HETATM   10  C   UNL     1     -10.301   8.539  66.845  1.00  0.00    -0.297 A  
HETATM   11  F   UNL     1     -11.461  10.106  68.189  1.00  0.00    -0.312 F  
HETATM   12  C   UNL     1     -10.565   9.867  67.219  1.00  0.00    -0.252 A  
HETATM   13  C   UNL     1      -9.284   8.337  65.887  1.00  0.00    -0.123 A  
HETATM   14 CL   UNL     1      -8.631   6.771  65.525  1.00  0.00    -0.131 Cl 
HETATM   15  C   UNL     1      -8.691   9.422  65.226  1.00  0.00    -0.204 A  
HETATM   16  C   UNL     1      -9.945  10.950  66.596  1.00  0.00    -0.250 A  
HETATM   17  C   UNL     1      -9.035  10.728  65.568  1.00  0.00    -0.210 A  
ENDBRANCH   8  10
ENDBRANCH   5   8
BRANCH   6  18
HETATM   18  C   UNL     1     -10.408   7.909  70.258  1.00  0.00    -0.212 C  
HETATM   19  O   UNL     1     -11.976   9.087  71.631  1.00  0.00    -0.309 OA 
HETATM   20  C   UNL     1     -11.697   8.054  71.034  1.00  0.00    -0.277 C  
HETATM   21  O   UNL     1     -12.548   7.005  71.041  1.00  0.00    -0.375 OA 
ENDBRANCH   6  18
TORSDOF 3
ENDMDL
MODEL      214
REMARK 921   NORMALIZED FREE ENERGY PREDICTED BY IDOCK:   -4.21 KCAL/MOL
REMARK 922        TOTAL FREE ENERGY PREDICTED BY IDOCK:   -5.17 KCAL/MOL
REMARK 923 INTER-LIGAND FREE ENERGY PREDICTED BY IDOCK:   -4.40 KCAL/MOL
REMARK 924 INTRA-LIGAND FREE ENERGY PREDICTED BY IDOCK:   -0.77 KCAL/MOL
REMARK 927      BINDING AFFINITY PREDICTED BY RF-SCORE:    0.00 PKD
ROOT
HETATM    1  C   UNL     1      -9.951  19.447  69.982  1.00  0.00     0.515 C  
HETATM    2  C   UNL     1      -9.851  18.665  68.705  1.00  0.00    -0.427 A  
HETATM    3  C   UNL     1     -10.989  18.367  67.962  1.00  0.00    -0.003 A  
HETATM    4  C   UNL     1     -10.904  17.518  66.863  1.00  0.00    -0.020 A  
HETATM    5  C   UNL     1      -9.688  16.915  66.511  1.00  0.00    -0.281 A  
HETATM    6  C   UNL     1      -8.507  17.329  67.154  1.00  0.00    -0.223 A  
HETATM    7  C   UNL     1      -8.608  18.204  68.253  1.00  0.00    -0.298 A  
ENDROOT
BRANCH   5   8
HETATM    8  N   UNL     1      -9.654  15.826  65.606  1.00  0.00    -0.349 NA 
HETATM    9  H   UNL     1      -9.057  15.928  64.786  1.00  0.00     0.000 HD 
BRANCH   8  10
HETATM   10  C   UNL     1     -10.373  14.602  65.734  1.00  0.00    -0.332 A  
HETATM   11  F   UNL     1      -8.991  14.028  67.569  1.00  0.00    -0.165 F  
HETATM   12  C   UNL     1      -9.966  13.683  66.715  1.00  0.00    -0.270 A  
HETATM   13  C   UNL     1     -11.465  14.227  64.922  1.00  0.00    -0.378 A  
HETATM   14 CL   UNL     1     -12.280  15.338  63.869  1.00  0.00    -0.081 Cl 
HETATM   15  C   UNL     1     -12.000  12.932  64.988  1.00  0.00    -0.445 A  
HETATM   16  C   UNL     1     -10.526  12.409  66.815  1.00  0.00    -0.242 A  
HETATM   17  C   UNL     1     -11.518  12.018  65.922  1.00  0.00    -0.392 A  
ENDBRANCH   8  10
ENDBRANCH   5   8
BRANCH   6  18
HETATM   18  C   UNL     1      -7.137  16.840  66.733  1.00  0.00    -0.270 C  
HETATM   19  O   UNL     1      -5.130  17.416  65.562  1.00  0.00    -0.254 OA 
HETATM   20  C   UNL     1      -6.233  17.772  65.957  1.00  0.00    -0.228 C  
HETATM   21  O   UNL     1      -6.687  19.017  65.699  1.00  0.00    -0.256 OA 
ENDBRANCH   6  18
TORSDOF 3
ENDMDL
MODEL      215
REMARK 921   NORMALIZED FREE ENERGY PREDICTED BY IDOCK:   -4.20 KCAL/MOL
REMARK 922        TOTAL FREE ENERGY PREDICTED BY IDOCK:   -5.16 KCAL/MOL
REMARK 923 INTER-LIGAND FREE ENERGY PREDICTED BY IDOCK:   -4.33 KCAL/MOL
REMARK 924 INTRA-LIGAND FREE ENERGY PREDICTED BY IDOCK:   -0.83 KCAL/MOL
REMARK 927      BINDING AFFINITY PREDICTED BY RF-SCORE:    0.00 PKD
ROOT
HETATM    1  C   UNL     1      -9.038   4.753  67.452  1.00  0.00    -0.126 C  
HETATM    2  C   UNL     1      -9.348   6.195  67.728  1.00  0.00    -0.109 A  
HETATM    3  C   UNL     1      -8.792   7.205  66.951  1.00  0.00    -0.132 A  
HETATM    4  C   UNL     1      -8.967   8.538  67.306  1.00  0.00    -0.141 A  
HETATM    5  C   UNL     1      -9.665   8.887  68.472  1.00  0.00    -0.161 A  
HETATM    6  C   UNL     1     -10.362   7.889  69.177  1.00  0.00    -0.225 A  
HETATM    7  C   UNL     1     -10.190   6.545  68.792  1.00  0.00    -0.194 A  
ENDROOT
BRANCH   5   8
HETATM    8  N   UNL     1      -9.582  10.198  69.002  1.00  0.00    -0.186 NA 
HETATM    9  H   UNL     1      -9.202  10.290  69.944  1.00  0.00     0.000 HD 
BRANCH   8  10
HETATM   10  C   UNL     1      -9.978  11.399  68.345  1.00  0.00    -0.204 A  
HETATM   11  F   UNL     1     -12.106  11.206  69.365  1.00  0.00    -0.330 F  
HETATM   12  C   UNL     1     -11.297  11.852  68.511  1.00  0.00    -0.276 A  
HETATM   13  C   UNL     1      -9.141  12.168  67.508  1.00  0.00    -0.180 A  
HETATM   14 CL   UNL     1      -7.425  11.928  67.418  1.00  0.00    -0.138 Cl 
HETATM   15  C   UNL     1      -9.657  13.231  66.754  1.00  0.00    -0.258 A  
HETATM   16  C   UNL     1     -11.804  12.937  67.797  1.00  0.00    -0.391 A  
HETATM   17  C   UNL     1     -10.992  13.604  66.885  1.00  0.00    -0.296 A  
ENDBRANCH   8  10
ENDBRANCH   5   8
BRANCH   6  18
HETATM   18  C   UNL     1     -11.260   8.203  70.355  1.00  0.00    -0.221 C  
HETATM   19  O   UNL     1     -11.391   8.296  72.744  1.00  0.00    -0.381 OA 
HETATM   20  C   UNL     1     -10.699   8.087  71.755  1.00  0.00    -0.240 C  
HETATM   21  O   UNL     1      -9.403   7.732  71.885  1.00  0.00    -0.143 OA 
ENDBRANCH   6  18
TORSDOF 3
ENDMDL
MODEL      216
REMARK 921   NORMALIZED FREE ENERGY PREDICTED BY IDOCK:   -4.19 KCAL/MOL
REMARK 922        TOTAL FREE ENERGY PREDICTED BY IDOCK:   -5.16 KCAL/MOL
REMARK 923 INTER-LIGAND FREE ENERGY PREDICTED BY IDOCK:   -4.61 KCAL/MOL
REMARK 924 INTRA-LIGAND FREE ENERGY PREDICTED BY IDOCK:   -0.55 KCAL/MOL
REMARK 927      BINDING AFFINITY PREDICTED BY RF-SCORE:    0.00 PKD
ROOT
HETATM    1  C   UNL     1      -5.180   8.043  68.688  1.00  0.00    -0.027 C  
HETATM    2  C   UNL     1      -6.664   8.229  68.825  1.00  0.00    -0.058 A  
HETATM    3  C   UNL     1      -7.204   8.832  69.956  1.00  0.00    -0.052 A  
HETATM    4  C   UNL     1      -8.582   8.864  70.140  1.00  0.00    -0.161 A  
HETATM    5  C   UNL     1      -9.446   8.255  69.219  1.00  0.00    -0.155 A  
HETATM    6  C   UNL     1      -8.925   7.783  68.000  1.00  0.00    -0.126 A  
HETATM    7  C   UNL     1      -7.528   7.775  67.821  1.00  0.00    -0.104 A  
ENDROOT
BRANCH   5   8
HETATM    8  N   UNL     1     -10.802   8.011  69.548  1.00  0.00    -0.387 NA 
HETATM    9  H   UNL     1     -11.204   7.132  69.222  1.00  0.00     0.000 HD 
BRANCH   8  10
HETATM   10  C   UNL     1     -11.658   8.877  70.290  1.00  0.00    -0.033 A  
HETATM   11  F   UNL     1     -11.145  10.619  68.770  1.00  0.00    -0.224 F  
HETATM   12  C   UNL     1     -11.762  10.220  69.892  1.00  0.00    -0.225 A  
HETATM   13  C   UNL     1     -12.401   8.488  71.425  1.00  0.00    -0.297 A  
HETATM   14 CL   UNL     1     -12.621   6.829  71.882  1.00  0.00    -0.369 Cl 
HETATM   15  C   UNL     1     -13.072   9.439  72.207  1.00  0.00    -0.509 A  
HETATM   16  C   UNL     1     -12.466  11.162  70.642  1.00  0.00    -0.448 A  
HETATM   17  C   UNL     1     -13.089  10.778  71.825  1.00  0.00    -0.573 A  
ENDBRANCH   8  10
ENDBRANCH   5   8
BRANCH   6  18
HETATM   18  C   UNL     1      -9.808   7.251  66.890  1.00  0.00    -0.279 C  
HETATM   19  O   UNL     1     -11.019   5.343  66.100  1.00  0.00    -0.178 OA 
HETATM   20  C   UNL     1     -10.330   5.835  66.986  1.00  0.00    -0.250 C  
HETATM   21  O   UNL     1     -10.002   5.117  68.081  1.00  0.00    -0.151 OA 
ENDBRANCH   6  18
TORSDOF 3
ENDMDL
MODEL      217
REMARK 921   NORMALIZED FREE ENERGY PREDICTED BY IDOCK:   -4.14 KCAL/MOL
REMARK 922        TOTAL FREE ENERGY PREDICTED BY IDOCK:   -5.10 KCAL/MOL
REMARK 923 INTER-LIGAND FREE ENERGY PREDICTED BY IDOCK:   -4.57 KCAL/MOL
REMARK 924 INTRA-LIGAND FREE ENERGY PREDICTED BY IDOCK:   -0.53 KCAL/MOL
REMARK 927      BINDING AFFINITY PREDICTED BY RF-SCORE:    0.00 PKD
ROOT
HETATM    1  C   UNL     1      -6.135  12.194  68.546  1.00  0.00    -0.051 C  
HETATM    2  C   UNL     1      -7.416  11.429  68.711  1.00  0.00    -0.124 A  
HETATM    3  C   UNL     1      -7.605  10.582  69.798  1.00  0.00    -0.102 A  
HETATM    4  C   UNL     1      -8.730   9.767  69.862  1.00  0.00    -0.238 A  
HETATM    5  C   UNL     1      -9.668   9.750  68.819  1.00  0.00    -0.161 A  
HETATM    6  C   UNL     1      -9.570  10.711  67.796  1.00  0.00    -0.172 A  
HETATM    7  C   UNL     1      -8.434  11.542  67.755  1.00  0.00    -0.137 A  
ENDROOT
BRANCH   5   8
HETATM    8  N   UNL     1     -10.632   8.717  68.727  1.00  0.00    -0.350 NA 
HETATM    9  H   UNL     1     -11.610   9.002  68.691  1.00  0.00     0.000 HD 
BRANCH   8  10
HETATM   10  C   UNL     1     -10.365   7.317  68.682  1.00  0.00    -0.193 A  
HETATM   11  F   UNL     1     -11.558   7.067  70.713  1.00  0.00    -0.300 F  
HETATM   12  C   UNL     1     -10.807   6.515  69.747  1.00  0.00    -0.295 A  
HETATM   13  C   UNL     1      -9.659   6.670  67.646  1.00  0.00    -0.124 A  
HETATM   14 CL   UNL     1      -9.297   7.437  66.133  1.00  0.00    -0.158 Cl 
HETATM   15  C   UNL     1      -9.279   5.326  67.765  1.00  0.00    -0.120 A  
HETATM   16  C   UNL     1     -10.470   5.166  69.848  1.00  0.00    -0.296 A  
HETATM   17  C   UNL     1      -9.669   4.579  68.874  1.00  0.00    -0.224 A  
ENDBRANCH   8  10
ENDBRANCH   5   8
BRANCH   6  18
HETATM   18  C   UNL     1     -10.623  10.859  66.717  1.00  0.00    -0.313 C  
HETATM   19  O   UNL     1     -12.172  12.367  65.689  1.00  0.00    -0.599 OA 
HETATM   20  C   UNL     1     -11.291  12.201  66.524  1.00  0.00    -0.350 C  
HETATM   21  O   UNL     1     -10.893  13.221  67.315  1.00  0.00    -0.260 OA 
ENDBRANCH   6  18
TORSDOF 3
ENDMDL
MODEL      218
REMARK 921   NORMALIZED FREE ENERGY PREDICTED BY IDOCK:   -4.13 KCAL/MOL
REMARK 922        TOTAL FREE ENERGY PREDICTED BY IDOCK:   -5.08 KCAL/MOL
REMARK 923 INTER-LIGAND FREE ENERGY PREDICTED BY IDOCK:   -4.55 KCAL/MOL
REMARK 924 INTRA-LIGAND FREE ENERGY PREDICTED BY IDOCK:   -0.53 KCAL/MOL
REMARK 927      BINDING AFFINITY PREDICTED BY RF-SCORE:    0.00 PKD
ROOT
HETATM    1  C   UNL     1      -8.757  13.637  68.151  1.00  0.00    -0.177 C  
HETATM    2  C   UNL     1      -9.323  12.255  68.008  1.00  0.00    -0.195 A  
HETATM    3  C   UNL     1     -10.688  12.060  67.818  1.00  0.00    -0.243 A  
HETATM    4  C   UNL     1     -11.219  10.775  67.835  1.00  0.00    -0.386 A  
HETATM    5  C   UNL     1     -10.404   9.662  68.087  1.00  0.00    -0.209 A  
HETATM    6  C   UNL     1      -9.008   9.830  68.123  1.00  0.00    -0.119 A  
HETATM    7  C   UNL     1      -8.483  11.136  68.085  1.00  0.00    -0.138 A  
ENDROOT
BRANCH   5   8
HETATM    8  N   UNL     1     -10.973   8.406  68.413  1.00  0.00    -0.428 NA 
HETATM    9  H   UNL     1     -11.475   7.920  67.671  1.00  0.00     0.000 HD 
BRANCH   8  10
HETATM   10  C   UNL     1     -10.909   7.757  69.681  1.00  0.00    -0.184 A  
HETATM   11  F   UNL     1     -10.179   5.786  68.590  1.00  0.00    -0.172 F  
HETATM   12  C   UNL     1     -10.553   6.399  69.723  1.00  0.00    -0.254 A  
HETATM   13  C   UNL     1     -11.205   8.378  70.914  1.00  0.00    -0.262 A  
HETATM   14 CL   UNL     1     -11.377  10.095  71.085  1.00  0.00    -0.391 Cl 
HETATM   15  C   UNL     1     -11.298   7.626  72.094  1.00  0.00    -0.341 A  
HETATM   16  C   UNL     1     -10.601   5.657  70.903  1.00  0.00    -0.328 A  
HETATM   17  C   UNL     1     -11.014   6.263  72.085  1.00  0.00    -0.298 A  
ENDBRANCH   8  10
ENDBRANCH   5   8
BRANCH   6  18
HETATM   18  C   UNL     1      -8.051   8.661  68.239  1.00  0.00    -0.118 C  
HETATM   19  O   UNL     1      -7.062   6.820  67.071  1.00  0.00    -0.068 OA 
HETATM   20  C   UNL     1      -7.800   7.797  67.023  1.00  0.00    -0.112 C  
HETATM   21  O   UNL     1      -8.428   8.130  65.875  1.00  0.00    -0.126 OA 
ENDBRANCH   6  18
TORSDOF 3
ENDMDL
MODEL      219
REMARK 921   NORMALIZED FREE ENERGY PREDICTED BY IDOCK:   -4.09 KCAL/MOL
REMARK 922        TOTAL FREE ENERGY PREDICTED BY IDOCK:   -5.04 KCAL/MOL
REMARK 923 INTER-LIGAND FREE ENERGY PREDICTED BY IDOCK:   -4.73 KCAL/MOL
REMARK 924 INTRA-LIGAND FREE ENERGY PREDICTED BY IDOCK:   -0.30 KCAL/MOL
REMARK 927      BINDING AFFINITY PREDICTED BY RF-SCORE:    0.00 PKD
ROOT
HETATM    1  C   UNL     1      -8.225  15.598  66.895  1.00  0.00    -0.288 C  
HETATM    2  C   UNL     1      -8.840  14.235  67.027  1.00  0.00    -0.243 A  
HETATM    3  C   UNL     1      -8.091  13.157  67.487  1.00  0.00    -0.181 A  
HETATM    4  C   UNL     1      -8.626  11.873  67.464  1.00  0.00    -0.160 A  
HETATM    5  C   UNL     1      -9.904  11.635  66.938  1.00  0.00    -0.198 A  
HETATM    6  C   UNL     1     -10.727  12.730  66.618  1.00  0.00    -0.279 A  
HETATM    7  C   UNL     1     -10.177  14.025  66.665  1.00  0.00    -0.275 A  
ENDROOT
BRANCH   5   8
HETATM    8  N   UNL     1     -10.326  10.319  66.625  1.00  0.00    -0.230 NA 
HETATM    9  H   UNL     1     -11.275  10.064  66.895  1.00  0.00     0.000 HD 
BRANCH   8  10
HETATM   10  C   UNL     1      -9.549   9.320  65.969  1.00  0.00    -0.270 A  
HETATM   11  F   UNL     1     -10.239   7.763  67.614  1.00  0.00    -0.202 F  
HETATM   12  C   UNL     1      -9.486   8.038  66.538  1.00  0.00    -0.214 A  
HETATM   13  C   UNL     1      -8.809   9.530  64.785  1.00  0.00    -0.207 A  
HETATM   14 CL   UNL     1      -8.998  10.942  63.796  1.00  0.00    -0.155 Cl 
HETATM   15  C   UNL     1      -7.927   8.552  64.305  1.00  0.00    -0.149 A  
HETATM   16  C   UNL     1      -8.642   7.046  66.039  1.00  0.00    -0.154 A  
HETATM   17  C   UNL     1      -7.830   7.317  64.943  1.00  0.00    -0.126 A  
ENDBRANCH   8  10
ENDBRANCH   5   8
BRANCH   6  18
HETATM   18  C   UNL     1     -12.171  12.564  66.189  1.00  0.00    -0.215 C  
HETATM   19  O   UNL     1     -13.625  12.172  64.328  1.00  0.00    -0.515 OA 
HETATM   20  C   UNL     1     -12.474  12.281  64.734  1.00  0.00    -0.302 C  
HETATM   21  O   UNL     1     -11.431  12.163  63.886  1.00  0.00    -0.371 OA 
ENDBRANCH   6  18
TORSDOF 3
ENDMDL
MODEL      220
REMARK 921   NORMALIZED FREE ENERGY PREDICTED BY IDOCK:   -4.09 KCAL/MOL
REMARK 922        TOTAL FREE ENERGY PREDICTED BY IDOCK:   -5.03 KCAL/MOL
REMARK 923 INTER-LIGAND FREE ENERGY PREDICTED BY IDOCK:   -4.93 KCAL/MOL
REMARK 924 INTRA-LIGAND FREE ENERGY PREDICTED BY IDOCK:   -0.11 KCAL/MOL
REMARK 927      BINDING AFFINITY PREDICTED BY RF-SCORE:    0.00 PKD
ROOT
HETATM    1  C   UNL     1      -8.839   9.866  63.605  1.00  0.00    -0.256 C  
HETATM    2  C   UNL     1      -9.161  10.939  64.605  1.00  0.00    -0.189 A  
HETATM    3  C   UNL     1     -10.058  11.956  64.294  1.00  0.00    -0.325 A  
HETATM    4  C   UNL     1     -10.236  13.022  65.168  1.00  0.00    -0.289 A  
HETATM    5  C   UNL     1      -9.487  13.117  66.351  1.00  0.00    -0.220 A  
HETATM    6  C   UNL     1      -8.698  12.023  66.750  1.00  0.00    -0.192 A  
HETATM    7  C   UNL     1      -8.543  10.942  65.862  1.00  0.00    -0.179 A  
ENDROOT
BRANCH   5   8
HETATM    8  N   UNL     1      -9.431  14.331  67.078  1.00  0.00    -0.244 NA 
HETATM    9  H   UNL     1      -8.668  14.968  66.853  1.00  0.00     0.000 HD 
BRANCH   8  10
HETATM   10  C   UNL     1     -10.340  14.746  68.095  1.00  0.00    -0.239 A  
HETATM   11  F   UNL     1      -9.366  16.903  68.027  1.00  0.00    -0.223 F  
HETATM   12  C   UNL     1     -10.237  16.055  68.594  1.00  0.00    -0.231 A  
HETATM   13  C   UNL     1     -11.335  13.923  68.665  1.00  0.00    -0.278 A  
HETATM   14 CL   UNL     1     -11.795  12.396  67.983  1.00  0.00    -0.408 Cl 
HETATM   15  C   UNL     1     -12.065  14.345  69.785  1.00  0.00    -0.386 A  
HETATM   16  C   UNL     1     -10.992  16.495  69.681  1.00  0.00    -0.287 A  
HETATM   17  C   UNL     1     -11.880  15.625  70.304  1.00  0.00    -0.386 A  
ENDBRANCH   8  10
ENDBRANCH   5   8
BRANCH   6  18
HETATM   18  C   UNL     1      -7.979  11.983  68.083  1.00  0.00    -0.152 C  
HETATM   19  O   UNL     1      -5.882  12.329  69.184  1.00  0.00    -0.066 OA 
HETATM   20  C   UNL     1      -6.519  12.376  68.140  1.00  0.00    -0.072 C  
HETATM   21  O   UNL     1      -5.930  12.773  66.991  1.00  0.00    -0.307 OA 
ENDBRANCH   6  18
TORSDOF 3
ENDMDL
MODEL      221
REMARK 921   NORMALIZED FREE ENERGY PREDICTED BY IDOCK:   -4.08 KCAL/MOL
REMARK 922        TOTAL FREE ENERGY PREDICTED BY IDOCK:   -5.02 KCAL/MOL
REMARK 923 INTER-LIGAND FREE ENERGY PREDICTED BY IDOCK:   -5.01 KCAL/MOL
REMARK 924 INTRA-LIGAND FREE ENERGY PREDICTED BY IDOCK:   -0.01 KCAL/MOL
REMARK 927      BINDING AFFINITY PREDICTED BY RF-SCORE:    0.00 PKD
ROOT
HETATM    1  C   UNL     1     -13.458  13.348  72.616  1.00  0.00    -0.536 C  
HETATM    2  C   UNL     1     -12.835  12.672  71.429  1.00  0.00    -0.358 A  
HETATM    3  C   UNL     1     -12.902  11.291  71.280  1.00  0.00    -0.491 A  
HETATM    4  C   UNL     1     -12.197  10.663  70.259  1.00  0.00    -0.417 A  
HETATM    5  C   UNL     1     -11.375  11.399  69.393  1.00  0.00    -0.297 A  
HETATM    6  C   UNL     1     -11.423  12.805  69.434  1.00  0.00    -0.321 A  
HETATM    7  C   UNL     1     -12.157  13.426  70.462  1.00  0.00    -0.399 A  
ENDROOT
BRANCH   5   8
HETATM    8  N   UNL     1     -10.426  10.749  68.566  1.00  0.00    -0.176 NA 
HETATM    9  H   UNL     1     -10.758   9.954  68.022  1.00  0.00     0.000 HD 
BRANCH   8  10
HETATM   10  C   UNL     1      -9.051  11.101  68.425  1.00  0.00    -0.168 A  
HETATM   11  F   UNL     1      -8.635  10.169  70.562  1.00  0.00    -0.115 F  
HETATM   12  C   UNL     1      -8.178  10.838  69.492  1.00  0.00     0.050 A  
HETATM   13  C   UNL     1      -8.498  11.724  67.286  1.00  0.00    -0.160 A  
HETATM   14 CL   UNL     1      -9.349  11.859  65.781  1.00  0.00    -0.206 Cl 
HETATM   15  C   UNL     1      -7.181  12.204  67.296  1.00  0.00    -0.144 A  
HETATM   16  C   UNL     1      -6.853  11.274  69.490  1.00  0.00    -0.115 A  
HETATM   17  C   UNL     1      -6.364  11.994  68.405  1.00  0.00    -0.053 A  
ENDBRANCH   8  10
ENDBRANCH   5   8
BRANCH   6  18
HETATM   18  C   UNL     1     -10.684  13.673  68.436  1.00  0.00    -0.272 C  
HETATM   19  O   UNL     1     -10.796  14.697  66.275  1.00  0.00    -0.308 OA 
HETATM   20  C   UNL     1     -11.361  14.027  67.131  1.00  0.00    -0.331 C  
HETATM   21  O   UNL     1     -12.615  13.569  66.929  1.00  0.00    -0.198 OA 
ENDBRANCH   6  18
TORSDOF 3
ENDMDL
MODEL      222
REMARK 921   NORMALIZED FREE ENERGY PREDICTED BY IDOCK:   -4.08 KCAL/MOL
REMARK 922        TOTAL FREE ENERGY PREDICTED BY IDOCK:   -5.02 KCAL/MOL
REMARK 923 INTER-LIGAND FREE ENERGY PREDICTED BY IDOCK:   -4.39 KCAL/MOL
REMARK 924 INTRA-LIGAND FREE ENERGY PREDICTED BY IDOCK:   -0.63 KCAL/MOL
REMARK 927      BINDING AFFINITY PREDICTED BY RF-SCORE:    0.00 PKD
ROOT
HETATM    1  C   UNL     1     -10.388   4.398  65.492  1.00  0.00    -0.247 C  
HETATM    2  C   UNL     1     -10.219   5.327  66.659  1.00  0.00    -0.291 A  
HETATM    3  C   UNL     1      -9.894   4.836  67.920  1.00  0.00    -0.191 A  
HETATM    4  C   UNL     1      -9.887   5.685  69.020  1.00  0.00    -0.210 A  
HETATM    5  C   UNL     1     -10.247   7.035  68.891  1.00  0.00    -0.180 A  
HETATM    6  C   UNL     1     -10.422   7.576  67.605  1.00  0.00    -0.319 A  
HETATM    7  C   UNL     1     -10.408   6.705  66.498  1.00  0.00    -0.120 A  
ENDROOT
BRANCH   5   8
HETATM    8  N   UNL     1     -10.542   7.819  70.033  1.00  0.00    -0.235 NA 
HETATM    9  H   UNL     1     -11.081   8.671  69.880  1.00  0.00     0.000 HD 
BRANCH   8  10
HETATM   10  C   UNL     1     -10.157   7.531  71.375  1.00  0.00    -0.186 A  
HETATM   11  F   UNL     1     -12.069   6.148  71.582  1.00  0.00    -0.357 F  
HETATM   12  C   UNL     1     -10.996   6.716  72.154  1.00  0.00    -0.245 A  
HETATM   13  C   UNL     1      -8.993   8.029  71.999  1.00  0.00    -0.156 A  
HETATM   14 CL   UNL     1      -7.712   8.799  71.120  1.00  0.00    -0.129 Cl 
HETATM   15  C   UNL     1      -8.781   7.851  73.373  1.00  0.00    -0.309 A  
HETATM   16  C   UNL     1     -10.765   6.499  73.512  1.00  0.00    -0.286 A  
HETATM   17  C   UNL     1      -9.676   7.101  74.133  1.00  0.00    -0.264 A  
ENDBRANCH   8  10
ENDBRANCH   5   8
BRANCH   6  18
HETATM   18  C   UNL     1     -10.664   9.053  67.370  1.00  0.00    -0.231 C  
HETATM   19  O   UNL     1      -9.671  11.230  67.430  1.00  0.00    -0.172 OA 
HETATM   20  C   UNL     1      -9.522  10.023  67.573  1.00  0.00    -0.148 C  
HETATM   21  O   UNL     1      -8.323   9.516  67.932  1.00  0.00    -0.114 OA 
ENDBRANCH   6  18
TORSDOF 3
ENDMDL
MODEL      223
REMARK 921   NORMALIZED FREE ENERGY PREDICTED BY IDOCK:   -4.07 KCAL/MOL
REMARK 922        TOTAL FREE ENERGY PREDICTED BY IDOCK:   -5.02 KCAL/MOL
REMARK 923 INTER-LIGAND FREE ENERGY PREDICTED BY IDOCK:   -4.53 KCAL/MOL
REMARK 924 INTRA-LIGAND FREE ENERGY PREDICTED BY IDOCK:   -0.48 KCAL/MOL
REMARK 927      BINDING AFFINITY PREDICTED BY RF-SCORE:    0.00 PKD
ROOT
HETATM    1  C   UNL     1      -6.806   7.101  65.642  1.00  0.00    -0.052 C  
HETATM    2  C   UNL     1      -7.698   7.626  66.729  1.00  0.00    -0.102 A  
HETATM    3  C   UNL     1      -7.429   7.352  68.066  1.00  0.00    -0.105 A  
HETATM    4  C   UNL     1      -8.340   7.715  69.052  1.00  0.00    -0.128 A  
HETATM    5  C   UNL     1      -9.560   8.321  68.716  1.00  0.00    -0.150 A  
HETATM    6  C   UNL     1      -9.773   8.743  67.391  1.00  0.00    -0.225 A  
HETATM    7  C   UNL     1      -8.831   8.384  66.408  1.00  0.00    -0.181 A  
ENDROOT
BRANCH   5   8
HETATM    8  N   UNL     1     -10.611   8.407  69.662  1.00  0.00    -0.225 NA 
HETATM    9  H   UNL     1     -11.324   9.116  69.495  1.00  0.00     0.000 HD 
BRANCH   8  10
HETATM   10  C   UNL     1     -10.766   7.597  70.825  1.00  0.00    -0.226 A  
HETATM   11  F   UNL     1     -11.139   9.562  72.093  1.00  0.00    -0.366 F  
HETATM   12  C   UNL     1     -10.979   8.230  72.060  1.00  0.00    -0.306 A  
HETATM   13  C   UNL     1     -10.697   6.188  70.834  1.00  0.00    -0.258 A  
HETATM   14 CL   UNL     1     -10.730   5.235  69.385  1.00  0.00    -0.234 Cl 
HETATM   15  C   UNL     1     -10.675   5.476  72.042  1.00  0.00    -0.293 A  
HETATM   16  C   UNL     1     -11.003   7.522  73.262  1.00  0.00    -0.362 A  
HETATM   17  C   UNL     1     -10.810   6.145  73.256  1.00  0.00    -0.268 A  
ENDBRANCH   8  10
ENDBRANCH   5   8
BRANCH   6  18
HETATM   18  C   UNL     1     -10.995   9.537  66.978  1.00  0.00     0.014 C  
HETATM   19  O   UNL     1     -12.008  11.706  66.970  1.00  0.00    -0.593 OA 
HETATM   20  C   UNL     1     -11.031  11.023  67.253  1.00  0.00    -0.297 C  
HETATM   21  O   UNL     1      -9.949  11.580  67.837  1.00  0.00    -0.176 OA 
ENDBRANCH   6  18
TORSDOF 3
ENDMDL
MODEL      224
REMARK 921   NORMALIZED FREE ENERGY PREDICTED BY IDOCK:   -4.07 KCAL/MOL
REMARK 922        TOTAL FREE ENERGY PREDICTED BY IDOCK:   -5.01 KCAL/MOL
REMARK 923 INTER-LIGAND FREE ENERGY PREDICTED BY IDOCK:   -6.02 KCAL/MOL
REMARK 924 INTRA-LIGAND FREE ENERGY PREDICTED BY IDOCK:    1.01 KCAL/MOL
REMARK 927      BINDING AFFINITY PREDICTED BY RF-SCORE:    0.00 PKD
ROOT
HETATM    1  C   UNL     1     -11.619  16.138  71.077  1.00  0.00    -0.434 C  
HETATM    2  C   UNL     1     -10.984  15.593  69.830  1.00  0.00    -0.323 A  
HETATM    3  C   UNL     1      -9.916  16.249  69.229  1.00  0.00    -0.259 A  
HETATM    4  C   UNL     1      -9.434  15.819  67.998  1.00  0.00    -0.202 A  
HETATM    5  C   UNL     1     -10.040  14.750  67.321  1.00  0.00    -0.236 A  
HETATM    6  C   UNL     1     -11.013  13.983  67.986  1.00  0.00    -0.266 A  
HETATM    7  C   UNL     1     -11.477  14.421  69.242  1.00  0.00    -0.323 A  
ENDROOT
BRANCH   5   8
HETATM    8  N   UNL     1      -9.765  14.509  65.952  1.00  0.00    -0.418 NA 
HETATM    9  H   UNL     1      -9.206  15.208  65.465  1.00  0.00     0.000 HD 
BRANCH   8  10
HETATM   10  C   UNL     1     -10.198  13.383  65.192  1.00  0.00    -0.299 A  
HETATM   11  F   UNL     1      -8.473  12.101  66.187  1.00  0.00    -0.093 F  
HETATM   12  C   UNL     1      -9.474  12.184  65.298  1.00  0.00     0.027 A  
HETATM   13  C   UNL     1     -11.299  13.388  64.310  1.00  0.00    -0.389 A  
HETATM   14 CL   UNL     1     -12.466  14.670  64.270  1.00  0.00    -0.412 Cl 
HETATM   15  C   UNL     1     -11.547  12.299  63.462  1.00  0.00    -0.570 A  
HETATM   16  C   UNL     1      -9.745  11.081  64.489  1.00  0.00    -0.323 A  
HETATM   17  C   UNL     1     -10.759  11.153  63.539  1.00  0.00    -0.340 A  
ENDBRANCH   8  10
ENDBRANCH   5   8
BRANCH   6  18
HETATM   18  C   UNL     1     -11.607  12.725  67.386  1.00  0.00    -0.415 C  
HETATM   19  O   UNL     1     -11.602  10.332  67.459  1.00  0.00    -0.255 OA 
HETATM   20  C   UNL     1     -11.179  11.381  67.930  1.00  0.00    -0.288 C  
HETATM   21  O   UNL     1     -10.298  11.369  68.953  1.00  0.00    -0.206 OA 
ENDBRANCH   6  18
TORSDOF 3
ENDMDL
MODEL      225
REMARK 921   NORMALIZED FREE ENERGY PREDICTED BY IDOCK:   -4.07 KCAL/MOL
REMARK 922        TOTAL FREE ENERGY PREDICTED BY IDOCK:   -5.01 KCAL/MOL
REMARK 923 INTER-LIGAND FREE ENERGY PREDICTED BY IDOCK:   -4.52 KCAL/MOL
REMARK 924 INTRA-LIGAND FREE ENERGY PREDICTED BY IDOCK:   -0.49 KCAL/MOL
REMARK 927      BINDING AFFINITY PREDICTED BY RF-SCORE:    0.00 PKD
ROOT
HETATM    1  C   UNL     1     -11.354  13.878  68.972  1.00  0.00    -0.324 C  
HETATM    2  C   UNL     1     -11.155  12.392  68.885  1.00  0.00    -0.307 A  
HETATM    3  C   UNL     1     -12.155  11.515  69.291  1.00  0.00    -0.344 A  
HETATM    4  C   UNL     1     -11.905  10.148  69.345  1.00  0.00    -0.028 A  
HETATM    5  C   UNL     1     -10.637   9.634  69.038  1.00  0.00    -0.218 A  
HETATM    6  C   UNL     1      -9.670  10.489  68.478  1.00  0.00    -0.170 A  
HETATM    7  C   UNL     1      -9.945  11.869  68.411  1.00  0.00    -0.203 A  
ENDROOT
BRANCH   5   8
HETATM    8  N   UNL     1     -10.288   8.307  69.387  1.00  0.00    -0.219 NA 
HETATM    9  H   UNL     1      -9.916   7.717  68.642  1.00  0.00     0.000 HD 
BRANCH   8  10
HETATM   10  C   UNL     1     -10.407   7.716  70.679  1.00  0.00    -0.205 A  
HETATM   11  F   UNL     1     -12.248   6.455  69.888  1.00  0.00    -0.410 F  
HETATM   12  C   UNL     1     -11.459   6.816  70.911  1.00  0.00    -0.334 A  
HETATM   13  C   UNL     1      -9.549   7.990  71.766  1.00  0.00    -0.176 A  
HETATM   14 CL   UNL     1      -8.047   8.839  71.589  1.00  0.00    -0.179 Cl 
HETATM   15  C   UNL     1      -9.842   7.513  73.052  1.00  0.00    -0.292 A  
HETATM   16  C   UNL     1     -11.728   6.301  72.179  1.00  0.00    -0.368 A  
HETATM   17  C   UNL     1     -10.941   6.683  73.261  1.00  0.00    -0.237 A  
ENDBRANCH   8  10
ENDBRANCH   5   8
BRANCH   6  18
HETATM   18  C   UNL     1      -8.331   9.986  67.979  1.00  0.00    -0.117 C  
HETATM   19  O   UNL     1      -6.851   9.898  66.099  1.00  0.00    -0.089 OA 
HETATM   20  C   UNL     1      -7.908  10.309  66.564  1.00  0.00    -0.116 C  
HETATM   21  O   UNL     1      -8.743  11.061  65.815  1.00  0.00    -0.186 OA 
ENDBRANCH   6  18
TORSDOF 3
ENDMDL
MODEL      226
REMARK 921   NORMALIZED FREE ENERGY PREDICTED BY IDOCK:   -4.03 KCAL/MOL
REMARK 922        TOTAL FREE ENERGY PREDICTED BY IDOCK:   -4.96 KCAL/MOL
REMARK 923 INTER-LIGAND FREE ENERGY PREDICTED BY IDOCK:   -4.14 KCAL/MOL
REMARK 924 INTRA-LIGAND FREE ENERGY PREDICTED BY IDOCK:   -0.82 KCAL/MOL
REMARK 927      BINDING AFFINITY PREDICTED BY RF-SCORE:    0.00 PKD
ROOT
HETATM    1  C   UNL     1      -5.342  10.956  68.777  1.00  0.00    -0.040 C  
HETATM    2  C   UNL     1      -6.536  10.117  69.130  1.00  0.00    -0.049 A  
HETATM    3  C   UNL     1      -6.398   8.758  69.395  1.00  0.00    -0.041 A  
HETATM    4  C   UNL     1      -7.525   7.963  69.573  1.00  0.00    -0.093 A  
HETATM    5  C   UNL     1      -8.814   8.501  69.446  1.00  0.00    -0.141 A  
HETATM    6  C   UNL     1      -8.965   9.895  69.336  1.00  0.00    -0.204 A  
HETATM    7  C   UNL     1      -7.813  10.690  69.175  1.00  0.00    -0.142 A  
ENDROOT
BRANCH   5   8
HETATM    8  N   UNL     1      -9.943   7.656  69.316  1.00  0.00    -0.176 NA 
HETATM    9  H   UNL     1     -10.403   7.639  68.406  1.00  0.00     0.000 HD 
BRANCH   8  10
HETATM   10  C   UNL     1     -10.498   6.828  70.336  1.00  0.00    -0.206 A  
HETATM   11  F   UNL     1     -12.099   8.516  70.777  1.00  0.00    -0.285 F  
HETATM   12  C   UNL     1     -11.565   7.328  71.099  1.00  0.00    -0.293 A  
HETATM   13  C   UNL     1     -10.034   5.535  70.657  1.00  0.00    -0.207 A  
HETATM   14 CL   UNL     1      -8.935   4.652  69.647  1.00  0.00    -0.129 Cl 
HETATM   15  C   UNL     1     -10.509   4.860  71.790  1.00  0.00    -0.214 A  
HETATM   16  C   UNL     1     -12.073   6.641  72.202  1.00  0.00    -0.299 A  
HETATM   17  C   UNL     1     -11.516   5.422  72.573  1.00  0.00    -0.259 A  
ENDBRANCH   8  10
ENDBRANCH   5   8
BRANCH   6  18
HETATM   18  C   UNL     1     -10.322  10.569  69.345  1.00  0.00    -0.258 C  
HETATM   19  O   UNL     1     -12.254  11.095  68.033  1.00  0.00    -0.584 OA 
HETATM   20  C   UNL     1     -11.164  10.537  68.090  1.00  0.00    -0.293 C  
HETATM   21  O   UNL     1     -10.672   9.879  67.019  1.00  0.00    -0.231 OA 
ENDBRANCH   6  18
TORSDOF 3
ENDMDL
MODEL      227
REMARK 921   NORMALIZED FREE ENERGY PREDICTED BY IDOCK:   -4.03 KCAL/MOL
REMARK 922        TOTAL FREE ENERGY PREDICTED BY IDOCK:   -4.96 KCAL/MOL
REMARK 923 INTER-LIGAND FREE ENERGY PREDICTED BY IDOCK:   -4.48 KCAL/MOL
REMARK 924 INTRA-LIGAND FREE ENERGY PREDICTED BY IDOCK:   -0.48 KCAL/MOL
REMARK 927      BINDING AFFINITY PREDICTED BY RF-SCORE:    0.00 PKD
ROOT
HETATM    1  C   UNL     1      -6.970   5.301  65.953  1.00  0.00    -0.066 C  
HETATM    2  C   UNL     1      -8.211   5.313  66.798  1.00  0.00    -0.108 A  
HETATM    3  C   UNL     1      -9.459   5.546  66.228  1.00  0.00    -0.171 A  
HETATM    4  C   UNL     1     -10.579   5.702  67.037  1.00  0.00    -0.358 A  
HETATM    5  C   UNL     1     -10.467   5.673  68.435  1.00  0.00    -0.195 A  
HETATM    6  C   UNL     1      -9.246   5.283  69.016  1.00  0.00    -0.152 A  
HETATM    7  C   UNL     1      -8.125   5.110  68.181  1.00  0.00    -0.094 A  
ENDROOT
BRANCH   5   8
HETATM    8  N   UNL     1     -11.524   6.135  69.257  1.00  0.00    -0.449 NA 
HETATM    9  H   UNL     1     -12.369   5.565  69.284  1.00  0.00     0.000 HD 
BRANCH   8  10
HETATM   10  C   UNL     1     -11.518   7.321  70.049  1.00  0.00    -0.110 A  
HETATM   11  F   UNL     1     -12.444   6.079  71.840  1.00  0.00    -0.330 F  
HETATM   12  C   UNL     1     -12.050   7.263  71.347  1.00  0.00    -0.335 A  
HETATM   13  C   UNL     1     -11.034   8.572  69.612  1.00  0.00    -0.086 A  
HETATM   14 CL   UNL     1     -10.090   8.765  68.170  1.00  0.00    -0.214 Cl 
HETATM   15  C   UNL     1     -11.231   9.728  70.381  1.00  0.00    -0.362 A  
HETATM   16  C   UNL     1     -12.208   8.404  72.134  1.00  0.00    -0.434 A  
HETATM   17  C   UNL     1     -11.835   9.646  71.633  1.00  0.00    -0.457 A  
ENDBRANCH   8  10
ENDBRANCH   5   8
BRANCH   6  18
HETATM   18  C   UNL     1      -9.084   5.080  70.508  1.00  0.00    -0.180 C  
HETATM   19  O   UNL     1      -9.218   3.489  72.291  1.00  0.00    -0.102 OA 
HETATM   20  C   UNL     1      -9.303   3.701  71.088  1.00  0.00    -0.148 C  
HETATM   21  O   UNL     1      -9.609   2.701  70.233  1.00  0.00    -0.130 OA 
ENDBRANCH   6  18
TORSDOF 3
ENDMDL
MODEL      228
REMARK 921   NORMALIZED FREE ENERGY PREDICTED BY IDOCK:   -4.03 KCAL/MOL
REMARK 922        TOTAL FREE ENERGY PREDICTED BY IDOCK:   -4.96 KCAL/MOL
REMARK 923 INTER-LIGAND FREE ENERGY PREDICTED BY IDOCK:   -4.18 KCAL/MOL
REMARK 924 INTRA-LIGAND FREE ENERGY PREDICTED BY IDOCK:   -0.78 KCAL/MOL
REMARK 927      BINDING AFFINITY PREDICTED BY RF-SCORE:    0.00 PKD
ROOT
HETATM    1  C   UNL     1      -9.892   4.419  69.141  1.00  0.00    -0.198 C  
HETATM    2  C   UNL     1     -10.135   5.880  69.386  1.00  0.00    -0.260 A  
HETATM    3  C   UNL     1     -10.547   6.716  68.353  1.00  0.00    -0.289 A  
HETATM    4  C   UNL     1     -10.625   8.090  68.554  1.00  0.00    -0.144 A  
HETATM    5  C   UNL     1     -10.250   8.661  69.779  1.00  0.00    -0.206 A  
HETATM    6  C   UNL     1      -9.984   7.818  70.874  1.00  0.00    -0.190 A  
HETATM    7  C   UNL     1      -9.927   6.428  70.658  1.00  0.00    -0.213 A  
ENDROOT
BRANCH   5   8
HETATM    8  N   UNL     1     -10.029  10.055  69.892  1.00  0.00    -0.286 NA 
HETATM    9  H   UNL     1     -10.341  10.503  70.753  1.00  0.00     0.000 HD 
BRANCH   8  10
HETATM   10  C   UNL     1      -9.412  10.892  68.916  1.00  0.00    -0.172 A  
HETATM   11  F   UNL     1      -7.318   9.948  69.491  1.00  0.00    -0.064 F  
HETATM   12  C   UNL     1      -8.015  10.848  68.781  1.00  0.00    -0.139 A  
HETATM   13  C   UNL     1     -10.106  11.791  68.079  1.00  0.00    -0.192 A  
HETATM   14 CL   UNL     1     -11.831  11.771  67.902  1.00  0.00    -0.345 Cl 
HETATM   15  C   UNL     1      -9.413  12.709  67.277  1.00  0.00    -0.199 A  
HETATM   16  C   UNL     1      -7.323  11.729  67.951  1.00  0.00    -0.098 A  
HETATM   17  C   UNL     1      -8.021  12.690  67.227  1.00  0.00    -0.166 A  
ENDBRANCH   8  10
ENDBRANCH   5   8
BRANCH   6  18
HETATM   18  C   UNL     1      -9.719   8.353  72.266  1.00  0.00    -0.386 C  
HETATM   19  O   UNL     1      -8.046   8.697  73.944  1.00  0.00    -0.398 OA 
HETATM   20  C   UNL     1      -8.309   8.309  72.812  1.00  0.00    -0.171 C  
HETATM   21  O   UNL     1      -7.341   7.814  72.012  1.00  0.00    -0.067 OA 
ENDBRANCH   6  18
TORSDOF 3
ENDMDL
MODEL      229
REMARK 921   NORMALIZED FREE ENERGY PREDICTED BY IDOCK:   -4.02 KCAL/MOL
REMARK 922        TOTAL FREE ENERGY PREDICTED BY IDOCK:   -4.95 KCAL/MOL
REMARK 923 INTER-LIGAND FREE ENERGY PREDICTED BY IDOCK:   -4.28 KCAL/MOL
REMARK 924 INTRA-LIGAND FREE ENERGY PREDICTED BY IDOCK:   -0.67 KCAL/MOL
REMARK 927      BINDING AFFINITY PREDICTED BY RF-SCORE:    0.00 PKD
ROOT
HETATM    1  C   UNL     1      -7.524  11.462  67.770  1.00  0.00    -0.100 C  
HETATM    2  C   UNL     1      -7.872  12.918  67.888  1.00  0.00    -0.151 A  
HETATM    3  C   UNL     1      -7.053  13.893  67.329  1.00  0.00     0.061 A  
HETATM    4  C   UNL     1      -7.303  15.239  67.571  1.00  0.00    -0.223 A  
HETATM    5  C   UNL     1      -8.352  15.636  68.413  1.00  0.00    -0.162 A  
HETATM    6  C   UNL     1      -9.278  14.673  68.855  1.00  0.00    -0.151 A  
HETATM    7  C   UNL     1      -9.020  13.315  68.585  1.00  0.00     0.032 A  
ENDROOT
BRANCH   5   8
HETATM    8  N   UNL     1      -8.422  16.961  68.910  1.00  0.00    -0.235 NA 
HETATM    9  H   UNL     1      -8.668  17.073  69.893  1.00  0.00     0.000 HD 
BRANCH   8  10
HETATM   10  C   UNL     1      -8.180  18.153  68.165  1.00  0.00    -0.276 A  
HETATM   11  F   UNL     1      -6.411  18.673  69.651  1.00  0.00    -0.263 F  
HETATM   12  C   UNL     1      -7.179  19.031  68.611  1.00  0.00    -0.316 A  
HETATM   13  C   UNL     1      -8.898  18.536  67.012  1.00  0.00    -0.278 A  
HETATM   14 CL   UNL     1      -9.955  17.456  66.161  1.00  0.00    -0.300 Cl 
HETATM   15  C   UNL     1      -8.725  19.807  66.445  1.00  0.00    -0.412 A  
HETATM   16  C   UNL     1      -6.972  20.279  68.023  1.00  0.00    -0.327 A  
HETATM   17  C   UNL     1      -7.776  20.685  66.963  1.00  0.00    -0.319 A  
ENDBRANCH   8  10
ENDBRANCH   5   8
BRANCH   6  18
HETATM   18  C   UNL     1     -10.520  15.040  69.641  1.00  0.00    -0.226 C  
HETATM   19  O   UNL     1     -12.888  15.369  69.514  1.00  0.00     0.039 OA 
HETATM   20  C   UNL     1     -11.857  15.048  68.935  1.00  0.00    -0.307 C  
HETATM   21  O   UNL     1     -11.881  14.698  67.631  1.00  0.00    -0.367 OA 
ENDBRANCH   6  18
TORSDOF 3
ENDMDL
MODEL      230
REMARK 921   NORMALIZED FREE ENERGY PREDICTED BY IDOCK:   -4.01 KCAL/MOL
REMARK 922        TOTAL FREE ENERGY PREDICTED BY IDOCK:   -4.94 KCAL/MOL
REMARK 923 INTER-LIGAND FREE ENERGY PREDICTED BY IDOCK:   -4.25 KCAL/MOL
REMARK 924 INTRA-LIGAND FREE ENERGY PREDICTED BY IDOCK:   -0.70 KCAL/MOL
REMARK 927      BINDING AFFINITY PREDICTED BY RF-SCORE:    0.00 PKD
ROOT
HETATM    1  C   UNL     1      -8.470   4.098  71.666  1.00  0.00    -0.105 C  
HETATM    2  C   UNL     1      -9.217   5.007  70.733  1.00  0.00    -0.192 A  
HETATM    3  C   UNL     1      -8.608   5.506  69.586  1.00  0.00    -0.108 A  
HETATM    4  C   UNL     1      -9.256   6.462  68.811  1.00  0.00    -0.127 A  
HETATM    5  C   UNL     1     -10.506   6.971  69.191  1.00  0.00    -0.207 A  
HETATM    6  C   UNL     1     -11.197   6.364  70.255  1.00  0.00    -0.445 A  
HETATM    7  C   UNL     1     -10.535   5.384  71.019  1.00  0.00    -0.302 A  
ENDROOT
BRANCH   5   8
HETATM    8  N   UNL     1     -11.022   8.147  68.594  1.00  0.00    -0.415 NA 
HETATM    9  H   UNL     1     -12.013   8.147  68.356  1.00  0.00     0.000 HD 
BRANCH   8  10
HETATM   10  C   UNL     1     -10.287   9.332  68.294  1.00  0.00    -0.217 A  
HETATM   11  F   UNL     1      -9.940   8.512  66.100  1.00  0.00    -0.327 F  
HETATM   12  C   UNL     1      -9.701   9.455  67.024  1.00  0.00    -0.178 A  
HETATM   13  C   UNL     1     -10.080  10.396  69.198  1.00  0.00    -0.222 A  
HETATM   14 CL   UNL     1     -10.956  10.549  70.687  1.00  0.00    -0.210 Cl 
HETATM   15  C   UNL     1      -9.194  11.439  68.892  1.00  0.00    -0.035 A  
HETATM   16  C   UNL     1      -8.854  10.514  66.698  1.00  0.00    -0.145 A  
HETATM   17  C   UNL     1      -8.567  11.487  67.649  1.00  0.00    -0.135 A  
ENDBRANCH   8  10
ENDBRANCH   5   8
BRANCH   6  18
HETATM   18  C   UNL     1     -12.612   6.753  70.632  1.00  0.00    -0.041 C  
HETATM   19  O   UNL     1     -13.965   7.875  72.258  1.00  0.00    -0.189 OA 
HETATM   20  C   UNL     1     -12.839   7.563  71.889  1.00  0.00    -0.277 C  
HETATM   21  O   UNL     1     -11.754   7.927  72.606  1.00  0.00    -0.370 OA 
ENDBRANCH   6  18
TORSDOF 3
ENDMDL
MODEL      231
REMARK 921   NORMALIZED FREE ENERGY PREDICTED BY IDOCK:   -4.00 KCAL/MOL
REMARK 922        TOTAL FREE ENERGY PREDICTED BY IDOCK:   -4.93 KCAL/MOL
REMARK 923 INTER-LIGAND FREE ENERGY PREDICTED BY IDOCK:   -4.60 KCAL/MOL
REMARK 924 INTRA-LIGAND FREE ENERGY PREDICTED BY IDOCK:   -0.32 KCAL/MOL
REMARK 927      BINDING AFFINITY PREDICTED BY RF-SCORE:    0.00 PKD
ROOT
HETATM    1  C   UNL     1     -10.876  16.777  68.338  1.00  0.00    -0.355 C  
HETATM    2  C   UNL     1     -10.335  15.394  68.115  1.00  0.00    -0.239 A  
HETATM    3  C   UNL     1      -9.090  15.203  67.527  1.00  0.00    -0.187 A  
HETATM    4  C   UNL     1      -8.665  13.922  67.190  1.00  0.00    -0.233 A  
HETATM    5  C   UNL     1      -9.496  12.811  67.395  1.00  0.00    -0.190 A  
HETATM    6  C   UNL     1     -10.685  12.971  68.129  1.00  0.00    -0.258 A  
HETATM    7  C   UNL     1     -11.093  14.273  68.479  1.00  0.00    -0.276 A  
ENDROOT
BRANCH   5   8
HETATM    8  N   UNL     1      -9.209  11.567  66.780  1.00  0.00    -0.176 NA 
HETATM    9  H   UNL     1      -8.946  10.799  67.396  1.00  0.00     0.000 HD 
BRANCH   8  10
HETATM   10  C   UNL     1      -9.252  11.289  65.383  1.00  0.00    -0.183 A  
HETATM   11  F   UNL     1      -7.517   9.707  65.687  1.00  0.00    -0.092 F  
HETATM   12  C   UNL     1      -8.331  10.371  64.852  1.00  0.00    -0.165 A  
HETATM   13  C   UNL     1     -10.148  11.892  64.474  1.00  0.00    -0.271 A  
HETATM   14 CL   UNL     1     -11.525  12.815  64.983  1.00  0.00    -0.345 Cl 
HETATM   15  C   UNL     1     -10.006  11.704  63.091  1.00  0.00    -0.400 A  
HETATM   16  C   UNL     1      -8.215  10.146  63.481  1.00  0.00    -0.165 A  
HETATM   17  C   UNL     1      -9.028  10.846  62.595  1.00  0.00    -0.348 A  
ENDBRANCH   8  10
ENDBRANCH   5   8
BRANCH   6  18
HETATM   18  C   UNL     1     -11.562  11.801  68.524  1.00  0.00    -0.380 C  
HETATM   19  O   UNL     1     -11.619   9.697  69.664  1.00  0.00    -0.088 OA 
HETATM   20  C   UNL     1     -10.964  10.682  69.347  1.00  0.00    -0.255 C  
HETATM   21  O   UNL     1      -9.670  10.797  69.717  1.00  0.00     0.004 OA 
ENDBRANCH   6  18
TORSDOF 3
ENDMDL
MODEL      232
REMARK 921   NORMALIZED FREE ENERGY PREDICTED BY IDOCK:   -3.99 KCAL/MOL
REMARK 922        TOTAL FREE ENERGY PREDICTED BY IDOCK:   -4.91 KCAL/MOL
REMARK 923 INTER-LIGAND FREE ENERGY PREDICTED BY IDOCK:   -4.23 KCAL/MOL
REMARK 924 INTRA-LIGAND FREE ENERGY PREDICTED BY IDOCK:   -0.68 KCAL/MOL
REMARK 927      BINDING AFFINITY PREDICTED BY RF-SCORE:    0.00 PKD
ROOT
HETATM    1  C   UNL     1     -12.407  15.498  69.999  1.00  0.00    -0.345 C  
HETATM    2  C   UNL     1     -11.729  14.561  69.041  1.00  0.00    -0.346 A  
HETATM    3  C   UNL     1     -10.953  13.504  69.507  1.00  0.00    -0.028 A  
HETATM    4  C   UNL     1     -10.212  12.736  68.616  1.00  0.00    -0.162 A  
HETATM    5  C   UNL     1     -10.196  13.036  67.246  1.00  0.00    -0.239 A  
HETATM    6  C   UNL     1     -11.093  13.997  66.746  1.00  0.00    -0.311 A  
HETATM    7  C   UNL     1     -11.852  14.754  67.659  1.00  0.00    -0.319 A  
ENDROOT
BRANCH   5   8
HETATM    8  N   UNL     1      -9.219  12.470  66.391  1.00  0.00    -0.347 NA 
HETATM    9  H   UNL     1      -9.422  12.476  65.392  1.00  0.00     0.000 HD 
BRANCH   8  10
HETATM   10  C   UNL     1      -7.979  11.893  66.795  1.00  0.00    -0.087 A  
HETATM   11  F   UNL     1      -8.876   9.749  66.342  1.00  0.00    -0.140 F  
HETATM   12  C   UNL     1      -7.863  10.494  66.809  1.00  0.00    -0.121 A  
HETATM   13  C   UNL     1      -6.850  12.632  67.210  1.00  0.00    -0.098 A  
HETATM   14 CL   UNL     1      -6.712  14.346  66.984  1.00  0.00     0.506 Cl 
HETATM   15  C   UNL     1      -5.734  11.990  67.766  1.00  0.00    -0.070 A  
HETATM   16  C   UNL     1      -6.736   9.849  67.320  1.00  0.00    -0.074 A  
HETATM   17  C   UNL     1      -5.685  10.599  67.837  1.00  0.00    -0.043 A  
ENDBRANCH   8  10
ENDBRANCH   5   8
BRANCH   6  18
HETATM   18  C   UNL     1     -11.246  14.273  65.264  1.00  0.00    -0.337 C  
HETATM   19  O   UNL     1     -12.619  13.907  63.338  1.00  0.00    -0.853 OA 
HETATM   20  C   UNL     1     -12.463  13.742  64.542  1.00  0.00    -0.285 C  
HETATM   21  O   UNL     1     -13.378  13.063  65.267  1.00  0.00    -0.534 OA 
ENDBRANCH   6  18
TORSDOF 3
ENDMDL
MODEL      233
REMARK 921   NORMALIZED FREE ENERGY PREDICTED BY IDOCK:   -3.98 KCAL/MOL
REMARK 922        TOTAL FREE ENERGY PREDICTED BY IDOCK:   -4.90 KCAL/MOL
REMARK 923 INTER-LIGAND FREE ENERGY PREDICTED BY IDOCK:   -4.05 KCAL/MOL
REMARK 924 INTRA-LIGAND FREE ENERGY PREDICTED BY IDOCK:   -0.86 KCAL/MOL
REMARK 927      BINDING AFFINITY PREDICTED BY RF-SCORE:    0.00 PKD
ROOT
HETATM    1  C   UNL     1      -6.821  10.912  69.384  1.00  0.00    -0.114 C  
HETATM    2  C   UNL     1      -7.600   9.635  69.510  1.00  0.00    -0.104 A  
HETATM    3  C   UNL     1      -7.063   8.427  69.076  1.00  0.00    -0.069 A  
HETATM    4  C   UNL     1      -7.847   7.279  69.060  1.00  0.00    -0.118 A  
HETATM    5  C   UNL     1      -9.198   7.324  69.435  1.00  0.00    -0.148 A  
HETATM    6  C   UNL     1      -9.706   8.497  70.021  1.00  0.00    -0.172 A  
HETATM    7  C   UNL     1      -8.893   9.647  70.048  1.00  0.00    -0.259 A  
ENDROOT
BRANCH   5   8
HETATM    8  N   UNL     1     -10.071   6.252  69.129  1.00  0.00    -0.159 NA 
HETATM    9  H   UNL     1     -10.938   6.488  68.647  1.00  0.00     0.000 HD 
BRANCH   8  10
HETATM   10  C   UNL     1      -9.854   4.876  69.431  1.00  0.00    -0.211 A  
HETATM   11  F   UNL     1     -10.374   5.334  71.696  1.00  0.00    -0.240 F  
HETATM   12  C   UNL     1      -9.963   4.456  70.767  1.00  0.00    -0.177 A  
HETATM   13  C   UNL     1      -9.508   3.892  68.480  1.00  0.00    -0.148 A  
HETATM   14 CL   UNL     1      -9.612   4.160  66.770  1.00  0.00    -0.215 Cl 
HETATM   15  C   UNL     1      -9.132   2.603  68.882  1.00  0.00    -0.200 A  
HETATM   16  C   UNL     1      -9.633   3.162  71.167  1.00  0.00    -0.230 A  
HETATM   17  C   UNL     1      -9.177   2.243  70.227  1.00  0.00    -0.193 A  
ENDBRANCH   8  10
ENDBRANCH   5   8
BRANCH   6  18
HETATM   18  C   UNL     1     -11.108   8.580  70.590  1.00  0.00    -0.280 C  
HETATM   19  O   UNL     1     -12.418   8.446  72.589  1.00  0.00    -0.349 OA 
HETATM   20  C   UNL     1     -11.304   8.421  72.081  1.00  0.00    -0.366 C  
HETATM   21  O   UNL     1     -10.204   8.237  72.843  1.00  0.00    -0.295 OA 
ENDBRANCH   6  18
TORSDOF 3
ENDMDL
MODEL      234
REMARK 921   NORMALIZED FREE ENERGY PREDICTED BY IDOCK:   -3.97 KCAL/MOL
REMARK 922        TOTAL FREE ENERGY PREDICTED BY IDOCK:   -4.89 KCAL/MOL
REMARK 923 INTER-LIGAND FREE ENERGY PREDICTED BY IDOCK:   -4.64 KCAL/MOL
REMARK 924 INTRA-LIGAND FREE ENERGY PREDICTED BY IDOCK:   -0.26 KCAL/MOL
REMARK 927      BINDING AFFINITY PREDICTED BY RF-SCORE:    0.00 PKD
ROOT
HETATM    1  C   UNL     1     -12.728  15.514  70.944  1.00  0.00    -0.525 C  
HETATM    2  C   UNL     1     -12.060  14.435  70.142  1.00  0.00    -0.397 A  
HETATM    3  C   UNL     1     -12.167  13.100  70.516  1.00  0.00    -0.405 A  
HETATM    4  C   UNL     1     -11.425  12.127  69.856  1.00  0.00    -0.210 A  
HETATM    5  C   UNL     1     -10.527  12.475  68.836  1.00  0.00    -0.080 A  
HETATM    6  C   UNL     1     -10.526  13.793  68.345  1.00  0.00    -0.256 A  
HETATM    7  C   UNL     1     -11.298  14.763  69.013  1.00  0.00    -0.295 A  
ENDROOT
BRANCH   5   8
HETATM    8  N   UNL     1      -9.554  11.552  68.380  1.00  0.00    -0.192 NA 
HETATM    9  H   UNL     1      -8.994  11.084  69.093  1.00  0.00     0.000 HD 
BRANCH   8  10
HETATM   10  C   UNL     1      -9.282  11.216  67.022  1.00  0.00    -0.163 A  
HETATM   11  F   UNL     1     -11.584  10.751  66.720  1.00  0.00    -0.174 F  
HETATM   12  C   UNL     1     -10.339  10.757  66.220  1.00  0.00    -0.244 A  
HETATM   13  C   UNL     1      -8.008  11.289  66.418  1.00  0.00    -0.125 A  
HETATM   14 CL   UNL     1      -6.663  12.097  67.156  1.00  0.00    -0.144 Cl 
HETATM   15  C   UNL     1      -7.788  10.768  65.135  1.00  0.00     0.068 A  
HETATM   16  C   UNL     1     -10.134  10.278  64.926  1.00  0.00    -0.346 A  
HETATM   17  C   UNL     1      -8.848  10.247  64.397  1.00  0.00    -0.229 A  
ENDBRANCH   8  10
ENDBRANCH   5   8
BRANCH   6  18
HETATM   18  C   UNL     1      -9.698  14.215  67.149  1.00  0.00    -0.248 C  
HETATM   19  O   UNL     1      -9.722  14.570  64.781  1.00  0.00    -0.009 OA 
HETATM   20  C   UNL     1     -10.353  14.268  65.787  1.00  0.00    -0.327 C  
HETATM   21  O   UNL     1     -11.665  13.959  65.708  1.00  0.00    -0.336 OA 
ENDBRANCH   6  18
TORSDOF 3
ENDMDL
MODEL      235
REMARK 921   NORMALIZED FREE ENERGY PREDICTED BY IDOCK:   -3.94 KCAL/MOL
REMARK 922        TOTAL FREE ENERGY PREDICTED BY IDOCK:   -4.86 KCAL/MOL
REMARK 923 INTER-LIGAND FREE ENERGY PREDICTED BY IDOCK:   -4.21 KCAL/MOL
REMARK 924 INTRA-LIGAND FREE ENERGY PREDICTED BY IDOCK:   -0.65 KCAL/MOL
REMARK 927      BINDING AFFINITY PREDICTED BY RF-SCORE:    0.00 PKD
ROOT
HETATM    1  C   UNL     1      -8.161   8.271  65.280  1.00  0.00    -0.149 C  
HETATM    2  C   UNL     1      -8.787   7.622  66.480  1.00  0.00    -0.167 A  
HETATM    3  C   UNL     1      -9.374   6.364  66.385  1.00  0.00    -0.176 A  
HETATM    4  C   UNL     1     -10.079   5.838  67.462  1.00  0.00    -0.204 A  
HETATM    5  C   UNL     1     -10.249   6.578  68.642  1.00  0.00    -0.172 A  
HETATM    6  C   UNL     1      -9.532   7.776  68.807  1.00  0.00    -0.149 A  
HETATM    7  C   UNL     1      -8.807   8.287  67.713  1.00  0.00    -0.137 A  
ENDROOT
BRANCH   5   8
HETATM    8  N   UNL     1     -11.211   6.191  69.607  1.00  0.00    -0.414 NA 
HETATM    9  H   UNL     1     -12.191   6.330  69.362  1.00  0.00     0.000 HD 
BRANCH   8  10
HETATM   10  C   UNL     1     -10.939   5.628  70.888  1.00  0.00    -0.187 A  
HETATM   11  F   UNL     1     -12.491   7.144  71.838  1.00  0.00    -0.325 F  
HETATM   12  C   UNL     1     -11.573   6.181  72.013  1.00  0.00    -0.310 A  
HETATM   13  C   UNL     1     -10.051   4.556  71.119  1.00  0.00    -0.147 A  
HETATM   14 CL   UNL     1      -9.412   3.572  69.842  1.00  0.00    -0.258 Cl 
HETATM   15  C   UNL     1      -9.698   4.181  72.423  1.00  0.00    -0.210 A  
HETATM   16  C   UNL     1     -11.259   5.782  73.312  1.00  0.00    -0.187 A  
HETATM   17  C   UNL     1     -10.289   4.807  73.519  1.00  0.00    -0.245 A  
ENDBRANCH   8  10
ENDBRANCH   5   8
BRANCH   6  18
HETATM   18  C   UNL     1      -9.542   8.557  70.106  1.00  0.00    -0.174 C  
HETATM   19  O   UNL     1      -8.547   8.759  72.273  1.00  0.00    -0.377 OA 
HETATM   20  C   UNL     1      -8.559   8.183  71.192  1.00  0.00    -0.133 C  
HETATM   21  O   UNL     1      -7.694   7.178  70.938  1.00  0.00    -0.091 OA 
ENDBRANCH   6  18
TORSDOF 3
ENDMDL
MODEL      236
REMARK 921   NORMALIZED FREE ENERGY PREDICTED BY IDOCK:   -3.94 KCAL/MOL
REMARK 922        TOTAL FREE ENERGY PREDICTED BY IDOCK:   -4.85 KCAL/MOL
REMARK 923 INTER-LIGAND FREE ENERGY PREDICTED BY IDOCK:   -4.19 KCAL/MOL
REMARK 924 INTRA-LIGAND FREE ENERGY PREDICTED BY IDOCK:   -0.66 KCAL/MOL
REMARK 927      BINDING AFFINITY PREDICTED BY RF-SCORE:    0.00 PKD
ROOT
HETATM    1  C   UNL     1      -5.270  11.168  69.852  1.00  0.00    -0.050 C  
HETATM    2  C   UNL     1      -6.544  10.419  70.114  1.00  0.00    -0.146 A  
HETATM    3  C   UNL     1      -6.597   9.420  71.080  1.00  0.00    -0.058 A  
HETATM    4  C   UNL     1      -7.736   8.633  71.211  1.00  0.00    -0.141 A  
HETATM    5  C   UNL     1      -8.830   8.800  70.349  1.00  0.00    -0.168 A  
HETATM    6  C   UNL     1      -8.851   9.904  69.477  1.00  0.00    -0.208 A  
HETATM    7  C   UNL     1      -7.697  10.703  69.369  1.00  0.00    -0.132 A  
ENDROOT
BRANCH   5   8
HETATM    8  N   UNL     1      -9.847   7.817  70.269  1.00  0.00    -0.184 NA 
HETATM    9  H   UNL     1     -10.621   8.007  69.634  1.00  0.00     0.000 HD 
BRANCH   8  10
HETATM   10  C   UNL     1      -9.890   6.590  70.993  1.00  0.00    -0.179 A  
HETATM   11  F   UNL     1      -8.553   5.598  69.309  1.00  0.00    -0.103 F  
HETATM   12  C   UNL     1      -9.263   5.462  70.439  1.00  0.00    -0.153 A  
HETATM   13  C   UNL     1     -10.546   6.413  72.230  1.00  0.00    -0.214 A  
HETATM   14 CL   UNL     1     -11.116   7.739  73.191  1.00  0.00    -0.429 Cl 
HETATM   15  C   UNL     1     -10.701   5.135  72.787  1.00  0.00    -0.294 A  
HETATM   16  C   UNL     1      -9.376   4.195  71.012  1.00  0.00    -0.219 A  
HETATM   17  C   UNL     1     -10.131   4.024  72.168  1.00  0.00    -0.233 A  
ENDBRANCH   8  10
ENDBRANCH   5   8
BRANCH   6  18
HETATM   18  C   UNL     1     -10.056  10.241  68.623  1.00  0.00    -0.187 C  
HETATM   19  O   UNL     1     -12.366  10.867  68.660  1.00  0.00    -0.501 OA 
HETATM   20  C   UNL     1     -11.353  10.618  69.302  1.00  0.00    -0.282 C  
HETATM   21  O   UNL     1     -11.366  10.661  70.652  1.00  0.00    -0.316 OA 
ENDBRANCH   6  18
TORSDOF 3
ENDMDL
MODEL      237
REMARK 921   NORMALIZED FREE ENERGY PREDICTED BY IDOCK:   -3.92 KCAL/MOL
REMARK 922        TOTAL FREE ENERGY PREDICTED BY IDOCK:   -4.83 KCAL/MOL
REMARK 923 INTER-LIGAND FREE ENERGY PREDICTED BY IDOCK:   -4.19 KCAL/MOL
REMARK 924 INTRA-LIGAND FREE ENERGY PREDICTED BY IDOCK:   -0.64 KCAL/MOL
REMARK 927      BINDING AFFINITY PREDICTED BY RF-SCORE:    0.00 PKD
ROOT
HETATM    1  C   UNL     1      -5.788  10.566  70.208  1.00  0.00    -0.089 C  
HETATM    2  C   UNL     1      -6.997   9.692  70.373  1.00  0.00    -0.128 A  
HETATM    3  C   UNL     1      -6.875   8.387  70.837  1.00  0.00    -0.047 A  
HETATM    4  C   UNL     1      -7.979   7.541  70.845  1.00  0.00    -0.096 A  
HETATM    5  C   UNL     1      -9.219   7.971  70.349  1.00  0.00    -0.155 A  
HETATM    6  C   UNL     1      -9.393   9.329  70.026  1.00  0.00    -0.232 A  
HETATM    7  C   UNL     1      -8.269  10.177  70.041  1.00  0.00    -0.060 A  
ENDROOT
BRANCH   5   8
HETATM    8  N   UNL     1     -10.248   7.040  70.066  1.00  0.00    -0.191 NA 
HETATM    9  H   UNL     1     -11.187   7.283  70.379  1.00  0.00     0.000 HD 
BRANCH   8  10
HETATM   10  C   UNL     1     -10.096   5.797  69.385  1.00  0.00    -0.213 A  
HETATM   11  F   UNL     1      -9.781   4.737  71.479  1.00  0.00    -0.186 F  
HETATM   12  C   UNL     1      -9.801   4.650  70.140  1.00  0.00    -0.236 A  
HETATM   13  C   UNL     1     -10.196   5.632  67.987  1.00  0.00    -0.186 A  
HETATM   14 CL   UNL     1     -10.831   6.859  66.938  1.00  0.00    -0.424 Cl 
HETATM   15  C   UNL     1      -9.852   4.416  67.379  1.00  0.00    -0.193 A  
HETATM   16  C   UNL     1      -9.501   3.426  69.542  1.00  0.00    -0.219 A  
HETATM   17  C   UNL     1      -9.487   3.319  68.155  1.00  0.00    -0.215 A  
ENDBRANCH   8  10
ENDBRANCH   5   8
BRANCH   6  18
HETATM   18  C   UNL     1     -10.737   9.904  69.628  1.00  0.00    -0.277 C  
HETATM   19  O   UNL     1     -11.996  10.875  67.839  1.00  0.00    -0.585 OA 
HETATM   20  C   UNL     1     -10.941  10.372  68.205  1.00  0.00    -0.281 C  
HETATM   21  O   UNL     1      -9.911  10.228  67.343  1.00  0.00    -0.176 OA 
ENDBRANCH   6  18
TORSDOF 3
ENDMDL
MODEL      238
REMARK 921   NORMALIZED FREE ENERGY PREDICTED BY IDOCK:   -3.91 KCAL/MOL
REMARK 922        TOTAL FREE ENERGY PREDICTED BY IDOCK:   -4.83 KCAL/MOL
REMARK 923 INTER-LIGAND FREE ENERGY PREDICTED BY IDOCK:   -4.64 KCAL/MOL
REMARK 924 INTRA-LIGAND FREE ENERGY PREDICTED BY IDOCK:   -0.19 KCAL/MOL
REMARK 927      BINDING AFFINITY PREDICTED BY RF-SCORE:    0.00 PKD
ROOT
HETATM    1  C   UNL     1      -8.347   7.998  64.698  1.00  0.00    -0.065 C  
HETATM    2  C   UNL     1      -8.963   8.586  65.935  1.00  0.00    -0.235 A  
HETATM    3  C   UNL     1      -8.794   9.931  66.245  1.00  0.00    -0.160 A  
HETATM    4  C   UNL     1      -9.241  10.429  67.464  1.00  0.00    -0.156 A  
HETATM    5  C   UNL     1      -9.827   9.583  68.416  1.00  0.00    -0.158 A  
HETATM    6  C   UNL     1     -10.144   8.261  68.054  1.00  0.00    -0.243 A  
HETATM    7  C   UNL     1      -9.701   7.777  66.808  1.00  0.00    -0.296 A  
ENDROOT
BRANCH   5   8
HETATM    8  N   UNL     1      -9.996  10.007  69.757  1.00  0.00    -0.237 NA 
HETATM    9  H   UNL     1      -9.237   9.798  70.405  1.00  0.00     0.000 HD 
BRANCH   8  10
HETATM   10  C   UNL     1     -11.125  10.699  70.286  1.00  0.00    -0.233 A  
HETATM   11  F   UNL     1     -10.719  12.453  68.748  1.00  0.00    -0.223 F  
HETATM   12  C   UNL     1     -11.428  11.973  69.781  1.00  0.00    -0.210 A  
HETATM   13  C   UNL     1     -11.960  10.203  71.310  1.00  0.00    -0.382 A  
HETATM   14 CL   UNL     1     -11.916   8.553  71.844  1.00  0.00    -0.378 Cl 
HETATM   15  C   UNL     1     -12.935  11.018  71.902  1.00  0.00    -0.485 A  
HETATM   16  C   UNL     1     -12.428  12.772  70.336  1.00  0.00    -0.231 A  
HETATM   17  C   UNL     1     -13.157  12.308  71.427  1.00  0.00    -0.285 A  
ENDBRANCH   8  10
ENDBRANCH   5   8
BRANCH   6  18
HETATM   18  C   UNL     1     -10.911   7.329  68.970  1.00  0.00    -0.077 C  
HETATM   19  O   UNL     1     -10.720   5.515  70.520  1.00  0.00    -0.275 OA 
HETATM   20  C   UNL     1     -10.147   6.314  69.790  1.00  0.00    -0.176 C  
HETATM   21  O   UNL     1      -8.801   6.307  69.684  1.00  0.00    -0.134 OA 
ENDBRANCH   6  18
TORSDOF 3
ENDMDL
MODEL      239
REMARK 921   NORMALIZED FREE ENERGY PREDICTED BY IDOCK:   -3.88 KCAL/MOL
REMARK 922        TOTAL FREE ENERGY PREDICTED BY IDOCK:   -4.79 KCAL/MOL
REMARK 923 INTER-LIGAND FREE ENERGY PREDICTED BY IDOCK:   -3.97 KCAL/MOL
REMARK 924 INTRA-LIGAND FREE ENERGY PREDICTED BY IDOCK:   -0.82 KCAL/MOL
REMARK 927      BINDING AFFINITY PREDICTED BY RF-SCORE:    0.00 PKD
ROOT
HETATM    1  C   UNL     1     -12.884  13.568  65.355  1.00  0.00    -0.420 C  
HETATM    2  C   UNL     1     -11.543  12.896  65.421  1.00  0.00    -0.386 A  
HETATM    3  C   UNL     1     -11.089  12.107  64.370  1.00  0.00    -0.387 A  
HETATM    4  C   UNL     1      -9.915  11.372  64.504  1.00  0.00    -0.318 A  
HETATM    5  C   UNL     1      -9.195  11.378  65.707  1.00  0.00    -0.208 A  
HETATM    6  C   UNL     1      -9.556  12.289  66.716  1.00  0.00    -0.220 A  
HETATM    7  C   UNL     1     -10.737  13.040  66.558  1.00  0.00    -0.290 A  
ENDROOT
BRANCH   5   8
HETATM    8  N   UNL     1      -8.193  10.408  65.957  1.00  0.00    -0.138 NA 
HETATM    9  H   UNL     1      -7.269  10.756  66.211  1.00  0.00     0.000 HD 
BRANCH   8  10
HETATM   10  C   UNL     1      -8.353   8.993  65.886  1.00  0.00    -0.125 A  
HETATM   11  F   UNL     1      -6.624   8.920  64.270  1.00  0.00    -0.076 F  
HETATM   12  C   UNL     1      -7.570   8.274  64.969  1.00  0.00    -0.095 A  
HETATM   13  C   UNL     1      -9.270   8.252  66.663  1.00  0.00    -0.179 A  
HETATM   14 CL   UNL     1     -10.100   8.920  68.031  1.00  0.00    -0.223 Cl 
HETATM   15  C   UNL     1      -9.497   6.893  66.405  1.00  0.00    -0.170 A  
HETATM   16  C   UNL     1      -7.762   6.911  64.740  1.00  0.00    -0.115 A  
HETATM   17  C   UNL     1      -8.756   6.227  65.431  1.00  0.00    -0.055 A  
ENDBRANCH   8  10
ENDBRANCH   5   8
BRANCH   6  18
HETATM   18  C   UNL     1      -8.742  12.464  67.982  1.00  0.00    -0.186 C  
HETATM   19  O   UNL     1      -7.089  13.808  69.073  1.00  0.00    -0.110 OA 
HETATM   20  C   UNL     1      -7.795  13.638  68.087  1.00  0.00    -0.143 C  
HETATM   21  O   UNL     1      -7.740  14.497  67.046  1.00  0.00    -0.126 OA 
ENDBRANCH   6  18
TORSDOF 3
ENDMDL
MODEL      240
REMARK 921   NORMALIZED FREE ENERGY PREDICTED BY IDOCK:   -3.82 KCAL/MOL
REMARK 922        TOTAL FREE ENERGY PREDICTED BY IDOCK:   -4.72 KCAL/MOL
REMARK 923 INTER-LIGAND FREE ENERGY PREDICTED BY IDOCK:   -4.76 KCAL/MOL
REMARK 924 INTRA-LIGAND FREE ENERGY PREDICTED BY IDOCK:    0.04 KCAL/MOL
REMARK 927      BINDING AFFINITY PREDICTED BY RF-SCORE:    0.00 PKD
ROOT
HETATM    1  C   UNL     1      -8.183  15.629  66.892  1.00  0.00    -0.288 C  
HETATM    2  C   UNL     1      -8.615  14.195  66.792  1.00  0.00    -0.097 A  
HETATM    3  C   UNL     1      -7.752  13.164  67.149  1.00  0.00    -0.032 A  
HETATM    4  C   UNL     1      -8.108  11.841  66.913  1.00  0.00    -0.160 A  
HETATM    5  C   UNL     1      -9.315  11.523  66.275  1.00  0.00    -0.213 A  
HETATM    6  C   UNL     1     -10.261  12.541  66.053  1.00  0.00    -0.269 A  
HETATM    7  C   UNL     1      -9.893  13.874  66.315  1.00  0.00    -0.318 A  
ENDROOT
BRANCH   5   8
HETATM    8  N   UNL     1      -9.541  10.225  65.755  1.00  0.00    -0.207 NA 
HETATM    9  H   UNL     1     -10.450   9.804  65.945  1.00  0.00     0.000 HD 
BRANCH   8  10
HETATM   10  C   UNL     1      -8.618   9.450  64.993  1.00  0.00    -0.172 A  
HETATM   11  F   UNL     1      -9.625  10.273  63.014  1.00  0.00    -0.296 F  
HETATM   12  C   UNL     1      -8.730   9.458  63.593  1.00  0.00    -0.202 A  
HETATM   13  C   UNL     1      -7.599   8.645  65.547  1.00  0.00    -0.087 A  
HETATM   14 CL   UNL     1      -7.131   8.737  67.214  1.00  0.00    -0.078 Cl 
HETATM   15  C   UNL     1      -6.853   7.773  64.742  1.00  0.00    -0.051 A  
HETATM   16  C   UNL     1      -7.959   8.624  62.783  1.00  0.00    -0.154 A  
HETATM   17  C   UNL     1      -7.046   7.750  63.363  1.00  0.00    -0.075 A  
ENDBRANCH   8  10
ENDBRANCH   5   8
BRANCH   6  18
HETATM   18  C   UNL     1     -11.646  12.259  65.508  1.00  0.00    -0.422 C  
HETATM   19  O   UNL     1     -12.943  11.969  63.517  1.00  0.00    -0.774 OA 
HETATM   20  C   UNL     1     -11.839  12.161  64.011  1.00  0.00    -0.434 C  
HETATM   21  O   UNL     1     -10.749  12.305  63.227  1.00  0.00    -0.427 OA 
ENDBRANCH   6  18
TORSDOF 3
ENDMDL
MODEL      241
REMARK 921   NORMALIZED FREE ENERGY PREDICTED BY IDOCK:   -3.80 KCAL/MOL
REMARK 922        TOTAL FREE ENERGY PREDICTED BY IDOCK:   -4.69 KCAL/MOL
REMARK 923 INTER-LIGAND FREE ENERGY PREDICTED BY IDOCK:   -4.36 KCAL/MOL
REMARK 924 INTRA-LIGAND FREE ENERGY PREDICTED BY IDOCK:   -0.33 KCAL/MOL
REMARK 927      BINDING AFFINITY PREDICTED BY RF-SCORE:    0.00 PKD
ROOT
HETATM    1  C   UNL     1      -9.479   8.666  66.083  1.00  0.00    -0.308 C  
HETATM    2  C   UNL     1      -9.337   8.959  67.549  1.00  0.00    -0.160 A  
HETATM    3  C   UNL     1      -8.431   8.251  68.332  1.00  0.00    -0.129 A  
HETATM    4  C   UNL     1      -8.413   8.426  69.711  1.00  0.00    -0.127 A  
HETATM    5  C   UNL     1      -9.330   9.280  70.341  1.00  0.00    -0.250 A  
HETATM    6  C   UNL     1     -10.141  10.115  69.551  1.00  0.00    -0.258 A  
HETATM    7  C   UNL     1     -10.134   9.939  68.154  1.00  0.00    -0.193 A  
ENDROOT
BRANCH   5   8
HETATM    8  N   UNL     1      -9.525   9.227  71.743  1.00  0.00    -0.251 NA 
HETATM    9  H   UNL     1      -9.942  10.048  72.181  1.00  0.00     0.000 HD 
BRANCH   8  10
HETATM   10  C   UNL     1      -9.195   8.136  72.599  1.00  0.00    -0.263 A  
HETATM   11  F   UNL     1     -11.493   7.572  72.698  1.00  0.00    -0.304 F  
HETATM   12  C   UNL     1     -10.237   7.346  73.112  1.00  0.00    -0.312 A  
HETATM   13  C   UNL     1      -7.883   7.797  72.995  1.00  0.00    -0.119 A  
HETATM   14 CL   UNL     1      -6.472   8.467  72.242  1.00  0.00    -0.074 Cl 
HETATM   15  C   UNL     1      -7.656   6.828  73.982  1.00  0.00    -0.101 A  
HETATM   16  C   UNL     1     -10.012   6.350  74.062  1.00  0.00    -0.301 A  
HETATM   17  C   UNL     1      -8.723   6.117  74.528  1.00  0.00    -0.138 A  
ENDBRANCH   8  10
ENDBRANCH   5   8
BRANCH   6  18
HETATM   18  C   UNL     1     -11.048  11.170  70.150  1.00  0.00    -0.105 C  
HETATM   19  O   UNL     1     -13.120  11.551  71.288  1.00  0.00    -0.336 OA 
HETATM   20  C   UNL     1     -12.334  10.737  70.818  1.00  0.00    -0.383 C  
HETATM   21  O   UNL     1     -12.600   9.414  70.871  1.00  0.00    -0.249 OA 
ENDBRANCH   6  18
TORSDOF 3
ENDMDL
MODEL      242
REMARK 921   NORMALIZED FREE ENERGY PREDICTED BY IDOCK:   -3.71 KCAL/MOL
REMARK 922        TOTAL FREE ENERGY PREDICTED BY IDOCK:   -4.59 KCAL/MOL
REMARK 923 INTER-LIGAND FREE ENERGY PREDICTED BY IDOCK:   -4.11 KCAL/MOL
REMARK 924 INTRA-LIGAND FREE ENERGY PREDICTED BY IDOCK:   -0.48 KCAL/MOL
REMARK 927      BINDING AFFINITY PREDICTED BY RF-SCORE:    0.00 PKD
ROOT
HETATM    1  C   UNL     1      -7.899   7.676  64.894  1.00  0.00    -0.128 C  
HETATM    2  C   UNL     1      -7.969   8.447  66.180  1.00  0.00    -0.100 A  
HETATM    3  C   UNL     1      -7.006   8.272  67.169  1.00  0.00    -0.075 A  
HETATM    4  C   UNL     1      -7.162   8.877  68.411  1.00  0.00    -0.078 A  
HETATM    5  C   UNL     1      -8.305   9.634  68.705  1.00  0.00    -0.111 A  
HETATM    6  C   UNL     1      -9.204   9.947  67.669  1.00  0.00    -0.146 A  
HETATM    7  C   UNL     1      -9.022   9.342  66.411  1.00  0.00    -0.185 A  
ENDROOT
BRANCH   5   8
HETATM    8  N   UNL     1      -8.618   9.986  70.041  1.00  0.00    -0.349 NA 
HETATM    9  H   UNL     1      -8.429  10.948  70.320  1.00  0.00     0.000 HD 
BRANCH   8  10
HETATM   10  C   UNL     1      -9.172   9.123  71.031  1.00  0.00    -0.252 A  
HETATM   11  F   UNL     1     -11.318   9.984  70.522  1.00  0.00    -0.285 F  
HETATM   12  C   UNL     1     -10.551   9.193  71.287  1.00  0.00    -0.329 A  
HETATM   13  C   UNL     1      -8.425   8.207  71.803  1.00  0.00    -0.144 A  
HETATM   14 CL   UNL     1      -6.786   7.780  71.431  1.00  0.00    -0.048 Cl 
HETATM   15  C   UNL     1      -9.011   7.528  72.881  1.00  0.00    -0.206 A  
HETATM   16  C   UNL     1     -11.148   8.485  72.331  1.00  0.00    -0.397 A  
HETATM   17  C   UNL     1     -10.368   7.682  73.156  1.00  0.00    -0.411 A  
ENDBRANCH   8  10
ENDBRANCH   5   8
BRANCH   6  18
HETATM   18  C   UNL     1     -10.380  10.882  67.867  1.00  0.00    -0.216 C  
HETATM   19  O   UNL     1     -11.027  13.136  68.344  1.00  0.00    -0.241 OA 
HETATM   20  C   UNL     1     -10.114  12.345  68.143  1.00  0.00    -0.224 C  
HETATM   21  O   UNL     1      -8.828  12.755  68.172  1.00  0.00    -0.186 OA 
ENDBRANCH   6  18
TORSDOF 3
ENDMDL
MODEL      243
REMARK 921   NORMALIZED FREE ENERGY PREDICTED BY IDOCK:   -3.70 KCAL/MOL
REMARK 922        TOTAL FREE ENERGY PREDICTED BY IDOCK:   -4.57 KCAL/MOL
REMARK 923 INTER-LIGAND FREE ENERGY PREDICTED BY IDOCK:   -3.91 KCAL/MOL
REMARK 924 INTRA-LIGAND FREE ENERGY PREDICTED BY IDOCK:   -0.66 KCAL/MOL
REMARK 927      BINDING AFFINITY PREDICTED BY RF-SCORE:    0.00 PKD
ROOT
HETATM    1  C   UNL     1      -6.704  10.806  68.758  1.00  0.00    -0.060 C  
HETATM    2  C   UNL     1      -7.425   9.628  69.347  1.00  0.00    -0.093 A  
HETATM    3  C   UNL     1      -7.063   8.329  69.007  1.00  0.00    -0.065 A  
HETATM    4  C   UNL     1      -7.831   7.253  69.441  1.00  0.00    -0.122 A  
HETATM    5  C   UNL     1      -9.000   7.458  70.187  1.00  0.00    -0.148 A  
HETATM    6  C   UNL     1      -9.288   8.748  70.669  1.00  0.00    -0.234 A  
HETATM    7  C   UNL     1      -8.490   9.825  70.236  1.00  0.00    -0.163 A  
ENDROOT
BRANCH   5   8
HETATM    8  N   UNL     1      -9.941   6.414  70.362  1.00  0.00    -0.182 NA 
HETATM    9  H   UNL     1     -10.923   6.649  70.220  1.00  0.00     0.000 HD 
BRANCH   8  10
HETATM   10  C   UNL     1      -9.646   5.065  70.719  1.00  0.00    -0.180 A  
HETATM   11  F   UNL     1      -9.821   4.466  68.435  1.00  0.00    -0.211 F  
HETATM   12  C   UNL     1      -9.649   4.088  69.711  1.00  0.00    -0.210 A  
HETATM   13  C   UNL     1      -9.369   4.626  72.032  1.00  0.00    -0.138 A  
HETATM   14 CL   UNL     1      -9.040   5.718  73.338  1.00  0.00    -0.133 Cl 
HETATM   15  C   UNL     1      -9.271   3.260  72.328  1.00  0.00    -0.156 A  
HETATM   16  C   UNL     1      -9.507   2.730  69.994  1.00  0.00    -0.168 A  
HETATM   17  C   UNL     1      -9.358   2.311  71.312  1.00  0.00    -0.198 A  
ENDBRANCH   8  10
ENDBRANCH   5   8
BRANCH   6  18
HETATM   18  C   UNL     1     -10.446   9.027  71.605  1.00  0.00    -0.426 C  
HETATM   19  O   UNL     1     -12.576  10.099  71.815  1.00  0.00    -0.395 OA 
HETATM   20  C   UNL     1     -11.629   9.816  71.091  1.00  0.00    -0.392 C  
HETATM   21  O   UNL     1     -11.607  10.214  69.801  1.00  0.00    -0.235 OA 
ENDBRANCH   6  18
TORSDOF 3
ENDMDL
MODEL      244
REMARK 921   NORMALIZED FREE ENERGY PREDICTED BY IDOCK:   -3.62 KCAL/MOL
REMARK 922        TOTAL FREE ENERGY PREDICTED BY IDOCK:   -4.48 KCAL/MOL
REMARK 923 INTER-LIGAND FREE ENERGY PREDICTED BY IDOCK:   -3.71 KCAL/MOL
REMARK 924 INTRA-LIGAND FREE ENERGY PREDICTED BY IDOCK:   -0.77 KCAL/MOL
REMARK 927      BINDING AFFINITY PREDICTED BY RF-SCORE:    0.00 PKD
ROOT
HETATM    1  C   UNL     1      -5.834  12.873  69.109  1.00  0.00    -0.081 C  
HETATM    2  C   UNL     1      -7.013  12.062  68.656  1.00  0.00    -0.096 A  
HETATM    3  C   UNL     1      -7.184  10.750  69.087  1.00  0.00    -0.107 A  
HETATM    4  C   UNL     1      -8.194   9.962  68.546  1.00  0.00    -0.106 A  
HETATM    5  C   UNL     1      -9.026  10.456  67.530  1.00  0.00    -0.135 A  
HETATM    6  C   UNL     1      -8.967  11.822  67.200  1.00  0.00    -0.177 A  
HETATM    7  C   UNL     1      -7.950  12.611  67.771  1.00  0.00    -0.158 A  
ENDROOT
BRANCH   5   8
HETATM    8  N   UNL     1      -9.836   9.579  66.766  1.00  0.00    -0.200 NA 
HETATM    9  H   UNL     1     -10.797   9.872  66.595  1.00  0.00     0.000 HD 
BRANCH   8  10
HETATM   10  C   UNL     1      -9.434   8.327  66.215  1.00  0.00    -0.203 A  
HETATM   11  F   UNL     1     -10.805   7.234  67.806  1.00  0.00    -0.271 F  
HETATM   12  C   UNL     1      -9.908   7.148  66.812  1.00  0.00    -0.205 A  
HETATM   13  C   UNL     1      -8.563   8.180  65.114  1.00  0.00    -0.071 A  
HETATM   14 CL   UNL     1      -8.117   9.502  64.084  1.00  0.00    -0.137 Cl 
HETATM   15  C   UNL     1      -8.072   6.918  64.749  1.00  0.00    -0.095 A  
HETATM   16  C   UNL     1      -9.456   5.887  66.424  1.00  0.00    -0.174 A  
HETATM   17  C   UNL     1      -8.504   5.774  65.416  1.00  0.00    -0.151 A  
ENDBRANCH   8  10
ENDBRANCH   5   8
BRANCH   6  18
HETATM   18  C   UNL     1      -9.931  12.465  66.225  1.00  0.00    -0.259 C  
HETATM   19  O   UNL     1     -12.191  13.184  65.895  1.00  0.00    -0.425 OA 
HETATM   20  C   UNL     1     -11.362  12.698  66.655  1.00  0.00    -0.326 C  
HETATM   21  O   UNL     1     -11.705  12.342  67.911  1.00  0.00    -0.333 OA 
ENDBRANCH   6  18
TORSDOF 3
ENDMDL
MODEL      245
REMARK 921   NORMALIZED FREE ENERGY PREDICTED BY IDOCK:   -3.60 KCAL/MOL
REMARK 922        TOTAL FREE ENERGY PREDICTED BY IDOCK:   -4.46 KCAL/MOL
REMARK 923 INTER-LIGAND FREE ENERGY PREDICTED BY IDOCK:   -3.59 KCAL/MOL
REMARK 924 INTRA-LIGAND FREE ENERGY PREDICTED BY IDOCK:   -0.87 KCAL/MOL
REMARK 927      BINDING AFFINITY PREDICTED BY RF-SCORE:    0.00 PKD
ROOT
HETATM    1  C   UNL     1      -7.206  11.145  69.239  1.00  0.00    -0.112 C  
HETATM    2  C   UNL     1      -7.887   9.885  69.688  1.00  0.00    -0.156 A  
HETATM    3  C   UNL     1      -7.521   9.261  70.876  1.00  0.00    -0.123 A  
HETATM    4  C   UNL     1      -8.053   8.020  71.206  1.00  0.00    -0.110 A  
HETATM    5  C   UNL     1      -8.929   7.356  70.334  1.00  0.00    -0.150 A  
HETATM    6  C   UNL     1      -9.427   8.042  69.212  1.00  0.00    -0.155 A  
HETATM    7  C   UNL     1      -8.892   9.307  68.901  1.00  0.00    -0.135 A  
ENDROOT
BRANCH   5   8
HETATM    8  N   UNL     1      -9.223   5.982  70.510  1.00  0.00    -0.155 NA 
HETATM    9  H   UNL     1      -9.068   5.372  69.708  1.00  0.00     0.000 HD 
BRANCH   8  10
HETATM   10  C   UNL     1      -9.717   5.371  71.700  1.00  0.00    -0.157 A  
HETATM   11  F   UNL     1      -7.559   4.477  72.087  1.00  0.00    -0.077 F  
HETATM   12  C   UNL     1      -8.848   4.562  72.450  1.00  0.00    -0.117 A  
HETATM   13  C   UNL     1     -11.039   5.500  72.177  1.00  0.00    -0.210 A  
HETATM   14 CL   UNL     1     -12.154   6.673  71.552  1.00  0.00    -0.398 Cl 
HETATM   15  C   UNL     1     -11.496   4.723  73.250  1.00  0.00    -0.361 A  
HETATM   16  C   UNL     1      -9.286   3.821  73.546  1.00  0.00    -0.115 A  
HETATM   17  C   UNL     1     -10.624   3.870  73.923  1.00  0.00    -0.291 A  
ENDBRANCH   8  10
ENDBRANCH   5   8
BRANCH   6  18
HETATM   18  C   UNL     1     -10.488   7.455  68.305  1.00  0.00    -0.231 C  
HETATM   19  O   UNL     1     -10.898   5.931  66.505  1.00  0.00    -0.269 OA 
HETATM   20  C   UNL     1     -10.086   6.413  67.285  1.00  0.00    -0.163 C  
HETATM   21  O   UNL     1      -8.791   6.035  67.251  1.00  0.00    -0.109 OA 
ENDBRANCH   6  18
TORSDOF 3
ENDMDL
MODEL      246
REMARK 921   NORMALIZED FREE ENERGY PREDICTED BY IDOCK:   -3.58 KCAL/MOL
REMARK 922        TOTAL FREE ENERGY PREDICTED BY IDOCK:   -4.43 KCAL/MOL
REMARK 923 INTER-LIGAND FREE ENERGY PREDICTED BY IDOCK:   -4.23 KCAL/MOL
REMARK 924 INTRA-LIGAND FREE ENERGY PREDICTED BY IDOCK:   -0.19 KCAL/MOL
REMARK 927      BINDING AFFINITY PREDICTED BY RF-SCORE:    0.00 PKD
ROOT
HETATM    1  C   UNL     1      -6.259  12.147  67.774  1.00  0.00    -0.089 C  
HETATM    2  C   UNL     1      -6.465  13.572  68.201  1.00  0.00    -0.123 A  
HETATM    3  C   UNL     1      -7.085  13.871  69.409  1.00  0.00     0.022 A  
HETATM    4  C   UNL     1      -7.403  15.187  69.725  1.00  0.00    -0.141 A  
HETATM    5  C   UNL     1      -7.147  16.227  68.819  1.00  0.00    -0.164 A  
HETATM    6  C   UNL     1      -6.382  15.960  67.669  1.00  0.00    -0.189 A  
HETATM    7  C   UNL     1      -6.051  14.623  67.372  1.00  0.00     0.197 A  
ENDROOT
BRANCH   5   8
HETATM    8  N   UNL     1      -7.739  17.502  68.992  1.00  0.00    -0.197 NA 
HETATM    9  H   UNL     1      -8.745  17.523  69.159  1.00  0.00     0.000 HD 
BRANCH   8  10
HETATM   10  C   UNL     1      -7.064  18.757  68.953  1.00  0.00    -0.305 A  
HETATM   11  F   UNL     1      -8.731  19.561  67.476  1.00  0.00    -0.308 F  
HETATM   12  C   UNL     1      -7.573  19.767  68.121  1.00  0.00    -0.304 A  
HETATM   13  C   UNL     1      -5.893  19.058  69.680  1.00  0.00    -0.253 A  
HETATM   14 CL   UNL     1      -5.295  18.052  70.960  1.00  0.00    -0.255 Cl 
HETATM   15  C   UNL     1      -5.187  20.248  69.448  1.00  0.00    -0.259 A  
HETATM   16  C   UNL     1      -6.898  20.972  67.920  1.00  0.00    -0.250 A  
HETATM   17  C   UNL     1      -5.681  21.196  68.555  1.00  0.00    -0.335 A  
ENDBRANCH   8  10
ENDBRANCH   5   8
BRANCH   6  18
HETATM   18  C   UNL     1      -5.934  17.051  66.718  1.00  0.00    -0.227 C  
HETATM   19  O   UNL     1      -6.601  18.455  64.898  1.00  0.00    -0.422 OA 
HETATM   20  C   UNL     1      -6.921  17.597  65.712  1.00  0.00    -0.119 C  
HETATM   21  O   UNL     1      -8.176  17.097  65.728  1.00  0.00    -0.515 OA 
ENDBRANCH   6  18
TORSDOF 3
ENDMDL
MODEL      247
REMARK 921   NORMALIZED FREE ENERGY PREDICTED BY IDOCK:   -3.57 KCAL/MOL
REMARK 922        TOTAL FREE ENERGY PREDICTED BY IDOCK:   -4.43 KCAL/MOL
REMARK 923 INTER-LIGAND FREE ENERGY PREDICTED BY IDOCK:   -3.70 KCAL/MOL
REMARK 924 INTRA-LIGAND FREE ENERGY PREDICTED BY IDOCK:   -0.73 KCAL/MOL
REMARK 927      BINDING AFFINITY PREDICTED BY RF-SCORE:    0.00 PKD
ROOT
HETATM    1  C   UNL     1     -12.074  12.512  69.397  1.00  0.00    -0.237 C  
HETATM    2  C   UNL     1     -11.054  12.363  68.306  1.00  0.00    -0.283 A  
HETATM    3  C   UNL     1     -11.385  11.754  67.100  1.00  0.00    -0.387 A  
HETATM    4  C   UNL     1     -10.398  11.489  66.157  1.00  0.00    -0.287 A  
HETATM    5  C   UNL     1      -9.053  11.788  66.418  1.00  0.00    -0.213 A  
HETATM    6  C   UNL     1      -8.729  12.543  67.560  1.00  0.00    -0.182 A  
HETATM    7  C   UNL     1      -9.743  12.820  68.497  1.00  0.00    -0.129 A  
ENDROOT
BRANCH   5   8
HETATM    8  N   UNL     1      -8.020  11.246  65.614  1.00  0.00    -0.366 NA 
HETATM    9  H   UNL     1      -7.144  11.766  65.578  1.00  0.00     0.000 HD 
BRANCH   8  10
HETATM   10  C   UNL     1      -8.090  10.044  64.851  1.00  0.00    -0.154 A  
HETATM   11  F   UNL     1      -7.491   8.826  66.791  1.00  0.00    -0.082 F  
HETATM   12  C   UNL     1      -7.756   8.832  65.476  1.00  0.00    -0.092 A  
HETATM   13  C   UNL     1      -8.450   9.981  63.488  1.00  0.00    -0.187 A  
HETATM   14 CL   UNL     1      -9.163  11.316  62.641  1.00  0.00    -0.376 Cl 
HETATM   15  C   UNL     1      -8.316   8.789  62.762  1.00  0.00    -0.192 A  
HETATM   16  C   UNL     1      -7.665   7.633  64.768  1.00  0.00    -0.116 A  
HETATM   17  C   UNL     1      -7.906   7.620  63.398  1.00  0.00    -0.125 A  
ENDBRANCH   8  10
ENDBRANCH   5   8
BRANCH   6  18
HETATM   18  C   UNL     1      -7.324  13.036  67.838  1.00  0.00    -0.128 C  
HETATM   19  O   UNL     1      -5.161  12.419  68.658  1.00  0.00    -0.054 OA 
HETATM   20  C   UNL     1      -6.301  12.065  68.385  1.00  0.00    -0.053 C  
HETATM   21  O   UNL     1      -6.689  10.786  68.576  1.00  0.00    -0.055 OA 
ENDBRANCH   6  18
TORSDOF 3
ENDMDL
MODEL      248
REMARK 921   NORMALIZED FREE ENERGY PREDICTED BY IDOCK:   -3.55 KCAL/MOL
REMARK 922        TOTAL FREE ENERGY PREDICTED BY IDOCK:   -4.40 KCAL/MOL
REMARK 923 INTER-LIGAND FREE ENERGY PREDICTED BY IDOCK:   -4.34 KCAL/MOL
REMARK 924 INTRA-LIGAND FREE ENERGY PREDICTED BY IDOCK:   -0.06 KCAL/MOL
REMARK 927      BINDING AFFINITY PREDICTED BY RF-SCORE:    0.00 PKD
ROOT
HETATM    1  C   UNL     1     -10.565   5.524  72.129  1.00  0.00    -0.280 C  
HETATM    2  C   UNL     1     -10.420   6.788  71.333  1.00  0.00    -0.238 A  
HETATM    3  C   UNL     1     -10.448   8.030  71.958  1.00  0.00    -0.308 A  
HETATM    4  C   UNL     1     -10.463   9.195  71.199  1.00  0.00    -0.385 A  
HETATM    5  C   UNL     1     -10.494   9.141  69.797  1.00  0.00    -0.223 A  
HETATM    6  C   UNL     1     -10.308   7.902  69.156  1.00  0.00    -0.225 A  
HETATM    7  C   UNL     1     -10.276   6.733  69.941  1.00  0.00    -0.211 A  
ENDROOT
BRANCH   5   8
HETATM    8  N   UNL     1     -10.821  10.288  69.034  1.00  0.00    -0.218 NA 
HETATM    9  H   UNL     1     -11.812  10.466  68.871  1.00  0.00     0.000 HD 
BRANCH   8  10
HETATM   10  C   UNL     1      -9.897  11.217  68.472  1.00  0.00    -0.197 A  
HETATM   11  F   UNL     1      -8.179  10.227  69.766  1.00  0.00    -0.155 F  
HETATM   12  C   UNL     1      -8.565  11.190  68.915  1.00  0.00    -0.087 A  
HETATM   13  C   UNL     1     -10.230  12.193  67.508  1.00  0.00    -0.199 A  
HETATM   14 CL   UNL     1     -11.733  12.186  66.643  1.00  0.00    -0.416 Cl 
HETATM   15  C   UNL     1      -9.310  13.186  67.142  1.00  0.00    -0.235 A  
HETATM   16  C   UNL     1      -7.633  12.150  68.521  1.00  0.00    -0.124 A  
HETATM   17  C   UNL     1      -8.018  13.175  67.663  1.00  0.00    -0.174 A  
ENDBRANCH   8  10
ENDBRANCH   5   8
BRANCH   6  18
HETATM   18  C   UNL     1     -10.179   7.777  67.652  1.00  0.00    -0.282 C  
HETATM   19  O   UNL     1      -8.637   7.677  65.823  1.00  0.00    -0.143 OA 
HETATM   20  C   UNL     1      -8.798   7.743  67.036  1.00  0.00    -0.127 C  
HETATM   21  O   UNL     1      -7.737   7.800  67.869  1.00  0.00    -0.116 OA 
ENDBRANCH   6  18
TORSDOF 3
ENDMDL
MODEL      249
REMARK 921   NORMALIZED FREE ENERGY PREDICTED BY IDOCK:   -3.47 KCAL/MOL
REMARK 922        TOTAL FREE ENERGY PREDICTED BY IDOCK:   -4.30 KCAL/MOL
REMARK 923 INTER-LIGAND FREE ENERGY PREDICTED BY IDOCK:   -3.45 KCAL/MOL
REMARK 924 INTRA-LIGAND FREE ENERGY PREDICTED BY IDOCK:   -0.86 KCAL/MOL
REMARK 927      BINDING AFFINITY PREDICTED BY RF-SCORE:    0.00 PKD
ROOT
HETATM    1  C   UNL     1     -10.015   4.346  65.579  1.00  0.00    -0.242 C  
HETATM    2  C   UNL     1      -9.460   4.688  66.931  1.00  0.00    -0.175 A  
HETATM    3  C   UNL     1      -9.164   3.689  67.852  1.00  0.00    -0.223 A  
HETATM    4  C   UNL     1      -8.793   4.022  69.150  1.00  0.00    -0.147 A  
HETATM    5  C   UNL     1      -8.752   5.361  69.566  1.00  0.00    -0.102 A  
HETATM    6  C   UNL     1      -8.895   6.381  68.607  1.00  0.00    -0.120 A  
HETATM    7  C   UNL     1      -9.252   6.026  67.292  1.00  0.00    -0.114 A  
ENDROOT
BRANCH   5   8
HETATM    8  N   UNL     1      -8.683   5.692  70.942  1.00  0.00    -0.131 NA 
HETATM    9  H   UNL     1      -8.164   6.534  71.188  1.00  0.00     0.000 HD 
BRANCH   8  10
HETATM   10  C   UNL     1      -9.271   4.959  72.014  1.00  0.00    -0.136 A  
HETATM   11  F   UNL     1     -11.366   5.919  71.468  1.00  0.00    -0.320 F  
HETATM   12  C   UNL     1     -10.636   5.146  72.287  1.00  0.00    -0.218 A  
HETATM   13  C   UNL     1      -8.570   4.064  72.851  1.00  0.00    -0.099 A  
HETATM   14 CL   UNL     1      -6.972   3.494  72.490  1.00  0.00    -0.041 Cl 
HETATM   15  C   UNL     1      -9.175   3.525  73.995  1.00  0.00    -0.099 A  
HETATM   16  C   UNL     1     -11.255   4.576  73.399  1.00  0.00    -0.404 A  
HETATM   17  C   UNL     1     -10.512   3.795  74.278  1.00  0.00    -0.270 A  
ENDBRANCH   8  10
ENDBRANCH   5   8
BRANCH   6  18
HETATM   18  C   UNL     1      -8.715   7.846  68.945  1.00  0.00    -0.135 C  
HETATM   19  O   UNL     1      -9.843   9.861  69.576  1.00  0.00    -0.196 OA 
HETATM   20  C   UNL     1      -9.928   8.664  69.326  1.00  0.00    -0.195 C  
HETATM   21  O   UNL     1     -11.121   8.034  69.373  1.00  0.00    -0.080 OA 
ENDBRANCH   6  18
TORSDOF 3
ENDMDL
MODEL      250
REMARK 921   NORMALIZED FREE ENERGY PREDICTED BY IDOCK:   -3.45 KCAL/MOL
REMARK 922        TOTAL FREE ENERGY PREDICTED BY IDOCK:   -4.29 KCAL/MOL
REMARK 923 INTER-LIGAND FREE ENERGY PREDICTED BY IDOCK:   -3.88 KCAL/MOL
REMARK 924 INTRA-LIGAND FREE ENERGY PREDICTED BY IDOCK:   -0.41 KCAL/MOL
REMARK 927      BINDING AFFINITY PREDICTED BY RF-SCORE:    0.00 PKD
ROOT
HETATM    1  C   UNL     1     -11.167  15.929  67.634  1.00  0.00    -0.219 C  
HETATM    2  C   UNL     1     -10.674  14.555  67.985  1.00  0.00    -0.243 A  
HETATM    3  C   UNL     1      -9.384  14.155  67.650  1.00  0.00    -0.209 A  
HETATM    4  C   UNL     1      -8.989  12.836  67.846  1.00  0.00    -0.186 A  
HETATM    5  C   UNL     1      -9.889  11.880  68.340  1.00  0.00    -0.201 A  
HETATM    6  C   UNL     1     -11.139  12.304  68.827  1.00  0.00    -0.295 A  
HETATM    7  C   UNL     1     -11.517  13.647  68.638  1.00  0.00    -0.342 A  
ENDROOT
BRANCH   5   8
HETATM    8  N   UNL     1      -9.599  10.497  68.248  1.00  0.00    -0.154 NA 
HETATM    9  H   UNL     1     -10.199   9.865  68.779  1.00  0.00     0.000 HD 
BRANCH   8  10
HETATM   10  C   UNL     1      -8.550   9.904  67.486  1.00  0.00    -0.122 A  
HETATM   11  F   UNL     1      -9.923  10.047  65.562  1.00  0.00    -0.305 F  
HETATM   12  C   UNL     1      -8.776   9.638  66.126  1.00  0.00    -0.136 A  
HETATM   13  C   UNL     1      -7.291   9.536  68.008  1.00  0.00    -0.082 A  
HETATM   14 CL   UNL     1      -6.736  10.045  69.570  1.00  0.00    -0.052 Cl 
HETATM   15  C   UNL     1      -6.383   8.793  67.241  1.00  0.00    -0.057 A  
HETATM   16  C   UNL     1      -7.857   8.938  65.345  1.00  0.00    -0.102 A  
HETATM   17  C   UNL     1      -6.674   8.478  65.915  1.00  0.00    -0.057 A  
ENDBRANCH   8  10
ENDBRANCH   5   8
BRANCH   6  18
HETATM   18  C   UNL     1     -12.106  11.361  69.512  1.00  0.00    -0.370 C  
HETATM   19  O   UNL     1     -13.359  10.959  71.511  1.00  0.00    -0.328 OA 
HETATM   20  C   UNL     1     -12.603  11.703  70.899  1.00  0.00    -0.313 C  
HETATM   21  O   UNL     1     -12.175  12.857  71.453  1.00  0.00    -0.109 OA 
ENDBRANCH   6  18
TORSDOF 3
ENDMDL
MODEL      251
REMARK 921   NORMALIZED FREE ENERGY PREDICTED BY IDOCK:   -3.45 KCAL/MOL
REMARK 922        TOTAL FREE ENERGY PREDICTED BY IDOCK:   -4.28 KCAL/MOL
REMARK 923 INTER-LIGAND FREE ENERGY PREDICTED BY IDOCK:   -3.46 KCAL/MOL
REMARK 924 INTRA-LIGAND FREE ENERGY PREDICTED BY IDOCK:   -0.82 KCAL/MOL
REMARK 927      BINDING AFFINITY PREDICTED BY RF-SCORE:    0.00 PKD
ROOT
HETATM    1  C   UNL     1      -6.173  11.533  67.270  1.00  0.00    -0.104 C  
HETATM    2  C   UNL     1      -7.073  10.382  67.617  1.00  0.00    -0.085 A  
HETATM    3  C   UNL     1      -6.630   9.070  67.494  1.00  0.00    -0.065 A  
HETATM    4  C   UNL     1      -7.515   8.013  67.674  1.00  0.00    -0.097 A  
HETATM    5  C   UNL     1      -8.873   8.248  67.937  1.00  0.00    -0.138 A  
HETATM    6  C   UNL     1      -9.299   9.559  68.218  1.00  0.00    -0.139 A  
HETATM    7  C   UNL     1      -8.384  10.617  68.050  1.00  0.00    -0.118 A  
ENDROOT
BRANCH   5   8
HETATM    8  N   UNL     1      -9.827   7.208  67.812  1.00  0.00    -0.140 NA 
HETATM    9  H   UNL     1     -10.770   7.479  67.537  1.00  0.00     0.000 HD 
BRANCH   8  10
HETATM   10  C   UNL     1      -9.593   5.820  68.036  1.00  0.00    -0.119 A  
HETATM   11  F   UNL     1      -9.314   5.534  65.701  1.00  0.00    -0.165 F  
HETATM   12  C   UNL     1      -9.391   4.986  66.924  1.00  0.00    -0.131 A  
HETATM   13  C   UNL     1      -9.572   5.205  69.306  1.00  0.00    -0.160 A  
HETATM   14 CL   UNL     1      -9.513   6.108  70.786  1.00  0.00    -0.180 Cl 
HETATM   15  C   UNL     1      -9.520   3.810  69.430  1.00  0.00    -0.257 A  
HETATM   16  C   UNL     1      -9.293   3.600  67.045  1.00  0.00    -0.223 A  
HETATM   17  C   UNL     1      -9.398   3.007  68.299  1.00  0.00    -0.253 A  
ENDBRANCH   8  10
ENDBRANCH   5   8
BRANCH   6  18
HETATM   18  C   UNL     1     -10.713   9.879  68.658  1.00  0.00    -0.256 C  
HETATM   19  O   UNL     1     -12.210   9.955  70.523  1.00  0.00    -0.253 OA 
HETATM   20  C   UNL     1     -11.074   9.742  70.120  1.00  0.00    -0.285 C  
HETATM   21  O   UNL     1     -10.099   9.363  70.975  1.00  0.00    -0.288 OA 
ENDBRANCH   6  18
TORSDOF 3
ENDMDL
MODEL      252
REMARK 921   NORMALIZED FREE ENERGY PREDICTED BY IDOCK:   -3.31 KCAL/MOL
REMARK 922        TOTAL FREE ENERGY PREDICTED BY IDOCK:   -4.12 KCAL/MOL
REMARK 923 INTER-LIGAND FREE ENERGY PREDICTED BY IDOCK:   -4.12 KCAL/MOL
REMARK 924 INTRA-LIGAND FREE ENERGY PREDICTED BY IDOCK:    0.01 KCAL/MOL
REMARK 927      BINDING AFFINITY PREDICTED BY RF-SCORE:    0.00 PKD
ROOT
HETATM    1  C   UNL     1     -11.142  15.864  67.659  1.00  0.00    -0.266 C  
HETATM    2  C   UNL     1     -10.750  14.485  68.106  1.00  0.00    -0.240 A  
HETATM    3  C   UNL     1      -9.540  13.925  67.710  1.00  0.00    -0.222 A  
HETATM    4  C   UNL     1      -9.255  12.597  68.005  1.00  0.00    -0.208 A  
HETATM    5  C   UNL     1     -10.192  11.788  68.665  1.00  0.00    -0.201 A  
HETATM    6  C   UNL     1     -11.347  12.381  69.206  1.00  0.00    -0.315 A  
HETATM    7  C   UNL     1     -11.613  13.733  68.914  1.00  0.00    -0.358 A  
ENDROOT
BRANCH   5   8
HETATM    8  N   UNL     1     -10.043  10.380  68.691  1.00  0.00    -0.168 NA 
HETATM    9  H   UNL     1     -10.389   9.895  69.519  1.00  0.00     0.000 HD 
BRANCH   8  10
HETATM   10  C   UNL     1      -9.457   9.575  67.670  1.00  0.00    -0.131 A  
HETATM   11  F   UNL     1      -8.349   8.326  69.349  1.00  0.00    -0.114 F  
HETATM   12  C   UNL     1      -8.550   8.571  68.045  1.00  0.00    -0.134 A  
HETATM   13  C   UNL     1      -9.702   9.730  66.289  1.00  0.00    -0.234 A  
HETATM   14 CL   UNL     1     -10.992  10.709  65.667  1.00  0.00     0.005 Cl 
HETATM   15  C   UNL     1      -8.949   9.024  65.340  1.00  0.00    -0.249 A  
HETATM   16  C   UNL     1      -7.830   7.834  67.105  1.00  0.00    -0.113 A  
HETATM   17  C   UNL     1      -8.000   8.090  65.749  1.00  0.00    -0.111 A  
ENDBRANCH   8  10
ENDBRANCH   5   8
BRANCH   6  18
HETATM   18  C   UNL     1     -12.333  11.610  70.060  1.00  0.00    -0.261 C  
HETATM   19  O   UNL     1     -13.611  11.643  72.084  1.00  0.00    -0.332 OA 
HETATM   20  C   UNL     1     -12.839  12.236  71.340  1.00  0.00    -0.271 C  
HETATM   21  O   UNL     1     -12.404  13.476  71.648  1.00  0.00    -0.202 OA 
ENDBRANCH   6  18
TORSDOF 3
ENDMDL
MODEL      253
REMARK 921   NORMALIZED FREE ENERGY PREDICTED BY IDOCK:   -3.31 KCAL/MOL
REMARK 922        TOTAL FREE ENERGY PREDICTED BY IDOCK:   -4.12 KCAL/MOL
REMARK 923 INTER-LIGAND FREE ENERGY PREDICTED BY IDOCK:   -3.62 KCAL/MOL
REMARK 924 INTRA-LIGAND FREE ENERGY PREDICTED BY IDOCK:   -0.50 KCAL/MOL
REMARK 927      BINDING AFFINITY PREDICTED BY RF-SCORE:    0.00 PKD
ROOT
HETATM    1  C   UNL     1     -11.939  10.698  70.233  1.00  0.00    -0.425 C  
HETATM    2  C   UNL     1     -11.001  10.715  69.061  1.00  0.00    -0.295 A  
HETATM    3  C   UNL     1     -11.091   9.751  68.063  1.00  0.00    -0.168 A  
HETATM    4  C   UNL     1     -10.127   9.688  67.063  1.00  0.00    -0.275 A  
HETATM    5  C   UNL     1      -9.028  10.561  67.065  1.00  0.00    -0.140 A  
HETATM    6  C   UNL     1      -9.010  11.635  67.973  1.00  0.00    -0.176 A  
HETATM    7  C   UNL     1     -10.004  11.696  68.969  1.00  0.00    -0.002 A  
ENDROOT
BRANCH   5   8
HETATM    8  N   UNL     1      -7.899  10.307  66.249  1.00  0.00    -0.113 NA 
HETATM    9  H   UNL     1      -6.987  10.543  66.639  1.00  0.00     0.000 HD 
BRANCH   8  10
HETATM   10  C   UNL     1      -7.916   9.753  64.936  1.00  0.00    -0.133 A  
HETATM   11  F   UNL     1      -9.401  11.475  64.275  1.00  0.00    -0.208 F  
HETATM   12  C   UNL     1      -8.742  10.347  63.968  1.00  0.00    -0.194 A  
HETATM   13  C   UNL     1      -7.173   8.622  64.534  1.00  0.00    -0.093 A  
HETATM   14 CL   UNL     1      -5.898   7.944  65.494  1.00  0.00    -0.037 Cl 
HETATM   15  C   UNL     1      -7.384   8.030  63.280  1.00  0.00    -0.107 A  
HETATM   16  C   UNL     1      -8.922   9.787  62.703  1.00  0.00    -0.284 A  
HETATM   17  C   UNL     1      -8.272   8.603  62.372  1.00  0.00    -0.182 A  
ENDBRANCH   8  10
ENDBRANCH   5   8
BRANCH   6  18
HETATM   18  C   UNL     1      -7.939  12.706  67.943  1.00  0.00    -0.156 C  
HETATM   19  O   UNL     1      -7.410  14.921  67.205  1.00  0.00    -0.199 OA 
HETATM   20  C   UNL     1      -8.249  14.033  67.287  1.00  0.00    -0.171 C  
HETATM   21  O   UNL     1      -9.488  14.208  66.778  1.00  0.00    -0.258 OA 
ENDBRANCH   6  18
TORSDOF 3
ENDMDL
MODEL      254
REMARK 921   NORMALIZED FREE ENERGY PREDICTED BY IDOCK:   -3.26 KCAL/MOL
REMARK 922        TOTAL FREE ENERGY PREDICTED BY IDOCK:   -4.06 KCAL/MOL
REMARK 923 INTER-LIGAND FREE ENERGY PREDICTED BY IDOCK:   -3.78 KCAL/MOL
REMARK 924 INTRA-LIGAND FREE ENERGY PREDICTED BY IDOCK:   -0.28 KCAL/MOL
REMARK 927      BINDING AFFINITY PREDICTED BY RF-SCORE:    0.00 PKD
ROOT
HETATM    1  C   UNL     1      -9.319  13.695  67.719  1.00  0.00    -0.218 C  
HETATM    2  C   UNL     1      -9.625  12.228  67.806  1.00  0.00    -0.200 A  
HETATM    3  C   UNL     1     -10.404  11.604  66.836  1.00  0.00    -0.253 A  
HETATM    4  C   UNL     1     -10.804  10.283  67.004  1.00  0.00    -0.248 A  
HETATM    5  C   UNL     1     -10.470   9.572  68.166  1.00  0.00    -0.223 A  
HETATM    6  C   UNL     1      -9.557  10.136  69.075  1.00  0.00    -0.202 A  
HETATM    7  C   UNL     1      -9.146  11.469  68.881  1.00  0.00     0.015 A  
ENDROOT
BRANCH   5   8
HETATM    8  N   UNL     1     -11.123   8.356  68.484  1.00  0.00    -0.344 NA 
HETATM    9  H   UNL     1     -12.118   8.411  68.703  1.00  0.00     0.000 HD 
BRANCH   8  10
HETATM   10  C   UNL     1     -10.523   7.063  68.528  1.00  0.00    -0.200 A  
HETATM   11  F   UNL     1     -12.206   6.379  70.046  1.00  0.00    -0.431 F  
HETATM   12  C   UNL     1     -11.074   6.096  69.383  1.00  0.00    -0.409 A  
HETATM   13  C   UNL     1      -9.385   6.684  67.784  1.00  0.00    -0.119 A  
HETATM   14 CL   UNL     1      -8.754   7.636  66.479  1.00  0.00    -0.147 Cl 
HETATM   15  C   UNL     1      -8.747   5.458  68.020  1.00  0.00    -0.106 A  
HETATM   16  C   UNL     1     -10.468   4.857  69.589  1.00  0.00    -0.037 A  
HETATM   17  C   UNL     1      -9.279   4.552  68.935  1.00  0.00    -0.190 A  
ENDBRANCH   8  10
ENDBRANCH   5   8
BRANCH   6  18
HETATM   18  C   UNL     1      -9.029   9.375  70.274  1.00  0.00    -0.277 C  
HETATM   19  O   UNL     1      -7.249   7.997  71.087  1.00  0.00    -0.052 OA 
HETATM   20  C   UNL     1      -7.705   8.654  70.160  1.00  0.00    -0.081 C  
HETATM   21  O   UNL     1      -7.039   8.747  68.989  1.00  0.00    -0.063 OA 
ENDBRANCH   6  18
TORSDOF 3
ENDMDL
MODEL      255
REMARK 921   NORMALIZED FREE ENERGY PREDICTED BY IDOCK:   -3.21 KCAL/MOL
REMARK 922        TOTAL FREE ENERGY PREDICTED BY IDOCK:   -4.00 KCAL/MOL
REMARK 923 INTER-LIGAND FREE ENERGY PREDICTED BY IDOCK:   -3.37 KCAL/MOL
REMARK 924 INTRA-LIGAND FREE ENERGY PREDICTED BY IDOCK:   -0.63 KCAL/MOL
REMARK 927      BINDING AFFINITY PREDICTED BY RF-SCORE:    0.00 PKD
ROOT
HETATM    1  C   UNL     1      -6.333   2.367  74.339  1.00  0.00    -0.016 C  
HETATM    2  C   UNL     1      -7.012   3.644  73.938  1.00  0.00    -0.047 A  
HETATM    3  C   UNL     1      -6.277   4.717  73.444  1.00  0.00    -0.033 A  
HETATM    4  C   UNL     1      -6.894   5.942  73.216  1.00  0.00    -0.083 A  
HETATM    5  C   UNL     1      -8.250   6.133  73.520  1.00  0.00    -0.111 A  
HETATM    6  C   UNL     1      -9.036   5.020  73.869  1.00  0.00    -0.112 A  
HETATM    7  C   UNL     1      -8.399   3.781  74.077  1.00  0.00    -0.090 A  
ENDROOT
BRANCH   5   8
HETATM    8  N   UNL     1      -8.801   7.436  73.589  1.00  0.00    -0.178 NA 
HETATM    9  H   UNL     1      -8.860   7.863  74.512  1.00  0.00     0.000 HD 
BRANCH   8  10
HETATM   10  C   UNL     1      -9.281   8.206  72.489  1.00  0.00    -0.251 A  
HETATM   11  F   UNL     1     -11.474   8.005  73.360  1.00  0.00    -0.361 F  
HETATM   12  C   UNL     1     -10.664   8.427  72.378  1.00  0.00    -0.335 A  
HETATM   13  C   UNL     1      -8.464   8.751  71.475  1.00  0.00    -0.167 A  
HETATM   14 CL   UNL     1      -6.736   8.827  71.600  1.00  0.00    -0.079 Cl 
HETATM   15  C   UNL     1      -9.028   9.336  70.333  1.00  0.00    -0.278 A  
HETATM   16  C   UNL     1     -11.227   9.050  71.264  1.00  0.00    -0.385 A  
HETATM   17  C   UNL     1     -10.410   9.469  70.220  1.00  0.00    -0.321 A  
ENDBRANCH   8  10
ENDBRANCH   5   8
BRANCH   6  18
HETATM   18  C   UNL     1     -10.535   5.113  74.066  1.00  0.00    -0.323 C  
HETATM   19  O   UNL     1     -12.655   5.143  72.954  1.00  0.00     0.105 OA 
HETATM   20  C   UNL     1     -11.439   5.039  72.855  1.00  0.00    -0.226 C  
HETATM   21  O   UNL     1     -10.859   4.864  71.649  1.00  0.00    -0.075 OA 
ENDBRANCH   6  18
TORSDOF 3
ENDMDL
MODEL      256
REMARK 921   NORMALIZED FREE ENERGY PREDICTED BY IDOCK:   -3.17 KCAL/MOL
REMARK 922        TOTAL FREE ENERGY PREDICTED BY IDOCK:   -3.96 KCAL/MOL
REMARK 923 INTER-LIGAND FREE ENERGY PREDICTED BY IDOCK:   -4.19 KCAL/MOL
REMARK 924 INTRA-LIGAND FREE ENERGY PREDICTED BY IDOCK:    0.23 KCAL/MOL
REMARK 927      BINDING AFFINITY PREDICTED BY RF-SCORE:    0.00 PKD
ROOT
HETATM    1  C   UNL     1      -6.766   5.232  67.448  1.00  0.00    -0.055 C  
HETATM    2  C   UNL     1      -7.585   6.076  68.381  1.00  0.00    -0.091 A  
HETATM    3  C   UNL     1      -8.600   6.894  67.896  1.00  0.00    -0.122 A  
HETATM    4  C   UNL     1      -9.251   7.780  68.747  1.00  0.00    -0.139 A  
HETATM    5  C   UNL     1      -8.870   7.898  70.092  1.00  0.00    -0.144 A  
HETATM    6  C   UNL     1      -7.958   6.971  70.629  1.00  0.00    -0.109 A  
HETATM    7  C   UNL     1      -7.321   6.067  69.757  1.00  0.00    -0.079 A  
ENDROOT
BRANCH   5   8
HETATM    8  N   UNL     1      -9.302   8.997  70.874  1.00  0.00    -0.241 NA 
HETATM    9  H   UNL     1      -8.577   9.578  71.293  1.00  0.00     0.000 HD 
BRANCH   8  10
HETATM   10  C   UNL     1     -10.655   9.366  71.133  1.00  0.00    -0.333 A  
HETATM   11  F   UNL     1     -10.517  10.942  69.370  1.00  0.00    -0.220 F  
HETATM   12  C   UNL     1     -11.222  10.406  70.378  1.00  0.00    -0.321 A  
HETATM   13  C   UNL     1     -11.472   8.775  72.120  1.00  0.00    -0.351 A  
HETATM   14 CL   UNL     1     -11.045   7.306  72.937  1.00  0.00    -0.358 Cl 
HETATM   15  C   UNL     1     -12.726   9.317  72.437  1.00  0.00    -0.383 A  
HETATM   16  C   UNL     1     -12.488  10.920  70.660  1.00  0.00    -0.460 A  
HETATM   17  C   UNL     1     -13.225  10.401  71.718  1.00  0.00    -0.529 A  
ENDBRANCH   8  10
ENDBRANCH   5   8
BRANCH   6  18
HETATM   18  C   UNL     1      -7.609   6.934  72.102  1.00  0.00    -0.092 C  
HETATM   19  O   UNL     1      -6.350   5.788  73.785  1.00  0.00    -0.065 OA 
HETATM   20  C   UNL     1      -6.641   5.884  72.599  1.00  0.00    -0.068 C  
HETATM   21  O   UNL     1      -6.110   5.039  71.690  1.00  0.00    -0.026 OA 
ENDBRANCH   6  18
TORSDOF 3
ENDMDL
MODEL      257
REMARK 921   NORMALIZED FREE ENERGY PREDICTED BY IDOCK:   -3.17 KCAL/MOL
REMARK 922        TOTAL FREE ENERGY PREDICTED BY IDOCK:   -3.96 KCAL/MOL
REMARK 923 INTER-LIGAND FREE ENERGY PREDICTED BY IDOCK:   -3.40 KCAL/MOL
REMARK 924 INTRA-LIGAND FREE ENERGY PREDICTED BY IDOCK:   -0.56 KCAL/MOL
REMARK 927      BINDING AFFINITY PREDICTED BY RF-SCORE:    0.00 PKD
ROOT
HETATM    1  C   UNL     1      -8.294  12.211  67.844  1.00  0.00    -0.161 C  
HETATM    2  C   UNL     1      -8.543  10.790  67.427  1.00  0.00    -0.126 A  
HETATM    3  C   UNL     1      -8.761  10.468  66.092  1.00  0.00    -0.167 A  
HETATM    4  C   UNL     1      -9.137   9.177  65.737  1.00  0.00    -0.265 A  
HETATM    5  C   UNL     1      -9.344   8.193  66.715  1.00  0.00    -0.183 A  
HETATM    6  C   UNL     1      -8.976   8.462  68.045  1.00  0.00    -0.138 A  
HETATM    7  C   UNL     1      -8.579   9.769  68.386  1.00  0.00    -0.119 A  
ENDROOT
BRANCH   5   8
HETATM    8  N   UNL     1     -10.018   6.987  66.399  1.00  0.00    -0.428 NA 
HETATM    9  H   UNL     1     -11.026   7.046  66.261  1.00  0.00     0.000 HD 
BRANCH   8  10
HETATM   10  C   UNL     1      -9.420   5.701  66.255  1.00  0.00    -0.155 A  
HETATM   11  F   UNL     1     -10.771   4.921  68.037  1.00  0.00    -0.100 F  
HETATM   12  C   UNL     1      -9.792   4.685  67.151  1.00  0.00    -0.195 A  
HETATM   13  C   UNL     1      -8.451   5.372  65.284  1.00  0.00    -0.149 A  
HETATM   14 CL   UNL     1      -8.089   6.397  63.932  1.00  0.00    -0.080 Cl 
HETATM   15  C   UNL     1      -7.778   4.143  65.325  1.00  0.00    -0.085 A  
HETATM   16  C   UNL     1      -9.157   3.443  67.167  1.00  0.00    -0.196 A  
HETATM   17  C   UNL     1      -8.119   3.186  66.278  1.00  0.00    -0.089 A  
ENDBRANCH   8  10
ENDBRANCH   5   8
BRANCH   6  18
HETATM   18  C   UNL     1      -9.026   7.407  69.132  1.00  0.00    -0.135 C  
HETATM   19  O   UNL     1     -10.242   6.619  71.038  1.00  0.00    -0.190 OA 
HETATM   20  C   UNL     1     -10.171   7.427  70.120  1.00  0.00    -0.205 C  
HETATM   21  O   UNL     1     -11.117   8.378  69.966  1.00  0.00    -0.235 OA 
ENDBRANCH   6  18
TORSDOF 3
ENDMDL
MODEL      258
REMARK 921   NORMALIZED FREE ENERGY PREDICTED BY IDOCK:   -3.11 KCAL/MOL
REMARK 922        TOTAL FREE ENERGY PREDICTED BY IDOCK:   -3.88 KCAL/MOL
REMARK 923 INTER-LIGAND FREE ENERGY PREDICTED BY IDOCK:   -3.88 KCAL/MOL
REMARK 924 INTRA-LIGAND FREE ENERGY PREDICTED BY IDOCK:   -0.00 KCAL/MOL
REMARK 927      BINDING AFFINITY PREDICTED BY RF-SCORE:    0.00 PKD
ROOT
HETATM    1  C   UNL     1      -7.409  11.011  67.851  1.00  0.00    -0.092 C  
HETATM    2  C   UNL     1      -7.328  12.507  67.942  1.00  0.00    -0.115 A  
HETATM    3  C   UNL     1      -6.165  13.180  67.582  1.00  0.00    -0.156 A  
HETATM    4  C   UNL     1      -6.050  14.547  67.810  1.00  0.00    -0.133 A  
HETATM    5  C   UNL     1      -7.078  15.261  68.443  1.00  0.00    -0.111 A  
HETATM    6  C   UNL     1      -8.314  14.627  68.666  1.00  0.00    -0.165 A  
HETATM    7  C   UNL     1      -8.421  13.246  68.412  1.00  0.00    -0.128 A  
ENDROOT
BRANCH   5   8
HETATM    8  N   UNL     1      -6.849  16.562  68.955  1.00  0.00    -0.173 NA 
HETATM    9  H   UNL     1      -6.860  16.666  69.969  1.00  0.00     0.000 HD 
BRANCH   8  10
HETATM   10  C   UNL     1      -6.606  17.738  68.187  1.00  0.00    -0.191 A  
HETATM   11  F   UNL     1      -7.630  16.687  66.329  1.00  0.00    -0.283 F  
HETATM   12  C   UNL     1      -6.970  17.742  66.831  1.00  0.00    -0.180 A  
HETATM   13  C   UNL     1      -5.997  18.909  68.688  1.00  0.00    -0.216 A  
HETATM   14 CL   UNL     1      -5.750  19.190  70.381  1.00  0.00    -0.254 Cl 
HETATM   15  C   UNL     1      -5.626  19.952  67.827  1.00  0.00    -0.209 A  
HETATM   16  C   UNL     1      -6.643  18.796  65.979  1.00  0.00    -0.270 A  
HETATM   17  C   UNL     1      -5.933  19.887  66.470  1.00  0.00    -0.178 A  
ENDBRANCH   8  10
ENDBRANCH   5   8
BRANCH   6  18
HETATM   18  C   UNL     1      -9.521  15.367  69.205  1.00  0.00    -0.242 C  
HETATM   19  O   UNL     1     -11.415  16.707  68.618  1.00  0.00    -0.255 OA 
HETATM   20  C   UNL     1     -10.444  16.067  68.233  1.00  0.00    -0.269 C  
HETATM   21  O   UNL     1     -10.158  15.975  66.917  1.00  0.00    -0.253 OA 
ENDBRANCH   6  18
TORSDOF 3
ENDMDL
MODEL      259
REMARK 921   NORMALIZED FREE ENERGY PREDICTED BY IDOCK:   -2.97 KCAL/MOL
REMARK 922        TOTAL FREE ENERGY PREDICTED BY IDOCK:   -3.71 KCAL/MOL
REMARK 923 INTER-LIGAND FREE ENERGY PREDICTED BY IDOCK:   -4.98 KCAL/MOL
REMARK 924 INTRA-LIGAND FREE ENERGY PREDICTED BY IDOCK:    1.27 KCAL/MOL
REMARK 927      BINDING AFFINITY PREDICTED BY RF-SCORE:    0.00 PKD
ROOT
HETATM    1  C   UNL     1     -10.123   2.722  72.229  1.00  0.00    -0.225 C  
HETATM    2  C   UNL     1     -10.331   4.207  72.163  1.00  0.00    -0.172 A  
HETATM    3  C   UNL     1     -10.364   4.974  73.324  1.00  0.00    -0.232 A  
HETATM    4  C   UNL     1     -10.704   6.321  73.262  1.00  0.00    -0.284 A  
HETATM    5  C   UNL     1     -11.061   6.918  72.044  1.00  0.00    -0.245 A  
HETATM    6  C   UNL     1     -10.880   6.198  70.849  1.00  0.00    -0.342 A  
HETATM    7  C   UNL     1     -10.516   4.840  70.928  1.00  0.00    -0.107 A  
ENDROOT
BRANCH   5   8
HETATM    8  N   UNL     1     -11.701   8.182  72.017  1.00  0.00    -0.310 NA 
HETATM    9  H   UNL     1     -12.521   8.296  72.612  1.00  0.00     0.000 HD 
BRANCH   8  10
HETATM   10  C   UNL     1     -11.307   9.308  71.236  1.00  0.00    -0.353 A  
HETATM   11  F   UNL     1     -13.542  10.088  71.311  1.00  0.00    -0.402 F  
HETATM   12  C   UNL     1     -12.291  10.232  70.848  1.00  0.00    -0.373 A  
HETATM   13  C   UNL     1      -9.989   9.557  70.798  1.00  0.00    -0.264 A  
HETATM   14 CL   UNL     1      -8.615   8.697  71.413  1.00  0.00    -0.225 Cl 
HETATM   15  C   UNL     1      -9.717  10.584  69.883  1.00  0.00     0.098 A  
HETATM   16  C   UNL     1     -12.016  11.283  69.973  1.00  0.00    -0.447 A  
HETATM   17  C   UNL     1     -10.734  11.435  69.456  1.00  0.00    -0.098 A  
ENDBRANCH   8  10
ENDBRANCH   5   8
BRANCH   6  18
HETATM   18  C   UNL     1     -11.097   6.819  69.485  1.00  0.00    -0.324 C  
HETATM   19  O   UNL     1     -10.916   6.466  67.124  1.00  0.00    -0.354 OA 
HETATM   20  C   UNL     1     -10.790   6.002  68.251  1.00  0.00    -0.284 C  
HETATM   21  O   UNL     1     -10.359   4.734  68.428  1.00  0.00    -0.041 OA 
ENDBRANCH   6  18
TORSDOF 3
ENDMDL
MODEL      260
REMARK 921   NORMALIZED FREE ENERGY PREDICTED BY IDOCK:   -2.94 KCAL/MOL
REMARK 922        TOTAL FREE ENERGY PREDICTED BY IDOCK:   -3.68 KCAL/MOL
REMARK 923 INTER-LIGAND FREE ENERGY PREDICTED BY IDOCK:   -3.72 KCAL/MOL
REMARK 924 INTRA-LIGAND FREE ENERGY PREDICTED BY IDOCK:    0.04 KCAL/MOL
REMARK 927      BINDING AFFINITY PREDICTED BY RF-SCORE:    0.00 PKD
ROOT
HETATM    1  C   UNL     1      -6.428   9.126  71.395  1.00  0.00    -0.067 C  
HETATM    2  C   UNL     1      -6.863   9.487  70.004  1.00  0.00    -0.075 A  
HETATM    3  C   UNL     1      -6.067   9.176  68.907  1.00  0.00    -0.044 A  
HETATM    4  C   UNL     1      -6.407   9.644  67.642  1.00  0.00    -0.057 A  
HETATM    5  C   UNL     1      -7.525  10.470  67.456  1.00  0.00    -0.093 A  
HETATM    6  C   UNL     1      -8.420  10.660  68.525  1.00  0.00    -0.136 A  
HETATM    7  C   UNL     1      -8.072  10.163  69.795  1.00  0.00    -0.167 A  
ENDROOT
BRANCH   5   8
HETATM    8  N   UNL     1      -7.698  11.196  66.253  1.00  0.00    -0.282 NA 
HETATM    9  H   UNL     1      -7.457  12.187  66.273  1.00  0.00     0.000 HD 
BRANCH   8  10
HETATM   10  C   UNL     1      -8.179  10.675  65.016  1.00  0.00    -0.074 A  
HETATM   11  F   UNL     1      -6.142   9.492  64.771  1.00  0.00    -0.068 F  
HETATM   12  C   UNL     1      -7.330   9.851  64.260  1.00  0.00    -0.133 A  
HETATM   13  C   UNL     1      -9.453  10.947  64.473  1.00  0.00    -0.244 A  
HETATM   14 CL   UNL     1     -10.724  11.694  65.386  1.00  0.00    -0.333 Cl 
HETATM   15  C   UNL     1      -9.781  10.547  63.170  1.00  0.00    -0.351 A  
HETATM   16  C   UNL     1      -7.668   9.413  62.980  1.00  0.00    -0.119 A  
HETATM   17  C   UNL     1      -8.881   9.796  62.417  1.00  0.00    -0.263 A  
ENDBRANCH   8  10
ENDBRANCH   5   8
BRANCH   6  18
HETATM   18  C   UNL     1      -9.727  11.411  68.367  1.00  0.00    -0.203 C  
HETATM   19  O   UNL     1     -12.112  11.209  68.374  1.00  0.00    -0.605 OA 
HETATM   20  C   UNL     1     -11.028  10.658  68.525  1.00  0.00    -0.248 C  
HETATM   21  O   UNL     1     -10.961   9.344  68.828  1.00  0.00    -0.159 OA 
ENDBRANCH   6  18
TORSDOF 3
ENDMDL
MODEL      261
REMARK 921   NORMALIZED FREE ENERGY PREDICTED BY IDOCK:   -2.91 KCAL/MOL
REMARK 922        TOTAL FREE ENERGY PREDICTED BY IDOCK:   -3.64 KCAL/MOL
REMARK 923 INTER-LIGAND FREE ENERGY PREDICTED BY IDOCK:   -2.83 KCAL/MOL
REMARK 924 INTRA-LIGAND FREE ENERGY PREDICTED BY IDOCK:   -0.81 KCAL/MOL
REMARK 927      BINDING AFFINITY PREDICTED BY RF-SCORE:    0.00 PKD
ROOT
HETATM    1  C   UNL     1     -11.642  10.508  69.070  1.00  0.00    -0.278 C  
HETATM    2  C   UNL     1     -10.728   9.818  68.100  1.00  0.00    -0.280 A  
HETATM    3  C   UNL     1     -10.868   8.460  67.832  1.00  0.00    -0.037 A  
HETATM    4  C   UNL     1      -9.927   7.802  67.048  1.00  0.00    -0.314 A  
HETATM    5  C   UNL     1      -8.802   8.478  66.553  1.00  0.00    -0.140 A  
HETATM    6  C   UNL     1      -8.732   9.877  66.684  1.00  0.00    -0.138 A  
HETATM    7  C   UNL     1      -9.704  10.532  67.465  1.00  0.00    -0.190 A  
ENDROOT
BRANCH   5   8
HETATM    8  N   UNL     1      -7.697   7.762  66.030  1.00  0.00    -0.090 NA 
HETATM    9  H   UNL     1      -6.793   7.924  66.471  1.00  0.00     0.000 HD 
BRANCH   8  10
HETATM   10  C   UNL     1      -7.730   6.837  64.945  1.00  0.00    -0.110 A  
HETATM   11  F   UNL     1      -7.539   5.066  66.504  1.00  0.00    -0.083 F  
HETATM   12  C   UNL     1      -7.589   5.469  65.226  1.00  0.00    -0.080 A  
HETATM   13  C   UNL     1      -7.872   7.200  63.588  1.00  0.00    -0.106 A  
HETATM   14 CL   UNL     1      -8.343   8.791  63.084  1.00  0.00    -0.186 Cl 
HETATM   15  C   UNL     1      -7.710   6.250  62.569  1.00  0.00    -0.088 A  
HETATM   16  C   UNL     1      -7.473   4.513  64.216  1.00  0.00    -0.071 A  
HETATM   17  C   UNL     1      -7.492   4.911  62.883  1.00  0.00    -0.049 A  
ENDBRANCH   8  10
ENDBRANCH   5   8
BRANCH   6  18
HETATM   18  C   UNL     1      -7.630  10.699  66.048  1.00  0.00    -0.142 C  
HETATM   19  O   UNL     1      -5.551  11.820  66.439  1.00  0.00    -0.274 OA 
HETATM   20  C   UNL     1      -6.453  11.126  66.895  1.00  0.00    -0.117 C  
HETATM   21  O   UNL     1      -6.428  10.726  68.184  1.00  0.00    -0.057 OA 
ENDBRANCH   6  18
TORSDOF 3
ENDMDL
MODEL      262
REMARK 921   NORMALIZED FREE ENERGY PREDICTED BY IDOCK:   -2.86 KCAL/MOL
REMARK 922        TOTAL FREE ENERGY PREDICTED BY IDOCK:   -3.59 KCAL/MOL
REMARK 923 INTER-LIGAND FREE ENERGY PREDICTED BY IDOCK:   -3.23 KCAL/MOL
REMARK 924 INTRA-LIGAND FREE ENERGY PREDICTED BY IDOCK:   -0.36 KCAL/MOL
REMARK 927      BINDING AFFINITY PREDICTED BY RF-SCORE:    0.00 PKD
ROOT
HETATM    1  C   UNL     1      -9.465  11.052  63.258  1.00  0.00    -0.346 C  
HETATM    2  C   UNL     1      -9.328  10.591  64.680  1.00  0.00    -0.294 A  
HETATM    3  C   UNL     1      -9.127  11.506  65.709  1.00  0.00    -0.164 A  
HETATM    4  C   UNL     1      -8.854  11.061  66.997  1.00  0.00    -0.143 A  
HETATM    5  C   UNL     1      -8.731   9.692  67.275  1.00  0.00    -0.132 A  
HETATM    6  C   UNL     1      -9.086   8.758  66.284  1.00  0.00    -0.240 A  
HETATM    7  C   UNL     1      -9.379   9.226  64.989  1.00  0.00    -0.196 A  
ENDROOT
BRANCH   5   8
HETATM    8  N   UNL     1      -8.154   9.247  68.490  1.00  0.00    -0.105 NA 
HETATM    9  H   UNL     1      -7.196   9.540  68.679  1.00  0.00     0.000 HD 
BRANCH   8  10
HETATM   10  C   UNL     1      -8.785   8.428  69.472  1.00  0.00    -0.137 A  
HETATM   11  F   UNL     1      -6.657   7.577  70.068  1.00  0.00    -0.038 F  
HETATM   12  C   UNL     1      -7.990   7.545  70.221  1.00  0.00    -0.103 A  
HETATM   13  C   UNL     1     -10.171   8.420  69.737  1.00  0.00    -0.207 A  
HETATM   14 CL   UNL     1     -11.252   9.630  69.127  1.00  0.00    -0.120 Cl 
HETATM   15  C   UNL     1     -10.735   7.458  70.586  1.00  0.00    -0.242 A  
HETATM   16  C   UNL     1      -8.542   6.615  71.101  1.00  0.00    -0.130 A  
HETATM   17  C   UNL     1      -9.923   6.544  71.254  1.00  0.00    -0.200 A  
ENDBRANCH   8  10
ENDBRANCH   5   8
BRANCH   6  18
HETATM   18  C   UNL     1      -9.126   7.267  66.550  1.00  0.00    -0.186 C  
HETATM   19  O   UNL     1      -7.810   5.275  66.726  1.00  0.00    -0.099 OA 
HETATM   20  C   UNL     1      -7.831   6.487  66.551  1.00  0.00    -0.104 C  
HETATM   21  O   UNL     1      -6.686   7.171  66.339  1.00  0.00    -0.050 OA 
ENDBRANCH   6  18
TORSDOF 3
ENDMDL
MODEL      263
REMARK 921   NORMALIZED FREE ENERGY PREDICTED BY IDOCK:   -2.84 KCAL/MOL
REMARK 922        TOTAL FREE ENERGY PREDICTED BY IDOCK:   -3.56 KCAL/MOL
REMARK 923 INTER-LIGAND FREE ENERGY PREDICTED BY IDOCK:   -3.78 KCAL/MOL
REMARK 924 INTRA-LIGAND FREE ENERGY PREDICTED BY IDOCK:    0.22 KCAL/MOL
REMARK 927      BINDING AFFINITY PREDICTED BY RF-SCORE:    0.00 PKD
ROOT
HETATM    1  C   UNL     1      -6.779   7.573  64.322  1.00  0.00    -0.048 C  
HETATM    2  C   UNL     1      -7.117   8.130  65.675  1.00  0.00    -0.067 A  
HETATM    3  C   UNL     1      -6.258   7.949  66.754  1.00  0.00    -0.053 A  
HETATM    4  C   UNL     1      -6.649   8.339  68.031  1.00  0.00    -0.057 A  
HETATM    5  C   UNL     1      -7.923   8.877  68.261  1.00  0.00    -0.105 A  
HETATM    6  C   UNL     1      -8.735   9.209  67.161  1.00  0.00    -0.130 A  
HETATM    7  C   UNL     1      -8.317   8.825  65.872  1.00  0.00    -0.131 A  
ENDROOT
BRANCH   5   8
HETATM    8  N   UNL     1      -8.439   8.983  69.576  1.00  0.00    -0.121 NA 
HETATM    9  H   UNL     1      -8.000   9.669  70.189  1.00  0.00     0.000 HD 
BRANCH   8  10
HETATM   10  C   UNL     1      -9.512   8.220  70.124  1.00  0.00    -0.167 A  
HETATM   11  F   UNL     1      -8.126   6.301  70.062  1.00  0.00    -0.109 F  
HETATM   12  C   UNL     1      -9.331   6.839  70.304  1.00  0.00    -0.159 A  
HETATM   13  C   UNL     1     -10.770   8.751  70.481  1.00  0.00    -0.223 A  
HETATM   14 CL   UNL     1     -11.073  10.455  70.599  1.00  0.00    -0.358 Cl 
HETATM   15  C   UNL     1     -11.832   7.908  70.838  1.00  0.00    -0.242 A  
HETATM   16  C   UNL     1     -10.372   6.001  70.703  1.00  0.00    -0.280 A  
HETATM   17  C   UNL     1     -11.637   6.532  70.931  1.00  0.00    -0.417 A  
ENDBRANCH   8  10
ENDBRANCH   5   8
BRANCH   6  18
HETATM   18  C   UNL     1     -10.059   9.929  67.315  1.00  0.00    -0.264 C  
HETATM   19  O   UNL     1     -11.555  11.506  66.313  1.00  0.00    -0.382 OA 
HETATM   20  C   UNL     1     -10.510  10.873  66.223  1.00  0.00    -0.245 C  
HETATM   21  O   UNL     1      -9.715  11.007  65.140  1.00  0.00    -0.224 OA 
ENDBRANCH   6  18
TORSDOF 3
ENDMDL
MODEL      264
REMARK 921   NORMALIZED FREE ENERGY PREDICTED BY IDOCK:   -2.76 KCAL/MOL
REMARK 922        TOTAL FREE ENERGY PREDICTED BY IDOCK:   -3.47 KCAL/MOL
REMARK 923 INTER-LIGAND FREE ENERGY PREDICTED BY IDOCK:   -3.21 KCAL/MOL
REMARK 924 INTRA-LIGAND FREE ENERGY PREDICTED BY IDOCK:   -0.25 KCAL/MOL
REMARK 927      BINDING AFFINITY PREDICTED BY RF-SCORE:    0.00 PKD
ROOT
HETATM    1  C   UNL     1      -8.361  12.303  67.828  1.00  0.00    -0.162 C  
HETATM    2  C   UNL     1      -8.526  10.891  67.347  1.00  0.00    -0.120 A  
HETATM    3  C   UNL     1      -8.837  10.622  66.018  1.00  0.00    -0.187 A  
HETATM    4  C   UNL     1      -9.133   9.324  65.617  1.00  0.00    -0.268 A  
HETATM    5  C   UNL     1      -9.167   8.274  66.546  1.00  0.00    -0.187 A  
HETATM    6  C   UNL     1      -8.704   8.502  67.855  1.00  0.00    -0.138 A  
HETATM    7  C   UNL     1      -8.389   9.820  68.240  1.00  0.00    -0.106 A  
ENDROOT
BRANCH   5   8
HETATM    8  N   UNL     1      -9.763   7.032  66.215  1.00  0.00    -0.404 NA 
HETATM    9  H   UNL     1     -10.776   6.966  66.314  1.00  0.00     0.000 HD 
BRANCH   8  10
HETATM   10  C   UNL     1      -9.082   5.866  65.758  1.00  0.00    -0.087 A  
HETATM   11  F   UNL     1      -8.082   7.171  64.053  1.00  0.00    -0.131 F  
HETATM   12  C   UNL     1      -8.274   5.967  64.613  1.00  0.00    -0.120 A  
HETATM   13  C   UNL     1      -9.177   4.595  66.362  1.00  0.00    -0.133 A  
HETATM   14 CL   UNL     1      -9.883   4.347  67.927  1.00  0.00    -0.177 Cl 
HETATM   15  C   UNL     1      -8.625   3.462  65.747  1.00  0.00    -0.117 A  
HETATM   16  C   UNL     1      -7.686   4.849  64.021  1.00  0.00    -0.077 A  
HETATM   17  C   UNL     1      -7.895   3.587  64.567  1.00  0.00    -0.085 A  
ENDBRANCH   8  10
ENDBRANCH   5   8
BRANCH   6  18
HETATM   18  C   UNL     1      -8.566   7.390  68.874  1.00  0.00    -0.129 C  
HETATM   19  O   UNL     1      -9.578   6.343  70.774  1.00  0.00    -0.177 OA 
HETATM   20  C   UNL     1      -9.656   7.204  69.906  1.00  0.00    -0.163 C  
HETATM   21  O   UNL     1     -10.722   8.031  69.850  1.00  0.00    -0.244 OA 
ENDBRANCH   6  18
TORSDOF 3
ENDMDL
MODEL      265
REMARK 921   NORMALIZED FREE ENERGY PREDICTED BY IDOCK:   -2.43 KCAL/MOL
REMARK 922        TOTAL FREE ENERGY PREDICTED BY IDOCK:   -3.09 KCAL/MOL
REMARK 923 INTER-LIGAND FREE ENERGY PREDICTED BY IDOCK:   -2.77 KCAL/MOL
REMARK 924 INTRA-LIGAND FREE ENERGY PREDICTED BY IDOCK:   -0.32 KCAL/MOL
REMARK 927      BINDING AFFINITY PREDICTED BY RF-SCORE:    0.00 PKD
ROOT
HETATM    1  C   UNL     1      -6.304   2.789  74.487  1.00  0.00    -0.016 C  
HETATM    2  C   UNL     1      -6.728   4.007  73.719  1.00  0.00    -0.053 A  
HETATM    3  C   UNL     1      -5.795   4.772  73.026  1.00  0.00    -0.017 A  
HETATM    4  C   UNL     1      -6.174   5.976  72.443  1.00  0.00    -0.045 A  
HETATM    5  C   UNL     1      -7.483   6.462  72.578  1.00  0.00    -0.095 A  
HETATM    6  C   UNL     1      -8.468   5.628  73.137  1.00  0.00    -0.117 A  
HETATM    7  C   UNL     1      -8.072   4.402  73.707  1.00  0.00    -0.097 A  
ENDROOT
BRANCH   5   8
HETATM    8  N   UNL     1      -7.792   7.808  72.266  1.00  0.00    -0.101 NA 
HETATM    9  H   UNL     1      -7.664   8.495  73.008  1.00  0.00     0.000 HD 
BRANCH   8  10
HETATM   10  C   UNL     1      -8.267   8.294  71.012  1.00  0.00    -0.112 A  
HETATM   11  F   UNL     1      -6.356   7.358  69.973  1.00  0.00    -0.027 F  
HETATM   12  C   UNL     1      -7.475   8.092  69.870  1.00  0.00    -0.069 A  
HETATM   13  C   UNL     1      -9.480   8.993  70.832  1.00  0.00    -0.267 A  
HETATM   14 CL   UNL     1     -10.706   9.080  72.055  1.00  0.00    -0.402 Cl 
HETATM   15  C   UNL     1      -9.787   9.597  69.605  1.00  0.00    -0.233 A  
HETATM   16  C   UNL     1      -7.799   8.653  68.635  1.00  0.00    -0.107 A  
HETATM   17  C   UNL     1      -8.938   9.442  68.512  1.00  0.00    -0.128 A  
ENDBRANCH   8  10
ENDBRANCH   5   8
BRANCH   6  18
HETATM   18  C   UNL     1      -9.931   6.015  73.183  1.00  0.00    -0.187 C  
HETATM   19  O   UNL     1     -12.020   5.908  72.018  1.00  0.00    -0.244 OA 
HETATM   20  C   UNL     1     -10.837   5.593  72.048  1.00  0.00    -0.242 C  
HETATM   21  O   UNL     1     -10.295   4.859  71.052  1.00  0.00    -0.208 OA 
ENDBRANCH   6  18
TORSDOF 3
ENDMDL
MODEL      266
REMARK 921   NORMALIZED FREE ENERGY PREDICTED BY IDOCK:   -2.35 KCAL/MOL
REMARK 922        TOTAL FREE ENERGY PREDICTED BY IDOCK:   -2.98 KCAL/MOL
REMARK 923 INTER-LIGAND FREE ENERGY PREDICTED BY IDOCK:   -2.56 KCAL/MOL
REMARK 924 INTRA-LIGAND FREE ENERGY PREDICTED BY IDOCK:   -0.42 KCAL/MOL
REMARK 927      BINDING AFFINITY PREDICTED BY RF-SCORE:    0.00 PKD
ROOT
HETATM    1  C   UNL     1      -8.583   4.562  72.203  1.00  0.00    -0.119 C  
HETATM    2  C   UNL     1      -8.407   5.339  70.931  1.00  0.00    -0.116 A  
HETATM    3  C   UNL     1      -7.309   5.116  70.106  1.00  0.00    -0.062 A  
HETATM    4  C   UNL     1      -7.079   5.941  69.011  1.00  0.00    -0.069 A  
HETATM    5  C   UNL     1      -7.916   7.034  68.744  1.00  0.00    -0.120 A  
HETATM    6  C   UNL     1      -9.111   7.176  69.473  1.00  0.00    -0.146 A  
HETATM    7  C   UNL     1      -9.339   6.319  70.568  1.00  0.00    -0.171 A  
ENDROOT
BRANCH   5   8
HETATM    8  N   UNL     1      -7.520   8.047  67.836  1.00  0.00    -0.092 NA 
HETATM    9  H   UNL     1      -7.311   7.755  66.882  1.00  0.00     0.000 HD 
BRANCH   8  10
HETATM   10  C   UNL     1      -7.385   9.436  68.131  1.00  0.00    -0.078 A  
HETATM   11  F   UNL     1      -5.707   8.895  69.712  1.00  0.00    -0.029 F  
HETATM   12  C   UNL     1      -6.486   9.825  69.137  1.00  0.00    -0.044 A  
HETATM   13  C   UNL     1      -8.114  10.463  67.494  1.00  0.00    -0.107 A  
HETATM   14 CL   UNL     1      -9.040  10.205  66.051  1.00  0.00    -0.173 Cl 
HETATM   15  C   UNL     1      -8.060  11.783  67.966  1.00  0.00    -0.145 A  
HETATM   16  C   UNL     1      -6.395  11.144  69.580  1.00  0.00    -0.119 A  
HETATM   17  C   UNL     1      -7.214  12.119  69.020  1.00  0.00    -0.037 A  
ENDBRANCH   8  10
ENDBRANCH   5   8
BRANCH   6  18
HETATM   18  C   UNL     1     -10.141   8.237  69.149  1.00  0.00    -0.205 C  
HETATM   19  O   UNL     1     -11.237  10.209  69.950  1.00  0.00    -0.253 OA 
HETATM   20  C   UNL     1     -10.392   9.345  70.147  1.00  0.00    -0.233 C  
HETATM   21  O   UNL     1      -9.657   9.347  71.280  1.00  0.00    -0.241 OA 
ENDBRANCH   6  18
TORSDOF 3
ENDMDL
MODEL      267
REMARK 921   NORMALIZED FREE ENERGY PREDICTED BY IDOCK:   -1.49 KCAL/MOL
REMARK 922        TOTAL FREE ENERGY PREDICTED BY IDOCK:   -1.97 KCAL/MOL
REMARK 923 INTER-LIGAND FREE ENERGY PREDICTED BY IDOCK:   -3.78 KCAL/MOL
REMARK 924 INTRA-LIGAND FREE ENERGY PREDICTED BY IDOCK:    1.80 KCAL/MOL
REMARK 927      BINDING AFFINITY PREDICTED BY RF-SCORE:    0.00 PKD
ROOT
HETATM    1  C   UNL     1     -12.662  11.868  63.226  1.00  0.00    -0.407 C  
HETATM    2  C   UNL     1     -12.110  12.656  64.378  1.00  0.00    -0.487 A  
HETATM    3  C   UNL     1     -12.166  14.046  64.382  1.00  0.00    -0.457 A  
HETATM    4  C   UNL     1     -11.521  14.769  65.380  1.00  0.00    -0.341 A  
HETATM    5  C   UNL     1     -10.769  14.118  66.369  1.00  0.00    -0.288 A  
HETATM    6  C   UNL     1     -10.835  12.716  66.467  1.00  0.00    -0.285 A  
HETATM    7  C   UNL     1     -11.508  11.999  65.459  1.00  0.00    -0.368 A  
ENDROOT
BRANCH   5   8
HETATM    8  N   UNL     1      -9.868  14.842  67.188  1.00  0.00    -0.230 NA 
HETATM    9  H   UNL     1      -8.948  15.042  66.796  1.00  0.00     0.000 HD 
BRANCH   8  10
HETATM   10  C   UNL     1     -10.124  15.316  68.508  1.00  0.00    -0.222 A  
HETATM   11  F   UNL     1     -10.095  13.075  69.274  1.00  0.00     0.010 F  
HETATM   12  C   UNL     1     -10.290  14.376  69.538  1.00  0.00     0.049 A  
HETATM   13  C   UNL     1     -10.249  16.677  68.859  1.00  0.00    -0.284 A  
HETATM   14 CL   UNL     1      -9.795  17.969  67.795  1.00  0.00    -0.293 Cl 
HETATM   15  C   UNL     1     -10.683  17.053  70.138  1.00  0.00     0.283 A  
HETATM   16  C   UNL     1     -10.678  14.748  70.825  1.00  0.00     0.209 A  
HETATM   17  C   UNL     1     -10.915  16.088  71.115  1.00  0.00    -0.026 A  
ENDBRANCH   8  10
ENDBRANCH   5   8
BRANCH   6  18
HETATM   18  C   UNL     1     -10.176  11.948  67.594  1.00  0.00    -0.215 C  
HETATM   19  O   UNL     1      -8.446  10.390  68.150  1.00  0.00    -0.117 OA 
HETATM   20  C   UNL     1      -8.994  11.059  67.282  1.00  0.00    -0.138 C  
HETATM   21  O   UNL     1      -8.562  11.013  66.003  1.00  0.00    -0.171 OA 
ENDBRANCH   6  18
TORSDOF 3
ENDMDL
MODEL      268
REMARK 921   NORMALIZED FREE ENERGY PREDICTED BY IDOCK:   -1.40 KCAL/MOL
REMARK 922        TOTAL FREE ENERGY PREDICTED BY IDOCK:   -1.87 KCAL/MOL
REMARK 923 INTER-LIGAND FREE ENERGY PREDICTED BY IDOCK:   -1.35 KCAL/MOL
REMARK 924 INTRA-LIGAND FREE ENERGY PREDICTED BY IDOCK:   -0.52 KCAL/MOL
REMARK 927      BINDING AFFINITY PREDICTED BY RF-SCORE:    0.00 PKD
ROOT
HETATM    1  C   UNL     1      -6.966  11.879  69.877  1.00  0.00     0.363 C  
HETATM    2  C   UNL     1      -7.167  10.394  69.967  1.00  0.00    -0.143 A  
HETATM    3  C   UNL     1      -6.320   9.606  70.739  1.00  0.00    -0.097 A  
HETATM    4  C   UNL     1      -6.423   8.220  70.697  1.00  0.00    -0.036 A  
HETATM    5  C   UNL     1      -7.347   7.592  69.849  1.00  0.00    -0.082 A  
HETATM    6  C   UNL     1      -8.310   8.374  69.186  1.00  0.00    -0.122 A  
HETATM    7  C   UNL     1      -8.203   9.777  69.254  1.00  0.00    -0.132 A  
ENDROOT
BRANCH   5   8
HETATM    8  N   UNL     1      -7.248   6.207  69.568  1.00  0.00    -0.076 NA 
HETATM    9  H   UNL     1      -6.990   5.947  68.617  1.00  0.00     0.000 HD 
BRANCH   8  10
HETATM   10  C   UNL     1      -7.476   5.142  70.489  1.00  0.00    -0.070 A  
HETATM   11  F   UNL     1      -5.634   3.990  69.549  1.00  0.00    -0.013 F  
HETATM   12  C   UNL     1      -6.663   4.000  70.409  1.00  0.00    -0.033 A  
HETATM   13  C   UNL     1      -8.488   5.138  71.473  1.00  0.00    -0.124 A  
HETATM   14 CL   UNL     1      -9.385   6.558  71.906  1.00  0.00    -0.149 Cl 
HETATM   15  C   UNL     1      -8.765   3.982  72.216  1.00  0.00    -0.118 A  
HETATM   16  C   UNL     1      -6.907   2.862  71.177  1.00  0.00    -0.032 A  
HETATM   17  C   UNL     1      -7.986   2.838  72.054  1.00  0.00    -0.054 A  
ENDBRANCH   8  10
ENDBRANCH   5   8
BRANCH   6  18
HETATM   18  C   UNL     1      -9.433   7.765  68.373  1.00  0.00    -0.148 C  
HETATM   19  O   UNL     1     -10.017   6.793  66.265  1.00  0.00    -0.056 OA 
HETATM   20  C   UNL     1      -9.139   7.263  66.977  1.00  0.00    -0.135 C  
HETATM   21  O   UNL     1      -7.868   7.359  66.530  1.00  0.00    -0.094 OA 
ENDBRANCH   6  18
TORSDOF 3
ENDMDL
MODEL      269
REMARK 921   NORMALIZED FREE ENERGY PREDICTED BY IDOCK:   -1.26 KCAL/MOL
REMARK 922        TOTAL FREE ENERGY PREDICTED BY IDOCK:   -1.71 KCAL/MOL
REMARK 923 INTER-LIGAND FREE ENERGY PREDICTED BY IDOCK:   -3.17 KCAL/MOL
REMARK 924 INTRA-LIGAND FREE ENERGY PREDICTED BY IDOCK:    1.47 KCAL/MOL
REMARK 927      BINDING AFFINITY PREDICTED BY RF-SCORE:    0.00 PKD
ROOT
HETATM    1  C   UNL     1     -10.960  15.500  69.958  1.00  0.00    -0.331 C  
HETATM    2  C   UNL     1     -10.932  14.072  69.495  1.00  0.00    -0.138 A  
HETATM    3  C   UNL     1     -12.079  13.286  69.539  1.00  0.00    -0.315 A  
HETATM    4  C   UNL     1     -12.007  11.929  69.249  1.00  0.00    -0.342 A  
HETATM    5  C   UNL     1     -10.779  11.319  68.951  1.00  0.00    -0.207 A  
HETATM    6  C   UNL     1      -9.645  12.127  68.750  1.00  0.00     0.027 A  
HETATM    7  C   UNL     1      -9.739  13.505  69.030  1.00  0.00     0.214 A  
ENDROOT
BRANCH   5   8
HETATM    8  N   UNL     1     -10.647   9.909  68.964  1.00  0.00    -0.212 NA 
HETATM    9  H   UNL     1     -11.401   9.380  69.402  1.00  0.00     0.000 HD 
BRANCH   8  10
HETATM   10  C   UNL     1      -9.562   9.160  68.422  1.00  0.00    -0.151 A  
HETATM   11  F   UNL     1     -10.600   9.270  66.297  1.00  0.00    -0.282 F  
HETATM   12  C   UNL     1      -9.603   8.804  67.064  1.00  0.00    -0.179 A  
HETATM   13  C   UNL     1      -8.444   8.721  69.163  1.00  0.00    -0.123 A  
HETATM   14 CL   UNL     1      -8.084   9.303  70.757  1.00  0.00    -0.198 Cl 
HETATM   15  C   UNL     1      -7.512   7.834  68.604  1.00  0.00    -0.100 A  
HETATM   16  C   UNL     1      -8.654   7.959  66.490  1.00  0.00    -0.149 A  
HETATM   17  C   UNL     1      -7.628   7.439  67.273  1.00  0.00    -0.108 A  
ENDBRANCH   8  10
ENDBRANCH   5   8
BRANCH   6  18
HETATM   18  C   UNL     1      -8.319  11.566  68.281  1.00  0.00    -0.154 C  
HETATM   19  O   UNL     1      -7.023  10.954  66.363  1.00  0.00    -0.126 OA 
HETATM   20  C   UNL     1      -8.064  11.433  66.796  1.00  0.00    -0.161 C  
HETATM   21  O   UNL     1      -9.032  11.852  65.953  1.00  0.00    -0.138 OA 
ENDBRANCH   6  18
TORSDOF 3
ENDMDL
MODEL      270
REMARK 921   NORMALIZED FREE ENERGY PREDICTED BY IDOCK:    1.64 KCAL/MOL
REMARK 922        TOTAL FREE ENERGY PREDICTED BY IDOCK:    1.71 KCAL/MOL
REMARK 923 INTER-LIGAND FREE ENERGY PREDICTED BY IDOCK:    2.53 KCAL/MOL
REMARK 924 INTRA-LIGAND FREE ENERGY PREDICTED BY IDOCK:   -0.82 KCAL/MOL
REMARK 927      BINDING AFFINITY PREDICTED BY RF-SCORE:    0.00 PKD
ROOT
HETATM    1  C   UNL     1      -9.395  20.520  71.711  1.00  0.00     2.396 C  
HETATM    2  C   UNL     1      -9.135  19.683  70.492  1.00  0.00     1.635 A  
HETATM    3  C   UNL     1     -10.036  18.699  70.099  1.00  0.00     1.200 A  
HETATM    4  C   UNL     1      -9.715  17.833  69.059  1.00  0.00    -0.187 A  
HETATM    5  C   UNL     1      -8.469  17.906  68.420  1.00  0.00    -0.297 A  
HETATM    6  C   UNL     1      -7.618  18.991  68.700  1.00  0.00    -0.372 A  
HETATM    7  C   UNL     1      -7.966  19.870  69.743  1.00  0.00     0.524 A  
ENDROOT
BRANCH   5   8
HETATM    8  N   UNL     1      -8.016  16.850  67.591  1.00  0.00    -0.172 NA 
HETATM    9  H   UNL     1      -7.561  17.113  66.717  1.00  0.00     0.000 HD 
BRANCH   8  10
HETATM   10  C   UNL     1      -8.137  15.455  67.862  1.00  0.00    -0.140 A  
HETATM   11  F   UNL     1      -6.293  15.624  69.337  1.00  0.00    -0.118 F  
HETATM   12  C   UNL     1      -7.200  14.854  68.717  1.00  0.00    -0.123 A  
HETATM   13  C   UNL     1      -9.127  14.615  67.308  1.00  0.00    -0.206 A  
HETATM   14 CL   UNL     1     -10.520  15.226  66.474  1.00  0.00    -0.291 Cl 
HETATM   15  C   UNL     1      -9.068  13.225  67.477  1.00  0.00    -0.208 A  
HETATM   16  C   UNL     1      -7.164  13.475  68.925  1.00  0.00    -0.070 A  
HETATM   17  C   UNL     1      -8.076  12.654  68.271  1.00  0.00    -0.161 A  
ENDBRANCH   8  10
ENDBRANCH   5   8
BRANCH   6  18
HETATM   18  C   UNL     1      -6.325  19.225  67.947  1.00  0.00    -0.237 C  
HETATM   19  O   UNL     1      -5.371  19.997  65.891  1.00  0.00    -0.161 OA 
HETATM   20  C   UNL     1      -6.384  19.818  66.557  1.00  0.00    -0.180 C  
HETATM   21  O   UNL     1      -7.599  20.137  66.061  1.00  0.00    -0.303 OA 
ENDBRANCH   6  18
TORSDOF 3
ENDMDL
MODEL      271
REMARK 921   NORMALIZED FREE ENERGY PREDICTED BY IDOCK:    5.37 KCAL/MOL
REMARK 922        TOTAL FREE ENERGY PREDICTED BY IDOCK:    6.09 KCAL/MOL
REMARK 923 INTER-LIGAND FREE ENERGY PREDICTED BY IDOCK:    5.76 KCAL/MOL
REMARK 924 INTRA-LIGAND FREE ENERGY PREDICTED BY IDOCK:    0.33 KCAL/MOL
REMARK 927      BINDING AFFINITY PREDICTED BY RF-SCORE:    0.00 PKD
ROOT
HETATM    1  C   UNL     1      -9.359  20.176  70.971  1.00  0.00     1.943 C  
HETATM    2  C   UNL     1      -9.065  19.284  69.799  1.00  0.00     0.584 A  
HETATM    3  C   UNL     1      -9.890  18.204  69.502  1.00  0.00     0.245 A  
HETATM    4  C   UNL     1      -9.528  17.301  68.509  1.00  0.00    -0.285 A  
HETATM    5  C   UNL     1      -8.311  17.434  67.823  1.00  0.00    -0.218 A  
HETATM    6  C   UNL     1      -7.548  18.602  68.003  1.00  0.00    -0.279 A  
HETATM    7  C   UNL     1      -7.939  19.517  69.000  1.00  0.00    -0.281 A  
ENDROOT
BRANCH   5   8
HETATM    8  N   UNL     1      -7.795  16.366  67.048  1.00  0.00    -0.188 NA 
HETATM    9  H   UNL     1      -8.033  16.360  66.056  1.00  0.00     0.000 HD 
BRANCH   8  10
HETATM   10  C   UNL     1      -6.976  15.300  67.522  1.00  0.00    -0.196 A  
HETATM   11  F   UNL     1      -7.487  14.088  65.553  1.00  0.00     3.886 F  
HETATM   12  C   UNL     1      -6.889  14.128  66.754  1.00  0.00     1.604 A  
HETATM   13  C   UNL     1      -6.253  15.324  68.734  1.00  0.00    -0.090 A  
HETATM   14 CL   UNL     1      -6.011  16.773  69.656  1.00  0.00    -0.208 Cl 
HETATM   15  C   UNL     1      -5.621  14.170  69.218  1.00  0.00    -0.082 A  
HETATM   16  C   UNL     1      -6.223  12.991  67.210  1.00  0.00     0.052 A  
HETATM   17  C   UNL     1      -5.622  12.999  68.464  1.00  0.00    -0.069 A  
ENDBRANCH   8  10
ENDBRANCH   5   8
BRANCH   6  18
HETATM   18  C   UNL     1      -6.303  18.893  67.191  1.00  0.00    -0.187 C  
HETATM   19  O   UNL     1      -5.466  19.398  65.006  1.00  0.00    -0.162 OA 
HETATM   20  C   UNL     1      -6.443  19.189  65.715  1.00  0.00    -0.239 C  
HETATM   21  O   UNL     1      -7.688  19.207  65.193  1.00  0.00    -0.068 OA 
ENDBRANCH   6  18
TORSDOF 3
ENDMDL
MODEL      272
REMARK 921   NORMALIZED FREE ENERGY PREDICTED BY IDOCK:   10.52 KCAL/MOL
REMARK 922        TOTAL FREE ENERGY PREDICTED BY IDOCK:   12.14 KCAL/MOL
REMARK 923 INTER-LIGAND FREE ENERGY PREDICTED BY IDOCK:   11.44 KCAL/MOL
REMARK 924 INTRA-LIGAND FREE ENERGY PREDICTED BY IDOCK:    0.70 KCAL/MOL
REMARK 927      BINDING AFFINITY PREDICTED BY RF-SCORE:    0.00 PKD
ROOT
HETATM    1  C   UNL     1      -9.494  20.218  72.184  1.00  0.00     2.669 C  
HETATM    2  C   UNL     1     -10.106  19.216  71.249  1.00  0.00     2.840 A  
HETATM    3  C   UNL     1     -10.984  18.246  71.720  1.00  0.00     3.173 A  
HETATM    4  C   UNL     1     -11.428  17.235  70.875  1.00  0.00     1.658 A  
HETATM    5  C   UNL     1     -10.968  17.148  69.553  1.00  0.00     0.221 A  
HETATM    6  C   UNL     1     -10.209  18.206  69.021  1.00  0.00    -0.237 A  
HETATM    7  C   UNL     1      -9.783  19.233  69.886  1.00  0.00     0.441 A  
ENDROOT
BRANCH   5   8
HETATM    8  N   UNL     1     -11.163  15.968  68.793  1.00  0.00    -0.340 NA 
HETATM    9  H   UNL     1     -12.096  15.558  68.811  1.00  0.00     0.000 HD 
BRANCH   8  10
HETATM   10  C   UNL     1     -10.178  15.300  68.008  1.00  0.00    -0.230 A  
HETATM   11  F   UNL     1      -8.591  15.720  69.715  1.00  0.00    -0.245 F  
HETATM   12  C   UNL     1      -8.860  15.244  68.489  1.00  0.00    -0.185 A  
HETATM   13  C   UNL     1     -10.425  14.702  66.753  1.00  0.00    -0.277 A  
HETATM   14 CL   UNL     1     -12.024  14.422  66.144  1.00  0.00    -0.397 Cl 
HETATM   15  C   UNL     1      -9.370  14.228  65.961  1.00  0.00    -0.143 A  
HETATM   16  C   UNL     1      -7.813  14.733  67.724  1.00  0.00    -0.163 A  
HETATM   17  C   UNL     1      -8.062  14.260  66.440  1.00  0.00     0.913 A  
ENDBRANCH   8  10
ENDBRANCH   5   8
BRANCH   6  18
HETATM   18  C   UNL     1      -9.801  18.262  67.563  1.00  0.00    -0.324 C  
HETATM   19  O   UNL     1     -10.589  18.144  65.306  1.00  0.00    -0.591 OA 
HETATM   20  C   UNL     1     -10.868  18.139  66.499  1.00  0.00     0.026 C  
HETATM   21  O   UNL     1     -12.149  18.010  66.906  1.00  0.00     2.631 OA 
ENDBRANCH   6  18
TORSDOF 3
ENDMDL
MODEL      273
REMARK 921   NORMALIZED FREE ENERGY PREDICTED BY IDOCK:   15.30 KCAL/MOL
REMARK 922        TOTAL FREE ENERGY PREDICTED BY IDOCK:   17.76 KCAL/MOL
REMARK 923 INTER-LIGAND FREE ENERGY PREDICTED BY IDOCK:   17.54 KCAL/MOL
REMARK 924 INTRA-LIGAND FREE ENERGY PREDICTED BY IDOCK:    0.22 KCAL/MOL
REMARK 927      BINDING AFFINITY PREDICTED BY RF-SCORE:    0.00 PKD
ROOT
HETATM    1  C   UNL     1      -7.408  10.899  72.504  1.00  0.00     7.782 C  
HETATM    2  C   UNL     1      -7.099  11.927  71.456  1.00  0.00     5.867 A  
HETATM    3  C   UNL     1      -7.083  13.282  71.770  1.00  0.00     5.227 A  
HETATM    4  C   UNL     1      -6.943  14.231  70.763  1.00  0.00     0.752 A  
HETATM    5  C   UNL     1      -6.861  13.847  69.417  1.00  0.00    -0.065 A  
HETATM    6  C   UNL     1      -6.718  12.483  69.102  1.00  0.00    -0.089 A  
HETATM    7  C   UNL     1      -6.843  11.535  70.135  1.00  0.00     0.376 A  
ENDROOT
BRANCH   5   8
HETATM    8  N   UNL     1      -7.032  14.796  68.380  1.00  0.00    -0.107 NA 
HETATM    9  H   UNL     1      -6.414  14.714  67.573  1.00  0.00     0.000 HD 
BRANCH   8  10
HETATM   10  C   UNL     1      -7.986  15.856  68.357  1.00  0.00    -0.147 A  
HETATM   11  F   UNL     1      -9.580  14.386  69.307  1.00  0.00    -0.156 F  
HETATM   12  C   UNL     1      -9.295  15.590  68.788  1.00  0.00    -0.209 A  
HETATM   13  C   UNL     1      -7.716  17.166  67.905  1.00  0.00    -0.184 A  
HETATM   14 CL   UNL     1      -6.109  17.748  67.615  1.00  0.00    -0.158 Cl 
HETATM   15  C   UNL     1      -8.751  18.098  67.741  1.00  0.00    -0.259 A  
HETATM   16  C   UNL     1     -10.320  16.528  68.669  1.00  0.00    -0.287 A  
HETATM   17  C   UNL     1     -10.055  17.773  68.106  1.00  0.00    -0.362 A  
ENDBRANCH   8  10
ENDBRANCH   5   8
BRANCH   6  18
HETATM   18  C   UNL     1      -6.473  11.996  67.689  1.00  0.00    -0.108 C  
HETATM   19  O   UNL     1      -7.152  10.424  66.017  1.00  0.00    -0.120 OA 
HETATM   20  C   UNL     1      -7.330  10.878  67.140  1.00  0.00    -0.105 C  
HETATM   21  O   UNL     1      -8.300  10.381  67.937  1.00  0.00    -0.113 OA 
ENDBRANCH   6  18
TORSDOF 3
ENDMDL
MODEL      274
REMARK 921   NORMALIZED FREE ENERGY PREDICTED BY IDOCK:   39.55 KCAL/MOL
REMARK 922        TOTAL FREE ENERGY PREDICTED BY IDOCK:   46.26 KCAL/MOL
REMARK 923 INTER-LIGAND FREE ENERGY PREDICTED BY IDOCK:    1.99 KCAL/MOL
REMARK 924 INTRA-LIGAND FREE ENERGY PREDICTED BY IDOCK:   44.26 KCAL/MOL
REMARK 927      BINDING AFFINITY PREDICTED BY RF-SCORE:    0.00 PKD
ROOT
HETATM    1  C   UNL     1     -11.095  15.441  70.586  1.00  0.00    -0.364 C  
HETATM    2  C   UNL     1     -11.243  14.238  69.699  1.00  0.00    -0.256 A  
HETATM    3  C   UNL     1     -12.323  13.374  69.846  1.00  0.00    -0.259 A  
HETATM    4  C   UNL     1     -12.372  12.188  69.122  1.00  0.00     0.091 A  
HETATM    5  C   UNL     1     -11.320  11.820  68.270  1.00  0.00    -0.282 A  
HETATM    6  C   UNL     1     -10.304  12.753  67.994  1.00  0.00    -0.232 A  
HETATM    7  C   UNL     1     -10.279  13.959  68.722  1.00  0.00    -0.188 A  
ENDROOT
BRANCH   5   8
HETATM    8  N   UNL     1     -11.213  10.495  67.780  1.00  0.00    -0.376 NA 
HETATM    9  H   UNL     1     -11.674   9.765  68.322  1.00  0.00     0.000 HD 
BRANCH   8  10
HETATM   10  C   UNL     1     -10.523  10.086  66.601  1.00  0.00    -0.174 A  
HETATM   11  F   UNL     1     -12.352  10.862  65.312  1.00  0.00     1.215 F  
HETATM   12  C   UNL     1     -11.164  10.239  65.361  1.00  0.00     1.244 A  
HETATM   13  C   UNL     1      -9.236   9.509  66.587  1.00  0.00    -0.152 A  
HETATM   14 CL   UNL     1      -8.190   9.509  67.970  1.00  0.00    -0.113 Cl 
HETATM   15  C   UNL     1      -8.703   8.966  65.409  1.00  0.00    -0.224 A  
HETATM   16  C   UNL     1     -10.618   9.741  64.178  1.00  0.00     2.391 A  
HETATM   17  C   UNL     1      -9.403   9.066  64.209  1.00  0.00     0.450 A  
ENDBRANCH   8  10
ENDBRANCH   5   8
BRANCH   6  18
HETATM   18  C   UNL     1      -9.217  12.493  66.973  1.00  0.00    -0.214 C  
HETATM   19  O   UNL     1      -8.478  11.023  65.233  1.00  0.00    -0.120 OA 
HETATM   20  C   UNL     1      -9.345  11.299  66.054  1.00  0.00    -0.214 C  
HETATM   21  O   UNL     1     -10.448  10.530  66.174  1.00  0.00    -0.230 OA 
ENDBRANCH   6  18
TORSDOF 3
ENDMDL
