MODEL        1
REMARK 921   NORMALIZED FREE ENERGY PREDICTED BY IDOCK:   -8.27 KCAL/MOL
REMARK 922        TOTAL FREE ENERGY PREDICTED BY IDOCK:  -12.41 KCAL/MOL
REMARK 923 INTER-LIGAND FREE ENERGY PREDICTED BY IDOCK:  -10.68 KCAL/MOL
REMARK 924 INTRA-LIGAND FREE ENERGY PREDICTED BY IDOCK:   -1.72 KCAL/MOL
REMARK 927      BINDING AFFINITY PREDICTED BY RF-SCORE:    0.00 PKD
ROOT
HETATM    1  C   UNL     1     -10.220   8.767  71.350  1.00  0.00    -0.350 C  
HETATM    2  C   UNL     1     -10.072   7.443  70.579  1.00  0.00    -0.192 C  
HETATM    3  C   UNL     1      -9.606   6.364  71.576  1.00  0.00    -0.169 C  
HETATM    4  C   UNL     1     -10.853   6.138  72.454  1.00  0.00    -0.281 C  
HETATM    5  C   UNL     1     -11.887   7.104  71.841  1.00  0.00    -0.336 C  
HETATM    6  C   UNL     1     -11.521   7.006  70.357  1.00  0.00    -0.355 C  
HETATM    7  C   UNL     1     -11.460   8.533  72.217  1.00  0.00    -0.445 C  
HETATM    8  C   UNL     1     -12.436   9.585  71.769  1.00  0.00    -0.401 C  
HETATM    9  O   UNL     1     -13.589   9.669  72.163  1.00  0.00    -0.426 OA 
HETATM   10  N   UNL     1     -11.830  10.384  70.843  1.00  0.00    -0.359 N  
HETATM   11  O   UNL     1      -9.907  10.345  69.548  1.00  0.00    -0.222 OA 
HETATM   12  C   UNL     1     -10.596   9.925  70.467  1.00  0.00    -0.293 C  
ENDROOT
BRANCH  10  13
HETATM   13  C   UNL     1     -12.501  11.488  70.175  1.00  0.00    -0.164 C  
BRANCH  13  14
HETATM   14  C   UNL     1     -12.311  12.825  70.925  1.00  0.00    -0.356 C  
HETATM   15  C   UNL     1     -13.518  13.086  71.847  1.00  0.00    -0.498 C  
HETATM   16  C   UNL     1     -13.340  14.358  72.666  1.00  0.00    -0.599 C  
HETATM   17  C   UNL     1     -13.053  15.559  71.775  1.00  0.00    -0.548 C  
HETATM   18  C   UNL     1     -11.862  15.308  70.854  1.00  0.00    -0.387 C  
HETATM   19  C   UNL     1     -12.075  14.051  69.987  1.00  0.00    -0.412 C  
BRANCH  19  20
HETATM   20  C   UNL     1     -10.880  13.809  69.033  1.00  0.00    -0.217 C  
BRANCH  20  21
HETATM   21  N   UNL     1     -11.072  14.149  67.611  1.00  0.00    -0.274 NA 
HETATM   22  C   UNL     1      -9.770  14.064  66.892  1.00  0.00    -0.271 C  
HETATM   23  C   UNL     1      -9.178  12.639  66.842  1.00  0.00    -0.216 C  
HETATM   24  N   UNL     1     -10.122  11.674  66.255  1.00  0.00    -0.215 NA 
HETATM   25  C   UNL     1     -11.520  11.774  66.714  1.00  0.00    -0.281 C  
HETATM   26  C   UNL     1     -12.001  13.238  66.900  1.00  0.00    -0.375 C  
BRANCH  24  27
HETATM   27  C   UNL     1      -9.844  11.193  65.003  1.00  0.00    -0.266 A  
HETATM   28  N   UNL     1     -10.044  11.906  63.896  1.00  0.00    -0.350 NA 
HETATM   29  S   UNL     1      -9.468  11.082  62.594  1.00  0.00    -0.236 SA 
HETATM   30  C   UNL     1      -8.886   9.723  63.461  1.00  0.00    -0.241 A  
HETATM   31  C   UNL     1      -8.200   8.593  62.985  1.00  0.00    -0.179 A  
HETATM   32  C   UNL     1      -7.815   7.614  63.903  1.00  0.00    -0.122 A  
HETATM   33  C   UNL     1      -8.107   7.756  65.253  1.00  0.00    -0.133 A  
HETATM   34  C   UNL     1      -8.782   8.892  65.717  1.00  0.00    -0.205 A  
HETATM   35  C   UNL     1      -9.194   9.904  64.811  1.00  0.00    -0.309 A  
ENDBRANCH  24  27
ENDBRANCH  20  21
ENDBRANCH  19  20
ENDBRANCH  13  14
ENDBRANCH  10  13
TORSDOF 5
ENDMDL
MODEL        2
REMARK 921   NORMALIZED FREE ENERGY PREDICTED BY IDOCK:   -7.71 KCAL/MOL
REMARK 922        TOTAL FREE ENERGY PREDICTED BY IDOCK:  -11.68 KCAL/MOL
REMARK 923 INTER-LIGAND FREE ENERGY PREDICTED BY IDOCK:  -11.20 KCAL/MOL
REMARK 924 INTRA-LIGAND FREE ENERGY PREDICTED BY IDOCK:   -0.48 KCAL/MOL
REMARK 927      BINDING AFFINITY PREDICTED BY RF-SCORE:    0.00 PKD
ROOT
HETATM    1  C   UNL     1     -10.206   8.893  71.164  1.00  0.00    -0.336 C  
HETATM    2  C   UNL     1     -10.099   7.586  70.359  1.00  0.00    -0.196 C  
HETATM    3  C   UNL     1      -9.673   6.466  71.328  1.00  0.00    -0.189 C  
HETATM    4  C   UNL     1     -10.931   6.258  72.195  1.00  0.00    -0.298 C  
HETATM    5  C   UNL     1     -11.930   7.274  71.605  1.00  0.00    -0.341 C  
HETATM    6  C   UNL     1     -11.561   7.204  70.120  1.00  0.00    -0.211 C  
HETATM    7  C   UNL     1     -11.458   8.678  72.020  1.00  0.00    -0.437 C  
HETATM    8  C   UNL     1     -12.396   9.773  71.597  1.00  0.00    -0.408 C  
HETATM    9  O   UNL     1     -13.547   9.885  71.988  1.00  0.00    -0.384 OA 
HETATM   10  N   UNL     1     -11.759  10.575  70.695  1.00  0.00    -0.335 N  
HETATM   11  O   UNL     1      -9.833  10.507  69.407  1.00  0.00    -0.221 OA 
HETATM   12  C   UNL     1     -10.539  10.086  70.312  1.00  0.00    -0.295 C  
ENDROOT
BRANCH  10  13
HETATM   13  C   UNL     1     -12.390  11.719  70.054  1.00  0.00    -0.160 C  
BRANCH  13  14
HETATM   14  C   UNL     1     -12.326  12.988  70.933  1.00  0.00    -0.376 C  
HETATM   15  C   UNL     1     -13.563  13.053  71.851  1.00  0.00    -0.419 C  
HETATM   16  C   UNL     1     -13.506  14.249  72.792  1.00  0.00    -0.590 C  
HETATM   17  C   UNL     1     -13.316  15.552  72.027  1.00  0.00    -0.566 C  
HETATM   18  C   UNL     1     -12.096  15.495  71.110  1.00  0.00    -0.433 C  
HETATM   19  C   UNL     1     -12.188  14.315  70.122  1.00  0.00    -0.407 C  
BRANCH  19  20
HETATM   20  C   UNL     1     -10.966  14.271  69.174  1.00  0.00    -0.261 C  
BRANCH  20  21
HETATM   21  N   UNL     1     -11.057  15.040  67.919  1.00  0.00    -0.295 NA 
HETATM   22  C   UNL     1     -11.212  16.490  68.226  1.00  0.00    -0.265 C  
HETATM   23  C   UNL     1      -9.991  17.111  68.938  1.00  0.00    -0.304 C  
HETATM   24  N   UNL     1      -8.749  16.905  68.174  1.00  0.00    -0.219 NA 
HETATM   25  C   UNL     1      -8.549  15.556  67.612  1.00  0.00    -0.165 C  
HETATM   26  C   UNL     1      -9.854  14.923  67.060  1.00  0.00    -0.237 C  
BRANCH  24  27
HETATM   27  C   UNL     1      -8.195  17.995  67.555  1.00  0.00    -0.235 A  
HETATM   28  N   UNL     1      -8.527  18.370  66.322  1.00  0.00    -0.434 NA 
HETATM   29  S   UNL     1      -7.785  19.791  65.955  1.00  0.00    -0.309 SA 
HETATM   30  C   UNL     1      -6.992  19.994  67.461  1.00  0.00    -0.249 A  
HETATM   31  C   UNL     1      -6.185  21.056  67.903  1.00  0.00    -0.406 A  
HETATM   32  C   UNL     1      -5.656  20.995  69.194  1.00  0.00    -0.343 A  
HETATM   33  C   UNL     1      -5.923  19.909  70.018  1.00  0.00    -0.356 A  
HETATM   34  C   UNL     1      -6.738  18.863  69.570  1.00  0.00    -0.217 A  
HETATM   35  C   UNL     1      -7.287  18.888  68.261  1.00  0.00    -0.306 A  
ENDBRANCH  24  27
ENDBRANCH  20  21
ENDBRANCH  19  20
ENDBRANCH  13  14
ENDBRANCH  10  13
TORSDOF 5
ENDMDL
MODEL        3
REMARK 921   NORMALIZED FREE ENERGY PREDICTED BY IDOCK:   -7.48 KCAL/MOL
REMARK 922        TOTAL FREE ENERGY PREDICTED BY IDOCK:  -11.39 KCAL/MOL
REMARK 923 INTER-LIGAND FREE ENERGY PREDICTED BY IDOCK:  -10.62 KCAL/MOL
REMARK 924 INTRA-LIGAND FREE ENERGY PREDICTED BY IDOCK:   -0.77 KCAL/MOL
REMARK 927      BINDING AFFINITY PREDICTED BY RF-SCORE:    0.00 PKD
ROOT
HETATM    1  C   UNL     1     -11.397   9.231  70.233  1.00  0.00    -0.238 C  
HETATM    2  C   UNL     1     -10.920   9.245  71.696  1.00  0.00    -0.433 C  
HETATM    3  C   UNL     1     -11.442   7.966  72.377  1.00  0.00    -0.433 C  
HETATM    4  C   UNL     1     -10.594   6.854  71.728  1.00  0.00    -0.235 C  
HETATM    5  C   UNL     1      -9.677   7.636  70.765  1.00  0.00    -0.173 C  
HETATM    6  C   UNL     1      -9.432   8.909  71.580  1.00  0.00    -0.347 C  
HETATM    7  C   UNL     1     -10.548   8.126  69.597  1.00  0.00    -0.223 C  
HETATM    8  C   UNL     1      -9.766   8.824  68.520  1.00  0.00    -0.162 C  
HETATM    9  O   UNL     1      -8.899   8.294  67.843  1.00  0.00    -0.137 OA 
HETATM   10  N   UNL     1     -10.163  10.129  68.463  1.00  0.00    -0.166 N  
HETATM   11  O   UNL     1     -11.397  11.599  69.762  1.00  0.00    -0.258 OA 
HETATM   12  C   UNL     1     -11.017  10.473  69.476  1.00  0.00    -0.264 C  
ENDROOT
BRANCH  10  13
HETATM   13  C   UNL     1      -9.584  11.103  67.550  1.00  0.00    -0.168 C  
BRANCH  13  14
HETATM   14  C   UNL     1     -10.167  10.982  66.124  1.00  0.00    -0.298 C  
HETATM   15  C   UNL     1      -9.091  10.442  65.161  1.00  0.00    -0.232 C  
HETATM   16  C   UNL     1      -9.643  10.233  63.757  1.00  0.00    -0.344 C  
HETATM   17  C   UNL     1     -10.282  11.504  63.215  1.00  0.00    -0.432 C  
HETATM   18  C   UNL     1     -11.346  12.051  64.165  1.00  0.00    -0.455 C  
HETATM   19  C   UNL     1     -10.766  12.313  65.569  1.00  0.00    -0.314 C  
BRANCH  19  20
HETATM   20  C   UNL     1     -11.835  12.892  66.526  1.00  0.00    -0.407 C  
BRANCH  20  21
HETATM   21  N   UNL     1     -11.994  14.359  66.553  1.00  0.00    -0.406 NA 
HETATM   22  C   UNL     1     -11.772  14.865  67.936  1.00  0.00    -0.321 C  
HETATM   23  C   UNL     1     -10.334  14.653  68.454  1.00  0.00    -0.237 C  
HETATM   24  N   UNL     1      -9.333  15.247  67.552  1.00  0.00    -0.202 NA 
HETATM   25  C   UNL     1      -9.540  15.011  66.110  1.00  0.00    -0.314 C  
HETATM   26  C   UNL     1     -11.031  15.079  65.686  1.00  0.00    -0.354 C  
BRANCH  24  27
HETATM   27  C   UNL     1      -8.685  16.376  67.976  1.00  0.00    -0.183 A  
HETATM   28  N   UNL     1      -7.477  16.347  68.536  1.00  0.00    -0.171 NA 
HETATM   29  S   UNL     1      -6.943  17.883  68.785  1.00  0.00    -0.266 SA 
HETATM   30  C   UNL     1      -8.308  18.677  68.120  1.00  0.00    -0.307 A  
HETATM   31  C   UNL     1      -8.538  20.052  67.944  1.00  0.00    -0.309 A  
HETATM   32  C   UNL     1      -9.740  20.456  67.359  1.00  0.00    -0.597 A  
HETATM   33  C   UNL     1     -10.684  19.518  66.962  1.00  0.00    -0.592 A  
HETATM   34  C   UNL     1     -10.438  18.150  67.131  1.00  0.00    -0.392 A  
HETATM   35  C   UNL     1      -9.230  17.703  67.729  1.00  0.00    -0.251 A  
ENDBRANCH  24  27
ENDBRANCH  20  21
ENDBRANCH  19  20
ENDBRANCH  13  14
ENDBRANCH  10  13
TORSDOF 5
ENDMDL
MODEL        4
REMARK 921   NORMALIZED FREE ENERGY PREDICTED BY IDOCK:   -7.47 KCAL/MOL
REMARK 922        TOTAL FREE ENERGY PREDICTED BY IDOCK:  -11.37 KCAL/MOL
REMARK 923 INTER-LIGAND FREE ENERGY PREDICTED BY IDOCK:  -10.28 KCAL/MOL
REMARK 924 INTRA-LIGAND FREE ENERGY PREDICTED BY IDOCK:   -1.09 KCAL/MOL
REMARK 927      BINDING AFFINITY PREDICTED BY RF-SCORE:    0.00 PKD
ROOT
HETATM    1  C   UNL     1     -10.177  17.529  68.573  1.00  0.00    -0.378 C  
HETATM    2  C   UNL     1     -10.801  18.679  67.762  1.00  0.00    -0.313 C  
HETATM    3  C   UNL     1     -10.037  19.972  68.108  1.00  0.00    -0.547 C  
HETATM    4  C   UNL     1      -8.665  19.755  67.438  1.00  0.00    -0.385 C  
HETATM    5  C   UNL     1      -8.818  18.370  66.776  1.00  0.00    -0.283 C  
HETATM    6  C   UNL     1     -10.286  18.424  66.345  1.00  0.00    -0.431 C  
HETATM    7  C   UNL     1      -8.817  17.321  67.900  1.00  0.00    -0.235 C  
HETATM    8  C   UNL     1      -8.859  15.906  67.396  1.00  0.00    -0.188 C  
HETATM    9  O   UNL     1      -7.987  15.390  66.714  1.00  0.00    -0.223 OA 
HETATM   10  N   UNL     1     -10.031  15.330  67.795  1.00  0.00    -0.224 N  
HETATM   11  O   UNL     1     -12.058  16.019  68.685  1.00  0.00    -0.207 OA 
HETATM   12  C   UNL     1     -10.890  16.219  68.384  1.00  0.00    -0.334 C  
ENDROOT
BRANCH  10  13
HETATM   13  C   UNL     1     -10.414  13.969  67.450  1.00  0.00    -0.263 C  
BRANCH  13  14
HETATM   14  C   UNL     1     -10.670  13.803  65.935  1.00  0.00    -0.285 C  
HETATM   15  C   UNL     1     -12.122  14.200  65.602  1.00  0.00    -0.425 C  
HETATM   16  C   UNL     1     -12.399  14.124  64.106  1.00  0.00    -0.372 C  
HETATM   17  C   UNL     1     -12.058  12.750  63.545  1.00  0.00    -0.642 C  
HETATM   18  C   UNL     1     -10.623  12.345  63.875  1.00  0.00    -0.470 C  
HETATM   19  C   UNL     1     -10.366  12.369  65.395  1.00  0.00    -0.303 C  
BRANCH  19  20
HETATM   20  C   UNL     1      -8.921  11.933  65.734  1.00  0.00     0.046 C  
BRANCH  20  21
HETATM   21  N   UNL     1      -8.694  10.502  66.012  1.00  0.00    -0.158 NA 
HETATM   22  C   UNL     1      -7.916  10.351  67.274  1.00  0.00    -0.110 C  
HETATM   23  C   UNL     1      -8.663  10.844  68.530  1.00  0.00    -0.153 C  
HETATM   24  N   UNL     1      -9.972  10.186  68.683  1.00  0.00    -0.163 NA 
HETATM   25  C   UNL     1     -10.784  10.065  67.458  1.00  0.00    -0.281 C  
HETATM   26  C   UNL     1      -9.944   9.726  66.197  1.00  0.00    -0.268 C  
BRANCH  24  27
HETATM   27  C   UNL     1     -10.108   9.267  69.690  1.00  0.00    -0.197 A  
HETATM   28  N   UNL     1      -9.166   8.371  69.979  1.00  0.00    -0.157 NA 
HETATM   29  S   UNL     1      -9.596   7.531  71.327  1.00  0.00    -0.156 SA 
HETATM   30  C   UNL     1     -11.071   8.355  71.612  1.00  0.00    -0.278 A  
HETATM   31  C   UNL     1     -11.988   8.196  72.665  1.00  0.00    -0.353 A  
HETATM   32  C   UNL     1     -13.126   9.006  72.683  1.00  0.00    -0.358 A  
HETATM   33  C   UNL     1     -13.342   9.945  71.682  1.00  0.00    -0.481 A  
HETATM   34  C   UNL     1     -12.415  10.102  70.645  1.00  0.00    -0.372 A  
HETATM   35  C   UNL     1     -11.251   9.291  70.591  1.00  0.00    -0.333 A  
ENDBRANCH  24  27
ENDBRANCH  20  21
ENDBRANCH  19  20
ENDBRANCH  13  14
ENDBRANCH  10  13
TORSDOF 5
ENDMDL
MODEL        5
REMARK 921   NORMALIZED FREE ENERGY PREDICTED BY IDOCK:   -7.43 KCAL/MOL
REMARK 922        TOTAL FREE ENERGY PREDICTED BY IDOCK:  -11.32 KCAL/MOL
REMARK 923 INTER-LIGAND FREE ENERGY PREDICTED BY IDOCK:  -10.51 KCAL/MOL
REMARK 924 INTRA-LIGAND FREE ENERGY PREDICTED BY IDOCK:   -0.82 KCAL/MOL
REMARK 927      BINDING AFFINITY PREDICTED BY RF-SCORE:    0.00 PKD
ROOT
HETATM    1  C   UNL     1      -8.616  17.441  67.506  1.00  0.00    -0.221 C  
HETATM    2  C   UNL     1      -8.785  18.533  68.577  1.00  0.00    -0.352 C  
HETATM    3  C   UNL     1      -7.780  19.660  68.265  1.00  0.00    -0.356 C  
HETATM    4  C   UNL     1      -8.363  20.304  66.991  1.00  0.00    -0.373 C  
HETATM    5  C   UNL     1      -9.640  19.477  66.738  1.00  0.00    -0.447 C  
HETATM    6  C   UNL     1     -10.095  19.213  68.176  1.00  0.00    -0.486 C  
HETATM    7  C   UNL     1      -9.198  18.088  66.246  1.00  0.00    -0.203 C  
HETATM    8  C   UNL     1     -10.346  17.198  65.861  1.00  0.00    -0.284 C  
HETATM    9  O   UNL     1     -11.126  17.433  64.952  1.00  0.00    -0.849 OA 
HETATM   10  N   UNL     1     -10.379  16.129  66.710  1.00  0.00    -0.287 N  
HETATM   11  O   UNL     1      -9.419  15.520  68.730  1.00  0.00    -0.190 OA 
HETATM   12  C   UNL     1      -9.490  16.241  67.745  1.00  0.00    -0.221 C  
ENDROOT
BRANCH  10  13
HETATM   13  C   UNL     1     -11.388  15.083  66.641  1.00  0.00    -0.289 C  
BRANCH  13  14
HETATM   14  C   UNL     1     -11.170  14.142  65.435  1.00  0.00    -0.325 C  
HETATM   15  C   UNL     1     -12.368  14.240  64.470  1.00  0.00    -0.432 C  
HETATM   16  C   UNL     1     -12.163  13.386  63.227  1.00  0.00    -0.314 C  
HETATM   17  C   UNL     1     -11.861  11.938  63.588  1.00  0.00    -0.573 C  
HETATM   18  C   UNL     1     -10.679  11.830  64.549  1.00  0.00    -0.369 C  
HETATM   19  C   UNL     1     -10.918  12.653  65.831  1.00  0.00    -0.310 C  
BRANCH  19  20
HETATM   20  C   UNL     1      -9.734  12.524  66.818  1.00  0.00    -0.234 C  
BRANCH  20  21
HETATM   21  N   UNL     1     -10.044  12.093  68.194  1.00  0.00    -0.201 NA 
HETATM   22  C   UNL     1     -11.270  11.245  68.192  1.00  0.00    -0.286 C  
HETATM   23  C   UNL     1     -11.105   9.914  67.430  1.00  0.00    -0.030 C  
HETATM   24  N   UNL     1      -9.970   9.127  67.940  1.00  0.00    -0.176 NA 
HETATM   25  C   UNL     1      -8.727   9.878  68.200  1.00  0.00    -0.122 C  
HETATM   26  C   UNL     1      -8.975  11.279  68.819  1.00  0.00    -0.111 C  
BRANCH  24  27
HETATM   27  C   UNL     1     -10.251   7.996  68.658  1.00  0.00    -0.206 A  
HETATM   28  N   UNL     1     -10.070   6.769  68.172  1.00  0.00    -0.156 NA 
HETATM   29  S   UNL     1     -10.367   5.657  69.348  1.00  0.00    -0.293 SA 
HETATM   30  C   UNL     1     -10.729   6.777  70.593  1.00  0.00    -0.235 A  
HETATM   31  C   UNL     1     -11.040   6.536  71.942  1.00  0.00    -0.300 A  
HETATM   32  C   UNL     1     -11.288   7.630  72.773  1.00  0.00    -0.419 A  
HETATM   33  C   UNL     1     -11.229   8.925  72.274  1.00  0.00    -0.269 A  
HETATM   34  C   UNL     1     -10.908   9.153  70.931  1.00  0.00    -0.345 A  
HETATM   35  C   UNL     1     -10.656   8.064  70.055  1.00  0.00    -0.242 A  
ENDBRANCH  24  27
ENDBRANCH  20  21
ENDBRANCH  19  20
ENDBRANCH  13  14
ENDBRANCH  10  13
TORSDOF 5
ENDMDL
MODEL        6
REMARK 921   NORMALIZED FREE ENERGY PREDICTED BY IDOCK:   -7.35 KCAL/MOL
REMARK 922        TOTAL FREE ENERGY PREDICTED BY IDOCK:  -11.22 KCAL/MOL
REMARK 923 INTER-LIGAND FREE ENERGY PREDICTED BY IDOCK:  -10.30 KCAL/MOL
REMARK 924 INTRA-LIGAND FREE ENERGY PREDICTED BY IDOCK:   -0.92 KCAL/MOL
REMARK 927      BINDING AFFINITY PREDICTED BY RF-SCORE:    0.00 PKD
ROOT
HETATM    1  C   UNL     1     -10.158  17.597  68.461  1.00  0.00    -0.375 C  
HETATM    2  C   UNL     1     -10.773  18.698  67.579  1.00  0.00    -0.447 C  
HETATM    3  C   UNL     1     -10.025  20.013  67.873  1.00  0.00    -0.558 C  
HETATM    4  C   UNL     1      -8.638  19.773  67.243  1.00  0.00    -0.374 C  
HETATM    5  C   UNL     1      -8.767  18.355  66.652  1.00  0.00    -0.295 C  
HETATM    6  C   UNL     1     -10.227  18.374  66.188  1.00  0.00    -0.408 C  
HETATM    7  C   UNL     1      -8.783  17.365  67.828  1.00  0.00    -0.232 C  
HETATM    8  C   UNL     1      -8.805  15.925  67.398  1.00  0.00    -0.188 C  
HETATM    9  O   UNL     1      -7.915  15.382  66.762  1.00  0.00    -0.223 OA 
HETATM   10  N   UNL     1      -9.981  15.362  67.802  1.00  0.00    -0.224 N  
HETATM   11  O   UNL     1     -12.030  16.079  68.613  1.00  0.00    -0.306 OA 
HETATM   12  C   UNL     1     -10.858  16.273  68.326  1.00  0.00    -0.340 C  
ENDROOT
BRANCH  10  13
HETATM   13  C   UNL     1     -10.346  13.982  67.520  1.00  0.00    -0.245 C  
BRANCH  13  14
HETATM   14  C   UNL     1     -10.497  13.716  66.006  1.00  0.00    -0.300 C  
HETATM   15  C   UNL     1     -11.854  14.255  65.511  1.00  0.00    -0.363 C  
HETATM   16  C   UNL     1     -12.015  14.084  64.006  1.00  0.00    -0.388 C  
HETATM   17  C   UNL     1     -11.808  12.636  63.584  1.00  0.00    -0.606 C  
HETATM   18  C   UNL     1     -10.468  12.091  64.075  1.00  0.00    -0.410 C  
HETATM   19  C   UNL     1     -10.335  12.215  65.606  1.00  0.00    -0.289 C  
BRANCH  19  20
HETATM   20  C   UNL     1      -8.990  11.640  66.109  1.00  0.00    -0.178 C  
BRANCH  20  21
HETATM   21  N   UNL     1      -8.958  10.208  66.462  1.00  0.00    -0.142 NA 
HETATM   22  C   UNL     1      -8.252  10.025  67.762  1.00  0.00    -0.113 C  
HETATM   23  C   UNL     1      -8.977  10.673  68.961  1.00  0.00    -0.157 C  
HETATM   24  N   UNL     1     -10.363  10.193  69.088  1.00  0.00    -0.205 NA 
HETATM   25  C   UNL     1     -11.138  10.112  67.835  1.00  0.00    -0.238 C  
HETATM   26  C   UNL     1     -10.302   9.605  66.629  1.00  0.00    -0.208 C  
BRANCH  24  27
HETATM   27  C   UNL     1     -10.652   9.351  70.129  1.00  0.00    -0.240 A  
HETATM   28  N   UNL     1     -11.276   9.757  71.232  1.00  0.00    -0.370 NA 
HETATM   29  S   UNL     1     -11.590   8.465  72.200  1.00  0.00    -0.390 SA 
HETATM   30  C   UNL     1     -10.922   7.275  71.164  1.00  0.00    -0.247 A  
HETATM   31  C   UNL     1     -10.879   5.880  71.325  1.00  0.00    -0.333 A  
HETATM   32  C   UNL     1     -10.283   5.113  70.322  1.00  0.00    -0.342 A  
HETATM   33  C   UNL     1      -9.747   5.718  69.193  1.00  0.00    -0.189 A  
HETATM   34  C   UNL     1      -9.807   7.108  69.038  1.00  0.00    -0.156 A  
HETATM   35  C   UNL     1     -10.398   7.920  70.041  1.00  0.00    -0.221 A  
ENDBRANCH  24  27
ENDBRANCH  20  21
ENDBRANCH  19  20
ENDBRANCH  13  14
ENDBRANCH  10  13
TORSDOF 5
ENDMDL
MODEL        7
REMARK 921   NORMALIZED FREE ENERGY PREDICTED BY IDOCK:   -7.23 KCAL/MOL
REMARK 922        TOTAL FREE ENERGY PREDICTED BY IDOCK:  -11.07 KCAL/MOL
REMARK 923 INTER-LIGAND FREE ENERGY PREDICTED BY IDOCK:  -10.19 KCAL/MOL
REMARK 924 INTRA-LIGAND FREE ENERGY PREDICTED BY IDOCK:   -0.87 KCAL/MOL
REMARK 927      BINDING AFFINITY PREDICTED BY RF-SCORE:    0.00 PKD
ROOT
HETATM    1  C   UNL     1      -9.550   8.808  71.142  1.00  0.00    -0.309 C  
HETATM    2  C   UNL     1      -9.746   7.327  70.773  1.00  0.00    -0.171 C  
HETATM    3  C   UNL     1     -10.316   6.602  72.008  1.00  0.00    -0.218 C  
HETATM    4  C   UNL     1     -11.755   7.150  72.100  1.00  0.00    -0.322 C  
HETATM    5  C   UNL     1     -11.838   8.109  70.896  1.00  0.00    -0.232 C  
HETATM    6  C   UNL     1     -10.983   7.354  69.873  1.00  0.00    -0.239 C  
HETATM    7  C   UNL     1     -10.982   9.342  71.230  1.00  0.00    -0.440 C  
HETATM    8  C   UNL     1     -11.048  10.417  70.182  1.00  0.00    -0.314 C  
HETATM    9  O   UNL     1     -12.064  11.023  69.877  1.00  0.00    -0.315 OA 
HETATM   10  N   UNL     1      -9.812  10.564  69.622  1.00  0.00    -0.144 N  
HETATM   11  O   UNL     1      -7.804   9.406  69.584  1.00  0.00    -0.086 OA 
HETATM   12  C   UNL     1      -8.920   9.613  70.039  1.00  0.00    -0.237 C  
ENDROOT
BRANCH  10  13
HETATM   13  C   UNL     1      -9.526  11.501  68.546  1.00  0.00    -0.174 C  
BRANCH  13  14
HETATM   14  C   UNL     1     -10.134  11.046  67.201  1.00  0.00    -0.227 C  
HETATM   15  C   UNL     1      -9.070  10.306  66.366  1.00  0.00    -0.174 C  
HETATM   16  C   UNL     1      -9.646   9.772  65.062  1.00  0.00    -0.333 C  
HETATM   17  C   UNL     1     -10.313  10.876  64.253  1.00  0.00    -0.436 C  
HETATM   18  C   UNL     1     -11.366  11.619  65.073  1.00  0.00    -0.237 C  
HETATM   19  C   UNL     1     -10.762  12.206  66.365  1.00  0.00    -0.292 C  
BRANCH  19  20
HETATM   20  C   UNL     1     -11.821  12.982  67.184  1.00  0.00    -0.373 C  
BRANCH  20  21
HETATM   21  N   UNL     1     -11.932  14.433  66.941  1.00  0.00    -0.419 NA 
HETATM   22  C   UNL     1     -11.780  15.173  68.226  1.00  0.00    -0.314 C  
HETATM   23  C   UNL     1     -10.386  15.025  68.869  1.00  0.00    -0.244 C  
HETATM   24  N   UNL     1      -9.311  15.427  67.946  1.00  0.00    -0.192 NA 
HETATM   25  C   UNL     1      -9.435  14.943  66.558  1.00  0.00    -0.283 C  
HETATM   26  C   UNL     1     -10.893  14.966  66.028  1.00  0.00    -0.328 C  
BRANCH  24  27
HETATM   27  C   UNL     1      -8.653  16.600  68.207  1.00  0.00    -0.212 A  
HETATM   28  N   UNL     1      -7.435  16.639  68.742  1.00  0.00    -0.212 NA 
HETATM   29  S   UNL     1      -6.895  18.192  68.779  1.00  0.00    -0.265 SA 
HETATM   30  C   UNL     1      -8.272  18.898  68.044  1.00  0.00    -0.293 A  
HETATM   31  C   UNL     1      -8.504  20.240  67.697  1.00  0.00    -0.327 A  
HETATM   32  C   UNL     1      -9.717  20.569  67.089  1.00  0.00    -0.581 A  
HETATM   33  C   UNL     1     -10.670  19.590  66.835  1.00  0.00    -0.576 A  
HETATM   34  C   UNL     1     -10.422  18.255  67.175  1.00  0.00    -0.417 A  
HETATM   35  C   UNL     1      -9.203  17.886  67.801  1.00  0.00    -0.258 A  
ENDBRANCH  24  27
ENDBRANCH  20  21
ENDBRANCH  19  20
ENDBRANCH  13  14
ENDBRANCH  10  13
TORSDOF 5
ENDMDL
MODEL        8
REMARK 921   NORMALIZED FREE ENERGY PREDICTED BY IDOCK:   -7.17 KCAL/MOL
REMARK 922        TOTAL FREE ENERGY PREDICTED BY IDOCK:  -10.99 KCAL/MOL
REMARK 923 INTER-LIGAND FREE ENERGY PREDICTED BY IDOCK:   -9.83 KCAL/MOL
REMARK 924 INTRA-LIGAND FREE ENERGY PREDICTED BY IDOCK:   -1.16 KCAL/MOL
REMARK 927      BINDING AFFINITY PREDICTED BY RF-SCORE:    0.00 PKD
ROOT
HETATM    1  C   UNL     1      -9.095  10.738  68.683  1.00  0.00    -0.173 C  
HETATM    2  C   UNL     1      -8.937   9.827  67.453  1.00  0.00    -0.144 C  
HETATM    3  C   UNL     1      -7.910   8.731  67.803  1.00  0.00    -0.102 C  
HETATM    4  C   UNL     1      -8.672   7.851  68.815  1.00  0.00    -0.128 C  
HETATM    5  C   UNL     1     -10.048   8.541  68.907  1.00  0.00    -0.213 C  
HETATM    6  C   UNL     1     -10.229   9.007  67.459  1.00  0.00    -0.302 C  
HETATM    7  C   UNL     1      -9.852   9.856  69.680  1.00  0.00    -0.255 C  
HETATM    8  C   UNL     1     -11.135  10.595  69.937  1.00  0.00    -0.298 C  
HETATM    9  O   UNL     1     -12.056  10.164  70.613  1.00  0.00    -0.286 OA 
HETATM   10  N   UNL     1     -11.102  11.784  69.266  1.00  0.00    -0.238 N  
HETATM   11  O   UNL     1      -9.819  12.777  67.611  1.00  0.00    -0.205 OA 
HETATM   12  C   UNL     1     -10.016  11.902  68.441  1.00  0.00    -0.203 C  
ENDROOT
BRANCH  10  13
HETATM   13  C   UNL     1     -12.201  12.737  69.270  1.00  0.00    -0.054 C  
BRANCH  13  14
HETATM   14  C   UNL     1     -12.179  13.647  70.518  1.00  0.00    -0.438 C  
HETATM   15  C   UNL     1     -13.305  13.235  71.487  1.00  0.00    -0.330 C  
HETATM   16  C   UNL     1     -13.276  14.056  72.769  1.00  0.00    -0.580 C  
HETATM   17  C   UNL     1     -13.316  15.549  72.476  1.00  0.00    -0.591 C  
HETATM   18  C   UNL     1     -12.208  15.967  71.513  1.00  0.00    -0.525 C  
HETATM   19  C   UNL     1     -12.279  15.171  70.193  1.00  0.00    -0.395 C  
BRANCH  19  20
HETATM   20  C   UNL     1     -11.173  15.610  69.205  1.00  0.00    -0.315 C  
BRANCH  20  21
HETATM   21  N   UNL     1     -10.142  16.535  69.712  1.00  0.00    -0.101 NA 
HETATM   22  C   UNL     1      -8.792  16.068  69.286  1.00  0.00    -0.227 C  
HETATM   23  C   UNL     1      -8.576  16.096  67.759  1.00  0.00    -0.167 C  
HETATM   24  N   UNL     1      -8.830  17.432  67.194  1.00  0.00    -0.227 NA 
HETATM   25  C   UNL     1     -10.034  18.126  67.687  1.00  0.00    -0.337 C  
HETATM   26  C   UNL     1     -10.282  17.921  69.205  1.00  0.00    -0.185 C  
BRANCH  24  27
HETATM   27  C   UNL     1      -7.749  18.156  66.763  1.00  0.00    -0.225 A  
HETATM   28  N   UNL     1      -7.401  18.236  65.480  1.00  0.00    -0.535 NA 
HETATM   29  S   UNL     1      -6.157  19.299  65.309  1.00  0.00    -0.276 SA 
HETATM   30  C   UNL     1      -6.039  19.733  66.962  1.00  0.00    -0.176 A  
HETATM   31  C   UNL     1      -5.191  20.671  67.575  1.00  0.00    -0.223 A  
HETATM   32  C   UNL     1      -5.294  20.857  68.955  1.00  0.00    -0.394 A  
HETATM   33  C   UNL     1      -6.213  20.131  69.701  1.00  0.00    -0.377 A  
HETATM   34  C   UNL     1      -7.060  19.208  69.077  1.00  0.00    -0.377 A  
HETATM   35  C   UNL     1      -6.979  18.987  67.677  1.00  0.00    -0.230 A  
ENDBRANCH  24  27
ENDBRANCH  20  21
ENDBRANCH  19  20
ENDBRANCH  13  14
ENDBRANCH  10  13
TORSDOF 5
ENDMDL
MODEL        9
REMARK 921   NORMALIZED FREE ENERGY PREDICTED BY IDOCK:   -7.15 KCAL/MOL
REMARK 922        TOTAL FREE ENERGY PREDICTED BY IDOCK:  -10.97 KCAL/MOL
REMARK 923 INTER-LIGAND FREE ENERGY PREDICTED BY IDOCK:  -10.04 KCAL/MOL
REMARK 924 INTRA-LIGAND FREE ENERGY PREDICTED BY IDOCK:   -0.93 KCAL/MOL
REMARK 927      BINDING AFFINITY PREDICTED BY RF-SCORE:    0.00 PKD
ROOT
HETATM    1  C   UNL     1     -12.710  15.429  70.112  1.00  0.00    -0.263 C  
HETATM    2  C   UNL     1     -12.607  15.799  71.602  1.00  0.00    -0.521 C  
HETATM    3  C   UNL     1     -13.994  15.584  72.240  1.00  0.00    -0.642 C  
HETATM    4  C   UNL     1     -14.138  14.049  72.253  1.00  0.00    -0.633 C  
HETATM    5  C   UNL     1     -12.807  13.572  71.636  1.00  0.00    -0.419 C  
HETATM    6  C   UNL     1     -11.842  14.618  72.202  1.00  0.00    -0.199 C  
HETATM    7  C   UNL     1     -12.850  13.904  70.136  1.00  0.00    -0.053 C  
HETATM    8  C   UNL     1     -11.653  13.404  69.378  1.00  0.00    -0.307 C  
HETATM    9  O   UNL     1     -11.356  12.225  69.258  1.00  0.00    -0.255 OA 
HETATM   10  N   UNL     1     -10.957  14.474  68.895  1.00  0.00    -0.247 N  
HETATM   11  O   UNL     1     -10.911  16.769  69.217  1.00  0.00    -0.325 OA 
HETATM   12  C   UNL     1     -11.434  15.673  69.354  1.00  0.00    -0.348 C  
ENDROOT
BRANCH  10  13
HETATM   13  C   UNL     1      -9.721  14.351  68.139  1.00  0.00    -0.223 C  
BRANCH  13  14
HETATM   14  C   UNL     1      -9.977  14.211  66.622  1.00  0.00    -0.280 C  
HETATM   15  C   UNL     1     -11.214  15.039  66.220  1.00  0.00    -0.309 C  
HETATM   16  C   UNL     1     -11.461  14.992  64.718  1.00  0.00    -0.403 C  
HETATM   17  C   UNL     1     -11.567  13.559  64.214  1.00  0.00    -0.433 C  
HETATM   18  C   UNL     1     -10.349  12.729  64.612  1.00  0.00    -0.362 C  
HETATM   19  C   UNL     1     -10.138  12.734  66.140  1.00  0.00    -0.274 C  
BRANCH  19  20
HETATM   20  C   UNL     1      -8.920  11.872  66.548  1.00  0.00    -0.199 C  
BRANCH  20  21
HETATM   21  N   UNL     1      -8.907  10.466  66.100  1.00  0.00    -0.153 NA 
HETATM   22  C   UNL     1      -8.037   9.658  67.000  1.00  0.00    -0.113 C  
HETATM   23  C   UNL     1      -8.554   9.566  68.451  1.00  0.00    -0.120 C  
HETATM   24  N   UNL     1      -9.930   9.046  68.509  1.00  0.00    -0.170 NA 
HETATM   25  C   UNL     1     -10.876   9.601  67.522  1.00  0.00    -0.198 C  
HETATM   26  C   UNL     1     -10.242   9.821  66.123  1.00  0.00    -0.208 C  
BRANCH  24  27
HETATM   27  C   UNL     1     -10.111   7.777  68.993  1.00  0.00    -0.196 A  
HETATM   28  N   UNL     1      -9.860   6.687  68.270  1.00  0.00    -0.135 NA 
HETATM   29  S   UNL     1     -10.042   5.346  69.205  1.00  0.00    -0.244 SA 
HETATM   30  C   UNL     1     -10.445   6.169  70.654  1.00  0.00    -0.236 A  
HETATM   31  C   UNL     1     -10.697   5.644  71.933  1.00  0.00    -0.299 A  
HETATM   32  C   UNL     1     -10.996   6.532  72.968  1.00  0.00    -0.270 A  
HETATM   33  C   UNL     1     -11.043   7.900  72.736  1.00  0.00    -0.462 A  
HETATM   34  C   UNL     1     -10.778   8.412  71.460  1.00  0.00    -0.313 A  
HETATM   35  C   UNL     1     -10.478   7.538  70.382  1.00  0.00    -0.227 A  
ENDBRANCH  24  27
ENDBRANCH  20  21
ENDBRANCH  19  20
ENDBRANCH  13  14
ENDBRANCH  10  13
TORSDOF 5
ENDMDL
MODEL       10
REMARK 921   NORMALIZED FREE ENERGY PREDICTED BY IDOCK:   -7.15 KCAL/MOL
REMARK 922        TOTAL FREE ENERGY PREDICTED BY IDOCK:  -10.96 KCAL/MOL
REMARK 923 INTER-LIGAND FREE ENERGY PREDICTED BY IDOCK:   -9.79 KCAL/MOL
REMARK 924 INTRA-LIGAND FREE ENERGY PREDICTED BY IDOCK:   -1.17 KCAL/MOL
REMARK 927      BINDING AFFINITY PREDICTED BY RF-SCORE:    0.00 PKD
ROOT
HETATM    1  C   UNL     1     -10.321   6.246  70.989  1.00  0.00    -0.258 C  
HETATM    2  C   UNL     1     -11.490   6.100  71.980  1.00  0.00    -0.366 C  
HETATM    3  C   UNL     1     -10.929   5.517  73.291  1.00  0.00    -0.339 C  
HETATM    4  C   UNL     1     -10.105   6.686  73.868  1.00  0.00    -0.349 C  
HETATM    5  C   UNL     1     -10.309   7.802  72.823  1.00  0.00    -0.374 C  
HETATM    6  C   UNL     1     -11.761   7.542  72.412  1.00  0.00    -0.335 C  
HETATM    7  C   UNL     1      -9.511   7.409  71.569  1.00  0.00    -0.162 C  
HETATM    8  C   UNL     1      -9.534   8.457  70.493  1.00  0.00    -0.169 C  
HETATM    9  O   UNL     1      -9.071   9.581  70.614  1.00  0.00    -0.245 OA 
HETATM   10  N   UNL     1     -10.180   7.954  69.400  1.00  0.00    -0.201 N  
HETATM   11  O   UNL     1     -11.521   6.132  68.896  1.00  0.00    -0.305 OA 
HETATM   12  C   UNL     1     -10.754   6.733  69.634  1.00  0.00    -0.251 C  
ENDROOT
BRANCH  10  13
HETATM   13  C   UNL     1     -10.411   8.718  68.184  1.00  0.00    -0.191 C  
BRANCH  13  14
HETATM   14  C   UNL     1      -9.585   8.182  66.993  1.00  0.00    -0.253 C  
HETATM   15  C   UNL     1      -8.450   7.276  67.509  1.00  0.00    -0.119 C  
HETATM   16  C   UNL     1      -7.654   6.662  66.365  1.00  0.00    -0.090 C  
HETATM   17  C   UNL     1      -7.123   7.730  65.419  1.00  0.00    -0.059 C  
HETATM   18  C   UNL     1      -8.239   8.637  64.907  1.00  0.00    -0.159 C  
HETATM   19  C   UNL     1      -9.005   9.300  66.070  1.00  0.00    -0.215 C  
BRANCH  19  20
HETATM   20  C   UNL     1     -10.120  10.240  65.554  1.00  0.00    -0.281 C  
BRANCH  20  21
HETATM   21  N   UNL     1      -9.831  11.687  65.542  1.00  0.00    -0.229 NA 
HETATM   22  C   UNL     1     -11.107  12.455  65.599  1.00  0.00    -0.306 C  
HETATM   23  C   UNL     1     -11.895  12.260  66.911  1.00  0.00    -0.264 C  
HETATM   24  N   UNL     1     -11.078  12.582  68.094  1.00  0.00    -0.228 NA 
HETATM   25  C   UNL     1      -9.697  12.064  68.089  1.00  0.00    -0.199 C  
HETATM   26  C   UNL     1      -9.019  12.142  66.695  1.00  0.00    -0.198 C  
BRANCH  24  27
HETATM   27  C   UNL     1     -11.378  13.729  68.781  1.00  0.00    -0.283 A  
HETATM   28  N   UNL     1     -11.124  14.944  68.300  1.00  0.00    -0.270 NA 
HETATM   29  S   UNL     1     -11.744  16.083  69.313  1.00  0.00    -0.236 SA 
HETATM   30  C   UNL     1     -12.419  14.991  70.448  1.00  0.00    -0.356 A  
HETATM   31  C   UNL     1     -13.175  15.262  71.600  1.00  0.00    -0.532 A  
HETATM   32  C   UNL     1     -13.630  14.187  72.366  1.00  0.00    -0.632 A  
HETATM   33  C   UNL     1     -13.339  12.881  71.995  1.00  0.00    -0.579 A  
HETATM   34  C   UNL     1     -12.594  12.622  70.837  1.00  0.00    -0.338 A  
HETATM   35  C   UNL     1     -12.110  13.691  70.039  1.00  0.00    -0.417 A  
ENDBRANCH  24  27
ENDBRANCH  20  21
ENDBRANCH  19  20
ENDBRANCH  13  14
ENDBRANCH  10  13
TORSDOF 5
ENDMDL
MODEL       11
REMARK 921   NORMALIZED FREE ENERGY PREDICTED BY IDOCK:   -7.14 KCAL/MOL
REMARK 922        TOTAL FREE ENERGY PREDICTED BY IDOCK:  -10.96 KCAL/MOL
REMARK 923 INTER-LIGAND FREE ENERGY PREDICTED BY IDOCK:   -9.90 KCAL/MOL
REMARK 924 INTRA-LIGAND FREE ENERGY PREDICTED BY IDOCK:   -1.05 KCAL/MOL
REMARK 927      BINDING AFFINITY PREDICTED BY RF-SCORE:    0.00 PKD
ROOT
HETATM    1  C   UNL     1     -10.186  17.548  68.480  1.00  0.00    -0.378 C  
HETATM    2  C   UNL     1     -10.830  18.676  67.655  1.00  0.00    -0.347 C  
HETATM    3  C   UNL     1     -10.042  19.972  67.929  1.00  0.00    -0.559 C  
HETATM    4  C   UNL     1      -8.697  19.721  67.218  1.00  0.00    -0.382 C  
HETATM    5  C   UNL     1      -8.886  18.317  66.608  1.00  0.00    -0.294 C  
HETATM    6  C   UNL     1     -10.369  18.370  66.228  1.00  0.00    -0.440 C  
HETATM    7  C   UNL     1      -8.854  17.305  67.765  1.00  0.00    -0.234 C  
HETATM    8  C   UNL     1      -8.926  15.874  67.310  1.00  0.00    -0.195 C  
HETATM    9  O   UNL     1      -8.084  15.328  66.615  1.00  0.00    -0.200 OA 
HETATM   10  N   UNL     1     -10.087  15.323  67.770  1.00  0.00    -0.229 N  
HETATM   11  O   UNL     1     -12.074  16.060  68.710  1.00  0.00    -0.255 OA 
HETATM   12  C   UNL     1     -10.916  16.239  68.360  1.00  0.00    -0.351 C  
ENDROOT
BRANCH  10  13
HETATM   13  C   UNL     1     -10.493  13.956  67.484  1.00  0.00    -0.248 C  
BRANCH  13  14
HETATM   14  C   UNL     1     -10.683  13.708  65.971  1.00  0.00    -0.280 C  
HETATM   15  C   UNL     1     -12.075  14.203  65.529  1.00  0.00    -0.421 C  
HETATM   16  C   UNL     1     -12.279  14.049  64.028  1.00  0.00    -0.395 C  
HETATM   17  C   UNL     1     -12.031  12.617  63.575  1.00  0.00    -0.630 C  
HETATM   18  C   UNL     1     -10.656  12.116  64.013  1.00  0.00    -0.429 C  
HETATM   19  C   UNL     1     -10.479  12.221  65.541  1.00  0.00    -0.296 C  
BRANCH  19  20
HETATM   20  C   UNL     1      -9.097  11.689  65.991  1.00  0.00    -0.182 C  
BRANCH  20  21
HETATM   21  N   UNL     1      -8.847  10.244  65.836  1.00  0.00    -0.153 NA 
HETATM   22  C   UNL     1      -7.744   9.823  66.745  1.00  0.00    -0.098 C  
HETATM   23  C   UNL     1      -8.081   9.968  68.243  1.00  0.00    -0.104 C  
HETATM   24  N   UNL     1      -9.311   9.241  68.601  1.00  0.00    -0.138 NA 
HETATM   25  C   UNL     1     -10.445   9.388  67.668  1.00  0.00    -0.268 C  
HETATM   26  C   UNL     1     -10.015   9.397  66.177  1.00  0.00    -0.281 C  
BRANCH  24  27
HETATM   27  C   UNL     1      -9.181   8.101  69.349  1.00  0.00    -0.155 A  
HETATM   28  N   UNL     1      -8.316   7.135  69.048  1.00  0.00    -0.125 NA 
HETATM   29  S   UNL     1      -8.323   5.994  70.232  1.00  0.00    -0.125 SA 
HETATM   30  C   UNL     1      -9.481   6.759  71.237  1.00  0.00    -0.165 A  
HETATM   31  C   UNL     1      -9.963   6.364  72.497  1.00  0.00    -0.183 A  
HETATM   32  C   UNL     1     -10.909   7.174  73.130  1.00  0.00    -0.373 A  
HETATM   33  C   UNL     1     -11.359   8.341  72.526  1.00  0.00    -0.455 A  
HETATM   34  C   UNL     1     -10.862   8.729  71.277  1.00  0.00    -0.347 A  
HETATM   35  C   UNL     1      -9.906   7.927  70.600  1.00  0.00    -0.187 A  
ENDBRANCH  24  27
ENDBRANCH  20  21
ENDBRANCH  19  20
ENDBRANCH  13  14
ENDBRANCH  10  13
TORSDOF 5
ENDMDL
MODEL       12
REMARK 921   NORMALIZED FREE ENERGY PREDICTED BY IDOCK:   -7.10 KCAL/MOL
REMARK 922        TOTAL FREE ENERGY PREDICTED BY IDOCK:  -10.90 KCAL/MOL
REMARK 923 INTER-LIGAND FREE ENERGY PREDICTED BY IDOCK:   -9.55 KCAL/MOL
REMARK 924 INTRA-LIGAND FREE ENERGY PREDICTED BY IDOCK:   -1.35 KCAL/MOL
REMARK 927      BINDING AFFINITY PREDICTED BY RF-SCORE:    0.00 PKD
ROOT
HETATM    1  C   UNL     1     -10.635  13.708  65.925  1.00  0.00    -0.289 C  
HETATM    2  C   UNL     1     -11.777  14.574  65.365  1.00  0.00    -0.354 C  
HETATM    3  C   UNL     1     -11.787  14.410  63.832  1.00  0.00    -0.086 C  
HETATM    4  C   UNL     1     -12.295  12.966  63.640  1.00  0.00    -0.520 C  
HETATM    5  C   UNL     1     -12.529  12.486  65.086  1.00  0.00    -0.451 C  
HETATM    6  C   UNL     1     -13.030  13.779  65.736  1.00  0.00    -0.310 C  
HETATM    7  C   UNL     1     -11.149  12.279  65.731  1.00  0.00    -0.362 C  
HETATM    8  C   UNL     1     -11.218  11.711  67.121  1.00  0.00    -0.309 C  
HETATM    9  O   UNL     1     -11.674  10.612  67.396  1.00  0.00    -0.391 OA 
HETATM   10  N   UNL     1     -10.727  12.634  67.999  1.00  0.00    -0.219 N  
HETATM   11  O   UNL     1     -10.181  14.887  67.984  1.00  0.00    -0.225 OA 
HETATM   12  C   UNL     1     -10.468  13.844  67.414  1.00  0.00    -0.263 C  
ENDROOT
BRANCH  10  13
HETATM   13  C   UNL     1     -10.678  12.424  69.438  1.00  0.00     0.165 C  
BRANCH  13  14
HETATM   14  C   UNL     1     -12.028  12.737  70.120  1.00  0.00    -0.371 C  
HETATM   15  C   UNL     1     -12.074  14.220  70.537  1.00  0.00    -0.413 C  
HETATM   16  C   UNL     1     -13.419  14.595  71.145  1.00  0.00    -0.425 C  
HETATM   17  C   UNL     1     -13.778  13.681  72.309  1.00  0.00    -0.687 C  
HETATM   18  C   UNL     1     -13.730  12.209  71.908  1.00  0.00     0.015 C  
HETATM   19  C   UNL     1     -12.346  11.823  71.345  1.00  0.00    -0.153 C  
BRANCH  19  20
HETATM   20  C   UNL     1     -12.286  10.325  70.963  1.00  0.00    -0.381 C  
BRANCH  20  21
HETATM   21  N   UNL     1     -11.369   9.466  71.736  1.00  0.00    -0.375 NA 
HETATM   22  C   UNL     1     -11.974   8.116  71.915  1.00  0.00    -0.320 C  
HETATM   23  C   UNL     1     -12.164   7.338  70.597  1.00  0.00    -0.145 C  
HETATM   24  N   UNL     1     -10.903   7.211  69.848  1.00  0.00    -0.249 NA 
HETATM   25  C   UNL     1     -10.074   8.429  69.763  1.00  0.00    -0.197 C  
HETATM   26  C   UNL     1     -10.058   9.252  71.079  1.00  0.00    -0.303 C  
BRANCH  24  27
HETATM   27  C   UNL     1     -10.313   5.976  69.800  1.00  0.00    -0.228 A  
HETATM   28  N   UNL     1     -10.043   5.263  70.892  1.00  0.00    -0.213 NA 
HETATM   29  S   UNL     1      -9.477   3.780  70.460  1.00  0.00    -0.193 SA 
HETATM   30  C   UNL     1      -9.594   4.009  68.766  1.00  0.00    -0.130 A  
HETATM   31  C   UNL     1      -9.317   3.105  67.726  1.00  0.00    -0.252 A  
HETATM   32  C   UNL     1      -9.504   3.529  66.409  1.00  0.00    -0.164 A  
HETATM   33  C   UNL     1      -9.953   4.815  66.137  1.00  0.00    -0.261 A  
HETATM   34  C   UNL     1     -10.238   5.702  67.182  1.00  0.00    -0.255 A  
HETATM   35  C   UNL     1     -10.052   5.307  68.533  1.00  0.00    -0.232 A  
ENDBRANCH  24  27
ENDBRANCH  20  21
ENDBRANCH  19  20
ENDBRANCH  13  14
ENDBRANCH  10  13
TORSDOF 5
ENDMDL
MODEL       13
REMARK 921   NORMALIZED FREE ENERGY PREDICTED BY IDOCK:   -7.08 KCAL/MOL
REMARK 922        TOTAL FREE ENERGY PREDICTED BY IDOCK:  -10.88 KCAL/MOL
REMARK 923 INTER-LIGAND FREE ENERGY PREDICTED BY IDOCK:  -10.24 KCAL/MOL
REMARK 924 INTRA-LIGAND FREE ENERGY PREDICTED BY IDOCK:   -0.64 KCAL/MOL
REMARK 927      BINDING AFFINITY PREDICTED BY RF-SCORE:    0.00 PKD
ROOT
HETATM    1  C   UNL     1      -9.021  17.572  67.383  1.00  0.00    -0.230 C  
HETATM    2  C   UNL     1      -9.395  18.800  68.232  1.00  0.00    -0.374 C  
HETATM    3  C   UNL     1      -8.423  19.940  67.869  1.00  0.00    -0.332 C  
HETATM    4  C   UNL     1      -8.863  20.333  66.444  1.00  0.00    -0.267 C  
HETATM    5  C   UNL     1     -10.045  19.380  66.172  1.00  0.00    -0.533 C  
HETATM    6  C   UNL     1     -10.676  19.306  67.565  1.00  0.00    -0.571 C  
HETATM    7  C   UNL     1      -9.462  17.971  65.972  1.00  0.00    -0.057 C  
HETATM    8  C   UNL     1     -10.495  16.945  65.597  1.00  0.00    -0.238 C  
HETATM    9  O   UNL     1     -11.157  16.976  64.571  1.00  0.00    -1.098 OA 
HETATM   10  N   UNL     1     -10.583  16.021  66.598  1.00  0.00    -0.316 N  
HETATM   11  O   UNL     1      -9.873  15.806  68.794  1.00  0.00    -0.199 OA 
HETATM   12  C   UNL     1      -9.850  16.359  67.704  1.00  0.00    -0.243 C  
ENDROOT
BRANCH  10  13
HETATM   13  C   UNL     1     -11.512  14.901  66.575  1.00  0.00    -0.286 C  
BRANCH  13  14
HETATM   14  C   UNL     1     -11.270  13.967  65.369  1.00  0.00    -0.319 C  
HETATM   15  C   UNL     1     -12.523  13.932  64.472  1.00  0.00    -0.336 C  
HETATM   16  C   UNL     1     -12.304  13.082  63.228  1.00  0.00    -0.392 C  
HETATM   17  C   UNL     1     -11.841  11.677  63.587  1.00  0.00    -0.390 C  
HETATM   18  C   UNL     1     -10.602  11.701  64.479  1.00  0.00    -0.373 C  
HETATM   19  C   UNL     1     -10.850  12.516  65.765  1.00  0.00    -0.310 C  
BRANCH  19  20
HETATM   20  C   UNL     1      -9.605  12.521  66.684  1.00  0.00    -0.239 C  
BRANCH  20  21
HETATM   21  N   UNL     1      -9.839  12.613  68.138  1.00  0.00    -0.222 NA 
HETATM   22  C   UNL     1     -11.125  11.946  68.485  1.00  0.00    -0.243 C  
HETATM   23  C   UNL     1     -11.131  10.426  68.219  1.00  0.00    -0.281 C  
HETATM   24  N   UNL     1     -10.025   9.744  68.913  1.00  0.00    -0.168 NA 
HETATM   25  C   UNL     1      -8.709  10.406  68.841  1.00  0.00    -0.157 C  
HETATM   26  C   UNL     1      -8.793  11.952  68.953  1.00  0.00     0.176 C  
BRANCH  24  27
HETATM   27  C   UNL     1     -10.339   8.957  69.989  1.00  0.00    -0.204 A  
HETATM   28  N   UNL     1     -10.953   9.428  71.073  1.00  0.00    -0.309 NA 
HETATM   29  S   UNL     1     -11.304   8.188  72.095  1.00  0.00    -0.363 SA 
HETATM   30  C   UNL     1     -10.669   6.936  71.112  1.00  0.00    -0.225 A  
HETATM   31  C   UNL     1     -10.665   5.548  71.334  1.00  0.00    -0.290 A  
HETATM   32  C   UNL     1     -10.091   4.722  70.366  1.00  0.00    -0.301 A  
HETATM   33  C   UNL     1      -9.537   5.263  69.212  1.00  0.00    -0.214 A  
HETATM   34  C   UNL     1      -9.557   6.646  68.998  1.00  0.00    -0.133 A  
HETATM   35  C   UNL     1     -10.126   7.517  69.964  1.00  0.00    -0.199 A  
ENDBRANCH  24  27
ENDBRANCH  20  21
ENDBRANCH  19  20
ENDBRANCH  13  14
ENDBRANCH  10  13
TORSDOF 5
ENDMDL
MODEL       14
REMARK 921   NORMALIZED FREE ENERGY PREDICTED BY IDOCK:   -7.06 KCAL/MOL
REMARK 922        TOTAL FREE ENERGY PREDICTED BY IDOCK:  -10.85 KCAL/MOL
REMARK 923 INTER-LIGAND FREE ENERGY PREDICTED BY IDOCK:   -9.94 KCAL/MOL
REMARK 924 INTRA-LIGAND FREE ENERGY PREDICTED BY IDOCK:   -0.91 KCAL/MOL
REMARK 927      BINDING AFFINITY PREDICTED BY RF-SCORE:    0.00 PKD
ROOT
HETATM    1  C   UNL     1     -11.606   9.721  69.957  1.00  0.00    -0.185 C  
HETATM    2  C   UNL     1     -10.962   9.589  71.348  1.00  0.00    -0.415 C  
HETATM    3  C   UNL     1     -11.461   8.275  71.979  1.00  0.00    -0.399 C  
HETATM    4  C   UNL     1     -10.748   7.193  71.143  1.00  0.00    -0.252 C  
HETATM    5  C   UNL     1      -9.914   8.022  70.145  1.00  0.00    -0.191 C  
HETATM    6  C   UNL     1      -9.515   9.209  71.027  1.00  0.00    -0.344 C  
HETATM    7  C   UNL     1     -10.891   8.645  69.134  1.00  0.00    -0.060 C  
HETATM    8  C   UNL     1     -10.207   9.405  68.033  1.00  0.00    -0.204 C  
HETATM    9  O   UNL     1      -9.451   8.905  67.215  1.00  0.00    -0.145 OA 
HETATM   10  N   UNL     1     -10.545  10.724  68.132  1.00  0.00    -0.189 N  
HETATM   11  O   UNL     1     -11.548  12.120  69.687  1.00  0.00    -0.298 OA 
HETATM   12  C   UNL     1     -11.258  11.010  69.265  1.00  0.00    -0.257 C  
ENDROOT
BRANCH  10  13
HETATM   13  C   UNL     1     -10.032  11.752  67.239  1.00  0.00    -0.192 C  
BRANCH  13  14
HETATM   14  C   UNL     1     -11.072  12.175  66.178  1.00  0.00    -0.354 C  
HETATM   15  C   UNL     1     -10.837  11.392  64.871  1.00  0.00    -0.323 C  
HETATM   16  C   UNL     1     -11.888  11.720  63.819  1.00  0.00    -0.484 C  
HETATM   17  C   UNL     1     -11.968  13.218  63.560  1.00  0.00    -0.537 C  
HETATM   18  C   UNL     1     -12.195  14.004  64.849  1.00  0.00    -0.455 C  
HETATM   19  C   UNL     1     -11.095  13.709  65.890  1.00  0.00    -0.289 C  
BRANCH  19  20
HETATM   20  C   UNL     1     -11.308  14.524  67.188  1.00  0.00    -0.350 C  
BRANCH  20  21
HETATM   21  N   UNL     1     -10.108  14.867  67.975  1.00  0.00    -0.219 NA 
HETATM   22  C   UNL     1      -8.994  15.239  67.058  1.00  0.00    -0.233 C  
HETATM   23  C   UNL     1      -9.262  16.519  66.239  1.00  0.00    -0.310 C  
HETATM   24  N   UNL     1      -9.584  17.666  67.104  1.00  0.00    -0.271 NA 
HETATM   25  C   UNL     1     -10.525  17.400  68.209  1.00  0.00    -0.385 C  
HETATM   26  C   UNL     1     -10.303  16.021  68.885  1.00  0.00    -0.235 C  
BRANCH  24  27
HETATM   27  C   UNL     1      -8.644  18.655  67.228  1.00  0.00    -0.266 A  
HETATM   28  N   UNL     1      -8.760  19.839  66.630  1.00  0.00    -0.337 NA 
HETATM   29  S   UNL     1      -7.535  20.826  67.112  1.00  0.00    -0.256 SA 
HETATM   30  C   UNL     1      -6.792  19.712  68.181  1.00  0.00    -0.279 A  
HETATM   31  C   UNL     1      -5.675  19.891  69.015  1.00  0.00    -0.266 A  
HETATM   32  C   UNL     1      -5.264  18.822  69.813  1.00  0.00    -0.198 A  
HETATM   33  C   UNL     1      -5.945  17.612  69.782  1.00  0.00    -0.245 A  
HETATM   34  C   UNL     1      -7.064  17.450  68.956  1.00  0.00    -0.233 A  
HETATM   35  C   UNL     1      -7.506  18.513  68.125  1.00  0.00    -0.284 A  
ENDBRANCH  24  27
ENDBRANCH  20  21
ENDBRANCH  19  20
ENDBRANCH  13  14
ENDBRANCH  10  13
TORSDOF 5
ENDMDL
MODEL       15
REMARK 921   NORMALIZED FREE ENERGY PREDICTED BY IDOCK:   -6.95 KCAL/MOL
REMARK 922        TOTAL FREE ENERGY PREDICTED BY IDOCK:  -10.70 KCAL/MOL
REMARK 923 INTER-LIGAND FREE ENERGY PREDICTED BY IDOCK:  -10.11 KCAL/MOL
REMARK 924 INTRA-LIGAND FREE ENERGY PREDICTED BY IDOCK:   -0.59 KCAL/MOL
REMARK 927      BINDING AFFINITY PREDICTED BY RF-SCORE:    0.00 PKD
ROOT
HETATM    1  C   UNL     1     -10.221   7.825  72.457  1.00  0.00    -0.320 C  
HETATM    2  C   UNL     1      -9.785   6.449  71.922  1.00  0.00    -0.162 C  
HETATM    3  C   UNL     1     -10.195   5.387  72.961  1.00  0.00    -0.212 C  
HETATM    4  C   UNL     1     -11.732   5.356  72.840  1.00  0.00    -0.232 C  
HETATM    5  C   UNL     1     -12.013   6.393  71.735  1.00  0.00    -0.370 C  
HETATM    6  C   UNL     1     -10.807   6.166  70.819  1.00  0.00    -0.350 C  
HETATM    7  C   UNL     1     -11.747   7.785  72.332  1.00  0.00    -0.394 C  
HETATM    8  C   UNL     1     -12.077   8.911  71.393  1.00  0.00    -0.322 C  
HETATM    9  O   UNL     1     -13.197   9.148  70.967  1.00  0.00    -0.200 OA 
HETATM   10  N   UNL     1     -10.928   9.579  71.084  1.00  0.00    -0.344 N  
HETATM   11  O   UNL     1      -8.644   9.247  71.305  1.00  0.00    -0.310 OA 
HETATM   12  C   UNL     1      -9.805   8.963  71.566  1.00  0.00    -0.314 C  
ENDROOT
BRANCH  10  13
HETATM   13  C   UNL     1     -10.880  10.710  70.169  1.00  0.00    -0.157 C  
BRANCH  13  14
HETATM   14  C   UNL     1     -10.964  10.268  68.691  1.00  0.00    -0.289 C  
HETATM   15  C   UNL     1     -10.419   8.833  68.541  1.00  0.00    -0.212 C  
HETATM   16  C   UNL     1     -10.553   8.325  67.112  1.00  0.00    -0.340 C  
HETATM   17  C   UNL     1      -9.895   9.274  66.119  1.00  0.00    -0.363 C  
HETATM   18  C   UNL     1     -10.424  10.699  66.264  1.00  0.00    -0.268 C  
HETATM   19  C   UNL     1     -10.233  11.228  67.700  1.00  0.00    -0.206 C  
BRANCH  19  20
HETATM   20  C   UNL     1     -10.744  12.681  67.843  1.00  0.00    -0.218 C  
BRANCH  20  21
HETATM   21  N   UNL     1      -9.809  13.674  68.406  1.00  0.00    -0.228 NA 
HETATM   22  C   UNL     1      -8.939  14.216  67.325  1.00  0.00    -0.214 C  
HETATM   23  C   UNL     1      -9.704  15.017  66.251  1.00  0.00    -0.291 C  
HETATM   24  N   UNL     1     -10.489  16.114  66.841  1.00  0.00    -0.302 NA 
HETATM   25  C   UNL     1     -11.250  15.784  68.062  1.00  0.00    -0.338 C  
HETATM   26  C   UNL     1     -10.482  14.841  69.025  1.00  0.00    -0.249 C  
BRANCH  24  27
HETATM   27  C   UNL     1     -10.050  17.395  66.633  1.00  0.00    -0.317 A  
HETATM   28  N   UNL     1     -10.658  18.240  65.803  1.00  0.00    -0.563 NA 
HETATM   29  S   UNL     1      -9.956  19.724  65.909  1.00  0.00    -0.296 SA 
HETATM   30  C   UNL     1      -8.805  19.313  67.110  1.00  0.00    -0.294 A  
HETATM   31  C   UNL     1      -7.858  20.130  67.750  1.00  0.00    -0.309 A  
HETATM   32  C   UNL     1      -7.029  19.556  68.716  1.00  0.00    -0.371 A  
HETATM   33  C   UNL     1      -7.139  18.209  69.033  1.00  0.00    -0.244 A  
HETATM   34  C   UNL     1      -8.094  17.407  68.397  1.00  0.00    -0.264 A  
HETATM   35  C   UNL     1      -8.949  17.955  67.405  1.00  0.00    -0.245 A  
ENDBRANCH  24  27
ENDBRANCH  20  21
ENDBRANCH  19  20
ENDBRANCH  13  14
ENDBRANCH  10  13
TORSDOF 5
ENDMDL
MODEL       16
REMARK 921   NORMALIZED FREE ENERGY PREDICTED BY IDOCK:   -6.93 KCAL/MOL
REMARK 922        TOTAL FREE ENERGY PREDICTED BY IDOCK:  -10.68 KCAL/MOL
REMARK 923 INTER-LIGAND FREE ENERGY PREDICTED BY IDOCK:   -9.59 KCAL/MOL
REMARK 924 INTRA-LIGAND FREE ENERGY PREDICTED BY IDOCK:   -1.09 KCAL/MOL
REMARK 927      BINDING AFFINITY PREDICTED BY RF-SCORE:    0.00 PKD
ROOT
HETATM    1  C   UNL     1     -10.739   7.224  72.693  1.00  0.00    -0.318 C  
HETATM    2  C   UNL     1      -9.616   6.404  73.353  1.00  0.00    -0.163 C  
HETATM    3  C   UNL     1     -10.266   5.444  74.370  1.00  0.00    -0.299 C  
HETATM    4  C   UNL     1     -10.986   4.419  73.470  1.00  0.00    -0.379 C  
HETATM    5  C   UNL     1     -10.647   4.909  72.047  1.00  0.00    -0.210 C  
HETATM    6  C   UNL     1      -9.217   5.415  72.256  1.00  0.00    -0.155 C  
HETATM    7  C   UNL     1     -11.447   6.199  71.802  1.00  0.00    -0.342 C  
HETATM    8  C   UNL     1     -11.292   6.742  70.409  1.00  0.00    -0.347 C  
HETATM    9  O   UNL     1     -11.646   6.156  69.397  1.00  0.00    -0.372 OA 
HETATM   10  N   UNL     1     -10.670   7.955  70.474  1.00  0.00    -0.228 N  
HETATM   11  O   UNL     1      -9.501   9.194  72.046  1.00  0.00    -0.323 OA 
HETATM   12  C   UNL     1     -10.225   8.261  71.732  1.00  0.00    -0.230 C  
ENDROOT
BRANCH  10  13
HETATM   13  C   UNL     1     -10.334   8.747  69.301  1.00  0.00    -0.214 C  
BRANCH  13  14
HETATM   14  C   UNL     1      -9.395   7.989  68.336  1.00  0.00    -0.138 C  
HETATM   15  C   UNL     1      -8.255   7.321  69.130  1.00  0.00    -0.122 C  
HETATM   16  C   UNL     1      -7.346   6.497  68.228  1.00  0.00    -0.087 C  
HETATM   17  C   UNL     1      -6.803   7.328  67.074  1.00  0.00    -0.076 C  
HETATM   18  C   UNL     1      -7.925   7.999  66.284  1.00  0.00    -0.105 C  
HETATM   19  C   UNL     1      -8.807   8.877  67.195  1.00  0.00    -0.133 C  
BRANCH  19  20
HETATM   20  C   UNL     1      -9.929   9.579  66.392  1.00  0.00    -0.269 C  
BRANCH  20  21
HETATM   21  N   UNL     1      -9.744  11.009  66.082  1.00  0.00    -0.209 NA 
HETATM   22  C   UNL     1     -11.065  11.699  66.079  1.00  0.00    -0.270 C  
HETATM   23  C   UNL     1     -11.761  11.719  67.456  1.00  0.00    -0.240 C  
HETATM   24  N   UNL     1     -10.904  12.314  68.495  1.00  0.00    -0.228 NA 
HETATM   25  C   UNL     1      -9.492  11.886  68.493  1.00  0.00    -0.148 C  
HETATM   26  C   UNL     1      -8.901  11.728  67.067  1.00  0.00    -0.182 C  
BRANCH  24  27
HETATM   27  C   UNL     1     -11.244  13.554  68.967  1.00  0.00    -0.269 A  
HETATM   28  N   UNL     1     -10.935  14.680  68.326  1.00  0.00    -0.245 NA 
HETATM   29  S   UNL     1     -11.621  15.962  69.094  1.00  0.00    -0.356 SA 
HETATM   30  C   UNL     1     -12.401  15.061  70.325  1.00  0.00    -0.342 A  
HETATM   31  C   UNL     1     -13.246  15.510  71.355  1.00  0.00    -0.587 A  
HETATM   32  C   UNL     1     -13.775  14.567  72.239  1.00  0.00    -0.559 A  
HETATM   33  C   UNL     1     -13.472  13.219  72.100  1.00  0.00    -0.655 A  
HETATM   34  C   UNL     1     -12.639  12.783  71.063  1.00  0.00    -0.362 A  
HETATM   35  C   UNL     1     -12.077  13.714  70.151  1.00  0.00    -0.431 A  
ENDBRANCH  24  27
ENDBRANCH  20  21
ENDBRANCH  19  20
ENDBRANCH  13  14
ENDBRANCH  10  13
TORSDOF 5
ENDMDL
MODEL       17
REMARK 921   NORMALIZED FREE ENERGY PREDICTED BY IDOCK:   -6.93 KCAL/MOL
REMARK 922        TOTAL FREE ENERGY PREDICTED BY IDOCK:  -10.68 KCAL/MOL
REMARK 923 INTER-LIGAND FREE ENERGY PREDICTED BY IDOCK:   -9.50 KCAL/MOL
REMARK 924 INTRA-LIGAND FREE ENERGY PREDICTED BY IDOCK:   -1.18 KCAL/MOL
REMARK 927      BINDING AFFINITY PREDICTED BY RF-SCORE:    0.00 PKD
ROOT
HETATM    1  C   UNL     1      -9.803   8.768  71.478  1.00  0.00    -0.371 C  
HETATM    2  C   UNL     1      -9.973   7.255  71.256  1.00  0.00    -0.191 C  
HETATM    3  C   UNL     1     -10.743   6.683  72.463  1.00  0.00    -0.259 C  
HETATM    4  C   UNL     1     -12.166   7.244  72.266  1.00  0.00    -0.192 C  
HETATM    5  C   UNL     1     -12.041   8.055  70.961  1.00  0.00    -0.232 C  
HETATM    6  C   UNL     1     -11.056   7.181  70.178  1.00  0.00    -0.301 C  
HETATM    7  C   UNL     1     -11.219   9.315  71.279  1.00  0.00    -0.425 C  
HETATM    8  C   UNL     1     -11.098  10.259  70.116  1.00  0.00    -0.319 C  
HETATM    9  O   UNL     1     -12.041  10.829  69.589  1.00  0.00    -0.308 OA 
HETATM   10  N   UNL     1      -9.787  10.334  69.742  1.00  0.00    -0.203 N  
HETATM   11  O   UNL     1      -7.824   9.171  70.152  1.00  0.00    -0.085 OA 
HETATM   12  C   UNL     1      -8.992   9.434  70.401  1.00  0.00    -0.250 C  
ENDROOT
BRANCH  10  13
HETATM   13  C   UNL     1      -9.317  11.136  68.623  1.00  0.00    -0.184 C  
BRANCH  13  14
HETATM   14  C   UNL     1      -9.739  10.540  67.262  1.00  0.00    -0.197 C  
HETATM   15  C   UNL     1      -8.612   9.646  66.708  1.00  0.00    -0.140 C  
HETATM   16  C   UNL     1      -9.013   8.974  65.401  1.00  0.00    -0.249 C  
HETATM   17  C   UNL     1      -9.469   9.995  64.367  1.00  0.00    -0.349 C  
HETATM   18  C   UNL     1     -10.582  10.889  64.908  1.00  0.00    -0.304 C  
HETATM   19  C   UNL     1     -10.148  11.610  66.201  1.00  0.00    -0.259 C  
BRANCH  19  20
HETATM   20  C   UNL     1     -11.265  12.537  66.736  1.00  0.00    -0.296 C  
BRANCH  20  21
HETATM   21  N   UNL     1     -11.489  13.808  66.021  1.00  0.00    -0.318 NA 
HETATM   22  C   UNL     1     -12.151  14.787  66.928  1.00  0.00    -0.090 C  
HETATM   23  C   UNL     1     -11.284  15.205  68.135  1.00  0.00    -0.320 C  
HETATM   24  N   UNL     1      -9.978  15.738  67.712  1.00  0.00    -0.226 NA 
HETATM   25  C   UNL     1      -9.284  14.986  66.650  1.00  0.00    -0.276 C  
HETATM   26  C   UNL     1     -10.241  14.454  65.550  1.00  0.00    -0.363 C  
BRANCH  24  27
HETATM   27  C   UNL     1      -9.766  17.085  67.850  1.00  0.00    -0.263 A  
HETATM   28  N   UNL     1     -10.726  17.988  67.660  1.00  0.00    -0.398 NA 
HETATM   29  S   UNL     1     -10.164  19.484  68.052  1.00  0.00    -0.448 SA 
HETATM   30  C   UNL     1      -8.595  18.987  68.530  1.00  0.00    -0.358 A  
HETATM   31  C   UNL     1      -7.540  19.756  69.050  1.00  0.00    -0.259 A  
HETATM   32  C   UNL     1      -6.346  19.110  69.379  1.00  0.00    -0.330 A  
HETATM   33  C   UNL     1      -6.209  17.740  69.195  1.00  0.00    -0.230 A  
HETATM   34  C   UNL     1      -7.272  16.983  68.686  1.00  0.00    -0.221 A  
HETATM   35  C   UNL     1      -8.497  17.608  68.334  1.00  0.00    -0.287 A  
ENDBRANCH  24  27
ENDBRANCH  20  21
ENDBRANCH  19  20
ENDBRANCH  13  14
ENDBRANCH  10  13
TORSDOF 5
ENDMDL
MODEL       18
REMARK 921   NORMALIZED FREE ENERGY PREDICTED BY IDOCK:   -6.89 KCAL/MOL
REMARK 922        TOTAL FREE ENERGY PREDICTED BY IDOCK:  -10.63 KCAL/MOL
REMARK 923 INTER-LIGAND FREE ENERGY PREDICTED BY IDOCK:   -9.33 KCAL/MOL
REMARK 924 INTRA-LIGAND FREE ENERGY PREDICTED BY IDOCK:   -1.30 KCAL/MOL
REMARK 927      BINDING AFFINITY PREDICTED BY RF-SCORE:    0.00 PKD
ROOT
HETATM    1  C   UNL     1      -8.917  15.045  66.637  1.00  0.00    -0.313 C  
HETATM    2  C   UNL     1      -9.354  15.763  67.926  1.00  0.00    -0.200 C  
HETATM    3  C   UNL     1      -9.152  17.276  67.717  1.00  0.00    -0.235 C  
HETATM    4  C   UNL     1     -10.258  17.639  66.704  1.00  0.00    -0.341 C  
HETATM    5  C   UNL     1     -10.968  16.290  66.470  1.00  0.00    -0.007 C  
HETATM    6  C   UNL     1     -10.880  15.677  67.871  1.00  0.00    -0.306 C  
HETATM    7  C   UNL     1     -10.020  15.409  65.639  1.00  0.00    -0.396 C  
HETATM    8  C   UNL     1     -10.623  14.090  65.246  1.00  0.00    -0.363 C  
HETATM    9  O   UNL     1     -11.604  13.965  64.529  1.00  0.00    -0.368 OA 
HETATM   10  N   UNL     1      -9.919  13.086  65.847  1.00  0.00    -0.277 N  
HETATM   11  O   UNL     1      -8.342  12.877  67.533  1.00  0.00    -0.160 OA 
HETATM   12  C   UNL     1      -8.991  13.546  66.742  1.00  0.00    -0.176 C  
ENDROOT
BRANCH  10  13
HETATM   13  C   UNL     1     -10.253  11.677  65.707  1.00  0.00    -0.240 C  
BRANCH  13  14
HETATM   14  C   UNL     1      -9.283  10.940  64.757  1.00  0.00    -0.227 C  
HETATM   15  C   UNL     1      -9.879  10.888  63.336  1.00  0.00    -0.408 C  
HETATM   16  C   UNL     1      -8.923  10.236  62.346  1.00  0.00    -0.288 C  
HETATM   17  C   UNL     1      -8.490   8.854  62.816  1.00  0.00    -0.191 C  
HETATM   18  C   UNL     1      -7.904   8.894  64.225  1.00  0.00    -0.134 C  
HETATM   19  C   UNL     1      -8.900   9.503  65.233  1.00  0.00    -0.220 C  
BRANCH  19  20
HETATM   20  C   UNL     1      -8.319   9.520  66.666  1.00  0.00    -0.116 C  
BRANCH  20  21
HETATM   21  N   UNL     1      -8.961   8.646  67.666  1.00  0.00    -0.135 NA 
HETATM   22  C   UNL     1      -8.778   9.220  69.029  1.00  0.00    -0.135 C  
HETATM   23  C   UNL     1      -9.485  10.576  69.235  1.00  0.00    -0.173 C  
HETATM   24  N   UNL     1     -10.923  10.495  68.929  1.00  0.00    -0.230 NA 
HETATM   25  C   UNL     1     -11.285   9.760  67.702  1.00  0.00     0.102 C  
HETATM   26  C   UNL     1     -10.422   8.491  67.472  1.00  0.00    -0.258 C  
BRANCH  24  27
HETATM   27  C   UNL     1     -11.801  10.551  69.979  1.00  0.00    -0.308 A  
HETATM   28  N   UNL     1     -12.196   9.469  70.647  1.00  0.00    -0.185 NA 
HETATM   29  S   UNL     1     -13.127   9.916  71.928  1.00  0.00    -0.462 SA 
HETATM   30  C   UNL     1     -13.023  11.607  71.667  1.00  0.00    -0.378 A  
HETATM   31  C   UNL     1     -13.555  12.658  72.433  1.00  0.00    -0.435 A  
HETATM   32  C   UNL     1     -13.320  13.969  72.015  1.00  0.00    -0.514 A  
HETATM   33  C   UNL     1     -12.578  14.225  70.870  1.00  0.00    -0.426 A  
HETATM   34  C   UNL     1     -12.043  13.169  70.121  1.00  0.00    -0.392 A  
HETATM   35  C   UNL     1     -12.268  11.823  70.512  1.00  0.00    -0.438 A  
ENDBRANCH  24  27
ENDBRANCH  20  21
ENDBRANCH  19  20
ENDBRANCH  13  14
ENDBRANCH  10  13
TORSDOF 5
ENDMDL
MODEL       19
REMARK 921   NORMALIZED FREE ENERGY PREDICTED BY IDOCK:   -6.85 KCAL/MOL
REMARK 922        TOTAL FREE ENERGY PREDICTED BY IDOCK:  -10.58 KCAL/MOL
REMARK 923 INTER-LIGAND FREE ENERGY PREDICTED BY IDOCK:   -9.50 KCAL/MOL
REMARK 924 INTRA-LIGAND FREE ENERGY PREDICTED BY IDOCK:   -1.08 KCAL/MOL
REMARK 927      BINDING AFFINITY PREDICTED BY RF-SCORE:    0.00 PKD
ROOT
HETATM    1  C   UNL     1     -10.506  13.649  65.894  1.00  0.00    -0.297 C  
HETATM    2  C   UNL     1     -11.585  14.620  65.383  1.00  0.00    -0.345 C  
HETATM    3  C   UNL     1     -11.634  14.506  63.847  1.00  0.00     0.173 C  
HETATM    4  C   UNL     1     -12.258  13.115  63.620  1.00  0.00    -0.553 C  
HETATM    5  C   UNL     1     -12.505  12.608  65.055  1.00  0.00    -0.556 C  
HETATM    6  C   UNL     1     -12.891  13.915  65.754  1.00  0.00    -0.437 C  
HETATM    7  C   UNL     1     -11.135  12.271  65.667  1.00  0.00    -0.357 C  
HETATM    8  C   UNL     1     -11.226  11.667  67.039  1.00  0.00    -0.314 C  
HETATM    9  O   UNL     1     -11.763  10.599  67.289  1.00  0.00    -0.317 OA 
HETATM   10  N   UNL     1     -10.648  12.519  67.936  1.00  0.00    -0.213 N  
HETATM   11  O   UNL     1      -9.924  14.721  67.979  1.00  0.00    -0.214 OA 
HETATM   12  C   UNL     1     -10.303  13.723  67.383  1.00  0.00    -0.252 C  
ENDROOT
BRANCH  10  13
HETATM   13  C   UNL     1     -10.591  12.259  69.366  1.00  0.00     0.229 C  
BRANCH  13  14
HETATM   14  C   UNL     1     -11.942  12.536  70.063  1.00  0.00    -0.372 C  
HETATM   15  C   UNL     1     -12.006  14.007  70.519  1.00  0.00    -0.390 C  
HETATM   16  C   UNL     1     -13.352  14.346  71.144  1.00  0.00    -0.392 C  
HETATM   17  C   UNL     1     -13.692  13.398  72.286  1.00  0.00    -0.705 C  
HETATM   18  C   UNL     1     -13.625  11.937  71.846  1.00  0.00    -0.124 C  
HETATM   19  C   UNL     1     -12.240  11.586  71.266  1.00  0.00    -0.198 C  
BRANCH  19  20
HETATM   20  C   UNL     1     -12.162  10.099  70.844  1.00  0.00    -0.356 C  
BRANCH  20  21
HETATM   21  N   UNL     1     -11.900   9.109  71.906  1.00  0.00    -0.370 NA 
HETATM   22  C   UNL     1     -12.669   7.862  71.631  1.00  0.00    -0.330 C  
HETATM   23  C   UNL     1     -12.232   7.130  70.345  1.00  0.00    -0.036 C  
HETATM   24  N   UNL     1     -10.792   6.823  70.351  1.00  0.00    -0.247 NA 
HETATM   25  C   UNL     1      -9.901   7.905  70.811  1.00  0.00    -0.180 C  
HETATM   26  C   UNL     1     -10.477   8.707  72.008  1.00  0.00    -0.352 C  
BRANCH  24  27
HETATM   27  C   UNL     1     -10.421   5.514  70.512  1.00  0.00    -0.277 A  
HETATM   28  N   UNL     1      -9.922   4.779  69.521  1.00  0.00    -0.222 NA 
HETATM   29  S   UNL     1      -9.452   3.313  70.099  1.00  0.00    -0.128 SA 
HETATM   30  C   UNL     1      -9.872   3.602  71.735  1.00  0.00    -0.165 A  
HETATM   31  C   UNL     1      -9.700   2.772  72.856  1.00  0.00    -0.171 A  
HETATM   32  C   UNL     1     -10.118   3.243  74.102  1.00  0.00    -0.193 A  
HETATM   33  C   UNL     1     -10.690   4.503  74.227  1.00  0.00    -0.280 A  
HETATM   34  C   UNL     1     -10.846   5.325  73.104  1.00  0.00    -0.339 A  
HETATM   35  C   UNL     1     -10.439   4.875  71.821  1.00  0.00    -0.214 A  
ENDBRANCH  24  27
ENDBRANCH  20  21
ENDBRANCH  19  20
ENDBRANCH  13  14
ENDBRANCH  10  13
TORSDOF 5
ENDMDL
MODEL       20
REMARK 921   NORMALIZED FREE ENERGY PREDICTED BY IDOCK:   -6.78 KCAL/MOL
REMARK 922        TOTAL FREE ENERGY PREDICTED BY IDOCK:  -10.48 KCAL/MOL
REMARK 923 INTER-LIGAND FREE ENERGY PREDICTED BY IDOCK:   -9.20 KCAL/MOL
REMARK 924 INTRA-LIGAND FREE ENERGY PREDICTED BY IDOCK:   -1.28 KCAL/MOL
REMARK 927      BINDING AFFINITY PREDICTED BY RF-SCORE:    0.00 PKD
ROOT
HETATM    1  C   UNL     1     -11.148  15.585  67.188  1.00  0.00    -0.256 C  
HETATM    2  C   UNL     1     -10.299  16.516  66.303  1.00  0.00    -0.327 C  
HETATM    3  C   UNL     1      -9.930  17.757  67.139  1.00  0.00    -0.322 C  
HETATM    4  C   UNL     1      -8.918  17.200  68.161  1.00  0.00    -0.240 C  
HETATM    5  C   UNL     1      -8.819  15.711  67.774  1.00  0.00    -0.173 C  
HETATM    6  C   UNL     1      -8.945  15.805  66.251  1.00  0.00    -0.381 C  
HETATM    7  C   UNL     1     -10.135  15.037  68.197  1.00  0.00    -0.220 C  
HETATM    8  C   UNL     1     -10.145  13.552  67.972  1.00  0.00    -0.244 C  
HETATM    9  O   UNL     1      -9.394  12.764  68.526  1.00  0.00    -0.176 OA 
HETATM   10  N   UNL     1     -11.093  13.254  67.036  1.00  0.00    -0.276 N  
HETATM   11  O   UNL     1     -12.386  14.397  65.488  1.00  0.00    -0.392 OA 
HETATM   12  C   UNL     1     -11.642  14.367  66.458  1.00  0.00    -0.378 C  
ENDROOT
BRANCH  10  13
HETATM   13  C   UNL     1     -11.348  11.904  66.555  1.00  0.00    -0.341 C  
BRANCH  13  14
HETATM   14  C   UNL     1     -10.287  11.441  65.531  1.00  0.00    -0.317 C  
HETATM   15  C   UNL     1     -10.809  11.664  64.098  1.00  0.00    -0.433 C  
HETATM   16  C   UNL     1      -9.766  11.292  63.052  1.00  0.00    -0.389 C  
HETATM   17  C   UNL     1      -9.269   9.866  63.244  1.00  0.00    -0.274 C  
HETATM   18  C   UNL     1      -8.755   9.633  64.663  1.00  0.00    -0.227 C  
HETATM   19  C   UNL     1      -9.835   9.958  65.714  1.00  0.00    -0.356 C  
BRANCH  19  20
HETATM   20  C   UNL     1      -9.326   9.697  67.152  1.00  0.00    -0.139 C  
BRANCH  20  21
HETATM   21  N   UNL     1      -9.999   8.636  67.925  1.00  0.00    -0.178 NA 
HETATM   22  C   UNL     1      -8.984   7.697  68.480  1.00  0.00    -0.129 C  
HETATM   23  C   UNL     1      -8.035   8.342  69.511  1.00  0.00    -0.111 C  
HETATM   24  N   UNL     1      -8.775   8.970  70.619  1.00  0.00    -0.193 NA 
HETATM   25  C   UNL     1      -9.954   9.772  70.238  1.00  0.00    -0.253 C  
HETATM   26  C   UNL     1     -10.775   9.143  69.082  1.00  0.00    -0.172 C  
BRANCH  24  27
HETATM   27  C   UNL     1      -8.728   8.358  71.843  1.00  0.00    -0.195 A  
HETATM   28  N   UNL     1      -7.973   8.806  72.844  1.00  0.00    -0.385 NA 
HETATM   29  S   UNL     1      -8.271   7.925  74.202  1.00  0.00    -0.260 SA 
HETATM   30  C   UNL     1      -9.464   6.904  73.516  1.00  0.00    -0.178 A  
HETATM   31  C   UNL     1     -10.229   5.896  74.128  1.00  0.00    -0.291 A  
HETATM   32  C   UNL     1     -11.157   5.202  73.350  1.00  0.00    -0.385 A  
HETATM   33  C   UNL     1     -11.319   5.503  72.004  1.00  0.00    -0.181 A  
HETATM   34  C   UNL     1     -10.559   6.517  71.408  1.00  0.00    -0.266 A  
HETATM   35  C   UNL     1      -9.601   7.238  72.167  1.00  0.00    -0.162 A  
ENDBRANCH  24  27
ENDBRANCH  20  21
ENDBRANCH  19  20
ENDBRANCH  13  14
ENDBRANCH  10  13
TORSDOF 5
ENDMDL
MODEL       21
REMARK 921   NORMALIZED FREE ENERGY PREDICTED BY IDOCK:   -6.76 KCAL/MOL
REMARK 922        TOTAL FREE ENERGY PREDICTED BY IDOCK:  -10.46 KCAL/MOL
REMARK 923 INTER-LIGAND FREE ENERGY PREDICTED BY IDOCK:   -8.72 KCAL/MOL
REMARK 924 INTRA-LIGAND FREE ENERGY PREDICTED BY IDOCK:   -1.74 KCAL/MOL
REMARK 927      BINDING AFFINITY PREDICTED BY RF-SCORE:    0.00 PKD
ROOT
HETATM    1  C   UNL     1     -10.932   7.557  69.454  1.00  0.00    -0.099 C  
HETATM    2  C   UNL     1     -11.153   8.000  70.911  1.00  0.00    -0.271 C  
HETATM    3  C   UNL     1     -11.678   6.786  71.702  1.00  0.00    -0.357 C  
HETATM    4  C   UNL     1     -10.445   5.863  71.783  1.00  0.00    -0.276 C  
HETATM    5  C   UNL     1      -9.359   6.670  71.043  1.00  0.00    -0.161 C  
HETATM    6  C   UNL     1      -9.729   8.095  71.465  1.00  0.00    -0.230 C  
HETATM    7  C   UNL     1      -9.707   6.643  69.545  1.00  0.00    -0.156 C  
HETATM    8  C   UNL     1      -8.674   7.310  68.681  1.00  0.00    -0.127 C  
HETATM    9  O   UNL     1      -7.519   6.932  68.569  1.00  0.00    -0.091 OA 
HETATM   10  N   UNL     1      -9.236   8.405  68.089  1.00  0.00    -0.138 N  
HETATM   11  O   UNL     1     -11.157   9.680  68.326  1.00  0.00    -0.168 OA 
HETATM   12  C   UNL     1     -10.493   8.679  68.556  1.00  0.00    -0.172 C  
ENDROOT
BRANCH  10  13
HETATM   13  C   UNL     1      -8.504   9.303  67.208  1.00  0.00    -0.125 C  
BRANCH  13  14
HETATM   14  C   UNL     1      -8.806   9.030  65.717  1.00  0.00    -0.216 C  
HETATM   15  C   UNL     1      -7.664   8.203  65.094  1.00  0.00    -0.107 C  
HETATM   16  C   UNL     1      -7.954   7.844  63.643  1.00  0.00    -0.118 C  
HETATM   17  C   UNL     1      -8.257   9.084  62.812  1.00  0.00    -0.184 C  
HETATM   18  C   UNL     1      -9.383   9.914  63.424  1.00  0.00    -0.223 C  
HETATM   19  C   UNL     1      -9.057  10.321  64.876  1.00  0.00    -0.250 C  
BRANCH  19  20
HETATM   20  C   UNL     1     -10.184  11.185  65.490  1.00  0.00    -0.263 C  
BRANCH  20  21
HETATM   21  N   UNL     1      -9.925  12.630  65.636  1.00  0.00    -0.262 NA 
HETATM   22  C   UNL     1     -11.195  13.339  65.959  1.00  0.00    -0.297 C  
HETATM   23  C   UNL     1     -11.800  12.946  67.323  1.00  0.00    -0.356 C  
HETATM   24  N   UNL     1     -10.841  13.138  68.423  1.00  0.00    -0.253 NA 
HETATM   25  C   UNL     1      -9.463  12.674  68.172  1.00  0.00    -0.218 C  
HETATM   26  C   UNL     1      -8.976  12.958  66.726  1.00  0.00    -0.179 C  
BRANCH  24  27
HETATM   27  C   UNL     1     -11.068  14.174  69.291  1.00  0.00    -0.250 A  
HETATM   28  N   UNL     1     -10.606  15.405  69.079  1.00  0.00    -0.236 NA 
HETATM   29  S   UNL     1     -11.187  16.421  70.236  1.00  0.00    -0.106 SA 
HETATM   30  C   UNL     1     -12.122  15.254  71.073  1.00  0.00    -0.342 A  
HETATM   31  C   UNL     1     -12.963  15.422  72.186  1.00  0.00    -0.480 A  
HETATM   32  C   UNL     1     -13.636  14.305  72.685  1.00  0.00    -0.601 A  
HETATM   33  C   UNL     1     -13.474  13.059  72.094  1.00  0.00    -0.638 A  
HETATM   34  C   UNL     1     -12.642  12.907  70.979  1.00  0.00    -0.376 A  
HETATM   35  C   UNL     1     -11.937  14.019  70.448  1.00  0.00    -0.398 A  
ENDBRANCH  24  27
ENDBRANCH  20  21
ENDBRANCH  19  20
ENDBRANCH  13  14
ENDBRANCH  10  13
TORSDOF 5
ENDMDL
MODEL       22
REMARK 921   NORMALIZED FREE ENERGY PREDICTED BY IDOCK:   -6.68 KCAL/MOL
REMARK 922        TOTAL FREE ENERGY PREDICTED BY IDOCK:  -10.36 KCAL/MOL
REMARK 923 INTER-LIGAND FREE ENERGY PREDICTED BY IDOCK:   -9.88 KCAL/MOL
REMARK 924 INTRA-LIGAND FREE ENERGY PREDICTED BY IDOCK:   -0.48 KCAL/MOL
REMARK 927      BINDING AFFINITY PREDICTED BY RF-SCORE:    0.00 PKD
ROOT
HETATM    1  C   UNL     1     -10.131  17.773  66.506  1.00  0.00    -0.358 C  
HETATM    2  C   UNL     1      -8.875  18.549  66.942  1.00  0.00    -0.283 C  
HETATM    3  C   UNL     1      -9.271  20.027  67.122  1.00  0.00    -0.483 C  
HETATM    4  C   UNL     1     -10.145  20.002  68.392  1.00  0.00    -0.513 C  
HETATM    5  C   UNL     1     -10.129  18.513  68.794  1.00  0.00    -0.394 C  
HETATM    6  C   UNL     1      -8.699  18.130  68.403  1.00  0.00    -0.302 C  
HETATM    7  C   UNL     1     -10.990  17.752  67.773  1.00  0.00    -0.103 C  
HETATM    8  C   UNL     1     -11.150  16.293  68.096  1.00  0.00    -0.329 C  
HETATM    9  O   UNL     1     -11.700  15.864  69.099  1.00  0.00    -0.376 OA 
HETATM   10  N   UNL     1     -10.555  15.556  67.113  1.00  0.00    -0.296 N  
HETATM   11  O   UNL     1      -9.103  15.922  65.344  1.00  0.00    -0.204 OA 
HETATM   12  C   UNL     1      -9.857  16.322  66.218  1.00  0.00    -0.313 C  
ENDROOT
BRANCH  10  13
HETATM   13  C   UNL     1     -10.494  14.102  67.127  1.00  0.00    -0.270 C  
BRANCH  13  14
HETATM   14  C   UNL     1     -10.763  13.495  65.732  1.00  0.00    -0.278 C  
HETATM   15  C   UNL     1     -12.054  14.093  65.140  1.00  0.00    -0.416 C  
HETATM   16  C   UNL     1     -12.320  13.580  63.731  1.00  0.00    -0.392 C  
HETATM   17  C   UNL     1     -12.344  12.058  63.687  1.00  0.00    -0.648 C  
HETATM   18  C   UNL     1     -11.071  11.456  64.277  1.00  0.00    -0.356 C  
HETATM   19  C   UNL     1     -10.839  11.935  65.724  1.00  0.00    -0.341 C  
BRANCH  19  20
HETATM   20  C   UNL     1      -9.564  11.306  66.334  1.00  0.00    -0.198 C  
BRANCH  20  21
HETATM   21  N   UNL     1      -9.577   9.849  66.571  1.00  0.00    -0.180 NA 
HETATM   22  C   UNL     1      -8.386   9.460  67.378  1.00  0.00    -0.125 C  
HETATM   23  C   UNL     1      -8.377  10.053  68.802  1.00  0.00    -0.121 C  
HETATM   24  N   UNL     1      -9.602   9.713  69.546  1.00  0.00    -0.185 NA 
HETATM   25  C   UNL     1     -10.869   9.844  68.802  1.00  0.00    -0.208 C  
HETATM   26  C   UNL     1     -10.763   9.379  67.325  1.00  0.00    -0.188 C  
BRANCH  24  27
HETATM   27  C   UNL     1      -9.495   8.803  70.565  1.00  0.00    -0.186 A  
HETATM   28  N   UNL     1      -9.371   9.162  71.841  1.00  0.00    -0.316 NA 
HETATM   29  S   UNL     1      -9.419   7.826  72.800  1.00  0.00    -0.242 SA 
HETATM   30  C   UNL     1      -9.640   6.686  71.540  1.00  0.00    -0.164 A  
HETATM   31  C   UNL     1      -9.820   5.295  71.622  1.00  0.00    -0.223 A  
HETATM   32  C   UNL     1      -9.995   4.576  70.438  1.00  0.00    -0.284 A  
HETATM   33  C   UNL     1      -9.989   5.224  69.209  1.00  0.00    -0.285 A  
HETATM   34  C   UNL     1      -9.821   6.612  69.141  1.00  0.00    -0.155 A  
HETATM   35  C   UNL     1      -9.634   7.374  70.324  1.00  0.00    -0.165 A  
ENDBRANCH  24  27
ENDBRANCH  20  21
ENDBRANCH  19  20
ENDBRANCH  13  14
ENDBRANCH  10  13
TORSDOF 5
ENDMDL
MODEL       23
REMARK 921   NORMALIZED FREE ENERGY PREDICTED BY IDOCK:   -6.68 KCAL/MOL
REMARK 922        TOTAL FREE ENERGY PREDICTED BY IDOCK:  -10.36 KCAL/MOL
REMARK 923 INTER-LIGAND FREE ENERGY PREDICTED BY IDOCK:   -9.32 KCAL/MOL
REMARK 924 INTRA-LIGAND FREE ENERGY PREDICTED BY IDOCK:   -1.03 KCAL/MOL
REMARK 927      BINDING AFFINITY PREDICTED BY RF-SCORE:    0.00 PKD
ROOT
HETATM    1  C   UNL     1      -8.080  19.323  68.739  1.00  0.00    -0.391 C  
HETATM    2  C   UNL     1      -7.273  20.277  67.841  1.00  0.00    -0.319 C  
HETATM    3  C   UNL     1      -6.002  20.689  68.609  1.00  0.00    -0.379 C  
HETATM    4  C   UNL     1      -5.163  19.395  68.614  1.00  0.00    -0.199 C  
HETATM    5  C   UNL     1      -6.051  18.404  67.833  1.00  0.00    -0.180 C  
HETATM    6  C   UNL     1      -6.671  19.341  66.792  1.00  0.00    -0.204 C  
HETATM    7  C   UNL     1      -7.241  18.042  68.736  1.00  0.00    -0.283 C  
HETATM    8  C   UNL     1      -8.146  17.000  68.142  1.00  0.00    -0.212 C  
HETATM    9  O   UNL     1      -7.806  15.856  67.884  1.00  0.00    -0.132 OA 
HETATM   10  N   UNL     1      -9.372  17.557  67.916  1.00  0.00    -0.260 N  
HETATM   11  O   UNL     1     -10.299  19.681  67.855  1.00  0.00    -0.416 OA 
HETATM   12  C   UNL     1      -9.392  18.909  68.132  1.00  0.00    -0.325 C  
ENDROOT
BRANCH  10  13
HETATM   13  C   UNL     1     -10.482  16.834  67.315  1.00  0.00    -0.310 C  
BRANCH  13  14
HETATM   14  C   UNL     1     -11.289  16.033  68.361  1.00  0.00    -0.355 C  
HETATM   15  C   UNL     1     -10.990  16.566  69.776  1.00  0.00    -0.292 C  
HETATM   16  C   UNL     1     -11.822  15.856  70.835  1.00  0.00    -0.453 C  
HETATM   17  C   UNL     1     -11.644  14.346  70.764  1.00  0.00    -0.224 C  
HETATM   18  C   UNL     1     -11.932  13.808  69.364  1.00  0.00    -0.397 C  
HETATM   19  C   UNL     1     -11.045  14.492  68.304  1.00  0.00    -0.275 C  
BRANCH  19  20
HETATM   20  C   UNL     1     -11.317  13.930  66.888  1.00  0.00    -0.328 C  
BRANCH  20  21
HETATM   21  N   UNL     1     -10.145  13.628  66.045  1.00  0.00    -0.305 NA 
HETATM   22  C   UNL     1      -9.187  12.773  66.801  1.00  0.00    -0.225 C  
HETATM   23  C   UNL     1      -9.742  11.377  67.154  1.00  0.00    -0.182 C  
HETATM   24  N   UNL     1     -10.203  10.652  65.958  1.00  0.00    -0.250 NA 
HETATM   25  C   UNL     1     -10.996  11.434  64.991  1.00  0.00    -0.204 C  
HETATM   26  C   UNL     1     -10.478  12.885  64.806  1.00  0.00    -0.350 C  
BRANCH  24  27
HETATM   27  C   UNL     1      -9.450   9.590  65.529  1.00  0.00    -0.268 A  
HETATM   28  N   UNL     1      -8.447   9.721  64.663  1.00  0.00    -0.158 NA 
HETATM   29  S   UNL     1      -7.675   8.279  64.486  1.00  0.00    -0.130 SA 
HETATM   30  C   UNL     1      -8.640   7.401  65.597  1.00  0.00    -0.112 A  
HETATM   31  C   UNL     1      -8.524   6.063  66.011  1.00  0.00    -0.139 A  
HETATM   32  C   UNL     1      -9.436   5.575  66.948  1.00  0.00    -0.140 A  
HETATM   33  C   UNL     1     -10.434   6.396  67.458  1.00  0.00    -0.290 A  
HETATM   34  C   UNL     1     -10.532   7.731  67.047  1.00  0.00    -0.419 A  
HETATM   35  C   UNL     1      -9.627   8.258  66.090  1.00  0.00    -0.217 A  
ENDBRANCH  24  27
ENDBRANCH  20  21
ENDBRANCH  19  20
ENDBRANCH  13  14
ENDBRANCH  10  13
TORSDOF 5
ENDMDL
MODEL       24
REMARK 921   NORMALIZED FREE ENERGY PREDICTED BY IDOCK:   -6.67 KCAL/MOL
REMARK 922        TOTAL FREE ENERGY PREDICTED BY IDOCK:  -10.34 KCAL/MOL
REMARK 923 INTER-LIGAND FREE ENERGY PREDICTED BY IDOCK:   -9.90 KCAL/MOL
REMARK 924 INTRA-LIGAND FREE ENERGY PREDICTED BY IDOCK:   -0.44 KCAL/MOL
REMARK 927      BINDING AFFINITY PREDICTED BY RF-SCORE:    0.00 PKD
ROOT
HETATM    1  C   UNL     1      -9.839  18.160  68.528  1.00  0.00    -0.393 C  
HETATM    2  C   UNL     1     -10.878  18.968  67.730  1.00  0.00    -0.374 C  
HETATM    3  C   UNL     1     -10.581  20.465  67.946  1.00  0.00    -0.125 C  
HETATM    4  C   UNL     1      -9.271  20.678  67.160  1.00  0.00    -0.429 C  
HETATM    5  C   UNL     1      -8.987  19.279  66.577  1.00  0.00    -0.373 C  
HETATM    6  C   UNL     1     -10.411  18.800  66.283  1.00  0.00    -0.489 C  
HETATM    7  C   UNL     1      -8.543  18.376  67.740  1.00  0.00    -0.278 C  
HETATM    8  C   UNL     1      -8.133  16.998  67.304  1.00  0.00    -0.181 C  
HETATM    9  O   UNL     1      -7.189  16.759  66.567  1.00  0.00    -0.234 OA 
HETATM   10  N   UNL     1      -9.003  16.090  67.836  1.00  0.00    -0.185 N  
HETATM   11  O   UNL     1     -11.072  16.114  68.881  1.00  0.00    -0.305 OA 
HETATM   12  C   UNL     1     -10.070  16.675  68.464  1.00  0.00    -0.266 C  
ENDROOT
BRANCH  10  13
HETATM   13  C   UNL     1      -8.919  14.659  67.587  1.00  0.00    -0.187 C  
BRANCH  13  14
HETATM   14  C   UNL     1      -9.952  14.187  66.540  1.00  0.00    -0.289 C  
HETATM   15  C   UNL     1     -10.294  15.346  65.582  1.00  0.00    -0.395 C  
HETATM   16  C   UNL     1     -11.253  14.906  64.484  1.00  0.00    -0.273 C  
HETATM   17  C   UNL     1     -12.512  14.276  65.063  1.00  0.00    -0.409 C  
HETATM   18  C   UNL     1     -12.184  13.130  66.017  1.00  0.00    -0.478 C  
HETATM   19  C   UNL     1     -11.258  13.597  67.159  1.00  0.00    -0.327 C  
BRANCH  19  20
HETATM   20  C   UNL     1     -10.944  12.444  68.143  1.00  0.00    -0.228 C  
BRANCH  20  21
HETATM   21  N   UNL     1     -11.797  11.242  68.069  1.00  0.00    -0.624 NA 
HETATM   22  C   UNL     1     -10.986  10.077  67.616  1.00  0.00    -0.234 C  
HETATM   23  C   UNL     1      -9.876   9.667  68.607  1.00  0.00    -0.161 C  
HETATM   24  N   UNL     1     -10.414   9.394  69.950  1.00  0.00    -0.218 NA 
HETATM   25  C   UNL     1     -11.407  10.359  70.459  1.00  0.00    -0.341 C  
HETATM   26  C   UNL     1     -12.394  10.855  69.369  1.00  0.00    -0.118 C  
BRANCH  24  27
HETATM   27  C   UNL     1     -10.448   8.090  70.369  1.00  0.00    -0.218 A  
HETATM   28  N   UNL     1     -10.906   7.099  69.606  1.00  0.00    -0.241 NA 
HETATM   29  S   UNL     1     -10.662   5.658  70.362  1.00  0.00    -0.251 SA 
HETATM   30  C   UNL     1      -9.894   6.294  71.756  1.00  0.00    -0.163 A  
HETATM   31  C   UNL     1      -9.346   5.613  72.856  1.00  0.00    -0.144 A  
HETATM   32  C   UNL     1      -8.755   6.364  73.875  1.00  0.00    -0.134 A  
HETATM   33  C   UNL     1      -8.713   7.750  73.799  1.00  0.00    -0.318 A  
HETATM   34  C   UNL     1      -9.252   8.416  72.692  1.00  0.00    -0.325 A  
HETATM   35  C   UNL     1      -9.867   7.686  71.641  1.00  0.00    -0.193 A  
ENDBRANCH  24  27
ENDBRANCH  20  21
ENDBRANCH  19  20
ENDBRANCH  13  14
ENDBRANCH  10  13
TORSDOF 5
ENDMDL
MODEL       25
REMARK 921   NORMALIZED FREE ENERGY PREDICTED BY IDOCK:   -6.67 KCAL/MOL
REMARK 922        TOTAL FREE ENERGY PREDICTED BY IDOCK:  -10.34 KCAL/MOL
REMARK 923 INTER-LIGAND FREE ENERGY PREDICTED BY IDOCK:   -9.11 KCAL/MOL
REMARK 924 INTRA-LIGAND FREE ENERGY PREDICTED BY IDOCK:   -1.23 KCAL/MOL
REMARK 927      BINDING AFFINITY PREDICTED BY RF-SCORE:    0.00 PKD
ROOT
HETATM    1  C   UNL     1     -11.127  11.091  65.844  1.00  0.00    -0.038 C  
HETATM    2  C   UNL     1      -9.986  11.237  64.822  1.00  0.00    -0.327 C  
HETATM    3  C   UNL     1     -10.593  11.098  63.412  1.00  0.00    -0.340 C  
HETATM    4  C   UNL     1     -11.399  12.403  63.250  1.00  0.00    -0.399 C  
HETATM    5  C   UNL     1     -11.140  13.137  64.581  1.00  0.00    -0.366 C  
HETATM    6  C   UNL     1      -9.686  12.736  64.847  1.00  0.00     0.057 C  
HETATM    7  C   UNL     1     -11.919  12.390  65.677  1.00  0.00    -0.449 C  
HETATM    8  C   UNL     1     -11.842  13.054  67.023  1.00  0.00    -0.377 C  
HETATM    9  O   UNL     1     -12.277  14.168  67.268  1.00  0.00    -0.402 OA 
HETATM   10  N   UNL     1     -11.184  12.227  67.886  1.00  0.00    -0.254 N  
HETATM   11  O   UNL     1      -9.881  10.313  67.762  1.00  0.00    -0.163 OA 
HETATM   12  C   UNL     1     -10.650  11.127  67.270  1.00  0.00    -0.239 C  
ENDROOT
BRANCH  10  13
HETATM   13  C   UNL     1     -10.904  12.573  69.271  1.00  0.00     0.001 C  
BRANCH  13  14
HETATM   14  C   UNL     1     -12.195  12.733  70.104  1.00  0.00    -0.320 C  
HETATM   15  C   UNL     1     -12.309  14.180  70.623  1.00  0.00    -0.435 C  
HETATM   16  C   UNL     1     -13.606  14.406  71.387  1.00  0.00    -0.431 C  
HETATM   17  C   UNL     1     -13.771  13.399  72.517  1.00  0.00    -0.636 C  
HETATM   18  C   UNL     1     -13.654  11.962  72.014  1.00  0.00    -0.190 C  
HETATM   19  C   UNL     1     -12.313  11.725  71.291  1.00  0.00    -0.250 C  
BRANCH  19  20
HETATM   20  C   UNL     1     -12.181  10.263  70.804  1.00  0.00    -0.350 C  
BRANCH  20  21
HETATM   21  N   UNL     1     -11.850   9.241  71.816  1.00  0.00    -0.374 NA 
HETATM   22  C   UNL     1     -12.515   7.954  71.468  1.00  0.00    -0.318 C  
HETATM   23  C   UNL     1     -12.012   7.327  70.150  1.00  0.00     0.085 C  
HETATM   24  N   UNL     1     -10.552   7.135  70.159  1.00  0.00    -0.223 NA 
HETATM   25  C   UNL     1      -9.753   8.258  70.685  1.00  0.00    -0.171 C  
HETATM   26  C   UNL     1     -10.401   8.947  71.915  1.00  0.00    -0.337 C  
BRANCH  24  27
HETATM   27  C   UNL     1     -10.080   5.852  70.256  1.00  0.00    -0.202 A  
HETATM   28  N   UNL     1      -9.913   5.232  71.423  1.00  0.00    -0.178 NA 
HETATM   29  S   UNL     1      -9.477   3.668  71.162  1.00  0.00    -0.174 SA 
HETATM   30  C   UNL     1      -9.517   3.734  69.450  1.00  0.00    -0.187 A  
HETATM   31  C   UNL     1      -9.293   2.708  68.516  1.00  0.00    -0.251 A  
HETATM   32  C   UNL     1      -9.396   3.012  67.157  1.00  0.00    -0.178 A  
HETATM   33  C   UNL     1      -9.713   4.300  66.742  1.00  0.00    -0.241 A  
HETATM   34  C   UNL     1      -9.946   5.310  67.683  1.00  0.00    -0.202 A  
HETATM   35  C   UNL     1      -9.842   5.038  69.072  1.00  0.00    -0.252 A  
ENDBRANCH  24  27
ENDBRANCH  20  21
ENDBRANCH  19  20
ENDBRANCH  13  14
ENDBRANCH  10  13
TORSDOF 5
ENDMDL
MODEL       26
REMARK 921   NORMALIZED FREE ENERGY PREDICTED BY IDOCK:   -6.65 KCAL/MOL
REMARK 922        TOTAL FREE ENERGY PREDICTED BY IDOCK:  -10.32 KCAL/MOL
REMARK 923 INTER-LIGAND FREE ENERGY PREDICTED BY IDOCK:  -10.17 KCAL/MOL
REMARK 924 INTRA-LIGAND FREE ENERGY PREDICTED BY IDOCK:   -0.16 KCAL/MOL
REMARK 927      BINDING AFFINITY PREDICTED BY RF-SCORE:    0.00 PKD
ROOT
HETATM    1  C   UNL     1      -8.873  17.728  67.334  1.00  0.00    -0.240 C  
HETATM    2  C   UNL     1      -8.571  19.222  67.546  1.00  0.00    -0.325 C  
HETATM    3  C   UNL     1      -8.813  19.949  66.208  1.00  0.00    -0.402 C  
HETATM    4  C   UNL     1     -10.347  19.903  66.059  1.00  0.00    -0.591 C  
HETATM    5  C   UNL     1     -10.797  19.170  67.340  1.00  0.00    -0.533 C  
HETATM    6  C   UNL     1      -9.779  19.711  68.348  1.00  0.00    -0.497 C  
HETATM    7  C   UNL     1     -10.397  17.694  67.189  1.00  0.00    -0.343 C  
HETATM    8  C   UNL     1     -10.863  16.829  68.326  1.00  0.00    -0.366 C  
HETATM    9  O   UNL     1     -12.035  16.634  68.609  1.00  0.00     0.148 OA 
HETATM   10  N   UNL     1      -9.773  16.345  68.989  1.00  0.00    -0.254 N  
HETATM   11  O   UNL     1      -7.495  16.767  69.069  1.00  0.00    -0.229 OA 
HETATM   12  C   UNL     1      -8.596  16.892  68.553  1.00  0.00    -0.251 C  
ENDROOT
BRANCH  10  13
HETATM   13  C   UNL     1      -9.863  15.496  70.168  1.00  0.00     0.022 C  
BRANCH  13  14
HETATM   14  C   UNL     1     -11.316  15.348  70.669  1.00  0.00    -0.360 C  
HETATM   15  C   UNL     1     -11.412  15.801  72.140  1.00  0.00    -0.444 C  
HETATM   16  C   UNL     1     -12.844  15.745  72.656  1.00  0.00    -0.554 C  
HETATM   17  C   UNL     1     -13.453  14.363  72.461  1.00  0.00    -0.593 C  
HETATM   18  C   UNL     1     -13.358  13.903  71.008  1.00  0.00    -0.192 C  
HETATM   19  C   UNL     1     -11.899  13.908  70.510  1.00  0.00    -0.317 C  
BRANCH  19  20
HETATM   20  C   UNL     1     -11.796  13.418  69.046  1.00  0.00    -0.335 C  
BRANCH  20  21
HETATM   21  N   UNL     1     -10.911  12.268  68.779  1.00  0.00    -0.228 NA 
HETATM   22  C   UNL     1     -11.595  11.306  67.869  1.00  0.00    -0.256 C  
HETATM   23  C   UNL     1     -11.878  11.873  66.462  1.00  0.00    -0.049 C  
HETATM   24  N   UNL     1     -10.651  12.369  65.815  1.00  0.00    -0.250 NA 
HETATM   25  C   UNL     1      -9.750  13.171  66.663  1.00  0.00    -0.261 C  
HETATM   26  C   UNL     1      -9.638  12.637  68.115  1.00  0.00    -0.219 C  
BRANCH  24  27
HETATM   27  C   UNL     1     -10.144  11.640  64.771  1.00  0.00    -0.260 A  
HETATM   28  N   UNL     1     -10.063  12.118  63.531  1.00  0.00    -0.423 NA 
HETATM   29  S   UNL     1      -9.274  11.040  62.571  1.00  0.00    -0.241 SA 
HETATM   30  C   UNL     1      -8.971   9.875  63.791  1.00  0.00    -0.250 A  
HETATM   31  C   UNL     1      -8.267   8.662  63.705  1.00  0.00    -0.148 A  
HETATM   32  C   UNL     1      -8.145   7.881  64.856  1.00  0.00    -0.144 A  
HETATM   33  C   UNL     1      -8.707   8.298  66.056  1.00  0.00    -0.181 A  
HETATM   34  C   UNL     1      -9.395   9.514  66.132  1.00  0.00    -0.254 A  
HETATM   35  C   UNL     1      -9.546  10.329  64.980  1.00  0.00    -0.346 A  
ENDBRANCH  24  27
ENDBRANCH  20  21
ENDBRANCH  19  20
ENDBRANCH  13  14
ENDBRANCH  10  13
TORSDOF 5
ENDMDL
MODEL       27
REMARK 921   NORMALIZED FREE ENERGY PREDICTED BY IDOCK:   -6.64 KCAL/MOL
REMARK 922        TOTAL FREE ENERGY PREDICTED BY IDOCK:  -10.30 KCAL/MOL
REMARK 923 INTER-LIGAND FREE ENERGY PREDICTED BY IDOCK:   -9.86 KCAL/MOL
REMARK 924 INTRA-LIGAND FREE ENERGY PREDICTED BY IDOCK:   -0.45 KCAL/MOL
REMARK 927      BINDING AFFINITY PREDICTED BY RF-SCORE:    0.00 PKD
ROOT
HETATM    1  C   UNL     1      -9.361   6.220  68.601  1.00  0.00    -0.122 C  
HETATM    2  C   UNL     1     -10.276   5.225  69.337  1.00  0.00    -0.321 C  
HETATM    3  C   UNL     1      -9.432   3.989  69.704  1.00  0.00    -0.262 C  
HETATM    4  C   UNL     1      -8.501   4.519  70.813  1.00  0.00    -0.107 C  
HETATM    5  C   UNL     1      -8.937   5.991  70.957  1.00  0.00    -0.146 C  
HETATM    6  C   UNL     1     -10.444   5.864  70.717  1.00  0.00    -0.311 C  
HETATM    7  C   UNL     1      -8.442   6.742  69.709  1.00  0.00    -0.133 C  
HETATM    8  C   UNL     1      -8.710   8.220  69.756  1.00  0.00    -0.134 C  
HETATM    9  O   UNL     1      -8.233   8.981  70.583  1.00  0.00    -0.144 OA 
HETATM   10  N   UNL     1      -9.585   8.541  68.759  1.00  0.00    -0.148 N  
HETATM   11  O   UNL     1     -11.003   7.426  67.303  1.00  0.00    -0.280 OA 
HETATM   12  C   UNL     1     -10.089   7.443  68.115  1.00  0.00    -0.179 C  
ENDROOT
BRANCH  10  13
HETATM   13  C   UNL     1     -10.087   9.889  68.537  1.00  0.00    -0.168 C  
BRANCH  13  14
HETATM   14  C   UNL     1     -10.815  10.452  69.778  1.00  0.00    -0.342 C  
HETATM   15  C   UNL     1     -11.533   9.311  70.527  1.00  0.00    -0.296 C  
HETATM   16  C   UNL     1     -12.202   9.806  71.801  1.00  0.00    -0.449 C  
HETATM   17  C   UNL     1     -13.148  10.966  71.520  1.00  0.00    -0.503 C  
HETATM   18  C   UNL     1     -12.448  12.099  70.773  1.00  0.00    -0.362 C  
HETATM   19  C   UNL     1     -11.821  11.601  69.455  1.00  0.00    -0.414 C  
BRANCH  19  20
HETATM   20  C   UNL     1     -11.133  12.752  68.683  1.00  0.00    -0.266 C  
BRANCH  20  21
HETATM   21  N   UNL     1     -11.982  13.881  68.256  1.00  0.00    -0.372 NA 
HETATM   22  C   UNL     1     -11.704  15.071  69.107  1.00  0.00    -0.319 C  
HETATM   23  C   UNL     1     -10.272  15.625  68.957  1.00  0.00    -0.225 C  
HETATM   24  N   UNL     1      -9.952  15.944  67.555  1.00  0.00    -0.236 NA 
HETATM   25  C   UNL     1     -10.364  14.943  66.553  1.00  0.00    -0.293 C  
HETATM   26  C   UNL     1     -11.746  14.306  66.855  1.00  0.00    -0.408 C  
BRANCH  24  27
HETATM   27  C   UNL     1      -9.863  17.266  67.207  1.00  0.00    -0.267 A  
HETATM   28  N   UNL     1     -10.829  18.146  67.465  1.00  0.00    -0.335 NA 
HETATM   29  S   UNL     1     -10.329  19.656  67.047  1.00  0.00    -0.487 SA 
HETATM   30  C   UNL     1      -8.762  19.207  66.519  1.00  0.00    -0.337 A  
HETATM   31  C   UNL     1      -7.715  20.020  66.053  1.00  0.00    -0.318 A  
HETATM   32  C   UNL     1      -6.512  19.411  65.688  1.00  0.00    -0.266 A  
HETATM   33  C   UNL     1      -6.358  18.034  65.786  1.00  0.00    -0.287 A  
HETATM   34  C   UNL     1      -7.405  17.236  66.263  1.00  0.00    -0.342 A  
HETATM   35  C   UNL     1      -8.644  17.820  66.636  1.00  0.00    -0.280 A  
ENDBRANCH  24  27
ENDBRANCH  20  21
ENDBRANCH  19  20
ENDBRANCH  13  14
ENDBRANCH  10  13
TORSDOF 5
ENDMDL
MODEL       28
REMARK 921   NORMALIZED FREE ENERGY PREDICTED BY IDOCK:   -6.60 KCAL/MOL
REMARK 922        TOTAL FREE ENERGY PREDICTED BY IDOCK:  -10.26 KCAL/MOL
REMARK 923 INTER-LIGAND FREE ENERGY PREDICTED BY IDOCK:   -8.86 KCAL/MOL
REMARK 924 INTRA-LIGAND FREE ENERGY PREDICTED BY IDOCK:   -1.40 KCAL/MOL
REMARK 927      BINDING AFFINITY PREDICTED BY RF-SCORE:    0.00 PKD
ROOT
HETATM    1  C   UNL     1      -9.695   8.540  67.275  1.00  0.00    -0.239 C  
HETATM    2  C   UNL     1      -9.045   8.481  65.881  1.00  0.00    -0.237 C  
HETATM    3  C   UNL     1      -8.400   9.852  65.601  1.00  0.00    -0.140 C  
HETATM    4  C   UNL     1      -7.196   9.875  66.564  1.00  0.00    -0.095 C  
HETATM    5  C   UNL     1      -7.290   8.506  67.267  1.00  0.00    -0.088 C  
HETATM    6  C   UNL     1      -7.795   7.631  66.116  1.00  0.00    -0.096 C  
HETATM    7  C   UNL     1      -8.493   8.561  68.224  1.00  0.00    -0.135 C  
HETATM    8  C   UNL     1      -8.650   7.321  69.058  1.00  0.00    -0.129 C  
HETATM    9  O   UNL     1      -7.831   6.931  69.876  1.00  0.00    -0.109 OA 
HETATM   10  N   UNL     1      -9.822   6.707  68.720  1.00  0.00    -0.136 N  
HETATM   11  O   UNL     1     -11.395   6.844  67.023  1.00  0.00    -0.304 OA 
HETATM   12  C   UNL     1     -10.432   7.280  67.636  1.00  0.00    -0.242 C  
ENDROOT
BRANCH  10  13
HETATM   13  C   UNL     1     -10.272   5.457  69.313  1.00  0.00    -0.245 C  
BRANCH  13  14
HETATM   14  C   UNL     1     -10.064   5.431  70.844  1.00  0.00    -0.286 C  
HETATM   15  C   UNL     1      -9.481   4.069  71.271  1.00  0.00    -0.233 C  
HETATM   16  C   UNL     1      -9.187   4.024  72.765  1.00  0.00    -0.135 C  
HETATM   17  C   UNL     1     -10.418   4.382  73.586  1.00  0.00    -0.276 C  
HETATM   18  C   UNL     1     -11.006   5.727  73.167  1.00  0.00    -0.309 C  
HETATM   19  C   UNL     1     -11.354   5.746  71.665  1.00  0.00    -0.216 C  
BRANCH  19  20
HETATM   20  C   UNL     1     -11.975   7.099  71.243  1.00  0.00    -0.337 C  
BRANCH  20  21
HETATM   21  N   UNL     1     -11.798   8.239  72.162  1.00  0.00    -0.344 NA 
HETATM   22  C   UNL     1     -10.761   9.164  71.623  1.00  0.00    -0.371 C  
HETATM   23  C   UNL     1     -11.155   9.837  70.292  1.00  0.00    -0.292 C  
HETATM   24  N   UNL     1     -12.438  10.552  70.399  1.00  0.00    -0.318 NA 
HETATM   25  C   UNL     1     -13.520   9.842  71.107  1.00  0.00    -0.237 C  
HETATM   26  C   UNL     1     -13.024   9.051  72.347  1.00  0.00    -0.405 C  
BRANCH  24  27
HETATM   27  C   UNL     1     -12.404  11.922  70.395  1.00  0.00    -0.251 A  
HETATM   28  N   UNL     1     -12.665  12.652  71.478  1.00  0.00    -0.284 NA 
HETATM   29  S   UNL     1     -12.389  14.241  71.154  1.00  0.00    -0.383 SA 
HETATM   30  C   UNL     1     -11.872  14.027  69.535  1.00  0.00    -0.325 A  
HETATM   31  C   UNL     1     -11.412  14.985  68.615  1.00  0.00    -0.329 A  
HETATM   32  C   UNL     1     -11.032  14.555  67.342  1.00  0.00    -0.306 A  
HETATM   33  C   UNL     1     -11.110  13.212  66.996  1.00  0.00    -0.305 A  
HETATM   34  C   UNL     1     -11.559  12.266  67.925  1.00  0.00    -0.416 A  
HETATM   35  C   UNL     1     -11.960  12.668  69.226  1.00  0.00    -0.301 A  
ENDBRANCH  24  27
ENDBRANCH  20  21
ENDBRANCH  19  20
ENDBRANCH  13  14
ENDBRANCH  10  13
TORSDOF 5
ENDMDL
MODEL       29
REMARK 921   NORMALIZED FREE ENERGY PREDICTED BY IDOCK:   -6.60 KCAL/MOL
REMARK 922        TOTAL FREE ENERGY PREDICTED BY IDOCK:  -10.25 KCAL/MOL
REMARK 923 INTER-LIGAND FREE ENERGY PREDICTED BY IDOCK:   -9.28 KCAL/MOL
REMARK 924 INTRA-LIGAND FREE ENERGY PREDICTED BY IDOCK:   -0.96 KCAL/MOL
REMARK 927      BINDING AFFINITY PREDICTED BY RF-SCORE:    0.00 PKD
ROOT
HETATM    1  C   UNL     1      -9.410   4.831  71.712  1.00  0.00    -0.186 C  
HETATM    2  C   UNL     1     -10.467   4.092  72.551  1.00  0.00    -0.205 C  
HETATM    3  C   UNL     1      -9.731   3.110  73.483  1.00  0.00    -0.147 C  
HETATM    4  C   UNL     1      -9.043   4.043  74.500  1.00  0.00    -0.111 C  
HETATM    5  C   UNL     1      -9.485   5.446  74.036  1.00  0.00    -0.136 C  
HETATM    6  C   UNL     1     -10.911   5.151  73.562  1.00  0.00    -0.370 C  
HETATM    7  C   UNL     1      -8.735   5.755  72.729  1.00  0.00    -0.118 C  
HETATM    8  C   UNL     1      -8.991   7.141  72.207  1.00  0.00    -0.131 C  
HETATM    9  O   UNL     1      -8.688   8.167  72.796  1.00  0.00    -0.177 OA 
HETATM   10  N   UNL     1      -9.638   7.048  71.009  1.00  0.00    -0.170 N  
HETATM   11  O   UNL     1     -10.736   5.418  69.780  1.00  0.00    -0.315 OA 
HETATM   12  C   UNL     1     -10.010   5.768  70.700  1.00  0.00    -0.194 C  
ENDROOT
BRANCH  10  13
HETATM   13  C   UNL     1     -10.069   8.206  70.239  1.00  0.00    -0.192 C  
BRANCH  13  14
HETATM   14  C   UNL     1     -11.055   9.096  71.028  1.00  0.00    -0.374 C  
HETATM   15  C   UNL     1     -12.186   8.230  71.618  1.00  0.00    -0.350 C  
HETATM   16  C   UNL     1     -13.142   9.055  72.470  1.00  0.00    -0.450 C  
HETATM   17  C   UNL     1     -13.700  10.240  71.694  1.00  0.00    -0.109 C  
HETATM   18  C   UNL     1     -12.587  11.101  71.100  1.00  0.00    -0.513 C  
HETATM   19  C   UNL     1     -11.656  10.271  70.193  1.00  0.00    -0.376 C  
BRANCH  19  20
HETATM   20  C   UNL     1     -10.543  11.146  69.570  1.00  0.00    -0.090 C  
BRANCH  20  21
HETATM   21  N   UNL     1     -10.597  11.371  68.113  1.00  0.00    -0.180 NA 
HETATM   22  C   UNL     1     -11.720  12.294  67.787  1.00  0.00    -0.337 C  
HETATM   23  C   UNL     1     -11.545  13.716  68.361  1.00  0.00    -0.342 C  
HETATM   24  N   UNL     1     -10.274  14.326  67.936  1.00  0.00    -0.234 NA 
HETATM   25  C   UNL     1      -9.085  13.455  67.998  1.00  0.00    -0.205 C  
HETATM   26  C   UNL     1      -9.371  11.994  67.560  1.00  0.00    -0.179 C  
BRANCH  24  27
HETATM   27  C   UNL     1     -10.332  15.344  67.021  1.00  0.00    -0.280 A  
HETATM   28  N   UNL     1     -10.578  15.139  65.729  1.00  0.00    -0.330 NA 
HETATM   29  S   UNL     1     -10.721  16.584  64.956  1.00  0.00    -0.057 SA 
HETATM   30  C   UNL     1     -10.486  17.572  66.336  1.00  0.00    -0.277 A  
HETATM   31  C   UNL     1     -10.526  18.972  66.444  1.00  0.00    -0.524 A  
HETATM   32  C   UNL     1     -10.311  19.549  67.697  1.00  0.00    -0.574 A  
HETATM   33  C   UNL     1     -10.064  18.754  68.809  1.00  0.00    -0.407 A  
HETATM   34  C   UNL     1     -10.038  17.359  68.691  1.00  0.00    -0.355 A  
HETATM   35  C   UNL     1     -10.245  16.739  67.431  1.00  0.00    -0.288 A  
ENDBRANCH  24  27
ENDBRANCH  20  21
ENDBRANCH  19  20
ENDBRANCH  13  14
ENDBRANCH  10  13
TORSDOF 5
ENDMDL
MODEL       30
REMARK 921   NORMALIZED FREE ENERGY PREDICTED BY IDOCK:   -6.59 KCAL/MOL
REMARK 922        TOTAL FREE ENERGY PREDICTED BY IDOCK:  -10.24 KCAL/MOL
REMARK 923 INTER-LIGAND FREE ENERGY PREDICTED BY IDOCK:   -9.13 KCAL/MOL
REMARK 924 INTRA-LIGAND FREE ENERGY PREDICTED BY IDOCK:   -1.11 KCAL/MOL
REMARK 927      BINDING AFFINITY PREDICTED BY RF-SCORE:    0.00 PKD
ROOT
HETATM    1  C   UNL     1      -9.401   7.382  70.323  1.00  0.00    -0.162 C  
HETATM    2  C   UNL     1      -9.315   7.059  71.825  1.00  0.00    -0.150 C  
HETATM    3  C   UNL     1      -8.041   6.225  72.058  1.00  0.00    -0.109 C  
HETATM    4  C   UNL     1      -6.909   7.249  71.840  1.00  0.00    -0.059 C  
HETATM    5  C   UNL     1      -7.675   8.550  71.524  1.00  0.00    -0.146 C  
HETATM    6  C   UNL     1      -8.890   8.392  72.443  1.00  0.00    -0.294 C  
HETATM    7  C   UNL     1      -8.275   8.400  70.117  1.00  0.00    -0.117 C  
HETATM    8  C   UNL     1      -8.972   9.639  69.629  1.00  0.00    -0.203 C  
HETATM    9  O   UNL     1      -8.421  10.712  69.439  1.00  0.00    -0.136 OA 
HETATM   10  N   UNL     1     -10.301   9.366  69.478  1.00  0.00    -0.204 N  
HETATM   11  O   UNL     1     -11.784   7.693  70.090  1.00  0.00    -0.080 OA 
HETATM   12  C   UNL     1     -10.651   8.130  69.950  1.00  0.00    -0.239 C  
ENDROOT
BRANCH  10  13
HETATM   13  C   UNL     1     -11.278  10.356  69.049  1.00  0.00    -0.234 C  
BRANCH  13  14
HETATM   14  C   UNL     1     -11.680  11.311  70.195  1.00  0.00    -0.429 C  
HETATM   15  C   UNL     1     -12.860  10.712  70.988  1.00  0.00    -0.496 C  
HETATM   16  C   UNL     1     -13.242  11.584  72.176  1.00  0.00    -0.315 C  
HETATM   17  C   UNL     1     -13.534  13.015  71.747  1.00  0.00    -0.401 C  
HETATM   18  C   UNL     1     -12.374  13.616  70.956  1.00  0.00    -0.436 C  
HETATM   19  C   UNL     1     -12.029  12.757  69.722  1.00  0.00    -0.362 C  
BRANCH  19  20
HETATM   20  C   UNL     1     -10.872  13.377  68.904  1.00  0.00    -0.220 C  
BRANCH  20  21
HETATM   21  N   UNL     1     -11.234  14.164  67.709  1.00  0.00    -0.276 NA 
HETATM   22  C   UNL     1     -11.702  15.517  68.120  1.00  0.00    -0.229 C  
HETATM   23  C   UNL     1     -10.613  16.376  68.796  1.00  0.00    -0.310 C  
HETATM   24  N   UNL     1      -9.417  16.511  67.946  1.00  0.00    -0.219 NA 
HETATM   25  C   UNL     1      -8.948  15.278  67.286  1.00  0.00    -0.195 C  
HETATM   26  C   UNL     1     -10.105  14.380  66.773  1.00  0.00    -0.266 C  
BRANCH  24  27
HETATM   27  C   UNL     1      -9.182  17.731  67.368  1.00  0.00    -0.248 A  
HETATM   28  N   UNL     1      -9.990  18.262  66.453  1.00  0.00    -0.366 NA 
HETATM   29  S   UNL     1      -9.489  19.786  66.088  1.00  0.00    -0.330 SA 
HETATM   30  C   UNL     1      -8.164  19.824  67.174  1.00  0.00    -0.298 A  
HETATM   31  C   UNL     1      -7.271  20.873  67.449  1.00  0.00    -0.396 A  
HETATM   32  C   UNL     1      -6.267  20.660  68.397  1.00  0.00    -0.365 A  
HETATM   33  C   UNL     1      -6.157  19.439  69.049  1.00  0.00    -0.278 A  
HETATM   34  C   UNL     1      -7.060  18.405  68.774  1.00  0.00    -0.299 A  
HETATM   35  C   UNL     1      -8.088  18.583  67.811  1.00  0.00    -0.264 A  
ENDBRANCH  24  27
ENDBRANCH  20  21
ENDBRANCH  19  20
ENDBRANCH  13  14
ENDBRANCH  10  13
TORSDOF 5
ENDMDL
MODEL       31
REMARK 921   NORMALIZED FREE ENERGY PREDICTED BY IDOCK:   -6.59 KCAL/MOL
REMARK 922        TOTAL FREE ENERGY PREDICTED BY IDOCK:  -10.24 KCAL/MOL
REMARK 923 INTER-LIGAND FREE ENERGY PREDICTED BY IDOCK:   -9.57 KCAL/MOL
REMARK 924 INTRA-LIGAND FREE ENERGY PREDICTED BY IDOCK:   -0.67 KCAL/MOL
REMARK 927      BINDING AFFINITY PREDICTED BY RF-SCORE:    0.00 PKD
ROOT
HETATM    1  C   UNL     1     -10.296   7.368  67.266  1.00  0.00    -0.356 C  
HETATM    2  C   UNL     1      -9.653   6.785  68.537  1.00  0.00    -0.130 C  
HETATM    3  C   UNL     1      -9.631   5.250  68.396  1.00  0.00    -0.176 C  
HETATM    4  C   UNL     1      -8.565   5.016  67.307  1.00  0.00    -0.104 C  
HETATM    5  C   UNL     1      -8.095   6.445  66.969  1.00  0.00    -0.112 C  
HETATM    6  C   UNL     1      -8.168   7.101  68.351  1.00  0.00    -0.125 C  
HETATM    7  C   UNL     1      -9.230   7.131  66.192  1.00  0.00    -0.126 C  
HETATM    8  C   UNL     1      -8.874   8.508  65.705  1.00  0.00    -0.190 C  
HETATM    9  O   UNL     1      -7.983   8.748  64.905  1.00  0.00    -0.119 OA 
HETATM   10  N   UNL     1      -9.678   9.418  66.329  1.00  0.00    -0.242 N  
HETATM   11  O   UNL     1     -11.132   9.460  68.134  1.00  0.00    -0.106 OA 
HETATM   12  C   UNL     1     -10.449   8.863  67.314  1.00  0.00    -0.277 C  
ENDROOT
BRANCH  10  13
HETATM   13  C   UNL     1      -9.579  10.854  66.115  1.00  0.00    -0.202 C  
BRANCH  13  14
HETATM   14  C   UNL     1     -10.844  11.429  65.439  1.00  0.00    -0.292 C  
HETATM   15  C   UNL     1     -10.748  11.253  63.910  1.00  0.00    -0.451 C  
HETATM   16  C   UNL     1     -12.009  11.738  63.206  1.00  0.00    -0.354 C  
HETATM   17  C   UNL     1     -12.336  13.178  63.578  1.00  0.00    -0.478 C  
HETATM   18  C   UNL     1     -12.427  13.364  65.091  1.00  0.00    -0.509 C  
HETATM   19  C   UNL     1     -11.126  12.924  65.792  1.00  0.00    -0.312 C  
BRANCH  19  20
HETATM   20  C   UNL     1     -11.206  13.137  67.322  1.00  0.00    -0.287 C  
BRANCH  20  21
HETATM   21  N   UNL     1     -10.062  13.804  67.972  1.00  0.00    -0.238 NA 
HETATM   22  C   UNL     1      -9.315  14.615  66.969  1.00  0.00    -0.232 C  
HETATM   23  C   UNL     1     -10.129  15.789  66.386  1.00  0.00    -0.291 C  
HETATM   24  N   UNL     1     -10.645  16.676  67.442  1.00  0.00    -0.316 NA 
HETATM   25  C   UNL     1     -11.232  16.008  68.620  1.00  0.00    -0.366 C  
HETATM   26  C   UNL     1     -10.453  14.738  69.055  1.00  0.00    -0.249 C  
BRANCH  24  27
HETATM   27  C   UNL     1     -10.073  17.914  67.570  1.00  0.00    -0.342 A  
HETATM   28  N   UNL     1     -10.720  19.041  67.281  1.00  0.00    -0.472 NA 
HETATM   29  S   UNL     1      -9.790  20.335  67.688  1.00  0.00    -0.390 SA 
HETATM   30  C   UNL     1      -8.466  19.440  68.307  1.00  0.00    -0.341 A  
HETATM   31  C   UNL     1      -7.279  19.904  68.900  1.00  0.00    -0.294 A  
HETATM   32  C   UNL     1      -6.346  18.965  69.342  1.00  0.00    -0.299 A  
HETATM   33  C   UNL     1      -6.588  17.605  69.198  1.00  0.00    -0.251 A  
HETATM   34  C   UNL     1      -7.779  17.154  68.617  1.00  0.00    -0.260 A  
HETATM   35  C   UNL     1      -8.747  18.081  68.150  1.00  0.00    -0.277 A  
ENDBRANCH  24  27
ENDBRANCH  20  21
ENDBRANCH  19  20
ENDBRANCH  13  14
ENDBRANCH  10  13
TORSDOF 5
ENDMDL
MODEL       32
REMARK 921   NORMALIZED FREE ENERGY PREDICTED BY IDOCK:   -6.57 KCAL/MOL
REMARK 922        TOTAL FREE ENERGY PREDICTED BY IDOCK:  -10.21 KCAL/MOL
REMARK 923 INTER-LIGAND FREE ENERGY PREDICTED BY IDOCK:   -9.32 KCAL/MOL
REMARK 924 INTRA-LIGAND FREE ENERGY PREDICTED BY IDOCK:   -0.89 KCAL/MOL
REMARK 927      BINDING AFFINITY PREDICTED BY RF-SCORE:    0.00 PKD
ROOT
HETATM    1  C   UNL     1      -9.976   5.592  68.563  1.00  0.00    -0.205 C  
HETATM    2  C   UNL     1      -8.858   4.785  67.880  1.00  0.00    -0.114 C  
HETATM    3  C   UNL     1      -9.522   3.718  66.988  1.00  0.00    -0.227 C  
HETATM    4  C   UNL     1     -10.126   4.551  65.839  1.00  0.00    -0.279 C  
HETATM    5  C   UNL     1      -9.719   5.993  66.206  1.00  0.00    -0.119 C  
HETATM    6  C   UNL     1      -8.335   5.750  66.815  1.00  0.00    -0.109 C  
HETATM    7  C   UNL     1     -10.568   6.416  67.416  1.00  0.00    -0.363 C  
HETATM    8  C   UNL     1     -10.351   7.845  67.828  1.00  0.00    -0.226 C  
HETATM    9  O   UNL     1     -10.605   8.811  67.126  1.00  0.00    -0.291 OA 
HETATM   10  N   UNL     1      -9.800   7.866  69.076  1.00  0.00    -0.167 N  
HETATM   11  O   UNL     1      -8.805   6.359  70.531  1.00  0.00    -0.142 OA 
HETATM   12  C   UNL     1      -9.456   6.620  69.530  1.00  0.00    -0.147 C  
ENDROOT
BRANCH  10  13
HETATM   13  C   UNL     1      -9.428   9.090  69.768  1.00  0.00    -0.175 C  
BRANCH  13  14
HETATM   14  C   UNL     1     -10.567   9.619  70.668  1.00  0.00    -0.386 C  
HETATM   15  C   UNL     1     -11.340   8.437  71.285  1.00  0.00    -0.314 C  
HETATM   16  C   UNL     1     -12.427   8.910  72.242  1.00  0.00    -0.440 C  
HETATM   17  C   UNL     1     -13.371   9.897  71.569  1.00  0.00    -0.462 C  
HETATM   18  C   UNL     1     -12.614  11.070  70.950  1.00  0.00    -0.488 C  
HETATM   19  C   UNL     1     -11.554  10.586  69.939  1.00  0.00    -0.384 C  
BRANCH  19  20
HETATM   20  C   UNL     1     -10.803  11.773  69.291  1.00  0.00    -0.133 C  
BRANCH  20  21
HETATM   21  N   UNL     1     -11.562  12.618  68.349  1.00  0.00    -0.306 NA 
HETATM   22  C   UNL     1     -11.833  13.946  68.970  1.00  0.00    -0.358 C  
HETATM   23  C   UNL     1     -10.562  14.775  69.249  1.00  0.00    -0.240 C  
HETATM   24  N   UNL     1      -9.752  14.962  68.033  1.00  0.00    -0.209 NA 
HETATM   25  C   UNL     1      -9.569  13.768  67.187  1.00  0.00    -0.244 C  
HETATM   26  C   UNL     1     -10.844  12.890  67.081  1.00  0.00    -0.256 C  
BRANCH  24  27
HETATM   27  C   UNL     1      -9.726  16.211  67.472  1.00  0.00    -0.233 A  
HETATM   28  N   UNL     1     -10.658  16.639  66.623  1.00  0.00    -0.252 NA 
HETATM   29  S   UNL     1     -10.397  18.224  66.266  1.00  0.00    -0.366 SA 
HETATM   30  C   UNL     1      -9.021  18.428  67.266  1.00  0.00    -0.263 A  
HETATM   31  C   UNL     1      -8.265  19.587  67.511  1.00  0.00    -0.328 A  
HETATM   32  C   UNL     1      -7.182  19.501  68.388  1.00  0.00    -0.354 A  
HETATM   33  C   UNL     1      -6.861  18.296  69.001  1.00  0.00    -0.264 A  
HETATM   34  C   UNL     1      -7.629  17.151  68.758  1.00  0.00    -0.259 A  
HETATM   35  C   UNL     1      -8.733  17.200  67.867  1.00  0.00    -0.222 A  
ENDBRANCH  24  27
ENDBRANCH  20  21
ENDBRANCH  19  20
ENDBRANCH  13  14
ENDBRANCH  10  13
TORSDOF 5
ENDMDL
MODEL       33
REMARK 921   NORMALIZED FREE ENERGY PREDICTED BY IDOCK:   -6.55 KCAL/MOL
REMARK 922        TOTAL FREE ENERGY PREDICTED BY IDOCK:  -10.19 KCAL/MOL
REMARK 923 INTER-LIGAND FREE ENERGY PREDICTED BY IDOCK:   -8.89 KCAL/MOL
REMARK 924 INTRA-LIGAND FREE ENERGY PREDICTED BY IDOCK:   -1.30 KCAL/MOL
REMARK 927      BINDING AFFINITY PREDICTED BY RF-SCORE:    0.00 PKD
ROOT
HETATM    1  C   UNL     1     -11.507   7.848  72.696  1.00  0.00    -0.454 C  
HETATM    2  C   UNL     1     -12.873   7.839  71.988  1.00  0.00    -0.265 C  
HETATM    3  C   UNL     1     -13.626   9.120  72.395  1.00  0.00    -0.544 C  
HETATM    4  C   UNL     1     -12.844  10.231  71.665  1.00  0.00    -0.568 C  
HETATM    5  C   UNL     1     -11.748   9.446  70.915  1.00  0.00    -0.378 C  
HETATM    6  C   UNL     1     -12.516   8.176  70.539  1.00  0.00     0.400 C  
HETATM    7  C   UNL     1     -10.738   8.951  71.964  1.00  0.00    -0.389 C  
HETATM    8  C   UNL     1      -9.551   8.250  71.365  1.00  0.00    -0.177 C  
HETATM    9  O   UNL     1      -8.741   8.778  70.620  1.00  0.00    -0.147 OA 
HETATM   10  N   UNL     1      -9.563   6.944  71.764  1.00  0.00    -0.160 N  
HETATM   11  O   UNL     1     -11.050   5.477  72.769  1.00  0.00    -0.255 OA 
HETATM   12  C   UNL     1     -10.702   6.603  72.442  1.00  0.00    -0.223 C  
ENDROOT
BRANCH  10  13
HETATM   13  C   UNL     1      -8.571   5.968  71.339  1.00  0.00    -0.129 C  
BRANCH  13  14
HETATM   14  C   UNL     1      -9.163   4.919  70.371  1.00  0.00    -0.189 C  
HETATM   15  C   UNL     1      -8.902   3.499  70.912  1.00  0.00    -0.141 C  
HETATM   16  C   UNL     1      -9.535   2.433  70.028  1.00  0.00    -0.135 C  
HETATM   17  C   UNL     1      -9.080   2.567  68.581  1.00  0.00    -0.201 C  
HETATM   18  C   UNL     1      -9.330   3.972  68.037  1.00  0.00    -0.220 C  
HETATM   19  C   UNL     1      -8.639   5.043  68.906  1.00  0.00    -0.091 C  
BRANCH  19  20
HETATM   20  C   UNL     1      -8.868   6.465  68.343  1.00  0.00    -0.119 C  
BRANCH  20  21
HETATM   21  N   UNL     1      -9.393   6.571  66.968  1.00  0.00    -0.135 NA 
HETATM   22  C   UNL     1     -10.659   7.358  66.971  1.00  0.00    -0.344 C  
HETATM   23  C   UNL     1     -10.477   8.830  67.398  1.00  0.00    -0.279 C  
HETATM   24  N   UNL     1      -9.476   9.521  66.569  1.00  0.00    -0.169 NA 
HETATM   25  C   UNL     1      -8.235   8.773  66.292  1.00  0.00    -0.115 C  
HETATM   26  C   UNL     1      -8.475   7.262  66.031  1.00  0.00    -0.145 C  
BRANCH  24  27
HETATM   27  C   UNL     1      -9.927  10.456  65.675  1.00  0.00    -0.272 A  
HETATM   28  N   UNL     1      -9.789  10.319  64.358  1.00  0.00    -0.330 NA 
HETATM   29  S   UNL     1     -10.570  11.546  63.588  1.00  0.00    -0.450 SA 
HETATM   30  C   UNL     1     -11.164  12.318  64.997  1.00  0.00    -0.321 A  
HETATM   31  C   UNL     1     -11.989  13.450  65.110  1.00  0.00    -0.406 A  
HETATM   32  C   UNL     1     -12.350  13.885  66.386  1.00  0.00    -0.468 A  
HETATM   33  C   UNL     1     -11.903  13.212  67.516  1.00  0.00    -0.409 A  
HETATM   34  C   UNL     1     -11.091  12.079  67.391  1.00  0.00    -0.337 A  
HETATM   35  C   UNL     1     -10.698  11.612  66.109  1.00  0.00    -0.325 A  
ENDBRANCH  24  27
ENDBRANCH  20  21
ENDBRANCH  19  20
ENDBRANCH  13  14
ENDBRANCH  10  13
TORSDOF 5
ENDMDL
MODEL       34
REMARK 921   NORMALIZED FREE ENERGY PREDICTED BY IDOCK:   -6.49 KCAL/MOL
REMARK 922        TOTAL FREE ENERGY PREDICTED BY IDOCK:  -10.10 KCAL/MOL
REMARK 923 INTER-LIGAND FREE ENERGY PREDICTED BY IDOCK:   -9.08 KCAL/MOL
REMARK 924 INTRA-LIGAND FREE ENERGY PREDICTED BY IDOCK:   -1.02 KCAL/MOL
REMARK 927      BINDING AFFINITY PREDICTED BY RF-SCORE:    0.00 PKD
ROOT
HETATM    1  C   UNL     1      -7.621  10.210  68.522  1.00  0.00    -0.088 C  
HETATM    2  C   UNL     1      -6.708  11.192  69.277  1.00  0.00    -0.103 C  
HETATM    3  C   UNL     1      -5.312  11.136  68.626  1.00  0.00    -0.043 C  
HETATM    4  C   UNL     1      -5.536  11.821  67.262  1.00  0.00    -0.115 C  
HETATM    5  C   UNL     1      -7.031  12.199  67.306  1.00  0.00    -0.148 C  
HETATM    6  C   UNL     1      -7.187  12.559  68.786  1.00  0.00    -0.089 C  
HETATM    7  C   UNL     1      -7.839  10.898  67.172  1.00  0.00    -0.127 C  
HETATM    8  C   UNL     1      -9.323  11.121  67.098  1.00  0.00    -0.165 C  
HETATM    9  O   UNL     1      -9.885  11.735  66.204  1.00  0.00    -0.216 OA 
HETATM   10  N   UNL     1      -9.909  10.563  68.197  1.00  0.00    -0.150 N  
HETATM   11  O   UNL     1      -9.236   9.719  70.249  1.00  0.00    -0.246 OA 
HETATM   12  C   UNL     1      -8.999  10.111  69.116  1.00  0.00    -0.175 C  
ENDROOT
BRANCH  10  13
HETATM   13  C   UNL     1     -11.338  10.623  68.462  1.00  0.00    -0.284 C  
BRANCH  13  14
HETATM   14  C   UNL     1     -11.656  11.382  69.770  1.00  0.00    -0.407 C  
HETATM   15  C   UNL     1     -12.691  10.592  70.596  1.00  0.00    -0.445 C  
HETATM   16  C   UNL     1     -12.979  11.264  71.931  1.00  0.00    -0.471 C  
HETATM   17  C   UNL     1     -13.410  12.713  71.745  1.00  0.00    -0.405 C  
HETATM   18  C   UNL     1     -12.394  13.503  70.922  1.00  0.00    -0.437 C  
HETATM   19  C   UNL     1     -12.150  12.847  69.548  1.00  0.00    -0.274 C  
BRANCH  19  20
HETATM   20  C   UNL     1     -11.141  13.660  68.702  1.00  0.00    -0.272 C  
BRANCH  20  21
HETATM   21  N   UNL     1     -11.657  14.843  67.989  1.00  0.00    -0.336 NA 
HETATM   22  C   UNL     1     -11.368  16.073  68.778  1.00  0.00    -0.380 C  
HETATM   23  C   UNL     1      -9.863  16.377  68.931  1.00  0.00    -0.260 C  
HETATM   24  N   UNL     1      -9.187  16.466  67.626  1.00  0.00    -0.199 NA 
HETATM   25  C   UNL     1      -9.537  15.424  66.642  1.00  0.00    -0.256 C  
HETATM   26  C   UNL     1     -11.043  15.050  66.656  1.00  0.00    -0.326 C  
BRANCH  24  27
HETATM   27  C   UNL     1      -8.788  17.705  67.200  1.00  0.00    -0.244 A  
HETATM   28  N   UNL     1      -9.381  18.348  66.195  1.00  0.00    -0.499 NA 
HETATM   29  S   UNL     1      -8.746  19.859  66.052  1.00  0.00    -0.112 SA 
HETATM   30  C   UNL     1      -7.649  19.738  67.363  1.00  0.00    -0.267 A  
HETATM   31  C   UNL     1      -6.775  20.708  67.882  1.00  0.00    -0.348 A  
HETATM   32  C   UNL     1      -5.980  20.368  68.978  1.00  0.00    -0.377 A  
HETATM   33  C   UNL     1      -6.055  19.100  69.541  1.00  0.00    -0.294 A  
HETATM   34  C   UNL     1      -6.939  18.146  69.022  1.00  0.00    -0.262 A  
HETATM   35  C   UNL     1      -7.757  18.455  67.904  1.00  0.00    -0.261 A  
ENDBRANCH  24  27
ENDBRANCH  20  21
ENDBRANCH  19  20
ENDBRANCH  13  14
ENDBRANCH  10  13
TORSDOF 5
ENDMDL
MODEL       35
REMARK 921   NORMALIZED FREE ENERGY PREDICTED BY IDOCK:   -6.47 KCAL/MOL
REMARK 922        TOTAL FREE ENERGY PREDICTED BY IDOCK:  -10.09 KCAL/MOL
REMARK 923 INTER-LIGAND FREE ENERGY PREDICTED BY IDOCK:   -9.00 KCAL/MOL
REMARK 924 INTRA-LIGAND FREE ENERGY PREDICTED BY IDOCK:   -1.09 KCAL/MOL
REMARK 927      BINDING AFFINITY PREDICTED BY RF-SCORE:    0.00 PKD
ROOT
HETATM    1  C   UNL     1      -9.824  17.874  68.544  1.00  0.00    -0.367 C  
HETATM    2  C   UNL     1     -10.603  18.869  67.666  1.00  0.00    -0.501 C  
HETATM    3  C   UNL     1      -9.809  20.189  67.627  1.00  0.00    -0.567 C  
HETATM    4  C   UNL     1      -8.579  19.831  66.769  1.00  0.00    -0.375 C  
HETATM    5  C   UNL     1      -8.827  18.352  66.408  1.00  0.00    -0.262 C  
HETATM    6  C   UNL     1     -10.351  18.352  66.248  1.00  0.00    -0.440 C  
HETATM    7  C   UNL     1      -8.606  17.523  67.684  1.00  0.00    -0.219 C  
HETATM    8  C   UNL     1      -8.717  16.041  67.461  1.00  0.00    -0.182 C  
HETATM    9  O   UNL     1      -7.975  15.395  66.737  1.00  0.00    -0.223 OA 
HETATM   10  N   UNL     1      -9.787  15.568  68.163  1.00  0.00    -0.215 N  
HETATM   11  O   UNL     1     -11.629  16.442  69.268  1.00  0.00    -0.237 OA 
HETATM   12  C   UNL     1     -10.538  16.564  68.728  1.00  0.00    -0.322 C  
ENDROOT
BRANCH  10  13
HETATM   13  C   UNL     1     -10.204  14.174  68.146  1.00  0.00    -0.241 C  
BRANCH  13  14
HETATM   14  C   UNL     1     -10.674  13.724  66.744  1.00  0.00    -0.276 C  
HETATM   15  C   UNL     1     -11.984  14.446  66.373  1.00  0.00    -0.402 C  
HETATM   16  C   UNL     1     -12.446  14.092  64.966  1.00  0.00    -0.446 C  
HETATM   17  C   UNL     1     -12.574  12.585  64.785  1.00  0.00    -0.493 C  
HETATM   18  C   UNL     1     -11.282  11.860  65.155  1.00  0.00    -0.346 C  
HETATM   19  C   UNL     1     -10.851  12.180  66.601  1.00  0.00    -0.307 C  
BRANCH  19  20
HETATM   20  C   UNL     1      -9.557  11.425  66.988  1.00  0.00    -0.176 C  
BRANCH  20  21
HETATM   21  N   UNL     1      -9.511  10.805  68.326  1.00  0.00    -0.158 NA 
HETATM   22  C   UNL     1     -10.664   9.875  68.489  1.00  0.00    -0.226 C  
HETATM   23  C   UNL     1     -10.629   8.664  67.533  1.00  0.00    -0.222 C  
HETATM   24  N   UNL     1      -9.372   7.907  67.652  1.00  0.00    -0.142 NA 
HETATM   25  C   UNL     1      -8.136   8.710  67.720  1.00  0.00    -0.107 C  
HETATM   26  C   UNL     1      -8.290  10.001  68.568  1.00  0.00    -0.113 C  
BRANCH  24  27
HETATM   27  C   UNL     1      -9.425   6.677  68.253  1.00  0.00    -0.123 A  
HETATM   28  N   UNL     1      -9.836   6.505  69.508  1.00  0.00    -0.151 NA 
HETATM   29  S   UNL     1      -9.912   4.897  69.851  1.00  0.00    -0.252 SA 
HETATM   30  C   UNL     1      -9.419   4.342  68.306  1.00  0.00    -0.153 A  
HETATM   31  C   UNL     1      -9.299   3.025  67.833  1.00  0.00    -0.255 A  
HETATM   32  C   UNL     1      -8.884   2.827  66.514  1.00  0.00    -0.153 A  
HETATM   33  C   UNL     1      -8.598   3.910  65.693  1.00  0.00    -0.111 A  
HETATM   34  C   UNL     1      -8.734   5.219  66.172  1.00  0.00    -0.129 A  
HETATM   35  C   UNL     1      -9.146   5.456  67.510  1.00  0.00    -0.107 A  
ENDBRANCH  24  27
ENDBRANCH  20  21
ENDBRANCH  19  20
ENDBRANCH  13  14
ENDBRANCH  10  13
TORSDOF 5
ENDMDL
MODEL       36
REMARK 921   NORMALIZED FREE ENERGY PREDICTED BY IDOCK:   -6.47 KCAL/MOL
REMARK 922        TOTAL FREE ENERGY PREDICTED BY IDOCK:  -10.08 KCAL/MOL
REMARK 923 INTER-LIGAND FREE ENERGY PREDICTED BY IDOCK:   -8.61 KCAL/MOL
REMARK 924 INTRA-LIGAND FREE ENERGY PREDICTED BY IDOCK:   -1.48 KCAL/MOL
REMARK 927      BINDING AFFINITY PREDICTED BY RF-SCORE:    0.00 PKD
ROOT
HETATM    1  C   UNL     1     -11.425   8.772  70.389  1.00  0.00    -0.163 C  
HETATM    2  C   UNL     1     -11.820   9.349  71.759  1.00  0.00    -0.452 C  
HETATM    3  C   UNL     1     -13.354   9.494  71.788  1.00  0.00    -0.501 C  
HETATM    4  C   UNL     1     -13.841   8.033  71.853  1.00  0.00    -0.418 C  
HETATM    5  C   UNL     1     -12.524   7.230  71.870  1.00  0.00    -0.337 C  
HETATM    6  C   UNL     1     -11.637   8.159  72.703  1.00  0.00    -0.441 C  
HETATM    7  C   UNL     1     -11.911   7.322  70.463  1.00  0.00    -0.237 C  
HETATM    8  C   UNL     1     -10.665   6.498  70.299  1.00  0.00    -0.255 C  
HETATM    9  O   UNL     1     -10.624   5.282  70.396  1.00  0.00    -0.268 OA 
HETATM   10  N   UNL     1      -9.611   7.334  70.066  1.00  0.00    -0.168 N  
HETATM   11  O   UNL     1      -9.164   9.604  70.213  1.00  0.00    -0.242 OA 
HETATM   12  C   UNL     1      -9.937   8.657  70.203  1.00  0.00    -0.182 C  
ENDROOT
BRANCH  10  13
HETATM   13  C   UNL     1      -8.243   6.870  69.893  1.00  0.00    -0.127 C  
BRANCH  13  14
HETATM   14  C   UNL     1      -8.079   6.000  68.626  1.00  0.00    -0.107 C  
HETATM   15  C   UNL     1      -7.474   4.634  69.003  1.00  0.00    -0.056 C  
HETATM   16  C   UNL     1      -7.364   3.712  67.795  1.00  0.00    -0.062 C  
HETATM   17  C   UNL     1      -6.588   4.368  66.662  1.00  0.00    -0.049 C  
HETATM   18  C   UNL     1      -7.177   5.726  66.285  1.00  0.00    -0.077 C  
HETATM   19  C   UNL     1      -7.231   6.673  67.501  1.00  0.00    -0.090 C  
BRANCH  19  20
HETATM   20  C   UNL     1      -7.803   8.058  67.116  1.00  0.00    -0.105 C  
BRANCH  20  21
HETATM   21  N   UNL     1      -8.828   8.095  66.055  1.00  0.00    -0.165 NA 
HETATM   22  C   UNL     1     -10.035   8.817  66.546  1.00  0.00    -0.290 C  
HETATM   23  C   UNL     1      -9.788  10.308  66.856  1.00  0.00    -0.197 C  
HETATM   24  N   UNL     1      -9.232  11.024  65.695  1.00  0.00    -0.205 NA 
HETATM   25  C   UNL     1      -8.155  10.331  64.962  1.00  0.00    -0.146 C  
HETATM   26  C   UNL     1      -8.390   8.803  64.828  1.00  0.00    -0.168 C  
BRANCH  24  27
HETATM   27  C   UNL     1     -10.049  11.907  65.040  1.00  0.00    -0.264 A  
HETATM   28  N   UNL     1     -10.940  11.524  64.127  1.00  0.00    -0.364 NA 
HETATM   29  S   UNL     1     -11.844  12.816  63.659  1.00  0.00    -0.556 SA 
HETATM   30  C   UNL     1     -11.098  13.964  64.689  1.00  0.00    -0.385 A  
HETATM   31  C   UNL     1     -11.402  15.324  64.871  1.00  0.00    -0.387 A  
HETATM   32  C   UNL     1     -10.647  16.056  65.790  1.00  0.00    -0.366 A  
HETATM   33  C   UNL     1      -9.621  15.451  66.505  1.00  0.00    -0.298 A  
HETATM   34  C   UNL     1      -9.336  14.093  66.324  1.00  0.00    -0.215 A  
HETATM   35  C   UNL     1     -10.078  13.319  65.393  1.00  0.00    -0.267 A  
ENDBRANCH  24  27
ENDBRANCH  20  21
ENDBRANCH  19  20
ENDBRANCH  13  14
ENDBRANCH  10  13
TORSDOF 5
ENDMDL
MODEL       37
REMARK 921   NORMALIZED FREE ENERGY PREDICTED BY IDOCK:   -6.43 KCAL/MOL
REMARK 922        TOTAL FREE ENERGY PREDICTED BY IDOCK:  -10.04 KCAL/MOL
REMARK 923 INTER-LIGAND FREE ENERGY PREDICTED BY IDOCK:  -10.16 KCAL/MOL
REMARK 924 INTRA-LIGAND FREE ENERGY PREDICTED BY IDOCK:    0.12 KCAL/MOL
REMARK 927      BINDING AFFINITY PREDICTED BY RF-SCORE:    0.00 PKD
ROOT
HETATM    1  C   UNL     1     -10.237  17.576  66.514  1.00  0.00    -0.342 C  
HETATM    2  C   UNL     1      -8.710  17.762  66.473  1.00  0.00    -0.281 C  
HETATM    3  C   UNL     1      -8.393  19.188  66.964  1.00  0.00    -0.294 C  
HETATM    4  C   UNL     1      -8.712  19.116  68.471  1.00  0.00    -0.401 C  
HETATM    5  C   UNL     1      -9.157  17.652  68.661  1.00  0.00    -0.261 C  
HETATM    6  C   UNL     1      -8.228  16.943  67.672  1.00  0.00    -0.196 C  
HETATM    7  C   UNL     1     -10.544  17.505  68.013  1.00  0.00    -0.384 C  
HETATM    8  C   UNL     1     -11.154  16.145  68.208  1.00  0.00    -0.348 C  
HETATM    9  O   UNL     1     -11.450  15.671  69.294  1.00  0.00    -0.312 OA 
HETATM   10  N   UNL     1     -11.279  15.539  66.991  1.00  0.00    -0.239 N  
HETATM   11  O   UNL     1     -10.503  15.864  64.831  1.00  0.00    -0.542 OA 
HETATM   12  C   UNL     1     -10.685  16.244  65.979  1.00  0.00    -0.214 C  
ENDROOT
BRANCH  10  13
HETATM   13  C   UNL     1     -11.805  14.194  66.817  1.00  0.00    -0.425 C  
BRANCH  13  14
HETATM   14  C   UNL     1     -11.432  13.596  65.442  1.00  0.00    -0.322 C  
HETATM   15  C   UNL     1     -12.707  13.356  64.610  1.00  0.00    -0.246 C  
HETATM   16  C   UNL     1     -12.383  12.837  63.216  1.00  0.00    -0.437 C  
HETATM   17  C   UNL     1     -11.516  11.587  63.273  1.00  0.00    -0.180 C  
HETATM   18  C   UNL     1     -10.252  11.813  64.100  1.00  0.00    -0.363 C  
HETATM   19  C   UNL     1     -10.591  12.283  65.529  1.00  0.00    -0.304 C  
BRANCH  19  20
HETATM   20  C   UNL     1      -9.313  12.488  66.377  1.00  0.00    -0.209 C  
BRANCH  20  21
HETATM   21  N   UNL     1      -8.912  11.385  67.272  1.00  0.00    -0.156 NA 
HETATM   22  C   UNL     1      -8.933  11.852  68.687  1.00  0.00    -0.041 C  
HETATM   23  C   UNL     1     -10.339  12.233  69.197  1.00  0.00     0.144 C  
HETATM   24  N   UNL     1     -11.299  11.129  69.034  1.00  0.00    -0.248 NA 
HETATM   25  C   UNL     1     -11.254  10.416  67.744  1.00  0.00    -0.237 C  
HETATM   26  C   UNL     1      -9.813  10.209  67.208  1.00  0.00    -0.183 C  
BRANCH  24  27
HETATM   27  C   UNL     1     -11.715  10.476  70.165  1.00  0.00    -0.326 A  
HETATM   28  N   UNL     1     -12.971  10.526  70.605  1.00  0.00    -0.344 NA 
HETATM   29  S   UNL     1     -13.149   9.515  71.890  1.00  0.00    -0.455 SA 
HETATM   30  C   UNL     1     -11.538   8.929  71.905  1.00  0.00    -0.371 A  
HETATM   31  C   UNL     1     -10.954   7.958  72.737  1.00  0.00    -0.456 A  
HETATM   32  C   UNL     1      -9.609   7.640  72.543  1.00  0.00    -0.230 A  
HETATM   33  C   UNL     1      -8.868   8.270  71.551  1.00  0.00    -0.216 A  
HETATM   34  C   UNL     1      -9.465   9.227  70.721  1.00  0.00    -0.336 A  
HETATM   35  C   UNL     1     -10.828   9.581  70.894  1.00  0.00    -0.407 A  
ENDBRANCH  24  27
ENDBRANCH  20  21
ENDBRANCH  19  20
ENDBRANCH  13  14
ENDBRANCH  10  13
TORSDOF 5
ENDMDL
MODEL       38
REMARK 921   NORMALIZED FREE ENERGY PREDICTED BY IDOCK:   -6.43 KCAL/MOL
REMARK 922        TOTAL FREE ENERGY PREDICTED BY IDOCK:  -10.03 KCAL/MOL
REMARK 923 INTER-LIGAND FREE ENERGY PREDICTED BY IDOCK:   -9.13 KCAL/MOL
REMARK 924 INTRA-LIGAND FREE ENERGY PREDICTED BY IDOCK:   -0.90 KCAL/MOL
REMARK 927      BINDING AFFINITY PREDICTED BY RF-SCORE:    0.00 PKD
ROOT
HETATM    1  C   UNL     1     -10.196  17.620  68.510  1.00  0.00    -0.386 C  
HETATM    2  C   UNL     1     -10.824  18.677  67.585  1.00  0.00    -0.347 C  
HETATM    3  C   UNL     1     -10.004  19.975  67.725  1.00  0.00    -0.560 C  
HETATM    4  C   UNL     1      -8.674  19.624  67.028  1.00  0.00    -0.369 C  
HETATM    5  C   UNL     1      -8.901  18.172  66.560  1.00  0.00    -0.286 C  
HETATM    6  C   UNL     1     -10.386  18.223  66.191  1.00  0.00    -0.414 C  
HETATM    7  C   UNL     1      -8.878  17.277  67.810  1.00  0.00    -0.234 C  
HETATM    8  C   UNL     1      -8.987  15.811  67.498  1.00  0.00    -0.194 C  
HETATM    9  O   UNL     1      -8.165  15.180  66.851  1.00  0.00    -0.215 OA 
HETATM   10  N   UNL     1     -10.155  15.335  68.020  1.00  0.00    -0.227 N  
HETATM   11  O   UNL     1     -12.114  16.205  68.902  1.00  0.00    -0.219 OA 
HETATM   12  C   UNL     1     -10.957  16.322  68.526  1.00  0.00    -0.345 C  
ENDROOT
BRANCH  10  13
HETATM   13  C   UNL     1     -10.595  13.956  67.872  1.00  0.00    -0.245 C  
BRANCH  13  14
HETATM   14  C   UNL     1     -10.709  13.536  66.390  1.00  0.00    -0.287 C  
HETATM   15  C   UNL     1     -11.707  14.455  65.659  1.00  0.00    -0.356 C  
HETATM   16  C   UNL     1     -11.796  14.127  64.175  1.00  0.00    -0.364 C  
HETATM   17  C   UNL     1     -12.128  12.659  63.947  1.00  0.00    -0.567 C  
HETATM   18  C   UNL     1     -11.147  11.739  64.672  1.00  0.00    -0.363 C  
HETATM   19  C   UNL     1     -11.105  12.039  66.184  1.00  0.00    -0.367 C  
BRANCH  19  20
HETATM   20  C   UNL     1     -10.133  11.091  66.925  1.00  0.00    -0.210 C  
BRANCH  20  21
HETATM   21  N   UNL     1     -10.705  10.212  67.962  1.00  0.00    -0.241 NA 
HETATM   22  C   UNL     1     -10.772   8.812  67.455  1.00  0.00    -0.146 C  
HETATM   23  C   UNL     1      -9.390   8.183  67.176  1.00  0.00    -0.145 C  
HETATM   24  N   UNL     1      -8.518   8.231  68.361  1.00  0.00    -0.128 NA 
HETATM   25  C   UNL     1      -8.507   9.504  69.108  1.00  0.00    -0.131 C  
HETATM   26  C   UNL     1      -9.907  10.165  69.210  1.00  0.00    -0.220 C  
BRANCH  24  27
HETATM   27  C   UNL     1      -8.262   7.053  69.011  1.00  0.00    -0.125 A  
HETATM   28  N   UNL     1      -7.102   6.409  68.907  1.00  0.00    -0.079 NA 
HETATM   29  S   UNL     1      -7.089   5.119  69.929  1.00  0.00    -0.059 SA 
HETATM   30  C   UNL     1      -8.647   5.378  70.593  1.00  0.00    -0.127 A  
HETATM   31  C   UNL     1      -9.311   4.663  71.605  1.00  0.00    -0.195 A  
HETATM   32  C   UNL     1     -10.588   5.082  71.985  1.00  0.00    -0.243 A  
HETATM   33  C   UNL     1     -11.184   6.178  71.376  1.00  0.00    -0.346 A  
HETATM   34  C   UNL     1     -10.507   6.889  70.378  1.00  0.00    -0.229 A  
HETATM   35  C   UNL     1      -9.211   6.488  69.961  1.00  0.00    -0.157 A  
ENDBRANCH  24  27
ENDBRANCH  20  21
ENDBRANCH  19  20
ENDBRANCH  13  14
ENDBRANCH  10  13
TORSDOF 5
ENDMDL
MODEL       39
REMARK 921   NORMALIZED FREE ENERGY PREDICTED BY IDOCK:   -6.42 KCAL/MOL
REMARK 922        TOTAL FREE ENERGY PREDICTED BY IDOCK:  -10.03 KCAL/MOL
REMARK 923 INTER-LIGAND FREE ENERGY PREDICTED BY IDOCK:   -9.11 KCAL/MOL
REMARK 924 INTRA-LIGAND FREE ENERGY PREDICTED BY IDOCK:   -0.91 KCAL/MOL
REMARK 927      BINDING AFFINITY PREDICTED BY RF-SCORE:    0.00 PKD
ROOT
HETATM    1  C   UNL     1      -8.691  18.649  68.457  1.00  0.00    -0.362 C  
HETATM    2  C   UNL     1      -7.938  19.511  67.429  1.00  0.00    -0.305 C  
HETATM    3  C   UNL     1      -6.747  20.174  68.149  1.00  0.00    -0.329 C  
HETATM    4  C   UNL     1      -5.791  18.991  68.404  1.00  0.00    -0.221 C  
HETATM    5  C   UNL     1      -6.545  17.797  67.784  1.00  0.00    -0.193 C  
HETATM    6  C   UNL     1      -7.203  18.473  66.578  1.00  0.00    -0.254 C  
HETATM    7  C   UNL     1      -7.736  17.477  68.703  1.00  0.00    -0.275 C  
HETATM    8  C   UNL     1      -8.511  16.263  68.275  1.00  0.00    -0.187 C  
HETATM    9  O   UNL     1      -8.053  15.132  68.232  1.00  0.00    -0.131 OA 
HETATM   10  N   UNL     1      -9.772  16.647  67.920  1.00  0.00    -0.240 N  
HETATM   11  O   UNL     1     -10.891  18.625  67.461  1.00  0.00    -0.435 OA 
HETATM   12  C   UNL     1      -9.929  18.007  67.895  1.00  0.00    -0.331 C  
ENDROOT
BRANCH  10  13
HETATM   13  C   UNL     1     -10.781  15.724  67.424  1.00  0.00    -0.317 C  
BRANCH  13  14
HETATM   14  C   UNL     1     -11.655  15.150  68.561  1.00  0.00    -0.354 C  
HETATM   15  C   UNL     1     -11.612  16.091  69.782  1.00  0.00    -0.297 C  
HETATM   16  C   UNL     1     -12.520  15.604  70.903  1.00  0.00    -0.497 C  
HETATM   17  C   UNL     1     -12.199  14.170  71.298  1.00  0.00    -0.419 C  
HETATM   18  C   UNL     1     -12.234  13.230  70.095  1.00  0.00    -0.376 C  
HETATM   19  C   UNL     1     -11.269  13.698  68.987  1.00  0.00    -0.316 C  
BRANCH  19  20
HETATM   20  C   UNL     1     -11.282  12.734  67.777  1.00  0.00    -0.275 C  
BRANCH  20  21
HETATM   21  N   UNL     1     -10.009  12.081  67.419  1.00  0.00    -0.190 NA 
HETATM   22  C   UNL     1      -9.368  11.521  68.643  1.00  0.00    -0.137 C  
HETATM   23  C   UNL     1     -10.177  10.387  69.307  1.00  0.00    -0.230 C  
HETATM   24  N   UNL     1     -10.463   9.293  68.363  1.00  0.00    -0.210 NA 
HETATM   25  C   UNL     1     -10.909   9.699  67.017  1.00  0.00    -0.078 C  
HETATM   26  C   UNL     1     -10.165  10.948  66.475  1.00  0.00    -0.232 C  
BRANCH  24  27
HETATM   27  C   UNL     1      -9.792   8.112  68.536  1.00  0.00    -0.179 A  
HETATM   28  N   UNL     1      -8.701   7.794  67.842  1.00  0.00    -0.125 NA 
HETATM   29  S   UNL     1      -8.076   6.381  68.407  1.00  0.00    -0.113 SA 
HETATM   30  C   UNL     1      -9.234   6.134  69.646  1.00  0.00    -0.143 A  
HETATM   31  C   UNL     1      -9.303   5.109  70.605  1.00  0.00    -0.211 A  
HETATM   32  C   UNL     1     -10.350   5.134  71.529  1.00  0.00    -0.278 A  
HETATM   33  C   UNL     1     -11.298   6.149  71.498  1.00  0.00    -0.340 A  
HETATM   34  C   UNL     1     -11.211   7.170  70.545  1.00  0.00    -0.321 A  
HETATM   35  C   UNL     1     -10.165   7.173  69.586  1.00  0.00    -0.215 A  
ENDBRANCH  24  27
ENDBRANCH  20  21
ENDBRANCH  19  20
ENDBRANCH  13  14
ENDBRANCH  10  13
TORSDOF 5
ENDMDL
MODEL       40
REMARK 921   NORMALIZED FREE ENERGY PREDICTED BY IDOCK:   -6.37 KCAL/MOL
REMARK 922        TOTAL FREE ENERGY PREDICTED BY IDOCK:   -9.96 KCAL/MOL
REMARK 923 INTER-LIGAND FREE ENERGY PREDICTED BY IDOCK:   -8.87 KCAL/MOL
REMARK 924 INTRA-LIGAND FREE ENERGY PREDICTED BY IDOCK:   -1.08 KCAL/MOL
REMARK 927      BINDING AFFINITY PREDICTED BY RF-SCORE:    0.00 PKD
ROOT
HETATM    1  C   UNL     1     -10.921  13.607  69.143  1.00  0.00    -0.235 C  
HETATM    2  C   UNL     1     -12.011  14.458  69.817  1.00  0.00    -0.385 C  
HETATM    3  C   UNL     1     -11.325  15.381  70.842  1.00  0.00    -0.395 C  
HETATM    4  C   UNL     1     -10.570  16.391  69.953  1.00  0.00    -0.245 C  
HETATM    5  C   UNL     1     -10.931  15.931  68.526  1.00  0.00    -0.324 C  
HETATM    6  C   UNL     1     -12.378  15.474  68.733  1.00  0.00     0.131 C  
HETATM    7  C   UNL     1     -10.179  14.616  68.262  1.00  0.00    -0.227 C  
HETATM    8  C   UNL     1     -10.356  14.097  66.863  1.00  0.00    -0.269 C  
HETATM    9  O   UNL     1      -9.984  14.681  65.858  1.00  0.00    -0.295 OA 
HETATM   10  N   UNL     1     -11.021  12.906  66.915  1.00  0.00    -0.261 N  
HETATM   11  O   UNL     1     -12.230  11.690  68.476  1.00  0.00    -0.485 OA 
HETATM   12  C   UNL     1     -11.473  12.601  68.171  1.00  0.00    -0.313 C  
ENDROOT
BRANCH  10  13
HETATM   13  C   UNL     1     -11.389  12.141  65.734  1.00  0.00    -0.354 C  
BRANCH  13  14
HETATM   14  C   UNL     1     -10.173  11.431  65.097  1.00  0.00    -0.328 C  
HETATM   15  C   UNL     1     -10.158  11.680  63.576  1.00  0.00    -0.455 C  
HETATM   16  C   UNL     1      -8.933  11.063  62.915  1.00  0.00    -0.292 C  
HETATM   17  C   UNL     1      -8.816   9.579  63.234  1.00  0.00    -0.233 C  
HETATM   18  C   UNL     1      -8.836   9.321  64.739  1.00  0.00    -0.225 C  
HETATM   19  C   UNL     1     -10.107   9.899  65.392  1.00  0.00    -0.270 C  
BRANCH  19  20
HETATM   20  C   UNL     1     -10.143   9.616  66.913  1.00  0.00    -0.227 C  
BRANCH  20  21
HETATM   21  N   UNL     1      -8.868   9.258  67.564  1.00  0.00    -0.119 NA 
HETATM   22  C   UNL     1      -8.684  10.075  68.795  1.00  0.00    -0.136 C  
HETATM   23  C   UNL     1      -9.734   9.798  69.891  1.00  0.00    -0.238 C  
HETATM   24  N   UNL     1      -9.782   8.372  70.256  1.00  0.00    -0.171 NA 
HETATM   25  C   UNL     1      -9.754   7.415  69.134  1.00  0.00    -0.165 C  
HETATM   26  C   UNL     1      -8.795   7.840  67.990  1.00  0.00    -0.124 C  
BRANCH  24  27
HETATM   27  C   UNL     1      -9.280   8.011  71.478  1.00  0.00    -0.147 A  
HETATM   28  N   UNL     1      -8.306   8.686  72.086  1.00  0.00    -0.341 NA 
HETATM   29  S   UNL     1      -8.056   8.067  73.589  1.00  0.00    -0.222 SA 
HETATM   30  C   UNL     1      -9.276   6.866  73.514  1.00  0.00    -0.152 A  
HETATM   31  C   UNL     1      -9.685   5.952  74.500  1.00  0.00    -0.241 A  
HETATM   32  C   UNL     1     -10.723   5.069  74.198  1.00  0.00    -0.297 A  
HETATM   33  C   UNL     1     -11.335   5.095  72.951  1.00  0.00    -0.354 A  
HETATM   34  C   UNL     1     -10.926   6.018  71.981  1.00  0.00    -0.313 A  
HETATM   35  C   UNL     1      -9.869   6.926  72.251  1.00  0.00    -0.163 A  
ENDBRANCH  24  27
ENDBRANCH  20  21
ENDBRANCH  19  20
ENDBRANCH  13  14
ENDBRANCH  10  13
TORSDOF 5
ENDMDL
MODEL       41
REMARK 921   NORMALIZED FREE ENERGY PREDICTED BY IDOCK:   -6.37 KCAL/MOL
REMARK 922        TOTAL FREE ENERGY PREDICTED BY IDOCK:   -9.95 KCAL/MOL
REMARK 923 INTER-LIGAND FREE ENERGY PREDICTED BY IDOCK:   -9.05 KCAL/MOL
REMARK 924 INTRA-LIGAND FREE ENERGY PREDICTED BY IDOCK:   -0.91 KCAL/MOL
REMARK 927      BINDING AFFINITY PREDICTED BY RF-SCORE:    0.00 PKD
ROOT
HETATM    1  C   UNL     1      -9.773  17.845  66.543  1.00  0.00    -0.331 C  
HETATM    2  C   UNL     1      -8.612  18.632  67.175  1.00  0.00    -0.277 C  
HETATM    3  C   UNL     1      -9.040  20.110  67.273  1.00  0.00    -0.480 C  
HETATM    4  C   UNL     1     -10.114  20.089  68.380  1.00  0.00    -0.513 C  
HETATM    5  C   UNL     1     -10.158  18.604  68.792  1.00  0.00    -0.398 C  
HETATM    6  C   UNL     1      -8.680  18.227  68.649  1.00  0.00    -0.290 C  
HETATM    7  C   UNL     1     -10.833  17.829  67.648  1.00  0.00    -0.234 C  
HETATM    8  C   UNL     1     -11.037  16.372  67.953  1.00  0.00    -0.249 C  
HETATM    9  O   UNL     1     -11.744  15.948  68.854  1.00  0.00    -0.390 OA 
HETATM   10  N   UNL     1     -10.282  15.630  67.091  1.00  0.00    -0.264 N  
HETATM   11  O   UNL     1      -8.557  15.991  65.585  1.00  0.00    -0.098 OA 
HETATM   12  C   UNL     1      -9.449  16.394  66.318  1.00  0.00    -0.317 C  
ENDROOT
BRANCH  10  13
HETATM   13  C   UNL     1     -10.218  14.177  67.128  1.00  0.00    -0.258 C  
BRANCH  13  14
HETATM   14  C   UNL     1     -10.617  13.542  65.777  1.00  0.00    -0.283 C  
HETATM   15  C   UNL     1     -11.878  14.235  65.224  1.00  0.00    -0.374 C  
HETATM   16  C   UNL     1     -12.266  13.693  63.855  1.00  0.00    -0.429 C  
HETATM   17  C   UNL     1     -12.434  12.180  63.882  1.00  0.00    -0.581 C  
HETATM   18  C   UNL     1     -11.192  11.484  64.434  1.00  0.00    -0.327 C  
HETATM   19  C   UNL     1     -10.838  11.997  65.844  1.00  0.00    -0.329 C  
BRANCH  19  20
HETATM   20  C   UNL     1      -9.595  11.275  66.417  1.00  0.00    -0.198 C  
BRANCH  20  21
HETATM   21  N   UNL     1      -9.652  10.851  67.829  1.00  0.00    -0.162 NA 
HETATM   22  C   UNL     1     -10.747   9.858  68.014  1.00  0.00    -0.248 C  
HETATM   23  C   UNL     1     -10.524   8.534  67.252  1.00  0.00    -0.296 C  
HETATM   24  N   UNL     1      -9.237   7.911  67.603  1.00  0.00    -0.136 NA 
HETATM   25  C   UNL     1      -8.075   8.817  67.673  1.00  0.00    -0.106 C  
HETATM   26  C   UNL     1      -8.410  10.195  68.304  1.00  0.00    -0.115 C  
BRANCH  24  27
HETATM   27  C   UNL     1      -9.268   6.776  68.370  1.00  0.00    -0.123 A  
HETATM   28  N   UNL     1      -9.486   6.798  69.683  1.00  0.00    -0.147 NA 
HETATM   29  S   UNL     1      -9.603   5.259  70.252  1.00  0.00    -0.193 SA 
HETATM   30  C   UNL     1      -9.393   4.474  68.744  1.00  0.00    -0.146 A  
HETATM   31  C   UNL     1      -9.427   3.101  68.445  1.00  0.00    -0.211 A  
HETATM   32  C   UNL     1      -9.238   2.705  67.119  1.00  0.00    -0.162 A  
HETATM   33  C   UNL     1      -9.021   3.648  66.123  1.00  0.00    -0.142 A  
HETATM   34  C   UNL     1      -9.000   5.013  66.431  1.00  0.00    -0.123 A  
HETATM   35  C   UNL     1      -9.182   5.452  67.769  1.00  0.00    -0.115 A  
ENDBRANCH  24  27
ENDBRANCH  20  21
ENDBRANCH  19  20
ENDBRANCH  13  14
ENDBRANCH  10  13
TORSDOF 5
ENDMDL
MODEL       42
REMARK 921   NORMALIZED FREE ENERGY PREDICTED BY IDOCK:   -6.36 KCAL/MOL
REMARK 922        TOTAL FREE ENERGY PREDICTED BY IDOCK:   -9.95 KCAL/MOL
REMARK 923 INTER-LIGAND FREE ENERGY PREDICTED BY IDOCK:   -8.86 KCAL/MOL
REMARK 924 INTRA-LIGAND FREE ENERGY PREDICTED BY IDOCK:   -1.09 KCAL/MOL
REMARK 927      BINDING AFFINITY PREDICTED BY RF-SCORE:    0.00 PKD
ROOT
HETATM    1  C   UNL     1      -9.124   6.320  70.039  1.00  0.00    -0.150 C  
HETATM    2  C   UNL     1      -7.968   5.332  69.810  1.00  0.00    -0.080 C  
HETATM    3  C   UNL     1      -8.299   4.031  70.568  1.00  0.00    -0.085 C  
HETATM    4  C   UNL     1      -9.459   3.434  69.745  1.00  0.00    -0.229 C  
HETATM    5  C   UNL     1      -9.638   4.458  68.606  1.00  0.00    -0.216 C  
HETATM    6  C   UNL     1      -8.183   4.873  68.366  1.00  0.00    -0.084 C  
HETATM    7  C   UNL     1     -10.269   5.720  69.217  1.00  0.00    -0.292 C  
HETATM    8  C   UNL     1     -10.597   6.777  68.200  1.00  0.00    -0.230 C  
HETATM    9  O   UNL     1     -11.403   6.635  67.293  1.00  0.00    -0.324 OA 
HETATM   10  N   UNL     1      -9.827   7.877  68.443  1.00  0.00    -0.168 N  
HETATM   11  O   UNL     1      -7.964   8.414  69.714  1.00  0.00    -0.100 OA 
HETATM   12  C   UNL     1      -8.883   7.666  69.412  1.00  0.00    -0.139 C  
ENDROOT
BRANCH  10  13
HETATM   13  C   UNL     1      -9.866   9.079  67.624  1.00  0.00    -0.173 C  
BRANCH  13  14
HETATM   14  C   UNL     1      -9.541   8.785  66.143  1.00  0.00    -0.323 C  
HETATM   15  C   UNL     1      -8.311   7.860  66.049  1.00  0.00    -0.128 C  
HETATM   16  C   UNL     1      -7.998   7.481  64.608  1.00  0.00    -0.133 C  
HETATM   17  C   UNL     1      -7.831   8.714  63.731  1.00  0.00    -0.148 C  
HETATM   18  C   UNL     1      -9.042   9.639  63.821  1.00  0.00    -0.220 C  
HETATM   19  C   UNL     1      -9.318  10.065  65.277  1.00  0.00    -0.294 C  
BRANCH  19  20
HETATM   20  C   UNL     1     -10.529  11.025  65.368  1.00  0.00    -0.241 C  
BRANCH  20  21
HETATM   21  N   UNL     1     -10.240  12.467  65.481  1.00  0.00    -0.273 NA 
HETATM   22  C   UNL     1     -11.477  13.199  65.875  1.00  0.00    -0.333 C  
HETATM   23  C   UNL     1     -12.000  12.829  67.279  1.00  0.00    -0.280 C  
HETATM   24  N   UNL     1     -10.971  13.018  68.315  1.00  0.00    -0.248 NA 
HETATM   25  C   UNL     1      -9.619  12.531  67.982  1.00  0.00    -0.212 C  
HETATM   26  C   UNL     1      -9.219  12.792  66.505  1.00  0.00    -0.189 C  
BRANCH  24  27
HETATM   27  C   UNL     1     -11.127  14.066  69.183  1.00  0.00    -0.259 A  
HETATM   28  N   UNL     1     -10.642  15.282  68.940  1.00  0.00    -0.233 NA 
HETATM   29  S   UNL     1     -11.139  16.322  70.114  1.00  0.00    -0.267 SA 
HETATM   30  C   UNL     1     -12.066  15.189  71.003  1.00  0.00    -0.333 A  
HETATM   31  C   UNL     1     -12.850  15.388  72.152  1.00  0.00    -0.466 A  
HETATM   32  C   UNL     1     -13.530  14.295  72.692  1.00  0.00    -0.623 A  
HETATM   33  C   UNL     1     -13.431  13.040  72.104  1.00  0.00    -0.638 A  
HETATM   34  C   UNL     1     -12.657  12.856  70.952  1.00  0.00    -0.355 A  
HETATM   35  C   UNL     1     -11.946  13.944  70.381  1.00  0.00    -0.393 A  
ENDBRANCH  24  27
ENDBRANCH  20  21
ENDBRANCH  19  20
ENDBRANCH  13  14
ENDBRANCH  10  13
TORSDOF 5
ENDMDL
MODEL       43
REMARK 921   NORMALIZED FREE ENERGY PREDICTED BY IDOCK:   -6.34 KCAL/MOL
REMARK 922        TOTAL FREE ENERGY PREDICTED BY IDOCK:   -9.92 KCAL/MOL
REMARK 923 INTER-LIGAND FREE ENERGY PREDICTED BY IDOCK:   -8.63 KCAL/MOL
REMARK 924 INTRA-LIGAND FREE ENERGY PREDICTED BY IDOCK:   -1.29 KCAL/MOL
REMARK 927      BINDING AFFINITY PREDICTED BY RF-SCORE:    0.00 PKD
ROOT
HETATM    1  C   UNL     1     -11.974  12.157  65.670  1.00  0.00    -0.280 C  
HETATM    2  C   UNL     1     -11.026  12.665  64.570  1.00  0.00    -0.365 C  
HETATM    3  C   UNL     1     -11.871  13.431  63.533  1.00  0.00    -0.399 C  
HETATM    4  C   UNL     1     -12.273  14.713  64.290  1.00  0.00    -0.432 C  
HETATM    5  C   UNL     1     -11.594  14.532  65.663  1.00  0.00    -0.344 C  
HETATM    6  C   UNL     1     -10.298  13.828  65.247  1.00  0.00    -0.378 C  
HETATM    7  C   UNL     1     -12.365  13.436  66.416  1.00  0.00    -0.381 C  
HETATM    8  C   UNL     1     -11.875  13.218  67.820  1.00  0.00    -0.353 C  
HETATM    9  O   UNL     1     -11.917  14.060  68.704  1.00  0.00    -0.350 OA 
HETATM   10  N   UNL     1     -11.357  11.959  67.916  1.00  0.00    -0.268 N  
HETATM   11  O   UNL     1     -10.712  10.261  66.475  1.00  0.00    -0.176 OA 
HETATM   12  C   UNL     1     -11.278  11.320  66.708  1.00  0.00    -0.195 C  
ENDROOT
BRANCH  10  13
HETATM   13  C   UNL     1     -10.762  11.428  69.133  1.00  0.00    -0.189 C  
BRANCH  13  14
HETATM   14  C   UNL     1     -11.770  10.599  69.960  1.00  0.00    -0.405 C  
HETATM   15  C   UNL     1     -12.286  11.434  71.149  1.00  0.00    -0.404 C  
HETATM   16  C   UNL     1     -13.342  10.684  71.950  1.00  0.00    -0.454 C  
HETATM   17  C   UNL     1     -12.832   9.325  72.409  1.00  0.00    -0.418 C  
HETATM   18  C   UNL     1     -12.313   8.492  71.239  1.00  0.00    -0.301 C  
HETATM   19  C   UNL     1     -11.205   9.234  70.466  1.00  0.00    -0.315 C  
BRANCH  19  20
HETATM   20  C   UNL     1     -10.659   8.382  69.296  1.00  0.00    -0.182 C  
BRANCH  20  21
HETATM   21  N   UNL     1      -9.528   7.480  69.588  1.00  0.00    -0.157 NA 
HETATM   22  C   UNL     1     -10.016   6.075  69.681  1.00  0.00    -0.170 C  
HETATM   23  C   UNL     1     -10.581   5.522  68.356  1.00  0.00    -0.140 C  
HETATM   24  N   UNL     1      -9.606   5.627  67.258  1.00  0.00    -0.114 NA 
HETATM   25  C   UNL     1      -8.873   6.904  67.162  1.00  0.00    -0.120 C  
HETATM   26  C   UNL     1      -8.476   7.487  68.544  1.00  0.00    -0.129 C  
BRANCH  24  27
HETATM   27  C   UNL     1      -9.029   4.469  66.806  1.00  0.00    -0.115 A  
HETATM   28  N   UNL     1      -8.069   3.834  67.475  1.00  0.00    -0.089 NA 
HETATM   29  S   UNL     1      -7.716   2.414  66.723  1.00  0.00    -0.071 SA 
HETATM   30  C   UNL     1      -8.867   2.565  65.463  1.00  0.00    -0.127 A  
HETATM   31  C   UNL     1      -9.178   1.664  64.431  1.00  0.00    -0.124 A  
HETATM   32  C   UNL     1     -10.177   2.015  63.521  1.00  0.00    -0.139 A  
HETATM   33  C   UNL     1     -10.845   3.227  63.636  1.00  0.00    -0.191 A  
HETATM   34  C   UNL     1     -10.534   4.112  64.675  1.00  0.00    -0.189 A  
HETATM   35  C   UNL     1      -9.519   3.791  65.614  1.00  0.00    -0.170 A  
ENDBRANCH  24  27
ENDBRANCH  20  21
ENDBRANCH  19  20
ENDBRANCH  13  14
ENDBRANCH  10  13
TORSDOF 5
ENDMDL
MODEL       44
REMARK 921   NORMALIZED FREE ENERGY PREDICTED BY IDOCK:   -6.34 KCAL/MOL
REMARK 922        TOTAL FREE ENERGY PREDICTED BY IDOCK:   -9.92 KCAL/MOL
REMARK 923 INTER-LIGAND FREE ENERGY PREDICTED BY IDOCK:   -8.68 KCAL/MOL
REMARK 924 INTRA-LIGAND FREE ENERGY PREDICTED BY IDOCK:   -1.24 KCAL/MOL
REMARK 927      BINDING AFFINITY PREDICTED BY RF-SCORE:    0.00 PKD
ROOT
HETATM    1  C   UNL     1     -11.979  12.343  65.739  1.00  0.00    -0.437 C  
HETATM    2  C   UNL     1     -11.122  12.746  64.526  1.00  0.00    -0.365 C  
HETATM    3  C   UNL     1     -12.052  13.407  63.489  1.00  0.00    -0.497 C  
HETATM    4  C   UNL     1     -12.408  14.754  64.149  1.00  0.00    -0.259 C  
HETATM    5  C   UNL     1     -11.626  14.707  65.477  1.00  0.00    -0.335 C  
HETATM    6  C   UNL     1     -10.358  13.971  65.032  1.00  0.00    -0.432 C  
HETATM    7  C   UNL     1     -12.326  13.686  66.388  1.00  0.00    -0.441 C  
HETATM    8  C   UNL     1     -11.729  13.605  67.764  1.00  0.00    -0.362 C  
HETATM    9  O   UNL     1     -11.713  14.526  68.565  1.00  0.00    -0.294 OA 
HETATM   10  N   UNL     1     -11.191  12.362  67.940  1.00  0.00    -0.247 N  
HETATM   11  O   UNL     1     -10.640  10.536  66.621  1.00  0.00    -0.241 OA 
HETATM   12  C   UNL     1     -11.198  11.611  66.795  1.00  0.00    -0.308 C  
ENDROOT
BRANCH  10  13
HETATM   13  C   UNL     1     -10.501  11.952  69.153  1.00  0.00     0.002 C  
BRANCH  13  14
HETATM   14  C   UNL     1      -9.566  10.745  68.911  1.00  0.00    -0.204 C  
HETATM   15  C   UNL     1      -9.938   9.594  69.866  1.00  0.00    -0.273 C  
HETATM   16  C   UNL     1      -9.092   8.354  69.612  1.00  0.00    -0.153 C  
HETATM   17  C   UNL     1      -7.604   8.670  69.680  1.00  0.00    -0.080 C  
HETATM   18  C   UNL     1      -7.226   9.814  68.741  1.00  0.00    -0.072 C  
HETATM   19  C   UNL     1      -8.048  11.084  69.042  1.00  0.00    -0.105 C  
BRANCH  19  20
HETATM   20  C   UNL     1      -7.648  12.253  68.110  1.00  0.00    -0.127 C  
BRANCH  20  21
HETATM   21  N   UNL     1      -6.694  13.244  68.641  1.00  0.00    -0.089 NA 
HETATM   22  C   UNL     1      -6.369  14.245  67.586  1.00  0.00    -0.107 C  
HETATM   23  C   UNL     1      -7.573  15.107  67.151  1.00  0.00    -0.168 C  
HETATM   24  N   UNL     1      -8.199  15.790  68.295  1.00  0.00    -0.141 NA 
HETATM   25  C   UNL     1      -8.395  14.975  69.509  1.00  0.00    -0.092 C  
HETATM   26  C   UNL     1      -7.214  14.012  69.798  1.00  0.00     0.250 C  
BRANCH  24  27
HETATM   27  C   UNL     1      -8.026  17.145  68.400  1.00  0.00    -0.250 A  
HETATM   28  N   UNL     1      -6.980  17.693  69.015  1.00  0.00    -0.244 NA 
HETATM   29  S   UNL     1      -7.015  19.326  68.823  1.00  0.00    -0.343 SA 
HETATM   30  C   UNL     1      -8.437  19.382  67.868  1.00  0.00    -0.313 A  
HETATM   31  C   UNL     1      -9.065  20.490  67.274  1.00  0.00    -0.473 A  
HETATM   32  C   UNL     1     -10.222  20.274  66.523  1.00  0.00    -0.477 A  
HETATM   33  C   UNL     1     -10.737  18.993  66.369  1.00  0.00    -0.410 A  
HETATM   34  C   UNL     1     -10.096  17.896  66.956  1.00  0.00    -0.340 A  
HETATM   35  C   UNL     1      -8.922  18.079  67.732  1.00  0.00    -0.255 A  
ENDBRANCH  24  27
ENDBRANCH  20  21
ENDBRANCH  19  20
ENDBRANCH  13  14
ENDBRANCH  10  13
TORSDOF 5
ENDMDL
MODEL       45
REMARK 921   NORMALIZED FREE ENERGY PREDICTED BY IDOCK:   -6.30 KCAL/MOL
REMARK 922        TOTAL FREE ENERGY PREDICTED BY IDOCK:   -9.87 KCAL/MOL
REMARK 923 INTER-LIGAND FREE ENERGY PREDICTED BY IDOCK:   -8.59 KCAL/MOL
REMARK 924 INTRA-LIGAND FREE ENERGY PREDICTED BY IDOCK:   -1.28 KCAL/MOL
REMARK 927      BINDING AFFINITY PREDICTED BY RF-SCORE:    0.00 PKD
ROOT
HETATM    1  C   UNL     1      -7.858  10.382  66.986  1.00  0.00    -0.112 C  
HETATM    2  C   UNL     1      -7.508   9.716  65.643  1.00  0.00    -0.101 C  
HETATM    3  C   UNL     1      -6.075   9.161  65.748  1.00  0.00    -0.055 C  
HETATM    4  C   UNL     1      -6.233   7.970  66.716  1.00  0.00    -0.054 C  
HETATM    5  C   UNL     1      -7.742   7.980  67.033  1.00  0.00    -0.100 C  
HETATM    6  C   UNL     1      -8.313   8.416  65.680  1.00  0.00    -0.160 C  
HETATM    7  C   UNL     1      -8.014   9.193  67.938  1.00  0.00    -0.101 C  
HETATM    8  C   UNL     1      -9.437   9.276  68.414  1.00  0.00    -0.138 C  
HETATM    9  O   UNL     1      -9.978   8.441  69.123  1.00  0.00    -0.185 OA 
HETATM   10  N   UNL     1     -10.011  10.401  67.896  1.00  0.00    -0.163 N  
HETATM   11  O   UNL     1      -9.529  11.965  66.253  1.00  0.00    -0.218 OA 
HETATM   12  C   UNL     1      -9.211  11.038  66.985  1.00  0.00    -0.153 C  
ENDROOT
BRANCH  10  13
HETATM   13  C   UNL     1     -11.397  10.774  68.129  1.00  0.00    -0.308 C  
BRANCH  13  14
HETATM   14  C   UNL     1     -11.621  11.319  69.558  1.00  0.00    -0.398 C  
HETATM   15  C   UNL     1     -12.636  10.432  70.305  1.00  0.00    -0.262 C  
HETATM   16  C   UNL     1     -12.832  10.887  71.745  1.00  0.00    -0.509 C  
HETATM   17  C   UNL     1     -13.224  12.356  71.817  1.00  0.00    -0.435 C  
HETATM   18  C   UNL     1     -12.227  13.244  71.075  1.00  0.00    -0.287 C  
HETATM   19  C   UNL     1     -12.077  12.812  69.602  1.00  0.00    -0.286 C  
BRANCH  19  20
HETATM   20  C   UNL     1     -11.088  13.726  68.840  1.00  0.00    -0.266 C  
BRANCH  20  21
HETATM   21  N   UNL     1     -11.665  14.756  67.955  1.00  0.00    -0.351 NA 
HETATM   22  C   UNL     1     -11.798  16.041  68.697  1.00  0.00    -0.167 C  
HETATM   23  C   UNL     1     -10.449  16.655  69.127  1.00  0.00    -0.333 C  
HETATM   24  N   UNL     1      -9.543  16.845  67.981  1.00  0.00    -0.242 NA 
HETATM   25  C   UNL     1      -9.465  15.726  67.024  1.00  0.00    -0.223 C  
HETATM   26  C   UNL     1     -10.836  15.048  66.761  1.00  0.00    -0.318 C  
BRANCH  24  27
HETATM   27  C   UNL     1      -9.315  18.128  67.557  1.00  0.00    -0.258 A  
HETATM   28  N   UNL     1     -10.295  18.952  67.192  1.00  0.00    -0.388 NA 
HETATM   29  S   UNL     1      -9.679  20.446  66.885  1.00  0.00    -0.377 SA 
HETATM   30  C   UNL     1      -8.050  20.068  67.257  1.00  0.00    -0.320 A  
HETATM   31  C   UNL     1      -6.923  20.907  67.266  1.00  0.00    -0.436 A  
HETATM   32  C   UNL     1      -5.688  20.360  67.621  1.00  0.00    -0.225 A  
HETATM   33  C   UNL     1      -5.581  19.016  67.956  1.00  0.00    -0.192 A  
HETATM   34  C   UNL     1      -6.713  18.192  67.955  1.00  0.00    -0.203 A  
HETATM   35  C   UNL     1      -7.982  18.714  67.593  1.00  0.00    -0.261 A  
ENDBRANCH  24  27
ENDBRANCH  20  21
ENDBRANCH  19  20
ENDBRANCH  13  14
ENDBRANCH  10  13
TORSDOF 5
ENDMDL
MODEL       46
REMARK 921   NORMALIZED FREE ENERGY PREDICTED BY IDOCK:   -6.28 KCAL/MOL
REMARK 922        TOTAL FREE ENERGY PREDICTED BY IDOCK:   -9.84 KCAL/MOL
REMARK 923 INTER-LIGAND FREE ENERGY PREDICTED BY IDOCK:   -8.78 KCAL/MOL
REMARK 924 INTRA-LIGAND FREE ENERGY PREDICTED BY IDOCK:   -1.07 KCAL/MOL
REMARK 927      BINDING AFFINITY PREDICTED BY RF-SCORE:    0.00 PKD
ROOT
HETATM    1  C   UNL     1     -10.423   6.806  70.372  1.00  0.00    -0.236 C  
HETATM    2  C   UNL     1     -11.659   6.298  71.136  1.00  0.00    -0.339 C  
HETATM    3  C   UNL     1     -11.228   5.995  72.585  1.00  0.00    -0.326 C  
HETATM    4  C   UNL     1     -10.984   7.398  73.176  1.00  0.00    -0.408 C  
HETATM    5  C   UNL     1     -11.321   8.334  71.998  1.00  0.00    -0.390 C  
HETATM    6  C   UNL     1     -12.481   7.570  71.353  1.00  0.00    -0.382 C  
HETATM    7  C   UNL     1     -10.190   8.199  70.965  1.00  0.00    -0.221 C  
HETATM    8  C   UNL     1     -10.332   9.134  69.797  1.00  0.00    -0.215 C  
HETATM    9  O   UNL     1     -10.307  10.352  69.882  1.00  0.00    -0.244 OA 
HETATM   10  N   UNL     1     -10.526   8.398  68.664  1.00  0.00    -0.196 N  
HETATM   11  O   UNL     1     -11.043   6.206  68.116  1.00  0.00    -0.332 OA 
HETATM   12  C   UNL     1     -10.695   7.063  68.915  1.00  0.00    -0.200 C  
ENDROOT
BRANCH  10  13
HETATM   13  C   UNL     1     -10.734   8.990  67.351  1.00  0.00    -0.161 C  
BRANCH  13  14
HETATM   14  C   UNL     1      -9.406   9.212  66.594  1.00  0.00    -0.228 C  
HETATM   15  C   UNL     1      -8.345   8.210  67.092  1.00  0.00    -0.120 C  
HETATM   16  C   UNL     1      -7.038   8.341  66.321  1.00  0.00    -0.070 C  
HETATM   17  C   UNL     1      -6.511   9.769  66.356  1.00  0.00    -0.071 C  
HETATM   18  C   UNL     1      -7.556  10.770  65.870  1.00  0.00    -0.106 C  
HETATM   19  C   UNL     1      -8.857  10.671  66.693  1.00  0.00    -0.149 C  
BRANCH  19  20
HETATM   20  C   UNL     1      -9.909  11.702  66.220  1.00  0.00    -0.219 C  
BRANCH  20  21
HETATM   21  N   UNL     1     -10.581  12.505  67.259  1.00  0.00    -0.226 NA 
HETATM   22  C   UNL     1      -9.565  13.233  68.070  1.00  0.00    -0.220 C  
HETATM   23  C   UNL     1      -8.763  14.282  67.271  1.00  0.00    -0.218 C  
HETATM   24  N   UNL     1      -9.646  15.256  66.608  1.00  0.00    -0.242 NA 
HETATM   25  C   UNL     1     -10.833  14.700  65.931  1.00  0.00    -0.312 C  
HETATM   26  C   UNL     1     -11.496  13.537  66.715  1.00  0.00    -0.346 C  
BRANCH  24  27
HETATM   27  C   UNL     1      -9.676  16.531  67.108  1.00  0.00    -0.245 A  
HETATM   28  N   UNL     1     -10.625  16.957  67.939  1.00  0.00    -0.352 NA 
HETATM   29  S   UNL     1     -10.271  18.479  68.453  1.00  0.00    -0.337 SA 
HETATM   30  C   UNL     1      -8.793  18.637  67.600  1.00  0.00    -0.275 A  
HETATM   31  C   UNL     1      -7.876  19.701  67.603  1.00  0.00    -0.317 A  
HETATM   32  C   UNL     1      -6.723  19.586  66.823  1.00  0.00    -0.204 A  
HETATM   33  C   UNL     1      -6.492  18.446  66.065  1.00  0.00    -0.271 A  
HETATM   34  C   UNL     1      -7.408  17.387  66.080  1.00  0.00    -0.331 A  
HETATM   35  C   UNL     1      -8.594  17.472  66.855  1.00  0.00    -0.267 A  
ENDBRANCH  24  27
ENDBRANCH  20  21
ENDBRANCH  19  20
ENDBRANCH  13  14
ENDBRANCH  10  13
TORSDOF 5
ENDMDL
MODEL       47
REMARK 921   NORMALIZED FREE ENERGY PREDICTED BY IDOCK:   -6.27 KCAL/MOL
REMARK 922        TOTAL FREE ENERGY PREDICTED BY IDOCK:   -9.83 KCAL/MOL
REMARK 923 INTER-LIGAND FREE ENERGY PREDICTED BY IDOCK:   -9.32 KCAL/MOL
REMARK 924 INTRA-LIGAND FREE ENERGY PREDICTED BY IDOCK:   -0.51 KCAL/MOL
REMARK 927      BINDING AFFINITY PREDICTED BY RF-SCORE:    0.00 PKD
ROOT
HETATM    1  C   UNL     1      -9.209  17.039  67.326  1.00  0.00    -0.225 C  
HETATM    2  C   UNL     1      -9.633  18.103  68.354  1.00  0.00    -0.345 C  
HETATM    3  C   UNL     1      -8.691  19.313  68.199  1.00  0.00    -0.370 C  
HETATM    4  C   UNL     1      -9.121  19.919  66.847  1.00  0.00    -0.452 C  
HETATM    5  C   UNL     1     -10.268  18.990  66.401  1.00  0.00    -0.502 C  
HETATM    6  C   UNL     1     -10.918  18.674  67.752  1.00  0.00    -0.174 C  
HETATM    7  C   UNL     1      -9.640  17.648  65.989  1.00  0.00    -0.123 C  
HETATM    8  C   UNL     1     -10.635  16.669  65.432  1.00  0.00    -0.237 C  
HETATM    9  O   UNL     1     -11.282  16.847  64.412  1.00  0.00    -1.159 OA 
HETATM   10  N   UNL     1     -10.710  15.593  66.269  1.00  0.00    -0.309 N  
HETATM   11  O   UNL     1     -10.027  15.045  68.415  1.00  0.00    -0.215 OA 
HETATM   12  C   UNL     1     -10.005  15.768  67.429  1.00  0.00    -0.237 C  
ENDROOT
BRANCH  10  13
HETATM   13  C   UNL     1     -11.605  14.467  66.047  1.00  0.00    -0.363 C  
BRANCH  13  14
HETATM   14  C   UNL     1     -10.856  13.226  65.512  1.00  0.00    -0.297 C  
HETATM   15  C   UNL     1     -10.738  13.306  63.977  1.00  0.00    -0.254 C  
HETATM   16  C   UNL     1      -9.940  12.140  63.410  1.00  0.00    -0.305 C  
HETATM   17  C   UNL     1     -10.518  10.802  63.851  1.00  0.00    -0.251 C  
HETATM   18  C   UNL     1     -10.644  10.714  65.370  1.00  0.00    -0.185 C  
HETATM   19  C   UNL     1     -11.502  11.867  65.931  1.00  0.00    -0.340 C  
BRANCH  19  20
HETATM   20  C   UNL     1     -11.653  11.766  67.468  1.00  0.00    -0.291 C  
BRANCH  20  21
HETATM   21  N   UNL     1     -10.420  11.591  68.258  1.00  0.00    -0.190 NA 
HETATM   22  C   UNL     1     -10.691  11.900  69.690  1.00  0.00     0.279 C  
HETATM   23  C   UNL     1     -11.685  10.929  70.361  1.00  0.00    -0.350 C  
HETATM   24  N   UNL     1     -11.249   9.528  70.240  1.00  0.00    -0.255 NA 
HETATM   25  C   UNL     1     -10.743   9.119  68.916  1.00  0.00    -0.141 C  
HETATM   26  C   UNL     1      -9.882  10.210  68.225  1.00  0.00    -0.145 C  
BRANCH  24  27
HETATM   27  C   UNL     1     -10.794   8.904  71.371  1.00  0.00    -0.307 A  
HETATM   28  N   UNL     1     -11.600   8.262  72.214  1.00  0.00    -0.358 NA 
HETATM   29  S   UNL     1     -10.706   7.510  73.373  1.00  0.00    -0.215 SA 
HETATM   30  C   UNL     1      -9.171   7.989  72.780  1.00  0.00    -0.252 A  
HETATM   31  C   UNL     1      -7.892   7.660  73.260  1.00  0.00    -0.149 A  
HETATM   32  C   UNL     1      -6.779   8.171  72.589  1.00  0.00    -0.095 A  
HETATM   33  C   UNL     1      -6.937   8.985  71.475  1.00  0.00    -0.045 A  
HETATM   34  C   UNL     1      -8.216   9.296  71.000  1.00  0.00    -0.122 A  
HETATM   35  C   UNL     1      -9.370   8.800  71.661  1.00  0.00    -0.345 A  
ENDBRANCH  24  27
ENDBRANCH  20  21
ENDBRANCH  19  20
ENDBRANCH  13  14
ENDBRANCH  10  13
TORSDOF 5
ENDMDL
MODEL       48
REMARK 921   NORMALIZED FREE ENERGY PREDICTED BY IDOCK:   -6.25 KCAL/MOL
REMARK 922        TOTAL FREE ENERGY PREDICTED BY IDOCK:   -9.80 KCAL/MOL
REMARK 923 INTER-LIGAND FREE ENERGY PREDICTED BY IDOCK:   -8.91 KCAL/MOL
REMARK 924 INTRA-LIGAND FREE ENERGY PREDICTED BY IDOCK:   -0.89 KCAL/MOL
REMARK 927      BINDING AFFINITY PREDICTED BY RF-SCORE:    0.00 PKD
ROOT
HETATM    1  C   UNL     1     -12.710  15.419  70.182  1.00  0.00    -0.263 C  
HETATM    2  C   UNL     1     -12.571  15.760  71.676  1.00  0.00    -0.521 C  
HETATM    3  C   UNL     1     -13.952  15.578  72.334  1.00  0.00    -0.653 C  
HETATM    4  C   UNL     1     -14.143  14.048  72.325  1.00  0.00    -0.633 C  
HETATM    5  C   UNL     1     -12.839  13.540  71.678  1.00  0.00    -0.419 C  
HETATM    6  C   UNL     1     -11.832  14.546  72.242  1.00  0.00    -0.030 C  
HETATM    7  C   UNL     1     -12.898  13.899  70.184  1.00  0.00    -0.053 C  
HETATM    8  C   UNL     1     -11.729  13.374  69.397  1.00  0.00    -0.325 C  
HETATM    9  O   UNL     1     -11.471  12.189  69.252  1.00  0.00    -0.268 OA 
HETATM   10  N   UNL     1     -11.009  14.431  68.919  1.00  0.00    -0.247 N  
HETATM   11  O   UNL     1     -10.886  16.718  69.277  1.00  0.00    -0.325 OA 
HETATM   12  C   UNL     1     -11.440  15.635  69.406  1.00  0.00    -0.348 C  
ENDROOT
BRANCH  10  13
HETATM   13  C   UNL     1      -9.790  14.282  68.139  1.00  0.00    -0.226 C  
BRANCH  13  14
HETATM   14  C   UNL     1     -10.079  14.135  66.628  1.00  0.00    -0.275 C  
HETATM   15  C   UNL     1     -11.381  14.879  66.269  1.00  0.00    -0.306 C  
HETATM   16  C   UNL     1     -11.668  14.826  64.774  1.00  0.00    -0.422 C  
HETATM   17  C   UNL     1     -11.689  13.393  64.260  1.00  0.00    -0.455 C  
HETATM   18  C   UNL     1     -10.405  12.646  64.616  1.00  0.00    -0.354 C  
HETATM   19  C   UNL     1     -10.152  12.655  66.138  1.00  0.00    -0.268 C  
BRANCH  19  20
HETATM   20  C   UNL     1      -8.866  11.876  66.504  1.00  0.00    -0.178 C  
BRANCH  20  21
HETATM   21  N   UNL     1      -8.987  10.810  67.517  1.00  0.00    -0.132 NA 
HETATM   22  C   UNL     1     -10.082   9.875  67.136  1.00  0.00    -0.215 C  
HETATM   23  C   UNL     1      -9.813   9.098  65.830  1.00  0.00    -0.235 C  
HETATM   24  N   UNL     1      -8.540   8.360  65.885  1.00  0.00    -0.150 NA 
HETATM   25  C   UNL     1      -7.390   9.093  66.447  1.00  0.00    -0.092 C  
HETATM   26  C   UNL     1      -7.765   9.984  67.661  1.00  0.00    -0.091 C  
BRANCH  24  27
HETATM   27  C   UNL     1      -8.599   6.995  65.987  1.00  0.00    -0.148 A  
HETATM   28  N   UNL     1      -8.136   6.181  65.040  1.00  0.00    -0.130 NA 
HETATM   29  S   UNL     1      -8.234   4.621  65.554  1.00  0.00    -0.118 SA 
HETATM   30  C   UNL     1      -8.883   4.963  67.102  1.00  0.00    -0.106 A  
HETATM   31  C   UNL     1      -9.190   4.080  68.151  1.00  0.00    -0.203 A  
HETATM   32  C   UNL     1      -9.705   4.609  69.336  1.00  0.00    -0.272 A  
HETATM   33  C   UNL     1      -9.907   5.976  69.472  1.00  0.00    -0.202 A  
HETATM   34  C   UNL     1      -9.587   6.847  68.423  1.00  0.00    -0.126 A  
HETATM   35  C   UNL     1      -9.068   6.344  67.202  1.00  0.00    -0.121 A  
ENDBRANCH  24  27
ENDBRANCH  20  21
ENDBRANCH  19  20
ENDBRANCH  13  14
ENDBRANCH  10  13
TORSDOF 5
ENDMDL
MODEL       49
REMARK 921   NORMALIZED FREE ENERGY PREDICTED BY IDOCK:   -6.24 KCAL/MOL
REMARK 922        TOTAL FREE ENERGY PREDICTED BY IDOCK:   -9.79 KCAL/MOL
REMARK 923 INTER-LIGAND FREE ENERGY PREDICTED BY IDOCK:   -8.79 KCAL/MOL
REMARK 924 INTRA-LIGAND FREE ENERGY PREDICTED BY IDOCK:   -1.00 KCAL/MOL
REMARK 927      BINDING AFFINITY PREDICTED BY RF-SCORE:    0.00 PKD
ROOT
HETATM    1  C   UNL     1      -9.367   3.787  67.409  1.00  0.00    -0.233 C  
HETATM    2  C   UNL     1      -7.856   3.932  67.155  1.00  0.00    -0.088 C  
HETATM    3  C   UNL     1      -7.557   3.372  65.750  1.00  0.00    -0.077 C  
HETATM    4  C   UNL     1      -8.188   4.423  64.814  1.00  0.00    -0.105 C  
HETATM    5  C   UNL     1      -8.758   5.465  65.798  1.00  0.00    -0.149 C  
HETATM    6  C   UNL     1      -7.690   5.430  66.896  1.00  0.00    -0.100 C  
HETATM    7  C   UNL     1      -9.984   4.834  66.478  1.00  0.00    -0.262 C  
HETATM    8  C   UNL     1     -10.708   5.776  67.397  1.00  0.00    -0.248 C  
HETATM    9  O   UNL     1     -11.256   6.807  67.038  1.00  0.00    -0.393 OA 
HETATM   10  N   UNL     1     -10.615   5.304  68.675  1.00  0.00    -0.096 N  
HETATM   11  O   UNL     1      -9.385   3.710  69.823  1.00  0.00    -0.142 OA 
HETATM   12  C   UNL     1      -9.778   4.227  68.787  1.00  0.00    -0.114 C  
ENDROOT
BRANCH  10  13
HETATM   13  C   UNL     1     -11.180   5.992  69.826  1.00  0.00    -0.369 C  
BRANCH  13  14
HETATM   14  C   UNL     1     -10.096   6.691  70.676  1.00  0.00    -0.205 C  
HETATM   15  C   UNL     1     -10.072   6.087  72.095  1.00  0.00    -0.208 C  
HETATM   16  C   UNL     1      -8.965   6.693  72.948  1.00  0.00    -0.138 C  
HETATM   17  C   UNL     1      -9.065   8.212  72.994  1.00  0.00    -0.344 C  
HETATM   18  C   UNL     1      -9.095   8.819  71.593  1.00  0.00    -0.314 C  
HETATM   19  C   UNL     1     -10.253   8.242  70.754  1.00  0.00    -0.219 C  
BRANCH  19  20
HETATM   20  C   UNL     1     -10.302   8.875  69.343  1.00  0.00    -0.213 C  
BRANCH  20  21
HETATM   21  N   UNL     1      -9.734  10.228  69.190  1.00  0.00    -0.207 NA 
HETATM   22  C   UNL     1      -9.239  10.412  67.796  1.00  0.00    -0.142 C  
HETATM   23  C   UNL     1     -10.352  10.368  66.728  1.00  0.00    -0.235 C  
HETATM   24  N   UNL     1     -11.412  11.352  67.001  1.00  0.00    -0.487 NA 
HETATM   25  C   UNL     1     -11.868  11.443  68.402  1.00  0.00    -0.274 C  
HETATM   26  C   UNL     1     -10.713  11.316  69.431  1.00  0.00    -0.141 C  
BRANCH  24  27
HETATM   27  C   UNL     1     -11.490  12.448  66.183  1.00  0.00    -0.379 A  
HETATM   28  N   UNL     1     -12.458  12.609  65.284  1.00  0.00    -0.639 NA 
HETATM   29  S   UNL     1     -12.327  14.094  64.587  1.00  0.00    -0.372 SA 
HETATM   30  C   UNL     1     -10.965  14.615  65.486  1.00  0.00    -0.340 A  
HETATM   31  C   UNL     1     -10.303  15.854  65.458  1.00  0.00    -0.425 A  
HETATM   32  C   UNL     1      -9.210  16.043  66.306  1.00  0.00    -0.368 A  
HETATM   33  C   UNL     1      -8.791  15.029  67.157  1.00  0.00    -0.233 A  
HETATM   34  C   UNL     1      -9.466  13.803  67.185  1.00  0.00    -0.244 A  
HETATM   35  C   UNL     1     -10.576  13.573  66.331  1.00  0.00    -0.283 A  
ENDBRANCH  24  27
ENDBRANCH  20  21
ENDBRANCH  19  20
ENDBRANCH  13  14
ENDBRANCH  10  13
TORSDOF 5
ENDMDL
MODEL       50
REMARK 921   NORMALIZED FREE ENERGY PREDICTED BY IDOCK:   -6.24 KCAL/MOL
REMARK 922        TOTAL FREE ENERGY PREDICTED BY IDOCK:   -9.78 KCAL/MOL
REMARK 923 INTER-LIGAND FREE ENERGY PREDICTED BY IDOCK:   -8.99 KCAL/MOL
REMARK 924 INTRA-LIGAND FREE ENERGY PREDICTED BY IDOCK:   -0.79 KCAL/MOL
REMARK 927      BINDING AFFINITY PREDICTED BY RF-SCORE:    0.00 PKD
ROOT
HETATM    1  C   UNL     1     -10.846  10.984  64.661  1.00  0.00    -0.248 C  
HETATM    2  C   UNL     1     -11.376  12.186  63.860  1.00  0.00    -0.501 C  
HETATM    3  C   UNL     1     -12.723  12.611  64.477  1.00  0.00    -0.439 C  
HETATM    4  C   UNL     1     -12.308  13.228  65.828  1.00  0.00    -0.505 C  
HETATM    5  C   UNL     1     -10.771  13.095  65.812  1.00  0.00    -0.292 C  
HETATM    6  C   UNL     1     -10.482  13.337  64.327  1.00  0.00    -0.372 C  
HETATM    7  C   UNL     1     -10.436  11.606  65.999  1.00  0.00    -0.294 C  
HETATM    8  C   UNL     1      -8.961  11.335  66.104  1.00  0.00    -0.202 C  
HETATM    9  O   UNL     1      -8.243  11.759  66.996  1.00  0.00    -0.161 OA 
HETATM   10  N   UNL     1      -8.574  10.581  65.034  1.00  0.00    -0.179 N  
HETATM   11  O   UNL     1      -9.454   9.938  62.988  1.00  0.00    -0.276 OA 
HETATM   12  C   UNL     1      -9.567  10.421  64.105  1.00  0.00    -0.322 C  
ENDROOT
BRANCH  10  13
HETATM   13  C   UNL     1      -7.200  10.162  64.804  1.00  0.00    -0.130 C  
BRANCH  13  14
HETATM   14  C   UNL     1      -7.049   8.625  64.815  1.00  0.00    -0.077 C  
HETATM   15  C   UNL     1      -7.217   8.071  63.387  1.00  0.00    -0.091 C  
HETATM   16  C   UNL     1      -7.001   6.564  63.336  1.00  0.00    -0.051 C  
HETATM   17  C   UNL     1      -7.906   5.838  64.321  1.00  0.00    -0.114 C  
HETATM   18  C   UNL     1      -7.752   6.383  65.739  1.00  0.00    -0.092 C  
HETATM   19  C   UNL     1      -8.028   7.899  65.792  1.00  0.00    -0.109 C  
BRANCH  19  20
HETATM   20  C   UNL     1      -7.898   8.450  67.232  1.00  0.00    -0.098 C  
BRANCH  20  21
HETATM   21  N   UNL     1      -8.626   7.734  68.298  1.00  0.00    -0.124 NA 
HETATM   22  C   UNL     1      -8.500   8.479  69.582  1.00  0.00    -0.130 C  
HETATM   23  C   UNL     1      -9.168   9.870  69.565  1.00  0.00    -0.223 C  
HETATM   24  N   UNL     1     -10.589   9.790  69.185  1.00  0.00    -0.211 NA 
HETATM   25  C   UNL     1     -10.907   8.908  68.046  1.00  0.00    -0.016 C  
HETATM   26  C   UNL     1     -10.079   7.596  68.037  1.00  0.00    -0.187 C  
BRANCH  24  27
HETATM   27  C   UNL     1     -11.522  10.010  70.164  1.00  0.00    -0.277 A  
HETATM   28  N   UNL     1     -11.975   9.042  70.958  1.00  0.00    -0.286 NA 
HETATM   29  S   UNL     1     -12.966   9.683  72.104  1.00  0.00    -0.378 SA 
HETATM   30  C   UNL     1     -12.814  11.316  71.607  1.00  0.00    -0.405 A  
HETATM   31  C   UNL     1     -13.366  12.474  72.179  1.00  0.00    -0.540 A  
HETATM   32  C   UNL     1     -13.082  13.707  71.589  1.00  0.00    -0.455 A  
HETATM   33  C   UNL     1     -12.273  13.783  70.462  1.00  0.00    -0.440 A  
HETATM   34  C   UNL     1     -11.719  12.623  69.908  1.00  0.00    -0.320 A  
HETATM   35  C   UNL     1     -11.992  11.352  70.478  1.00  0.00    -0.451 A  
ENDBRANCH  24  27
ENDBRANCH  20  21
ENDBRANCH  19  20
ENDBRANCH  13  14
ENDBRANCH  10  13
TORSDOF 5
ENDMDL
MODEL       51
REMARK 921   NORMALIZED FREE ENERGY PREDICTED BY IDOCK:   -6.23 KCAL/MOL
REMARK 922        TOTAL FREE ENERGY PREDICTED BY IDOCK:   -9.78 KCAL/MOL
REMARK 923 INTER-LIGAND FREE ENERGY PREDICTED BY IDOCK:   -9.51 KCAL/MOL
REMARK 924 INTRA-LIGAND FREE ENERGY PREDICTED BY IDOCK:   -0.26 KCAL/MOL
REMARK 927      BINDING AFFINITY PREDICTED BY RF-SCORE:    0.00 PKD
ROOT
HETATM    1  C   UNL     1      -8.710  17.810  67.461  1.00  0.00    -0.239 C  
HETATM    2  C   UNL     1      -8.581  19.314  67.760  1.00  0.00    -0.341 C  
HETATM    3  C   UNL     1      -8.699  20.074  66.425  1.00  0.00    -0.364 C  
HETATM    4  C   UNL     1     -10.186  19.901  66.055  1.00  0.00    -0.591 C  
HETATM    5  C   UNL     1     -10.742  19.076  67.233  1.00  0.00    -0.556 C  
HETATM    6  C   UNL     1      -9.930  19.659  68.394  1.00  0.00    -0.543 C  
HETATM    7  C   UNL     1     -10.189  17.648  67.096  1.00  0.00    -0.342 C  
HETATM    8  C   UNL     1     -10.729  16.697  68.127  1.00  0.00    -0.349 C  
HETATM    9  O   UNL     1     -11.906  16.388  68.231  1.00  0.00    -0.072 OA 
HETATM   10  N   UNL     1      -9.702  16.282  68.925  1.00  0.00    -0.237 N  
HETATM   11  O   UNL     1      -7.507  16.897  69.346  1.00  0.00    -0.180 OA 
HETATM   12  C   UNL     1      -8.532  16.948  68.681  1.00  0.00    -0.260 C  
ENDROOT
BRANCH  10  13
HETATM   13  C   UNL     1      -9.878  15.377  70.051  1.00  0.00    -0.095 C  
BRANCH  13  14
HETATM   14  C   UNL     1     -11.367  15.185  70.417  1.00  0.00    -0.323 C  
HETATM   15  C   UNL     1     -11.647  15.784  71.810  1.00  0.00    -0.541 C  
HETATM   16  C   UNL     1     -13.120  15.686  72.181  1.00  0.00    -0.540 C  
HETATM   17  C   UNL     1     -13.626  14.253  72.083  1.00  0.00    -0.546 C  
HETATM   18  C   UNL     1     -13.349  13.649  70.708  1.00  0.00     0.067 C  
HETATM   19  C   UNL     1     -11.846  13.700  70.363  1.00  0.00    -0.308 C  
BRANCH  19  20
HETATM   20  C   UNL     1     -11.559  13.065  68.982  1.00  0.00    -0.318 C  
BRANCH  20  21
HETATM   21  N   UNL     1     -11.826  11.621  68.833  1.00  0.00    -0.325 NA 
HETATM   22  C   UNL     1     -11.735  11.237  67.397  1.00  0.00    -0.027 C  
HETATM   23  C   UNL     1     -10.323  11.403  66.795  1.00  0.00    -0.234 C  
HETATM   24  N   UNL     1      -9.310  10.660  67.564  1.00  0.00    -0.146 NA 
HETATM   25  C   UNL     1      -9.401  10.769  69.032  1.00  0.00    -0.156 C  
HETATM   26  C   UNL     1     -10.861  10.760  69.557  1.00  0.00    -0.242 C  
BRANCH  24  27
HETATM   27  C   UNL     1      -8.776   9.536  66.991  1.00  0.00    -0.128 A  
HETATM   28  N   UNL     1      -7.587   9.528  66.392  1.00  0.00    -0.097 NA 
HETATM   29  S   UNL     1      -7.197   7.991  65.953  1.00  0.00    -0.066 SA 
HETATM   30  C   UNL     1      -8.606   7.243  66.578  1.00  0.00    -0.133 A  
HETATM   31  C   UNL     1      -8.950   5.881  66.608  1.00  0.00    -0.125 A  
HETATM   32  C   UNL     1     -10.165   5.515  67.190  1.00  0.00    -0.260 A  
HETATM   33  C   UNL     1     -11.012   6.478  67.726  1.00  0.00    -0.407 A  
HETATM   34  C   UNL     1     -10.652   7.830  67.700  1.00  0.00    -0.283 A  
HETATM   35  C   UNL     1      -9.428   8.240  67.110  1.00  0.00    -0.206 A  
ENDBRANCH  24  27
ENDBRANCH  20  21
ENDBRANCH  19  20
ENDBRANCH  13  14
ENDBRANCH  10  13
TORSDOF 5
ENDMDL
MODEL       52
REMARK 921   NORMALIZED FREE ENERGY PREDICTED BY IDOCK:   -6.20 KCAL/MOL
REMARK 922        TOTAL FREE ENERGY PREDICTED BY IDOCK:   -9.74 KCAL/MOL
REMARK 923 INTER-LIGAND FREE ENERGY PREDICTED BY IDOCK:   -9.34 KCAL/MOL
REMARK 924 INTRA-LIGAND FREE ENERGY PREDICTED BY IDOCK:   -0.40 KCAL/MOL
REMARK 927      BINDING AFFINITY PREDICTED BY RF-SCORE:    0.00 PKD
ROOT
HETATM    1  C   UNL     1     -10.831  16.792  67.463  1.00  0.00    -0.216 C  
HETATM    2  C   UNL     1     -10.259  17.284  66.121  1.00  0.00    -0.338 C  
HETATM    3  C   UNL     1     -10.043  18.806  66.228  1.00  0.00    -0.447 C  
HETATM    4  C   UNL     1      -8.850  18.922  67.198  1.00  0.00    -0.298 C  
HETATM    5  C   UNL     1      -8.518  17.450  67.515  1.00  0.00    -0.218 C  
HETATM    6  C   UNL     1      -8.810  16.796  66.161  1.00  0.00    -0.298 C  
HETATM    7  C   UNL     1      -9.639  16.909  68.418  1.00  0.00    -0.255 C  
HETATM    8  C   UNL     1      -9.398  15.505  68.894  1.00  0.00    -0.222 C  
HETATM    9  O   UNL     1      -8.464  15.167  69.604  1.00  0.00    -0.204 OA 
HETATM   10  N   UNL     1     -10.363  14.691  68.373  1.00  0.00    -0.231 N  
HETATM   11  O   UNL     1     -11.991  14.806  66.727  1.00  0.00    -0.327 OA 
HETATM   12  C   UNL     1     -11.162  15.325  67.461  1.00  0.00    -0.317 C  
ENDROOT
BRANCH  10  13
HETATM   13  C   UNL     1     -10.412  13.255  68.606  1.00  0.00    -0.228 C  
BRANCH  13  14
HETATM   14  C   UNL     1     -11.653  12.840  69.428  1.00  0.00    -0.361 C  
HETATM   15  C   UNL     1     -11.883  13.845  70.575  1.00  0.00    -0.317 C  
HETATM   16  C   UNL     1     -13.142  13.519  71.367  1.00  0.00    -0.385 C  
HETATM   17  C   UNL     1     -13.122  12.086  71.881  1.00  0.00    -0.475 C  
HETATM   18  C   UNL     1     -12.889  11.084  70.753  1.00  0.00    -0.354 C  
HETATM   19  C   UNL     1     -11.583  11.386  69.991  1.00  0.00    -0.382 C  
BRANCH  19  20
HETATM   20  C   UNL     1     -11.331  10.356  68.865  1.00  0.00    -0.219 C  
BRANCH  20  21
HETATM   21  N   UNL     1     -10.049   9.625  68.892  1.00  0.00    -0.180 NA 
HETATM   22  C   UNL     1      -9.875   8.963  70.215  1.00  0.00    -0.183 C  
HETATM   23  C   UNL     1     -10.919   7.864  70.505  1.00  0.00    -0.248 C  
HETATM   24  N   UNL     1     -10.944   6.840  69.447  1.00  0.00    -0.273 NA 
HETATM   25  C   UNL     1     -10.904   7.340  68.059  1.00  0.00    -0.095 C  
HETATM   26  C   UNL     1      -9.954   8.553  67.873  1.00  0.00    -0.181 C  
BRANCH  24  27
HETATM   27  C   UNL     1     -10.434   5.604  69.746  1.00  0.00    -0.306 A  
HETATM   28  N   UNL     1      -9.735   4.882  68.872  1.00  0.00    -0.162 NA 
HETATM   29  S   UNL     1      -9.156   3.529  69.607  1.00  0.00    -0.151 SA 
HETATM   30  C   UNL     1      -9.797   3.859  71.162  1.00  0.00    -0.153 A  
HETATM   31  C   UNL     1      -9.656   3.130  72.354  1.00  0.00    -0.195 A  
HETATM   32  C   UNL     1     -10.272   3.617  73.509  1.00  0.00    -0.216 A  
HETATM   33  C   UNL     1     -11.008   4.794  73.475  1.00  0.00    -0.398 A  
HETATM   34  C   UNL     1     -11.132   5.518  72.283  1.00  0.00    -0.297 A  
HETATM   35  C   UNL     1     -10.525   5.049  71.089  1.00  0.00    -0.205 A  
ENDBRANCH  24  27
ENDBRANCH  20  21
ENDBRANCH  19  20
ENDBRANCH  13  14
ENDBRANCH  10  13
TORSDOF 5
ENDMDL
MODEL       53
REMARK 921   NORMALIZED FREE ENERGY PREDICTED BY IDOCK:   -6.18 KCAL/MOL
REMARK 922        TOTAL FREE ENERGY PREDICTED BY IDOCK:   -9.71 KCAL/MOL
REMARK 923 INTER-LIGAND FREE ENERGY PREDICTED BY IDOCK:   -8.70 KCAL/MOL
REMARK 924 INTRA-LIGAND FREE ENERGY PREDICTED BY IDOCK:   -1.01 KCAL/MOL
REMARK 927      BINDING AFFINITY PREDICTED BY RF-SCORE:    0.00 PKD
ROOT
HETATM    1  C   UNL     1     -10.259   6.101  71.392  1.00  0.00    -0.248 C  
HETATM    2  C   UNL     1     -11.520   6.053  72.272  1.00  0.00    -0.364 C  
HETATM    3  C   UNL     1     -11.160   5.316  73.576  1.00  0.00    -0.316 C  
HETATM    4  C   UNL     1     -10.245   6.322  74.304  1.00  0.00    -0.351 C  
HETATM    5  C   UNL     1     -10.206   7.520  73.333  1.00  0.00    -0.399 C  
HETATM    6  C   UNL     1     -11.638   7.489  72.788  1.00  0.00    -0.299 C  
HETATM    7  C   UNL     1      -9.358   7.102  72.120  1.00  0.00    -0.148 C  
HETATM    8  C   UNL     1      -9.147   8.211  71.128  1.00  0.00    -0.154 C  
HETATM    9  O   UNL     1      -8.554   9.250  71.370  1.00  0.00    -0.326 OA 
HETATM   10  N   UNL     1      -9.754   7.872  69.953  1.00  0.00    -0.175 N  
HETATM   11  O   UNL     1     -11.272   6.287  69.207  1.00  0.00    -0.372 OA 
HETATM   12  C   UNL     1     -10.501   6.729  70.047  1.00  0.00    -0.210 C  
ENDROOT
BRANCH  10  13
HETATM   13  C   UNL     1      -9.773   8.737  68.783  1.00  0.00    -0.165 C  
BRANCH  13  14
HETATM   14  C   UNL     1      -9.032   8.109  67.582  1.00  0.00    -0.135 C  
HETATM   15  C   UNL     1      -7.796   7.332  68.076  1.00  0.00    -0.118 C  
HETATM   16  C   UNL     1      -7.075   6.630  66.932  1.00  0.00    -0.069 C  
HETATM   17  C   UNL     1      -6.709   7.606  65.822  1.00  0.00    -0.046 C  
HETATM   18  C   UNL     1      -7.927   8.384  65.329  1.00  0.00    -0.125 C  
HETATM   19  C   UNL     1      -8.618   9.138  66.483  1.00  0.00    -0.136 C  
BRANCH  19  20
HETATM   20  C   UNL     1      -9.837   9.949  65.982  1.00  0.00    -0.264 C  
BRANCH  20  21
HETATM   21  N   UNL     1      -9.624  11.381  65.695  1.00  0.00    -0.226 NA 
HETATM   22  C   UNL     1     -10.933  12.092  65.678  1.00  0.00    -0.297 C  
HETATM   23  C   UNL     1     -11.654  12.105  67.043  1.00  0.00    -0.337 C  
HETATM   24  N   UNL     1     -10.805  12.672  68.104  1.00  0.00    -0.218 NA 
HETATM   25  C   UNL     1      -9.401  12.221  68.122  1.00  0.00    -0.205 C  
HETATM   26  C   UNL     1      -8.787  12.073  66.704  1.00  0.00    -0.191 C  
BRANCH  24  27
HETATM   27  C   UNL     1     -11.134  13.911  68.588  1.00  0.00    -0.265 A  
HETATM   28  N   UNL     1     -11.662  14.097  69.796  1.00  0.00    -0.293 NA 
HETATM   29  S   UNL     1     -11.791  15.708  70.103  1.00  0.00    -0.368 SA 
HETATM   30  C   UNL     1     -11.110  16.246  68.626  1.00  0.00    -0.356 A  
HETATM   31  C   UNL     1     -10.848  17.557  68.195  1.00  0.00    -0.246 A  
HETATM   32  C   UNL     1     -10.270  17.740  66.937  1.00  0.00    -0.346 A  
HETATM   33  C   UNL     1      -9.963  16.650  66.134  1.00  0.00    -0.356 A  
HETATM   34  C   UNL     1     -10.218  15.347  66.580  1.00  0.00    -0.287 A  
HETATM   35  C   UNL     1     -10.812  15.124  67.850  1.00  0.00    -0.291 A  
ENDBRANCH  24  27
ENDBRANCH  20  21
ENDBRANCH  19  20
ENDBRANCH  13  14
ENDBRANCH  10  13
TORSDOF 5
ENDMDL
MODEL       54
REMARK 921   NORMALIZED FREE ENERGY PREDICTED BY IDOCK:   -6.13 KCAL/MOL
REMARK 922        TOTAL FREE ENERGY PREDICTED BY IDOCK:   -9.65 KCAL/MOL
REMARK 923 INTER-LIGAND FREE ENERGY PREDICTED BY IDOCK:   -9.00 KCAL/MOL
REMARK 924 INTRA-LIGAND FREE ENERGY PREDICTED BY IDOCK:   -0.65 KCAL/MOL
REMARK 927      BINDING AFFINITY PREDICTED BY RF-SCORE:    0.00 PKD
ROOT
HETATM    1  C   UNL     1      -9.256  17.752  67.172  1.00  0.00    -0.253 C  
HETATM    2  C   UNL     1      -7.911  17.775  66.425  1.00  0.00    -0.306 C  
HETATM    3  C   UNL     1      -6.995  18.795  67.131  1.00  0.00    -0.206 C  
HETATM    4  C   UNL     1      -6.661  18.097  68.465  1.00  0.00    -0.218 C  
HETATM    5  C   UNL     1      -7.413  16.756  68.353  1.00  0.00    -0.202 C  
HETATM    6  C   UNL     1      -7.251  16.465  66.858  1.00  0.00    -0.266 C  
HETATM    7  C   UNL     1      -8.914  17.057  68.493  1.00  0.00    -0.263 C  
HETATM    8  C   UNL     1      -9.773  15.824  68.504  1.00  0.00    -0.206 C  
HETATM    9  O   UNL     1      -9.719  14.953  69.357  1.00  0.00    -0.178 OA 
HETATM   10  N   UNL     1     -10.575  15.835  67.399  1.00  0.00    -0.308 N  
HETATM   11  O   UNL     1     -10.714  17.000  65.399  1.00  0.00    -0.542 OA 
HETATM   12  C   UNL     1     -10.273  16.849  66.530  1.00  0.00    -0.318 C  
ENDROOT
BRANCH  10  13
HETATM   13  C   UNL     1     -11.512  14.770  67.078  1.00  0.00    -0.353 C  
BRANCH  13  14
HETATM   14  C   UNL     1     -11.207  14.118  65.711  1.00  0.00    -0.312 C  
HETATM   15  C   UNL     1     -12.449  14.199  64.802  1.00  0.00    -0.395 C  
HETATM   16  C   UNL     1     -12.171  13.636  63.415  1.00  0.00    -0.236 C  
HETATM   17  C   UNL     1     -11.632  12.214  63.488  1.00  0.00    -0.562 C  
HETATM   18  C   UNL     1     -10.404  12.122  64.391  1.00  0.00    -0.348 C  
HETATM   19  C   UNL     1     -10.709  12.641  65.811  1.00  0.00    -0.295 C  
BRANCH  19  20
HETATM   20  C   UNL     1      -9.474  12.524  66.736  1.00  0.00    -0.231 C  
BRANCH  20  21
HETATM   21  N   UNL     1      -9.702  12.029  68.107  1.00  0.00    -0.194 NA 
HETATM   22  C   UNL     1     -10.841  11.069  68.114  1.00  0.00    -0.226 C  
HETATM   23  C   UNL     1     -10.574   9.779  67.309  1.00  0.00    -0.255 C  
HETATM   24  N   UNL     1      -9.354   9.092  67.765  1.00  0.00    -0.139 NA 
HETATM   25  C   UNL     1      -8.181   9.950  68.013  1.00  0.00    -0.113 C  
HETATM   26  C   UNL     1      -8.542  11.304  68.679  1.00  0.00    -0.139 C  
BRANCH  24  27
HETATM   27  C   UNL     1      -9.506   7.920  68.458  1.00  0.00    -0.148 A  
HETATM   28  N   UNL     1      -9.207   6.731  67.939  1.00  0.00    -0.114 NA 
HETATM   29  S   UNL     1      -9.369   5.566  69.089  1.00  0.00    -0.130 SA 
HETATM   30  C   UNL     1      -9.826   6.612  70.367  1.00  0.00    -0.175 A  
HETATM   31  C   UNL     1     -10.088   6.308  71.713  1.00  0.00    -0.211 A  
HETATM   32  C   UNL     1     -10.436   7.350  72.575  1.00  0.00    -0.280 A  
HETATM   33  C   UNL     1     -10.519   8.656  72.109  1.00  0.00    -0.411 A  
HETATM   34  C   UNL     1     -10.244   8.948  70.768  1.00  0.00    -0.282 A  
HETATM   35  C   UNL     1      -9.895   7.912  69.862  1.00  0.00    -0.182 A  
ENDBRANCH  24  27
ENDBRANCH  20  21
ENDBRANCH  19  20
ENDBRANCH  13  14
ENDBRANCH  10  13
TORSDOF 5
ENDMDL
MODEL       55
REMARK 921   NORMALIZED FREE ENERGY PREDICTED BY IDOCK:   -6.13 KCAL/MOL
REMARK 922        TOTAL FREE ENERGY PREDICTED BY IDOCK:   -9.64 KCAL/MOL
REMARK 923 INTER-LIGAND FREE ENERGY PREDICTED BY IDOCK:   -8.45 KCAL/MOL
REMARK 924 INTRA-LIGAND FREE ENERGY PREDICTED BY IDOCK:   -1.20 KCAL/MOL
REMARK 927      BINDING AFFINITY PREDICTED BY RF-SCORE:    0.00 PKD
ROOT
HETATM    1  C   UNL     1      -9.327  14.871  67.356  1.00  0.00    -0.202 C  
HETATM    2  C   UNL     1      -9.440  15.260  68.840  1.00  0.00    -0.218 C  
HETATM    3  C   UNL     1      -9.381  16.797  68.933  1.00  0.00    -0.233 C  
HETATM    4  C   UNL     1     -10.734  17.235  68.336  1.00  0.00    -0.332 C  
HETATM    5  C   UNL     1     -11.410  15.892  67.990  1.00  0.00    -0.284 C  
HETATM    6  C   UNL     1     -10.919  15.021  69.150  1.00  0.00    -0.265 C  
HETATM    7  C   UNL     1     -10.674  15.307  66.773  1.00  0.00    -0.313 C  
HETATM    8  C   UNL     1     -11.290  14.037  66.256  1.00  0.00    -0.333 C  
HETATM    9  O   UNL     1     -12.419  13.955  65.798  1.00  0.00    -0.457 OA 
HETATM   10  N   UNL     1     -10.400  13.016  66.421  1.00  0.00    -0.276 N  
HETATM   11  O   UNL     1      -8.421  12.642  67.569  1.00  0.00    -0.155 OA 
HETATM   12  C   UNL     1      -9.292  13.383  67.137  1.00  0.00    -0.240 C  
ENDROOT
BRANCH  10  13
HETATM   13  C   UNL     1     -10.686  11.637  66.057  1.00  0.00    -0.280 C  
BRANCH  13  14
HETATM   14  C   UNL     1      -9.757  11.127  64.932  1.00  0.00    -0.297 C  
HETATM   15  C   UNL     1     -10.415  11.369  63.559  1.00  0.00    -0.477 C  
HETATM   16  C   UNL     1      -9.503  10.951  62.413  1.00  0.00    -0.205 C  
HETATM   17  C   UNL     1      -9.047   9.506  62.562  1.00  0.00    -0.236 C  
HETATM   18  C   UNL     1      -8.398   9.255  63.922  1.00  0.00    -0.179 C  
HETATM   19  C   UNL     1      -9.350   9.627  65.077  1.00  0.00    -0.319 C  
BRANCH  19  20
HETATM   20  C   UNL     1      -8.705   9.349  66.456  1.00  0.00    -0.134 C  
BRANCH  20  21
HETATM   21  N   UNL     1      -8.841   7.985  67.002  1.00  0.00    -0.130 NA 
HETATM   22  C   UNL     1      -7.944   7.823  68.181  1.00  0.00    -0.122 C  
HETATM   23  C   UNL     1      -8.316   8.726  69.377  1.00  0.00    -0.117 C  
HETATM   24  N   UNL     1      -9.714   8.529  69.797  1.00  0.00    -0.178 NA 
HETATM   25  C   UNL     1     -10.712   8.452  68.713  1.00  0.00    -0.051 C  
HETATM   26  C   UNL     1     -10.210   7.666  67.473  1.00  0.00    -0.227 C  
BRANCH  24  27
HETATM   27  C   UNL     1      -9.936   7.879  70.982  1.00  0.00    -0.181 A  
HETATM   28  N   UNL     1     -10.295   8.514  72.096  1.00  0.00    -0.322 NA 
HETATM   29  S   UNL     1     -10.619   7.418  73.279  1.00  0.00    -0.378 SA 
HETATM   30  C   UNL     1     -10.319   6.017  72.339  1.00  0.00    -0.194 A  
HETATM   31  C   UNL     1     -10.449   4.664  72.694  1.00  0.00    -0.258 A  
HETATM   32  C   UNL     1     -10.152   3.693  71.736  1.00  0.00    -0.160 A  
HETATM   33  C   UNL     1      -9.738   4.060  70.462  1.00  0.00    -0.258 A  
HETATM   34  C   UNL     1      -9.623   5.412  70.116  1.00  0.00    -0.235 A  
HETATM   35  C   UNL     1      -9.910   6.426  71.068  1.00  0.00    -0.200 A  
ENDBRANCH  24  27
ENDBRANCH  20  21
ENDBRANCH  19  20
ENDBRANCH  13  14
ENDBRANCH  10  13
TORSDOF 5
ENDMDL
MODEL       56
REMARK 921   NORMALIZED FREE ENERGY PREDICTED BY IDOCK:   -6.11 KCAL/MOL
REMARK 922        TOTAL FREE ENERGY PREDICTED BY IDOCK:   -9.62 KCAL/MOL
REMARK 923 INTER-LIGAND FREE ENERGY PREDICTED BY IDOCK:   -8.67 KCAL/MOL
REMARK 924 INTRA-LIGAND FREE ENERGY PREDICTED BY IDOCK:   -0.95 KCAL/MOL
REMARK 927      BINDING AFFINITY PREDICTED BY RF-SCORE:    0.00 PKD
ROOT
HETATM    1  C   UNL     1      -7.827   8.149  69.583  1.00  0.00    -0.103 C  
HETATM    2  C   UNL     1      -6.768   7.939  68.486  1.00  0.00    -0.062 C  
HETATM    3  C   UNL     1      -5.859   6.773  68.921  1.00  0.00    -0.018 C  
HETATM    4  C   UNL     1      -6.780   5.543  68.781  1.00  0.00    -0.053 C  
HETATM    5  C   UNL     1      -8.099   6.155  68.266  1.00  0.00    -0.111 C  
HETATM    6  C   UNL     1      -7.561   7.268  67.363  1.00  0.00    -0.105 C  
HETATM    7  C   UNL     1      -8.735   6.925  69.435  1.00  0.00    -0.133 C  
HETATM    8  C   UNL     1     -10.086   7.496  69.109  1.00  0.00    -0.192 C  
HETATM    9  O   UNL     1     -11.067   6.827  68.823  1.00  0.00    -0.227 OA 
HETATM   10  N   UNL     1     -10.012   8.858  69.152  1.00  0.00    -0.184 N  
HETATM   11  O   UNL     1      -8.355  10.478  69.225  1.00  0.00    -0.155 OA 
HETATM   12  C   UNL     1      -8.733   9.319  69.314  1.00  0.00    -0.141 C  
ENDROOT
BRANCH  10  13
HETATM   13  C   UNL     1     -11.136   9.732  68.854  1.00  0.00    -0.099 C  
BRANCH  13  14
HETATM   14  C   UNL     1     -11.567  10.566  70.082  1.00  0.00    -0.408 C  
HETATM   15  C   UNL     1     -12.575   9.767  70.931  1.00  0.00    -0.350 C  
HETATM   16  C   UNL     1     -12.971  10.519  72.194  1.00  0.00    -0.366 C  
HETATM   17  C   UNL     1     -13.499  11.910  71.872  1.00  0.00    -0.289 C  
HETATM   18  C   UNL     1     -12.510  12.708  71.026  1.00  0.00    -0.354 C  
HETATM   19  C   UNL     1     -12.157  11.966  69.722  1.00  0.00    -0.321 C  
BRANCH  19  20
HETATM   20  C   UNL     1     -11.175  12.784  68.850  1.00  0.00    -0.283 C  
BRANCH  20  21
HETATM   21  N   UNL     1     -11.455  14.224  68.687  1.00  0.00    -0.278 NA 
HETATM   22  C   UNL     1     -10.424  15.022  69.408  1.00  0.00    -0.247 C  
HETATM   23  C   UNL     1      -9.000  14.868  68.832  1.00  0.00    -0.184 C  
HETATM   24  N   UNL     1      -8.952  15.192  67.397  1.00  0.00    -0.176 NA 
HETATM   25  C   UNL     1     -10.044  14.643  66.571  1.00  0.00    -0.279 C  
HETATM   26  C   UNL     1     -11.425  14.681  67.277  1.00  0.00    -0.372 C  
BRANCH  24  27
HETATM   27  C   UNL     1      -8.333  16.358  67.029  1.00  0.00    -0.199 A  
HETATM   28  N   UNL     1      -7.117  16.389  66.488  1.00  0.00    -0.172 NA 
HETATM   29  S   UNL     1      -6.749  17.927  66.037  1.00  0.00    -0.291 SA 
HETATM   30  C   UNL     1      -8.232  18.636  66.522  1.00  0.00    -0.286 A  
HETATM   31  C   UNL     1      -8.666  19.966  66.391  1.00  0.00    -0.397 A  
HETATM   32  C   UNL     1      -9.939  20.299  66.859  1.00  0.00    -0.592 A  
HETATM   33  C   UNL     1     -10.754  19.336  67.440  1.00  0.00    -0.594 A  
HETATM   34  C   UNL     1     -10.315  18.011  67.554  1.00  0.00    -0.394 A  
HETATM   35  C   UNL     1      -9.024  17.638  67.095  1.00  0.00    -0.249 A  
ENDBRANCH  24  27
ENDBRANCH  20  21
ENDBRANCH  19  20
ENDBRANCH  13  14
ENDBRANCH  10  13
TORSDOF 5
ENDMDL
MODEL       57
REMARK 921   NORMALIZED FREE ENERGY PREDICTED BY IDOCK:   -6.10 KCAL/MOL
REMARK 922        TOTAL FREE ENERGY PREDICTED BY IDOCK:   -9.61 KCAL/MOL
REMARK 923 INTER-LIGAND FREE ENERGY PREDICTED BY IDOCK:   -8.49 KCAL/MOL
REMARK 924 INTRA-LIGAND FREE ENERGY PREDICTED BY IDOCK:   -1.11 KCAL/MOL
REMARK 927      BINDING AFFINITY PREDICTED BY RF-SCORE:    0.00 PKD
ROOT
HETATM    1  C   UNL     1     -11.034   8.516  70.733  1.00  0.00    -0.282 C  
HETATM    2  C   UNL     1     -11.507   8.713  72.184  1.00  0.00    -0.443 C  
HETATM    3  C   UNL     1     -13.015   9.029  72.152  1.00  0.00    -0.490 C  
HETATM    4  C   UNL     1     -13.644   7.681  71.743  1.00  0.00    -0.392 C  
HETATM    5  C   UNL     1     -12.419   6.755  71.607  1.00  0.00    -0.398 C  
HETATM    6  C   UNL     1     -11.534   7.288  72.738  1.00  0.00    -0.273 C  
HETATM    7  C   UNL     1     -11.662   7.177  70.337  1.00  0.00    -0.273 C  
HETATM    8  C   UNL     1     -10.491   6.291  70.018  1.00  0.00    -0.218 C  
HETATM    9  O   UNL     1     -10.577   5.103  69.749  1.00  0.00    -0.272 OA 
HETATM   10  N   UNL     1      -9.343   7.024  70.117  1.00  0.00    -0.162 N  
HETATM   11  O   UNL     1      -8.698   9.082  70.967  1.00  0.00    -0.198 OA 
HETATM   12  C   UNL     1      -9.553   8.280  70.622  1.00  0.00    -0.171 C  
ENDROOT
BRANCH  10  13
HETATM   13  C   UNL     1      -8.016   6.468  69.904  1.00  0.00    -0.116 C  
BRANCH  13  14
HETATM   14  C   UNL     1      -7.788   6.051  68.434  1.00  0.00    -0.106 C  
HETATM   15  C   UNL     1      -7.184   4.633  68.379  1.00  0.00    -0.064 C  
HETATM   16  C   UNL     1      -7.012   4.148  66.946  1.00  0.00    -0.059 C  
HETATM   17  C   UNL     1      -6.195   5.131  66.119  1.00  0.00    -0.031 C  
HETATM   18  C   UNL     1      -6.782   6.540  66.172  1.00  0.00    -0.049 C  
HETATM   19  C   UNL     1      -6.900   7.046  67.623  1.00  0.00    -0.074 C  
BRANCH  19  20
HETATM   20  C   UNL     1      -7.469   8.484  67.679  1.00  0.00    -0.094 C  
BRANCH  20  21
HETATM   21  N   UNL     1      -8.224   8.957  66.503  1.00  0.00    -0.113 NA 
HETATM   22  C   UNL     1      -9.672   9.055  66.840  1.00  0.00    -0.200 C  
HETATM   23  C   UNL     1      -9.992  10.112  67.917  1.00  0.00    -0.162 C  
HETATM   24  N   UNL     1      -9.487  11.444  67.544  1.00  0.00    -0.166 NA 
HETATM   25  C   UNL     1      -8.123  11.487  66.985  1.00  0.00    -0.161 C  
HETATM   26  C   UNL     1      -7.814  10.301  66.032  1.00  0.00    -0.133 C  
BRANCH  24  27
HETATM   27  C   UNL     1     -10.405  12.396  67.186  1.00  0.00    -0.219 A  
HETATM   28  N   UNL     1     -10.778  13.381  68.001  1.00  0.00    -0.242 NA 
HETATM   29  S   UNL     1     -11.775  14.416  67.200  1.00  0.00    -0.403 SA 
HETATM   30  C   UNL     1     -11.735  13.602  65.692  1.00  0.00    -0.342 A  
HETATM   31  C   UNL     1     -12.340  13.957  64.475  1.00  0.00    -0.408 A  
HETATM   32  C   UNL     1     -12.147  13.127  63.370  1.00  0.00    -0.558 A  
HETATM   33  C   UNL     1     -11.374  11.977  63.474  1.00  0.00    -0.528 A  
HETATM   34  C   UNL     1     -10.766  11.641  64.689  1.00  0.00    -0.371 A  
HETATM   35  C   UNL     1     -10.947  12.458  65.836  1.00  0.00    -0.323 A  
ENDBRANCH  24  27
ENDBRANCH  20  21
ENDBRANCH  19  20
ENDBRANCH  13  14
ENDBRANCH  10  13
TORSDOF 5
ENDMDL
MODEL       58
REMARK 921   NORMALIZED FREE ENERGY PREDICTED BY IDOCK:   -6.09 KCAL/MOL
REMARK 922        TOTAL FREE ENERGY PREDICTED BY IDOCK:   -9.59 KCAL/MOL
REMARK 923 INTER-LIGAND FREE ENERGY PREDICTED BY IDOCK:   -9.11 KCAL/MOL
REMARK 924 INTRA-LIGAND FREE ENERGY PREDICTED BY IDOCK:   -0.49 KCAL/MOL
REMARK 927      BINDING AFFINITY PREDICTED BY RF-SCORE:    0.00 PKD
ROOT
HETATM    1  C   UNL     1     -12.096  13.421  71.610  1.00  0.00     0.381 C  
HETATM    2  C   UNL     1     -13.377  13.841  72.352  1.00  0.00    -0.635 C  
HETATM    3  C   UNL     1     -13.002  14.953  73.351  1.00  0.00    -0.597 C  
HETATM    4  C   UNL     1     -12.698  16.156  72.435  1.00  0.00    -0.407 C  
HETATM    5  C   UNL     1     -12.953  15.590  71.024  1.00  0.00    -0.550 C  
HETATM    6  C   UNL     1     -14.135  14.656  71.303  1.00  0.00    -0.378 C  
HETATM    7  C   UNL     1     -11.804  14.620  70.703  1.00  0.00    -0.367 C  
HETATM    8  C   UNL     1     -11.865  14.062  69.309  1.00  0.00    -0.344 C  
HETATM    9  O   UNL     1     -11.777  14.733  68.293  1.00  0.00    -0.308 OA 
HETATM   10  N   UNL     1     -12.067  12.713  69.382  1.00  0.00    -0.230 N  
HETATM   11  O   UNL     1     -12.687  11.162  70.989  1.00  0.00    -0.368 OA 
HETATM   12  C   UNL     1     -12.315  12.278  70.656  1.00  0.00    -0.286 C  
ENDROOT
BRANCH  10  13
HETATM   13  C   UNL     1     -12.209  11.860  68.212  1.00  0.00     0.245 C  
BRANCH  13  14
HETATM   14  C   UNL     1     -11.238  12.260  67.079  1.00  0.00    -0.367 C  
HETATM   15  C   UNL     1     -12.035  12.735  65.848  1.00  0.00    -0.506 C  
HETATM   16  C   UNL     1     -11.118  13.213  64.730  1.00  0.00    -0.351 C  
HETATM   17  C   UNL     1     -10.099  12.146  64.351  1.00  0.00    -0.300 C  
HETATM   18  C   UNL     1      -9.308  11.664  65.565  1.00  0.00    -0.172 C  
HETATM   19  C   UNL     1     -10.241  11.129  66.670  1.00  0.00    -0.274 C  
BRANCH  19  20
HETATM   20  C   UNL     1      -9.441  10.616  67.891  1.00  0.00    -0.159 C  
BRANCH  20  21
HETATM   21  N   UNL     1      -9.261   9.156  68.015  1.00  0.00    -0.134 NA 
HETATM   22  C   UNL     1      -8.249   8.861  69.068  1.00  0.00    -0.116 C  
HETATM   23  C   UNL     1      -8.681   9.290  70.486  1.00  0.00    -0.236 C  
HETATM   24  N   UNL     1      -9.972   8.692  70.869  1.00  0.00    -0.194 NA 
HETATM   25  C   UNL     1     -11.028   8.715  69.840  1.00  0.00    -0.168 C  
HETATM   26  C   UNL     1     -10.495   8.436  68.409  1.00  0.00    -0.164 C  
BRANCH  24  27
HETATM   27  C   UNL     1      -9.958   7.702  71.816  1.00  0.00    -0.172 A  
HETATM   28  N   UNL     1     -10.158   7.941  73.111  1.00  0.00    -0.313 NA 
HETATM   29  S   UNL     1     -10.221   6.517  73.933  1.00  0.00    -0.352 SA 
HETATM   30  C   UNL     1     -10.011   5.494  72.575  1.00  0.00    -0.169 A  
HETATM   31  C   UNL     1     -10.009   4.090  72.512  1.00  0.00    -0.222 A  
HETATM   32  C   UNL     1      -9.828   3.481  71.269  1.00  0.00    -0.205 A  
HETATM   33  C   UNL     1      -9.653   4.247  70.124  1.00  0.00    -0.269 A  
HETATM   34  C   UNL     1      -9.668   5.645  70.198  1.00  0.00    -0.228 A  
HETATM   35  C   UNL     1      -9.843   6.299  71.446  1.00  0.00    -0.195 A  
ENDBRANCH  24  27
ENDBRANCH  20  21
ENDBRANCH  19  20
ENDBRANCH  13  14
ENDBRANCH  10  13
TORSDOF 5
ENDMDL
MODEL       59
REMARK 921   NORMALIZED FREE ENERGY PREDICTED BY IDOCK:   -6.04 KCAL/MOL
REMARK 922        TOTAL FREE ENERGY PREDICTED BY IDOCK:   -9.52 KCAL/MOL
REMARK 923 INTER-LIGAND FREE ENERGY PREDICTED BY IDOCK:  -10.30 KCAL/MOL
REMARK 924 INTRA-LIGAND FREE ENERGY PREDICTED BY IDOCK:    0.77 KCAL/MOL
REMARK 927      BINDING AFFINITY PREDICTED BY RF-SCORE:    0.00 PKD
ROOT
HETATM    1  C   UNL     1      -8.793  17.763  67.419  1.00  0.00    -0.240 C  
HETATM    2  C   UNL     1      -8.779  19.276  67.698  1.00  0.00    -0.335 C  
HETATM    3  C   UNL     1      -8.908  20.008  66.347  1.00  0.00    -0.388 C  
HETATM    4  C   UNL     1     -10.368  19.725  65.936  1.00  0.00    -0.582 C  
HETATM    5  C   UNL     1     -10.900  18.879  67.110  1.00  0.00    -0.425 C  
HETATM    6  C   UNL     1     -10.168  19.534  68.285  1.00  0.00    -0.552 C  
HETATM    7  C   UNL     1     -10.244  17.492  67.014  1.00  0.00    -0.327 C  
HETATM    8  C   UNL     1     -10.747  16.520  68.043  1.00  0.00    -0.343 C  
HETATM    9  O   UNL     1     -11.902  16.130  68.117  1.00  0.00    -0.152 OA 
HETATM   10  N   UNL     1      -9.719  16.189  68.878  1.00  0.00    -0.230 N  
HETATM   11  O   UNL     1      -7.587  16.965  69.354  1.00  0.00    -0.158 OA 
HETATM   12  C   UNL     1      -8.591  16.933  68.657  1.00  0.00    -0.267 C  
ENDROOT
BRANCH  10  13
HETATM   13  C   UNL     1      -9.866  15.291  70.013  1.00  0.00    -0.054 C  
BRANCH  13  14
HETATM   14  C   UNL     1     -11.342  15.126  70.438  1.00  0.00    -0.323 C  
HETATM   15  C   UNL     1     -11.604  15.912  71.738  1.00  0.00    -0.541 C  
HETATM   16  C   UNL     1     -13.067  15.842  72.156  1.00  0.00    -0.517 C  
HETATM   17  C   UNL     1     -13.544  14.401  72.275  1.00  0.00    -0.549 C  
HETATM   18  C   UNL     1     -13.283  13.611  70.995  1.00  0.00    -0.190 C  
HETATM   19  C   UNL     1     -11.790  13.640  70.609  1.00  0.00    -0.232 C  
BRANCH  19  20
HETATM   20  C   UNL     1     -11.519  12.819  69.326  1.00  0.00    -0.289 C  
BRANCH  20  21
HETATM   21  N   UNL     1     -12.359  11.628  69.096  1.00  0.00    -0.243 NA 
HETATM   22  C   UNL     1     -11.672  10.700  68.154  1.00  0.00    -0.009 C  
HETATM   23  C   UNL     1     -10.359  10.109  68.708  1.00  0.00    -0.194 C  
HETATM   24  N   UNL     1     -10.566   9.428  69.998  1.00  0.00    -0.220 NA 
HETATM   25  C   UNL     1     -11.417  10.135  70.974  1.00  0.00    -0.354 C  
HETATM   26  C   UNL     1     -12.634  10.846  70.325  1.00  0.00    -0.265 C  
BRANCH  24  27
HETATM   27  C   UNL     1     -10.494   8.060  70.014  1.00  0.00    -0.228 A  
HETATM   28  N   UNL     1     -10.236   7.339  68.925  1.00  0.00    -0.188 NA 
HETATM   29  S   UNL     1     -10.078   5.754  69.334  1.00  0.00    -0.237 SA 
HETATM   30  C   UNL     1     -10.322   5.958  71.017  1.00  0.00    -0.223 A  
HETATM   31  C   UNL     1     -10.276   5.001  72.045  1.00  0.00    -0.262 A  
HETATM   32  C   UNL     1     -10.500   5.422  73.357  1.00  0.00    -0.269 A  
HETATM   33  C   UNL     1     -10.762   6.757  73.636  1.00  0.00    -0.280 A  
HETATM   34  C   UNL     1     -10.793   7.704  72.606  1.00  0.00    -0.395 A  
HETATM   35  C   UNL     1     -10.578   7.310  71.259  1.00  0.00    -0.236 A  
ENDBRANCH  24  27
ENDBRANCH  20  21
ENDBRANCH  19  20
ENDBRANCH  13  14
ENDBRANCH  10  13
TORSDOF 5
ENDMDL
MODEL       60
REMARK 921   NORMALIZED FREE ENERGY PREDICTED BY IDOCK:   -6.01 KCAL/MOL
REMARK 922        TOTAL FREE ENERGY PREDICTED BY IDOCK:   -9.50 KCAL/MOL
REMARK 923 INTER-LIGAND FREE ENERGY PREDICTED BY IDOCK:   -8.47 KCAL/MOL
REMARK 924 INTRA-LIGAND FREE ENERGY PREDICTED BY IDOCK:   -1.02 KCAL/MOL
REMARK 927      BINDING AFFINITY PREDICTED BY RF-SCORE:    0.00 PKD
ROOT
HETATM    1  C   UNL     1     -11.016   8.647  70.856  1.00  0.00    -0.301 C  
HETATM    2  C   UNL     1     -11.338   8.333  72.328  1.00  0.00    -0.446 C  
HETATM    3  C   UNL     1     -12.822   8.671  72.570  1.00  0.00    -0.352 C  
HETATM    4  C   UNL     1     -13.563   7.565  71.790  1.00  0.00    -0.397 C  
HETATM    5  C   UNL     1     -12.411   6.720  71.210  1.00  0.00    -0.395 C  
HETATM    6  C   UNL     1     -11.395   6.805  72.353  1.00  0.00    -0.306 C  
HETATM    7  C   UNL     1     -11.753   7.544  70.091  1.00  0.00     0.029 C  
HETATM    8  C   UNL     1     -10.669   6.803  69.361  1.00  0.00    -0.255 C  
HETATM    9  O   UNL     1     -10.847   5.786  68.708  1.00  0.00    -0.264 OA 
HETATM   10  N   UNL     1      -9.477   7.431  69.584  1.00  0.00    -0.156 N  
HETATM   11  O   UNL     1      -8.639   9.047  71.018  1.00  0.00    -0.188 OA 
HETATM   12  C   UNL     1      -9.567   8.434  70.511  1.00  0.00    -0.170 C  
ENDROOT
BRANCH  10  13
HETATM   13  C   UNL     1      -8.210   6.957  69.050  1.00  0.00    -0.125 C  
BRANCH  13  14
HETATM   14  C   UNL     1      -8.291   6.655  67.537  1.00  0.00    -0.121 C  
HETATM   15  C   UNL     1      -7.167   5.679  67.135  1.00  0.00    -0.075 C  
HETATM   16  C   UNL     1      -7.254   5.292  65.665  1.00  0.00    -0.068 C  
HETATM   17  C   UNL     1      -7.268   6.520  64.765  1.00  0.00    -0.067 C  
HETATM   18  C   UNL     1      -8.375   7.496  65.158  1.00  0.00    -0.092 C  
HETATM   19  C   UNL     1      -8.248   7.928  66.633  1.00  0.00    -0.119 C  
BRANCH  19  20
HETATM   20  C   UNL     1      -9.353   8.937  67.027  1.00  0.00    -0.152 C  
BRANCH  20  21
HETATM   21  N   UNL     1      -9.207  10.322  66.540  1.00  0.00    -0.151 NA 
HETATM   22  C   UNL     1     -10.553  10.935  66.356  1.00  0.00    -0.229 C  
HETATM   23  C   UNL     1     -11.348  11.100  67.668  1.00  0.00    -0.284 C  
HETATM   24  N   UNL     1     -10.594  11.870  68.672  1.00  0.00    -0.230 NA 
HETATM   25  C   UNL     1      -9.169  11.520  68.822  1.00  0.00    -0.067 C  
HETATM   26  C   UNL     1      -8.470  11.207  67.472  1.00  0.00    -0.126 C  
BRANCH  24  27
HETATM   27  C   UNL     1     -11.021  13.142  68.949  1.00  0.00    -0.230 A  
HETATM   28  N   UNL     1     -10.781  14.175  68.143  1.00  0.00    -0.240 NA 
HETATM   29  S   UNL     1     -11.559  15.511  68.706  1.00  0.00    -0.376 SA 
HETATM   30  C   UNL     1     -12.290  14.758  70.060  1.00  0.00    -0.316 A  
HETATM   31  C   UNL     1     -13.173  15.300  71.009  1.00  0.00    -0.546 A  
HETATM   32  C   UNL     1     -13.648  14.470  72.027  1.00  0.00    -0.509 A  
HETATM   33  C   UNL     1     -13.254  13.140  72.096  1.00  0.00    -0.561 A  
HETATM   34  C   UNL     1     -12.383  12.608  71.138  1.00  0.00    -0.245 A  
HETATM   35  C   UNL     1     -11.875  13.424  70.094  1.00  0.00    -0.342 A  
ENDBRANCH  24  27
ENDBRANCH  20  21
ENDBRANCH  19  20
ENDBRANCH  13  14
ENDBRANCH  10  13
TORSDOF 5
ENDMDL
MODEL       61
REMARK 921   NORMALIZED FREE ENERGY PREDICTED BY IDOCK:   -5.98 KCAL/MOL
REMARK 922        TOTAL FREE ENERGY PREDICTED BY IDOCK:   -9.45 KCAL/MOL
REMARK 923 INTER-LIGAND FREE ENERGY PREDICTED BY IDOCK:   -8.02 KCAL/MOL
REMARK 924 INTRA-LIGAND FREE ENERGY PREDICTED BY IDOCK:   -1.43 KCAL/MOL
REMARK 927      BINDING AFFINITY PREDICTED BY RF-SCORE:    0.00 PKD
ROOT
HETATM    1  C   UNL     1      -9.052  13.159  66.861  1.00  0.00    -0.231 C  
HETATM    2  C   UNL     1      -9.717  13.676  68.149  1.00  0.00    -0.229 C  
HETATM    3  C   UNL     1      -9.899  15.200  68.009  1.00  0.00    -0.213 C  
HETATM    4  C   UNL     1     -11.012  15.323  66.949  1.00  0.00    -0.315 C  
HETATM    5  C   UNL     1     -11.343  13.852  66.623  1.00  0.00    -0.342 C  
HETATM    6  C   UNL     1     -11.167  13.210  68.002  1.00  0.00    -0.308 C  
HETATM    7  C   UNL     1     -10.165  13.283  65.815  1.00  0.00    -0.296 C  
HETATM    8  C   UNL     1     -10.392  11.877  65.337  1.00  0.00    -0.267 C  
HETATM    9  O   UNL     1     -11.274  11.546  64.561  1.00  0.00    -0.305 OA 
HETATM   10  N   UNL     1      -9.483  11.054  65.939  1.00  0.00    -0.205 N  
HETATM   11  O   UNL     1      -7.985  11.164  67.705  1.00  0.00    -0.112 OA 
HETATM   12  C   UNL     1      -8.746  11.687  66.904  1.00  0.00    -0.185 C  
ENDROOT
BRANCH  10  13
HETATM   13  C   UNL     1      -9.441   9.616  65.726  1.00  0.00    -0.246 C  
BRANCH  13  14
HETATM   14  C   UNL     1      -8.278   9.199  64.798  1.00  0.00    -0.150 C  
HETATM   15  C   UNL     1      -8.742   9.232  63.329  1.00  0.00    -0.190 C  
HETATM   16  C   UNL     1      -7.606   8.902  62.370  1.00  0.00    -0.105 C  
HETATM   17  C   UNL     1      -6.956   7.569  62.714  1.00  0.00    -0.072 C  
HETATM   18  C   UNL     1      -6.498   7.523  64.171  1.00  0.00    -0.048 C  
HETATM   19  C   UNL     1      -7.666   7.803  65.138  1.00  0.00    -0.101 C  
BRANCH  19  20
HETATM   20  C   UNL     1      -7.210   7.731  66.615  1.00  0.00    -0.087 C  
BRANCH  20  21
HETATM   21  N   UNL     1      -7.768   6.644  67.442  1.00  0.00    -0.107 NA 
HETATM   22  C   UNL     1      -7.681   7.012  68.883  1.00  0.00    -0.110 C  
HETATM   23  C   UNL     1      -8.543   8.232  69.268  1.00  0.00    -0.138 C  
HETATM   24  N   UNL     1      -9.956   8.044  68.898  1.00  0.00    -0.189 NA 
HETATM   25  C   UNL     1     -10.205   7.476  67.560  1.00  0.00    -0.223 C  
HETATM   26  C   UNL     1      -9.198   6.362  67.169  1.00  0.00    -0.123 C  
BRANCH  24  27
HETATM   27  C   UNL     1     -10.856   7.836  69.910  1.00  0.00    -0.226 A  
HETATM   28  N   UNL     1     -11.046   6.645  70.473  1.00  0.00    -0.283 NA 
HETATM   29  S   UNL     1     -12.082   6.789  71.743  1.00  0.00    -0.354 SA 
HETATM   30  C   UNL     1     -12.311   8.483  71.619  1.00  0.00    -0.326 A  
HETATM   31  C   UNL     1     -13.063   9.340  72.440  1.00  0.00    -0.481 A  
HETATM   32  C   UNL     1     -13.084  10.702  72.137  1.00  0.00    -0.382 A  
HETATM   33  C   UNL     1     -12.376  11.196  71.048  1.00  0.00    -0.487 A  
HETATM   34  C   UNL     1     -11.621  10.334  70.244  1.00  0.00    -0.396 A  
HETATM   35  C   UNL     1     -11.583   8.942  70.519  1.00  0.00    -0.189 A  
ENDBRANCH  24  27
ENDBRANCH  20  21
ENDBRANCH  19  20
ENDBRANCH  13  14
ENDBRANCH  10  13
TORSDOF 5
ENDMDL
MODEL       62
REMARK 921   NORMALIZED FREE ENERGY PREDICTED BY IDOCK:   -5.97 KCAL/MOL
REMARK 922        TOTAL FREE ENERGY PREDICTED BY IDOCK:   -9.44 KCAL/MOL
REMARK 923 INTER-LIGAND FREE ENERGY PREDICTED BY IDOCK:   -8.63 KCAL/MOL
REMARK 924 INTRA-LIGAND FREE ENERGY PREDICTED BY IDOCK:   -0.81 KCAL/MOL
REMARK 927      BINDING AFFINITY PREDICTED BY RF-SCORE:    0.00 PKD
ROOT
HETATM    1  C   UNL     1     -10.201  17.483  68.596  1.00  0.00    -0.373 C  
HETATM    2  C   UNL     1     -10.890  18.585  67.772  1.00  0.00    -0.289 C  
HETATM    3  C   UNL     1     -10.121  19.900  68.004  1.00  0.00    -0.572 C  
HETATM    4  C   UNL     1      -8.792  19.664  67.259  1.00  0.00    -0.380 C  
HETATM    5  C   UNL     1      -8.969  18.247  66.677  1.00  0.00    -0.296 C  
HETATM    6  C   UNL     1     -10.463  18.265  66.338  1.00  0.00    -0.387 C  
HETATM    7  C   UNL     1      -8.884  17.254  67.848  1.00  0.00    -0.235 C  
HETATM    8  C   UNL     1      -8.941  15.816  67.417  1.00  0.00    -0.193 C  
HETATM    9  O   UNL     1      -8.108  15.275  66.707  1.00  0.00    -0.222 OA 
HETATM   10  N   UNL     1     -10.078  15.249  67.918  1.00  0.00    -0.231 N  
HETATM   11  O   UNL     1     -12.052  15.962  68.902  1.00  0.00    -0.315 OA 
HETATM   12  C   UNL     1     -10.908  16.158  68.517  1.00  0.00    -0.313 C  
ENDROOT
BRANCH  10  13
HETATM   13  C   UNL     1     -10.464  13.869  67.665  1.00  0.00    -0.245 C  
BRANCH  13  14
HETATM   14  C   UNL     1     -10.759  13.612  66.171  1.00  0.00    -0.286 C  
HETATM   15  C   UNL     1     -12.082  14.297  65.772  1.00  0.00    -0.414 C  
HETATM   16  C   UNL     1     -12.376  14.134  64.286  1.00  0.00    -0.398 C  
HETATM   17  C   UNL     1     -12.365  12.669  63.873  1.00  0.00    -0.546 C  
HETATM   18  C   UNL     1     -11.061  11.980  64.269  1.00  0.00    -0.411 C  
HETATM   19  C   UNL     1     -10.798  12.100  65.784  1.00  0.00    -0.319 C  
BRANCH  19  20
HETATM   20  C   UNL     1      -9.491  11.379  66.192  1.00  0.00    -0.216 C  
BRANCH  20  21
HETATM   21  N   UNL     1      -9.574   9.931  66.462  1.00  0.00    -0.180 NA 
HETATM   22  C   UNL     1      -8.320   9.470  67.122  1.00  0.00    -0.131 C  
HETATM   23  C   UNL     1      -8.088  10.081  68.519  1.00  0.00    -0.103 C  
HETATM   24  N   UNL     1      -9.229   9.839  69.419  1.00  0.00    -0.191 NA 
HETATM   25  C   UNL     1     -10.569  10.050  68.838  1.00  0.00    -0.218 C  
HETATM   26  C   UNL     1     -10.684   9.558  67.371  1.00  0.00    -0.227 C  
BRANCH  24  27
HETATM   27  C   UNL     1      -9.057   8.939  70.437  1.00  0.00    -0.190 A  
HETATM   28  N   UNL     1      -9.940   7.981  70.709  1.00  0.00    -0.187 NA 
HETATM   29  S   UNL     1      -9.348   6.999  71.889  1.00  0.00    -0.138 SA 
HETATM   30  C   UNL     1      -7.845   7.801  72.077  1.00  0.00    -0.100 A  
HETATM   31  C   UNL     1      -6.763   7.474  72.911  1.00  0.00    -0.066 A  
HETATM   32  C   UNL     1      -5.628   8.286  72.877  1.00  0.00    -0.054 A  
HETATM   33  C   UNL     1      -5.574   9.391  72.036  1.00  0.00    -0.053 A  
HETATM   34  C   UNL     1      -6.654   9.699  71.201  1.00  0.00     0.016 A  
HETATM   35  C   UNL     1      -7.827   8.900  71.216  1.00  0.00    -0.163 A  
ENDBRANCH  24  27
ENDBRANCH  20  21
ENDBRANCH  19  20
ENDBRANCH  13  14
ENDBRANCH  10  13
TORSDOF 5
ENDMDL
MODEL       63
REMARK 921   NORMALIZED FREE ENERGY PREDICTED BY IDOCK:   -5.95 KCAL/MOL
REMARK 922        TOTAL FREE ENERGY PREDICTED BY IDOCK:   -9.41 KCAL/MOL
REMARK 923 INTER-LIGAND FREE ENERGY PREDICTED BY IDOCK:   -8.19 KCAL/MOL
REMARK 924 INTRA-LIGAND FREE ENERGY PREDICTED BY IDOCK:   -1.21 KCAL/MOL
REMARK 927      BINDING AFFINITY PREDICTED BY RF-SCORE:    0.00 PKD
ROOT
HETATM    1  C   UNL     1      -8.625   5.388  66.472  1.00  0.00    -0.116 C  
HETATM    2  C   UNL     1      -9.154   4.862  65.126  1.00  0.00    -0.146 C  
HETATM    3  C   UNL     1      -7.948   4.363  64.306  1.00  0.00    -0.091 C  
HETATM    4  C   UNL     1      -7.521   3.084  65.056  1.00  0.00    -0.075 C  
HETATM    5  C   UNL     1      -8.547   2.999  66.205  1.00  0.00    -0.117 C  
HETATM    6  C   UNL     1      -9.801   3.528  65.504  1.00  0.00    -0.016 C  
HETATM    7  C   UNL     1      -8.206   4.113  67.209  1.00  0.00    -0.099 C  
HETATM    8  C   UNL     1      -9.067   4.090  68.441  1.00  0.00    -0.137 C  
HETATM    9  O   UNL     1      -9.095   3.172  69.245  1.00  0.00    -0.109 OA 
HETATM   10  N   UNL     1      -9.816   5.230  68.477  1.00  0.00    -0.143 N  
HETATM   11  O   UNL     1     -10.376   6.954  67.032  1.00  0.00    -0.222 OA 
HETATM   12  C   UNL     1      -9.703   5.981  67.338  1.00  0.00    -0.115 C  
ENDROOT
BRANCH  10  13
HETATM   13  C   UNL     1     -10.786   5.519  69.522  1.00  0.00    -0.262 C  
BRANCH  13  14
HETATM   14  C   UNL     1     -10.126   6.141  70.774  1.00  0.00    -0.238 C  
HETATM   15  C   UNL     1     -10.276   5.186  71.975  1.00  0.00    -0.260 C  
HETATM   16  C   UNL     1      -9.573   5.723  73.214  1.00  0.00    -0.145 C  
HETATM   17  C   UNL     1     -10.050   7.127  73.561  1.00  0.00    -0.374 C  
HETATM   18  C   UNL     1      -9.912   8.080  72.375  1.00  0.00    -0.317 C  
HETATM   19  C   UNL     1     -10.673   7.557  71.140  1.00  0.00    -0.242 C  
BRANCH  19  20
HETATM   20  C   UNL     1     -10.557   8.533  69.946  1.00  0.00    -0.228 C  
BRANCH  20  21
HETATM   21  N   UNL     1     -10.259   9.945  70.254  1.00  0.00    -0.279 NA 
HETATM   22  C   UNL     1      -9.514  10.561  69.121  1.00  0.00    -0.191 C  
HETATM   23  C   UNL     1     -10.325  10.645  67.811  1.00  0.00    -0.204 C  
HETATM   24  N   UNL     1     -11.599  11.358  68.001  1.00  0.00    -0.473 NA 
HETATM   25  C   UNL     1     -12.365  11.007  69.212  1.00  0.00    -0.090 C  
HETATM   26  C   UNL     1     -11.469  10.777  70.458  1.00  0.00    -0.275 C  
BRANCH  24  27
HETATM   27  C   UNL     1     -11.715  12.610  67.456  1.00  0.00    -0.368 A  
HETATM   28  N   UNL     1     -11.538  13.724  68.164  1.00  0.00    -0.314 NA 
HETATM   29  S   UNL     1     -11.605  15.031  67.167  1.00  0.00    -0.193 SA 
HETATM   30  C   UNL     1     -11.850  14.158  65.713  1.00  0.00    -0.380 A  
HETATM   31  C   UNL     1     -11.955  14.638  64.396  1.00  0.00    -0.454 A  
HETATM   32  C   UNL     1     -12.143  13.715  63.365  1.00  0.00    -0.246 A  
HETATM   33  C   UNL     1     -12.226  12.355  63.639  1.00  0.00    -0.653 A  
HETATM   34  C   UNL     1     -12.109  11.889  64.954  1.00  0.00    -0.129 A  
HETATM   35  C   UNL     1     -11.924  12.799  66.027  1.00  0.00    -0.491 A  
ENDBRANCH  24  27
ENDBRANCH  20  21
ENDBRANCH  19  20
ENDBRANCH  13  14
ENDBRANCH  10  13
TORSDOF 5
ENDMDL
MODEL       64
REMARK 921   NORMALIZED FREE ENERGY PREDICTED BY IDOCK:   -5.89 KCAL/MOL
REMARK 922        TOTAL FREE ENERGY PREDICTED BY IDOCK:   -9.33 KCAL/MOL
REMARK 923 INTER-LIGAND FREE ENERGY PREDICTED BY IDOCK:   -8.95 KCAL/MOL
REMARK 924 INTRA-LIGAND FREE ENERGY PREDICTED BY IDOCK:   -0.38 KCAL/MOL
REMARK 927      BINDING AFFINITY PREDICTED BY RF-SCORE:    0.00 PKD
ROOT
HETATM    1  C   UNL     1      -9.512   7.260  66.523  1.00  0.00    -0.218 C  
HETATM    2  C   UNL     1     -10.856   6.565  66.805  1.00  0.00    -0.345 C  
HETATM    3  C   UNL     1     -10.719   5.086  66.395  1.00  0.00    -0.242 C  
HETATM    4  C   UNL     1      -9.777   4.511  67.472  1.00  0.00    -0.213 C  
HETATM    5  C   UNL     1      -9.503   5.729  68.377  1.00  0.00    -0.137 C  
HETATM    6  C   UNL     1     -10.863   6.430  68.329  1.00  0.00    -0.384 C  
HETATM    7  C   UNL     1      -8.585   6.684  67.597  1.00  0.00    -0.120 C  
HETATM    8  C   UNL     1      -8.148   7.879  68.398  1.00  0.00    -0.123 C  
HETATM    9  O   UNL     1      -7.469   7.820  69.411  1.00  0.00    -0.084 OA 
HETATM   10  N   UNL     1      -8.662   9.006  67.825  1.00  0.00    -0.125 N  
HETATM   11  O   UNL     1     -10.264   9.537  66.235  1.00  0.00    -0.271 OA 
HETATM   12  C   UNL     1      -9.540   8.736  66.809  1.00  0.00    -0.206 C  
ENDROOT
BRANCH  10  13
HETATM   13  C   UNL     1      -8.462  10.342  68.364  1.00  0.00    -0.124 C  
BRANCH  13  14
HETATM   14  C   UNL     1      -9.644  10.797  69.249  1.00  0.00    -0.121 C  
HETATM   15  C   UNL     1     -10.338   9.568  69.868  1.00  0.00    -0.265 C  
HETATM   16  C   UNL     1     -11.465   9.971  70.811  1.00  0.00    -0.438 C  
HETATM   17  C   UNL     1     -12.469  10.884  70.121  1.00  0.00    -0.356 C  
HETATM   18  C   UNL     1     -11.790  12.102  69.499  1.00  0.00    -0.386 C  
HETATM   19  C   UNL     1     -10.688  11.686  68.503  1.00  0.00    -0.250 C  
BRANCH  19  20
HETATM   20  C   UNL     1     -10.017  12.918  67.851  1.00  0.00    -0.233 C  
BRANCH  20  21
HETATM   21  N   UNL     1     -10.903  13.923  67.233  1.00  0.00    -0.284 NA 
HETATM   22  C   UNL     1     -11.131  15.047  68.184  1.00  0.00    -0.291 C  
HETATM   23  C   UNL     1      -9.857  15.851  68.516  1.00  0.00    -0.210 C  
HETATM   24  N   UNL     1      -9.202  16.366  67.302  1.00  0.00    -0.213 NA 
HETATM   25  C   UNL     1      -9.092  15.421  66.174  1.00  0.00    -0.304 C  
HETATM   26  C   UNL     1     -10.349  14.527  65.998  1.00  0.00    -0.309 C  
BRANCH  24  27
HETATM   27  C   UNL     1      -9.274  17.713  67.062  1.00  0.00    -0.250 A  
HETATM   28  N   UNL     1     -10.424  18.344  66.832  1.00  0.00    -0.392 NA 
HETATM   29  S   UNL     1     -10.158  19.964  66.734  1.00  0.00    -0.490 SA 
HETATM   30  C   UNL     1      -8.471  19.906  67.029  1.00  0.00    -0.328 A  
HETATM   31  C   UNL     1      -7.552  20.963  67.144  1.00  0.00    -0.295 A  
HETATM   32  C   UNL     1      -6.215  20.656  67.401  1.00  0.00    -0.301 A  
HETATM   33  C   UNL     1      -5.806  19.335  67.539  1.00  0.00    -0.190 A  
HETATM   34  C   UNL     1      -6.733  18.292  67.434  1.00  0.00    -0.204 A  
HETATM   35  C   UNL     1      -8.099  18.566  67.166  1.00  0.00    -0.248 A  
ENDBRANCH  24  27
ENDBRANCH  20  21
ENDBRANCH  19  20
ENDBRANCH  13  14
ENDBRANCH  10  13
TORSDOF 5
ENDMDL
MODEL       65
REMARK 921   NORMALIZED FREE ENERGY PREDICTED BY IDOCK:   -5.89 KCAL/MOL
REMARK 922        TOTAL FREE ENERGY PREDICTED BY IDOCK:   -9.33 KCAL/MOL
REMARK 923 INTER-LIGAND FREE ENERGY PREDICTED BY IDOCK:   -8.13 KCAL/MOL
REMARK 924 INTRA-LIGAND FREE ENERGY PREDICTED BY IDOCK:   -1.20 KCAL/MOL
REMARK 927      BINDING AFFINITY PREDICTED BY RF-SCORE:    0.00 PKD
ROOT
HETATM    1  C   UNL     1      -8.106  10.955  65.672  1.00  0.00    -0.060 C  
HETATM    2  C   UNL     1      -7.348   9.846  64.921  1.00  0.00    -0.136 C  
HETATM    3  C   UNL     1      -5.897  10.323  64.712  1.00  0.00    -0.133 C  
HETATM    4  C   UNL     1      -5.305  10.271  66.135  1.00  0.00    -0.057 C  
HETATM    5  C   UNL     1      -6.486   9.755  66.983  1.00  0.00    -0.066 C  
HETATM    6  C   UNL     1      -7.136   8.780  65.997  1.00  0.00    -0.084 C  
HETATM    7  C   UNL     1      -7.513  10.895  67.082  1.00  0.00    -0.109 C  
HETATM    8  C   UNL     1      -8.682  10.570  67.969  1.00  0.00    -0.128 C  
HETATM    9  O   UNL     1      -8.598  10.344  69.166  1.00  0.00    -0.149 OA 
HETATM   10  N   UNL     1      -9.816  10.537  67.210  1.00  0.00    -0.172 N  
HETATM   11  O   UNL     1     -10.364  10.483  64.958  1.00  0.00    -0.316 OA 
HETATM   12  C   UNL     1      -9.564  10.644  65.868  1.00  0.00    -0.205 C  
ENDROOT
BRANCH  10  13
HETATM   13  C   UNL     1     -11.130  10.218  67.746  1.00  0.00    -0.269 C  
BRANCH  13  14
HETATM   14  C   UNL     1     -11.809  11.446  68.392  1.00  0.00    -0.344 C  
HETATM   15  C   UNL     1     -11.170  12.742  67.855  1.00  0.00    -0.315 C  
HETATM   16  C   UNL     1     -11.859  13.983  68.407  1.00  0.00    -0.397 C  
HETATM   17  C   UNL     1     -11.891  13.972  69.929  1.00  0.00    -0.393 C  
HETATM   18  C   UNL     1     -12.518  12.689  70.472  1.00  0.00    -0.273 C  
HETATM   19  C   UNL     1     -11.780  11.438  69.953  1.00  0.00    -0.424 C  
BRANCH  19  20
HETATM   20  C   UNL     1     -12.396  10.138  70.522  1.00  0.00    -0.245 C  
BRANCH  20  21
HETATM   21  N   UNL     1     -11.889   9.664  71.824  1.00  0.00    -0.375 NA 
HETATM   22  C   UNL     1     -12.696   8.499  72.284  1.00  0.00    -0.367 C  
HETATM   23  C   UNL     1     -12.570   7.256  71.378  1.00  0.00    -0.388 C  
HETATM   24  N   UNL     1     -11.167   6.841  71.210  1.00  0.00    -0.264 NA 
HETATM   25  C   UNL     1     -10.197   7.923  70.957  1.00  0.00    -0.197 C  
HETATM   26  C   UNL     1     -10.480   9.205  71.784  1.00  0.00    -0.291 C  
BRANCH  24  27
HETATM   27  C   UNL     1     -10.764   5.691  71.836  1.00  0.00    -0.241 A  
HETATM   28  N   UNL     1     -11.044   5.429  73.111  1.00  0.00    -0.299 NA 
HETATM   29  S   UNL     1     -10.540   3.909  73.488  1.00  0.00    -0.222 SA 
HETATM   30  C   UNL     1      -9.939   3.508  71.934  1.00  0.00    -0.142 A  
HETATM   31  C   UNL     1      -9.382   2.300  71.481  1.00  0.00    -0.191 A  
HETATM   32  C   UNL     1      -8.972   2.215  70.149  1.00  0.00    -0.150 A  
HETATM   33  C   UNL     1      -9.114   3.301  69.294  1.00  0.00    -0.200 A  
HETATM   34  C   UNL     1      -9.681   4.496  69.754  1.00  0.00    -0.285 A  
HETATM   35  C   UNL     1     -10.102   4.620  71.104  1.00  0.00    -0.243 A  
ENDBRANCH  24  27
ENDBRANCH  20  21
ENDBRANCH  19  20
ENDBRANCH  13  14
ENDBRANCH  10  13
TORSDOF 5
ENDMDL
MODEL       66
REMARK 921   NORMALIZED FREE ENERGY PREDICTED BY IDOCK:   -5.87 KCAL/MOL
REMARK 922        TOTAL FREE ENERGY PREDICTED BY IDOCK:   -9.31 KCAL/MOL
REMARK 923 INTER-LIGAND FREE ENERGY PREDICTED BY IDOCK:   -8.32 KCAL/MOL
REMARK 924 INTRA-LIGAND FREE ENERGY PREDICTED BY IDOCK:   -0.99 KCAL/MOL
REMARK 927      BINDING AFFINITY PREDICTED BY RF-SCORE:    0.00 PKD
ROOT
HETATM    1  C   UNL     1     -12.710  15.419  70.182  1.00  0.00    -0.263 C  
HETATM    2  C   UNL     1     -12.571  15.760  71.676  1.00  0.00    -0.521 C  
HETATM    3  C   UNL     1     -13.952  15.578  72.334  1.00  0.00    -0.653 C  
HETATM    4  C   UNL     1     -14.143  14.048  72.325  1.00  0.00    -0.633 C  
HETATM    5  C   UNL     1     -12.839  13.540  71.678  1.00  0.00    -0.419 C  
HETATM    6  C   UNL     1     -11.832  14.546  72.242  1.00  0.00    -0.030 C  
HETATM    7  C   UNL     1     -12.898  13.899  70.184  1.00  0.00    -0.053 C  
HETATM    8  C   UNL     1     -11.729  13.374  69.397  1.00  0.00    -0.325 C  
HETATM    9  O   UNL     1     -11.471  12.189  69.252  1.00  0.00    -0.268 OA 
HETATM   10  N   UNL     1     -11.009  14.431  68.919  1.00  0.00    -0.247 N  
HETATM   11  O   UNL     1     -10.886  16.718  69.277  1.00  0.00    -0.325 OA 
HETATM   12  C   UNL     1     -11.440  15.635  69.406  1.00  0.00    -0.348 C  
ENDROOT
BRANCH  10  13
HETATM   13  C   UNL     1      -9.790  14.282  68.139  1.00  0.00    -0.226 C  
BRANCH  13  14
HETATM   14  C   UNL     1     -10.079  14.135  66.628  1.00  0.00    -0.275 C  
HETATM   15  C   UNL     1     -11.381  14.879  66.269  1.00  0.00    -0.306 C  
HETATM   16  C   UNL     1     -11.668  14.826  64.774  1.00  0.00    -0.422 C  
HETATM   17  C   UNL     1     -11.689  13.393  64.260  1.00  0.00    -0.455 C  
HETATM   18  C   UNL     1     -10.405  12.646  64.616  1.00  0.00    -0.354 C  
HETATM   19  C   UNL     1     -10.152  12.655  66.138  1.00  0.00    -0.268 C  
BRANCH  19  20
HETATM   20  C   UNL     1      -8.866  11.876  66.504  1.00  0.00    -0.178 C  
BRANCH  20  21
HETATM   21  N   UNL     1      -8.987  10.810  67.517  1.00  0.00    -0.132 NA 
HETATM   22  C   UNL     1     -10.082   9.875  67.136  1.00  0.00    -0.215 C  
HETATM   23  C   UNL     1      -9.813   9.098  65.830  1.00  0.00    -0.235 C  
HETATM   24  N   UNL     1      -8.540   8.360  65.885  1.00  0.00    -0.150 NA 
HETATM   25  C   UNL     1      -7.390   9.093  66.447  1.00  0.00    -0.092 C  
HETATM   26  C   UNL     1      -7.765   9.984  67.661  1.00  0.00    -0.091 C  
BRANCH  24  27
HETATM   27  C   UNL     1      -8.599   6.995  65.987  1.00  0.00    -0.148 A  
HETATM   28  N   UNL     1      -9.507   6.366  66.731  1.00  0.00    -0.146 NA 
HETATM   29  S   UNL     1      -9.381   4.742  66.505  1.00  0.00    -0.158 SA 
HETATM   30  C   UNL     1      -8.106   4.799  65.362  1.00  0.00    -0.112 A  
HETATM   31  C   UNL     1      -7.489   3.746  64.666  1.00  0.00    -0.072 A  
HETATM   32  C   UNL     1      -6.466   4.053  63.766  1.00  0.00    -0.037 A  
HETATM   33  C   UNL     1      -6.071   5.370  63.566  1.00  0.00    -0.021 A  
HETATM   34  C   UNL     1      -6.702   6.411  64.257  1.00  0.00    -0.038 A  
HETATM   35  C   UNL     1      -7.740   6.136  65.185  1.00  0.00    -0.097 A  
ENDBRANCH  24  27
ENDBRANCH  20  21
ENDBRANCH  19  20
ENDBRANCH  13  14
ENDBRANCH  10  13
TORSDOF 5
ENDMDL
MODEL       67
REMARK 921   NORMALIZED FREE ENERGY PREDICTED BY IDOCK:   -5.87 KCAL/MOL
REMARK 922        TOTAL FREE ENERGY PREDICTED BY IDOCK:   -9.30 KCAL/MOL
REMARK 923 INTER-LIGAND FREE ENERGY PREDICTED BY IDOCK:   -9.60 KCAL/MOL
REMARK 924 INTRA-LIGAND FREE ENERGY PREDICTED BY IDOCK:    0.30 KCAL/MOL
REMARK 927      BINDING AFFINITY PREDICTED BY RF-SCORE:    0.00 PKD
ROOT
HETATM    1  C   UNL     1      -9.564  18.689  66.966  1.00  0.00    -0.319 C  
HETATM    2  C   UNL     1      -8.123  18.712  66.427  1.00  0.00    -0.300 C  
HETATM    3  C   UNL     1      -7.428  19.970  66.985  1.00  0.00    -0.301 C  
HETATM    4  C   UNL     1      -7.254  19.637  68.481  1.00  0.00    -0.363 C  
HETATM    5  C   UNL     1      -7.855  18.221  68.593  1.00  0.00    -0.313 C  
HETATM    6  C   UNL     1      -7.427  17.625  67.249  1.00  0.00    -0.210 C  
HETATM    7  C   UNL     1      -9.380  18.357  68.450  1.00  0.00    -0.347 C  
HETATM    8  C   UNL     1     -10.115  17.060  68.639  1.00  0.00    -0.303 C  
HETATM    9  O   UNL     1     -10.123  16.416  69.677  1.00  0.00    -0.235 OA 
HETATM   10  N   UNL     1     -10.725  16.723  67.465  1.00  0.00    -0.310 N  
HETATM   11  O   UNL     1     -10.640  17.381  65.244  1.00  0.00    -0.667 OA 
HETATM   12  C   UNL     1     -10.377  17.544  66.427  1.00  0.00    -0.334 C  
ENDROOT
BRANCH  10  13
HETATM   13  C   UNL     1     -11.499  15.503  67.286  1.00  0.00    -0.102 C  
BRANCH  13  14
HETATM   14  C   UNL     1     -11.201  14.819  65.933  1.00  0.00    -0.340 C  
HETATM   15  C   UNL     1     -12.521  14.408  65.251  1.00  0.00    -0.359 C  
HETATM   16  C   UNL     1     -12.280  13.797  63.877  1.00  0.00    -0.402 C  
HETATM   17  C   UNL     1     -11.308  12.627  63.950  1.00  0.00    -0.501 C  
HETATM   18  C   UNL     1      -9.999  13.022  64.630  1.00  0.00    -0.149 C  
HETATM   19  C   UNL     1     -10.246  13.588  66.043  1.00  0.00    -0.308 C  
BRANCH  19  20
HETATM   20  C   UNL     1      -8.919  13.964  66.745  1.00  0.00    -0.188 C  
BRANCH  20  21
HETATM   21  N   UNL     1      -8.776  13.589  68.164  1.00  0.00    -0.170 NA 
HETATM   22  C   UNL     1     -10.066  13.045  68.675  1.00  0.00    -0.136 C  
HETATM   23  C   UNL     1     -10.498  11.727  67.999  1.00  0.00    -0.199 C  
HETATM   24  N   UNL     1      -9.457  10.690  68.104  1.00  0.00    -0.150 NA 
HETATM   25  C   UNL     1      -8.075  11.130  67.833  1.00  0.00    -0.119 C  
HETATM   26  C   UNL     1      -7.757  12.538  68.403  1.00  0.00    -0.136 C  
BRANCH  24  27
HETATM   27  C   UNL     1      -9.689   9.640  68.952  1.00  0.00    -0.162 A  
HETATM   28  N   UNL     1      -9.725   9.776  70.276  1.00  0.00    -0.253 NA 
HETATM   29  S   UNL     1     -10.171   8.352  70.968  1.00  0.00    -0.208 SA 
HETATM   30  C   UNL     1     -10.368   7.475  69.509  1.00  0.00    -0.216 A  
HETATM   31  C   UNL     1     -10.800   6.152  69.319  1.00  0.00    -0.418 A  
HETATM   32  C   UNL     1     -10.892   5.663  68.015  1.00  0.00    -0.164 A  
HETATM   33  C   UNL     1     -10.562   6.469  66.932  1.00  0.00    -0.376 A  
HETATM   34  C   UNL     1     -10.143   7.790  67.134  1.00  0.00    -0.328 A  
HETATM   35  C   UNL     1     -10.032   8.318  68.447  1.00  0.00    -0.211 A  
ENDBRANCH  24  27
ENDBRANCH  20  21
ENDBRANCH  19  20
ENDBRANCH  13  14
ENDBRANCH  10  13
TORSDOF 5
ENDMDL
MODEL       68
REMARK 921   NORMALIZED FREE ENERGY PREDICTED BY IDOCK:   -5.85 KCAL/MOL
REMARK 922        TOTAL FREE ENERGY PREDICTED BY IDOCK:   -9.29 KCAL/MOL
REMARK 923 INTER-LIGAND FREE ENERGY PREDICTED BY IDOCK:   -8.55 KCAL/MOL
REMARK 924 INTRA-LIGAND FREE ENERGY PREDICTED BY IDOCK:   -0.74 KCAL/MOL
REMARK 927      BINDING AFFINITY PREDICTED BY RF-SCORE:    0.00 PKD
ROOT
HETATM    1  C   UNL     1     -12.074  13.384  71.440  1.00  0.00     0.125 C  
HETATM    2  C   UNL     1     -13.395  13.566  72.208  1.00  0.00    -0.628 C  
HETATM    3  C   UNL     1     -13.158  14.610  73.317  1.00  0.00    -0.505 C  
HETATM    4  C   UNL     1     -13.008  15.927  72.530  1.00  0.00    -0.534 C  
HETATM    5  C   UNL     1     -13.195  15.479  71.066  1.00  0.00    -0.539 C  
HETATM    6  C   UNL     1     -14.251  14.384  71.238  1.00  0.00    -0.248 C  
HETATM    7  C   UNL     1     -11.936  14.696  70.661  1.00  0.00    -0.380 C  
HETATM    8  C   UNL     1     -11.931  14.278  69.218  1.00  0.00    -0.335 C  
HETATM    9  O   UNL     1     -11.929  15.054  68.275  1.00  0.00    -0.293 OA 
HETATM   10  N   UNL     1     -11.964  12.915  69.153  1.00  0.00    -0.287 N  
HETATM   11  O   UNL     1     -12.383  11.145  70.590  1.00  0.00    -0.339 OA 
HETATM   12  C   UNL     1     -12.152  12.326  70.374  1.00  0.00    -0.300 C  
ENDROOT
BRANCH  10  13
HETATM   13  C   UNL     1     -12.002  12.173  67.902  1.00  0.00    -0.148 C  
BRANCH  13  14
HETATM   14  C   UNL     1     -11.616  13.052  66.691  1.00  0.00    -0.410 C  
HETATM   15  C   UNL     1     -12.756  13.046  65.654  1.00  0.00    -0.198 C  
HETATM   16  C   UNL     1     -12.452  13.961  64.475  1.00  0.00    -0.336 C  
HETATM   17  C   UNL     1     -11.116  13.617  63.832  1.00  0.00     0.015 C  
HETATM   18  C   UNL     1      -9.981  13.615  64.853  1.00  0.00    -0.183 C  
HETATM   19  C   UNL     1     -10.270  12.643  66.014  1.00  0.00    -0.287 C  
BRANCH  19  20
HETATM   20  C   UNL     1      -9.109  12.619  67.037  1.00  0.00    -0.215 C  
BRANCH  20  21
HETATM   21  N   UNL     1      -8.090  11.564  66.878  1.00  0.00    -0.160 NA 
HETATM   22  C   UNL     1      -7.545  11.184  68.212  1.00  0.00    -0.111 C  
HETATM   23  C   UNL     1      -8.586  10.536  69.149  1.00  0.00    -0.150 C  
HETATM   24  N   UNL     1      -9.224   9.362  68.531  1.00  0.00    -0.131 NA 
HETATM   25  C   UNL     1      -9.633   9.513  67.122  1.00  0.00    -0.160 C  
HETATM   26  C   UNL     1      -8.614  10.316  66.271  1.00  0.00    -0.137 C  
BRANCH  24  27
HETATM   27  C   UNL     1      -8.891   8.126  69.021  1.00  0.00    -0.144 A  
HETATM   28  N   UNL     1      -7.670   7.609  68.902  1.00  0.00    -0.115 NA 
HETATM   29  S   UNL     1      -7.587   6.187  69.726  1.00  0.00    -0.087 SA 
HETATM   30  C   UNL     1      -9.196   6.207  70.316  1.00  0.00    -0.156 A  
HETATM   31  C   UNL     1      -9.840   5.294  71.168  1.00  0.00    -0.250 A  
HETATM   32  C   UNL     1     -11.169   5.538  71.520  1.00  0.00    -0.108 A  
HETATM   33  C   UNL     1     -11.835   6.657  71.037  1.00  0.00    -0.427 A  
HETATM   34  C   UNL     1     -11.179   7.565  70.198  1.00  0.00    -0.213 A  
HETATM   35  C   UNL     1      -9.830   7.345  69.814  1.00  0.00    -0.171 A  
ENDBRANCH  24  27
ENDBRANCH  20  21
ENDBRANCH  19  20
ENDBRANCH  13  14
ENDBRANCH  10  13
TORSDOF 5
ENDMDL
MODEL       69
REMARK 921   NORMALIZED FREE ENERGY PREDICTED BY IDOCK:   -5.84 KCAL/MOL
REMARK 922        TOTAL FREE ENERGY PREDICTED BY IDOCK:   -9.27 KCAL/MOL
REMARK 923 INTER-LIGAND FREE ENERGY PREDICTED BY IDOCK:   -8.92 KCAL/MOL
REMARK 924 INTRA-LIGAND FREE ENERGY PREDICTED BY IDOCK:   -0.35 KCAL/MOL
REMARK 927      BINDING AFFINITY PREDICTED BY RF-SCORE:    0.00 PKD
ROOT
HETATM    1  C   UNL     1     -10.831  13.551  69.032  1.00  0.00    -0.227 C  
HETATM    2  C   UNL     1     -11.921  14.389  69.724  1.00  0.00    -0.385 C  
HETATM    3  C   UNL     1     -11.223  15.378  70.678  1.00  0.00    -0.370 C  
HETATM    4  C   UNL     1     -10.551  16.377  69.714  1.00  0.00    -0.288 C  
HETATM    5  C   UNL     1     -10.961  15.846  68.326  1.00  0.00    -0.329 C  
HETATM    6  C   UNL     1     -12.377  15.345  68.621  1.00  0.00     0.173 C  
HETATM    7  C   UNL     1     -10.172  14.550  68.077  1.00  0.00    -0.233 C  
HETATM    8  C   UNL     1     -10.395  13.967  66.710  1.00  0.00    -0.271 C  
HETATM    9  O   UNL     1     -10.093  14.523  65.666  1.00  0.00    -0.323 OA 
HETATM   10  N   UNL     1     -11.010  12.756  66.842  1.00  0.00    -0.254 N  
HETATM   11  O   UNL     1     -12.096  11.562  68.506  1.00  0.00    -0.522 OA 
HETATM   12  C   UNL     1     -11.390  12.486  68.129  1.00  0.00    -0.295 C  
ENDROOT
BRANCH  10  13
HETATM   13  C   UNL     1     -11.404  11.930  65.710  1.00  0.00    -0.299 C  
BRANCH  13  14
HETATM   14  C   UNL     1     -10.184  11.394  64.928  1.00  0.00    -0.330 C  
HETATM   15  C   UNL     1     -10.397  11.604  63.416  1.00  0.00    -0.482 C  
HETATM   16  C   UNL     1      -9.186  11.159  62.607  1.00  0.00    -0.357 C  
HETATM   17  C   UNL     1      -8.806   9.718  62.918  1.00  0.00    -0.255 C  
HETATM   18  C   UNL     1      -8.598   9.499  64.415  1.00  0.00    -0.213 C  
HETATM   19  C   UNL     1      -9.850   9.897  65.222  1.00  0.00    -0.373 C  
BRANCH  19  20
HETATM   20  C   UNL     1      -9.651   9.651  66.737  1.00  0.00    -0.173 C  
BRANCH  20  21
HETATM   21  N   UNL     1     -10.652   8.811  67.421  1.00  0.00    -0.273 NA 
HETATM   22  C   UNL     1     -10.504   7.394  66.986  1.00  0.00    -0.333 C  
HETATM   23  C   UNL     1      -9.161   6.754  67.395  1.00  0.00    -0.117 C  
HETATM   24  N   UNL     1      -8.930   6.844  68.846  1.00  0.00    -0.132 NA 
HETATM   25  C   UNL     1      -9.241   8.143  69.472  1.00  0.00    -0.158 C  
HETATM   26  C   UNL     1     -10.519   8.810  68.898  1.00  0.00    -0.197 C  
BRANCH  24  27
HETATM   27  C   UNL     1      -9.024   5.689  69.578  1.00  0.00    -0.118 A  
HETATM   28  N   UNL     1      -8.214   4.649  69.391  1.00  0.00    -0.072 NA 
HETATM   29  S   UNL     1      -8.510   3.503  70.533  1.00  0.00    -0.062 SA 
HETATM   30  C   UNL     1      -9.735   4.364  71.365  1.00  0.00    -0.178 A  
HETATM   31  C   UNL     1     -10.442   4.005  72.525  1.00  0.00    -0.190 A  
HETATM   32  C   UNL     1     -11.396   4.894  73.024  1.00  0.00    -0.354 A  
HETATM   33  C   UNL     1     -11.638   6.104  72.386  1.00  0.00    -0.338 A  
HETATM   34  C   UNL     1     -10.919   6.456  71.238  1.00  0.00    -0.321 A  
HETATM   35  C   UNL     1      -9.947   5.573  70.698  1.00  0.00    -0.270 A  
ENDBRANCH  24  27
ENDBRANCH  20  21
ENDBRANCH  19  20
ENDBRANCH  13  14
ENDBRANCH  10  13
TORSDOF 5
ENDMDL
MODEL       70
REMARK 921   NORMALIZED FREE ENERGY PREDICTED BY IDOCK:   -5.81 KCAL/MOL
REMARK 922        TOTAL FREE ENERGY PREDICTED BY IDOCK:   -9.23 KCAL/MOL
REMARK 923 INTER-LIGAND FREE ENERGY PREDICTED BY IDOCK:   -8.04 KCAL/MOL
REMARK 924 INTRA-LIGAND FREE ENERGY PREDICTED BY IDOCK:   -1.18 KCAL/MOL
REMARK 927      BINDING AFFINITY PREDICTED BY RF-SCORE:    0.00 PKD
ROOT
HETATM    1  C   UNL     1      -7.896  10.231  65.498  1.00  0.00    -0.152 C  
HETATM    2  C   UNL     1      -8.615   8.899  65.774  1.00  0.00    -0.181 C  
HETATM    3  C   UNL     1      -7.844   7.783  65.042  1.00  0.00    -0.125 C  
HETATM    4  C   UNL     1      -6.539   7.669  65.857  1.00  0.00    -0.046 C  
HETATM    5  C   UNL     1      -6.731   8.723  66.966  1.00  0.00    -0.066 C  
HETATM    6  C   UNL     1      -8.235   8.592  67.224  1.00  0.00    -0.108 C  
HETATM    7  C   UNL     1      -6.604  10.109  66.312  1.00  0.00    -0.094 C  
HETATM    8  C   UNL     1      -6.670  11.242  67.296  1.00  0.00    -0.104 C  
HETATM    9  O   UNL     1      -5.859  11.428  68.190  1.00  0.00    -0.046 OA 
HETATM   10  N   UNL     1      -7.788  11.984  67.041  1.00  0.00    -0.158 N  
HETATM   11  O   UNL     1      -9.730  11.773  65.793  1.00  0.00    -0.230 OA 
HETATM   12  C   UNL     1      -8.601  11.417  66.096  1.00  0.00    -0.128 C  
ENDROOT
BRANCH  10  13
HETATM   13  C   UNL     1      -8.178  13.143  67.829  1.00  0.00    -0.168 C  
BRANCH  13  14
HETATM   14  C   UNL     1      -7.717  14.468  67.183  1.00  0.00    -0.093 C  
HETATM   15  C   UNL     1      -6.432  14.969  67.873  1.00  0.00    -0.175 C  
HETATM   16  C   UNL     1      -5.897  16.236  67.219  1.00  0.00    -0.157 C  
HETATM   17  C   UNL     1      -6.958  17.327  67.164  1.00  0.00    -0.207 C  
HETATM   18  C   UNL     1      -8.236  16.838  66.487  1.00  0.00    -0.325 C  
HETATM   19  C   UNL     1      -8.804  15.589  67.190  1.00  0.00    -0.233 C  
BRANCH  19  20
HETATM   20  C   UNL     1     -10.114  15.107  66.523  1.00  0.00    -0.269 C  
BRANCH  20  21
HETATM   21  N   UNL     1     -11.379  15.416  67.217  1.00  0.00    -0.273 NA 
HETATM   22  C   UNL     1     -12.222  14.190  67.297  1.00  0.00    -0.279 C  
HETATM   23  C   UNL     1     -11.608  13.065  68.157  1.00  0.00    -0.341 C  
HETATM   24  N   UNL     1     -11.292  13.528  69.518  1.00  0.00    -0.236 NA 
HETATM   25  C   UNL     1     -10.637  14.847  69.619  1.00  0.00    -0.197 C  
HETATM   26  C   UNL     1     -11.194  15.886  68.611  1.00  0.00    -0.360 C  
BRANCH  24  27
HETATM   27  C   UNL     1     -12.077  13.072  70.544  1.00  0.00    -0.292 A  
HETATM   28  N   UNL     1     -12.879  13.870  71.247  1.00  0.00    -0.347 NA 
HETATM   29  S   UNL     1     -13.778  12.971  72.291  1.00  0.00    -0.390 SA 
HETATM   30  C   UNL     1     -13.151  11.445  71.829  1.00  0.00    -0.418 A  
HETATM   31  C   UNL     1     -13.507  10.164  72.284  1.00  0.00    -0.291 A  
HETATM   32  C   UNL     1     -12.851   9.059  71.738  1.00  0.00    -0.437 A  
HETATM   33  C   UNL     1     -11.870   9.225  70.769  1.00  0.00    -0.303 A  
HETATM   34  C   UNL     1     -11.533  10.506  70.315  1.00  0.00    -0.416 A  
HETATM   35  C   UNL     1     -12.174  11.653  70.853  1.00  0.00    -0.401 A  
ENDBRANCH  24  27
ENDBRANCH  20  21
ENDBRANCH  19  20
ENDBRANCH  13  14
ENDBRANCH  10  13
TORSDOF 5
ENDMDL
MODEL       71
REMARK 921   NORMALIZED FREE ENERGY PREDICTED BY IDOCK:   -5.79 KCAL/MOL
REMARK 922        TOTAL FREE ENERGY PREDICTED BY IDOCK:   -9.20 KCAL/MOL
REMARK 923 INTER-LIGAND FREE ENERGY PREDICTED BY IDOCK:   -8.15 KCAL/MOL
REMARK 924 INTRA-LIGAND FREE ENERGY PREDICTED BY IDOCK:   -1.05 KCAL/MOL
REMARK 927      BINDING AFFINITY PREDICTED BY RF-SCORE:    0.00 PKD
ROOT
HETATM    1  C   UNL     1     -11.585   6.664  72.034  1.00  0.00    -0.341 C  
HETATM    2  C   UNL     1     -12.598   7.200  71.008  1.00  0.00    -0.335 C  
HETATM    3  C   UNL     1     -13.776   7.819  71.785  1.00  0.00    -0.410 C  
HETATM    4  C   UNL     1     -13.160   9.096  72.392  1.00  0.00    -0.493 C  
HETATM    5  C   UNL     1     -11.708   9.060  71.874  1.00  0.00    -0.445 C  
HETATM    6  C   UNL     1     -11.921   8.465  70.479  1.00  0.00     0.066 C  
HETATM    7  C   UNL     1     -10.978   7.937  72.629  1.00  0.00    -0.440 C  
HETATM    8  C   UNL     1      -9.515   7.848  72.299  1.00  0.00    -0.189 C  
HETATM    9  O   UNL     1      -8.701   8.730  72.526  1.00  0.00    -0.406 OA 
HETATM   10  N   UNL     1      -9.274   6.654  71.683  1.00  0.00    -0.146 N  
HETATM   11  O   UNL     1     -10.511   4.950  70.714  1.00  0.00    -0.199 OA 
HETATM   12  C   UNL     1     -10.418   5.959  71.398  1.00  0.00    -0.236 C  
ENDROOT
BRANCH  10  13
HETATM   13  C   UNL     1      -7.962   6.253  71.197  1.00  0.00    -0.116 C  
BRANCH  13  14
HETATM   14  C   UNL     1      -8.026   5.655  69.774  1.00  0.00    -0.098 C  
HETATM   15  C   UNL     1      -7.209   4.348  69.718  1.00  0.00    -0.050 C  
HETATM   16  C   UNL     1      -7.305   3.681  68.353  1.00  0.00    -0.054 C  
HETATM   17  C   UNL     1      -6.902   4.634  67.236  1.00  0.00    -0.056 C  
HETATM   18  C   UNL     1      -7.702   5.934  67.287  1.00  0.00    -0.101 C  
HETATM   19  C   UNL     1      -7.554   6.634  68.653  1.00  0.00    -0.101 C  
BRANCH  19  20
HETATM   20  C   UNL     1      -8.342   7.964  68.698  1.00  0.00    -0.128 C  
BRANCH  20  21
HETATM   21  N   UNL     1      -7.558   9.213  68.723  1.00  0.00    -0.082 NA 
HETATM   22  C   UNL     1      -7.454   9.770  67.345  1.00  0.00    -0.091 C  
HETATM   23  C   UNL     1      -8.806  10.210  66.746  1.00  0.00    -0.132 C  
HETATM   24  N   UNL     1      -9.500  11.179  67.612  1.00  0.00    -0.164 NA 
HETATM   25  C   UNL     1      -9.503  10.872  69.055  1.00  0.00    -0.146 C  
HETATM   26  C   UNL     1      -8.161  10.279  69.559  1.00  0.00    -0.162 C  
BRANCH  24  27
HETATM   27  C   UNL     1      -9.563  12.480  67.187  1.00  0.00    -0.208 A  
HETATM   28  N   UNL     1      -8.640  13.386  67.501  1.00  0.00    -0.188 NA 
HETATM   29  S   UNL     1      -8.952  14.793  66.707  1.00  0.00    -0.254 SA 
HETATM   30  C   UNL     1     -10.342  14.244  65.869  1.00  0.00    -0.314 A  
HETATM   31  C   UNL     1     -11.139  14.920  64.930  1.00  0.00    -0.424 A  
HETATM   32  C   UNL     1     -12.226  14.246  64.372  1.00  0.00    -0.471 A  
HETATM   33  C   UNL     1     -12.510  12.936  64.738  1.00  0.00    -0.517 A  
HETATM   34  C   UNL     1     -11.702  12.269  65.665  1.00  0.00    -0.440 A  
HETATM   35  C   UNL     1     -10.593  12.926  66.259  1.00  0.00    -0.281 A  
ENDBRANCH  24  27
ENDBRANCH  20  21
ENDBRANCH  19  20
ENDBRANCH  13  14
ENDBRANCH  10  13
TORSDOF 5
ENDMDL
MODEL       72
REMARK 921   NORMALIZED FREE ENERGY PREDICTED BY IDOCK:   -5.78 KCAL/MOL
REMARK 922        TOTAL FREE ENERGY PREDICTED BY IDOCK:   -9.20 KCAL/MOL
REMARK 923 INTER-LIGAND FREE ENERGY PREDICTED BY IDOCK:   -8.44 KCAL/MOL
REMARK 924 INTRA-LIGAND FREE ENERGY PREDICTED BY IDOCK:   -0.76 KCAL/MOL
REMARK 927      BINDING AFFINITY PREDICTED BY RF-SCORE:    0.00 PKD
ROOT
HETATM    1  C   UNL     1      -9.019   7.140  73.336  1.00  0.00    -0.184 C  
HETATM    2  C   UNL     1      -8.731   5.669  72.987  1.00  0.00    -0.121 C  
HETATM    3  C   UNL     1      -8.937   4.830  74.263  1.00  0.00    -0.111 C  
HETATM    4  C   UNL     1     -10.466   4.866  74.460  1.00  0.00    -0.291 C  
HETATM    5  C   UNL     1     -10.950   5.708  73.262  1.00  0.00    -0.316 C  
HETATM    6  C   UNL     1      -9.964   5.255  72.181  1.00  0.00    -0.232 C  
HETATM    7  C   UNL     1     -10.538   7.165  73.528  1.00  0.00    -0.416 C  
HETATM    8  C   UNL     1     -11.033   8.127  72.485  1.00  0.00    -0.369 C  
HETATM    9  O   UNL     1     -12.212   8.348  72.255  1.00  0.00    -0.351 OA 
HETATM   10  N   UNL     1      -9.960   8.664  71.835  1.00  0.00    -0.294 N  
HETATM   11  O   UNL     1      -7.687   8.245  71.652  1.00  0.00    -0.083 OA 
HETATM   12  C   UNL     1      -8.774   8.078  72.187  1.00  0.00    -0.157 C  
ENDROOT
BRANCH  10  13
HETATM   13  C   UNL     1     -10.080   9.612  70.738  1.00  0.00    -0.223 C  
BRANCH  13  14
HETATM   14  C   UNL     1     -10.629   8.951  69.454  1.00  0.00    -0.226 C  
HETATM   15  C   UNL     1     -10.181   7.478  69.389  1.00  0.00    -0.204 C  
HETATM   16  C   UNL     1     -10.762   6.763  68.177  1.00  0.00    -0.295 C  
HETATM   17  C   UNL     1     -10.433   7.498  66.885  1.00  0.00    -0.385 C  
HETATM   18  C   UNL     1     -10.869   8.961  66.941  1.00  0.00     0.010 C  
HETATM   19  C   UNL     1     -10.230   9.693  68.139  1.00  0.00    -0.225 C  
BRANCH  19  20
HETATM   20  C   UNL     1     -10.649  11.182  68.183  1.00  0.00    -0.193 C  
BRANCH  20  21
HETATM   21  N   UNL     1     -11.066  11.804  66.912  1.00  0.00    -0.292 NA 
HETATM   22  C   UNL     1     -12.031  12.907  67.184  1.00  0.00    -0.310 C  
HETATM   23  C   UNL     1     -11.425  14.085  67.975  1.00  0.00    -0.311 C  
HETATM   24  N   UNL     1     -10.231  14.635  67.311  1.00  0.00    -0.240 NA 
HETATM   25  C   UNL     1      -9.268  13.647  66.788  1.00  0.00    -0.241 C  
HETATM   26  C   UNL     1      -9.948  12.408  66.148  1.00  0.00    -0.253 C  
BRANCH  24  27
HETATM   27  C   UNL     1     -10.343  15.865  66.719  1.00  0.00    -0.298 A  
HETATM   28  N   UNL     1     -10.729  16.024  65.454  1.00  0.00    -0.393 NA 
HETATM   29  S   UNL     1     -10.894  17.626  65.122  1.00  0.00     0.755 SA 
HETATM   30  C   UNL     1     -10.479  18.196  66.684  1.00  0.00    -0.339 A  
HETATM   31  C   UNL     1     -10.453  19.514  67.171  1.00  0.00    -0.592 A  
HETATM   32  C   UNL     1     -10.088  19.724  68.502  1.00  0.00    -0.555 A  
HETATM   33  C   UNL     1      -9.759  18.653  69.323  1.00  0.00    -0.094 A  
HETATM   34  C   UNL     1      -9.801  17.343  68.829  1.00  0.00    -0.311 A  
HETATM   35  C   UNL     1     -10.160  17.093  67.479  1.00  0.00    -0.301 A  
ENDBRANCH  24  27
ENDBRANCH  20  21
ENDBRANCH  19  20
ENDBRANCH  13  14
ENDBRANCH  10  13
TORSDOF 5
ENDMDL
MODEL       73
REMARK 921   NORMALIZED FREE ENERGY PREDICTED BY IDOCK:   -5.78 KCAL/MOL
REMARK 922        TOTAL FREE ENERGY PREDICTED BY IDOCK:   -9.19 KCAL/MOL
REMARK 923 INTER-LIGAND FREE ENERGY PREDICTED BY IDOCK:   -8.27 KCAL/MOL
REMARK 924 INTRA-LIGAND FREE ENERGY PREDICTED BY IDOCK:   -0.93 KCAL/MOL
REMARK 927      BINDING AFFINITY PREDICTED BY RF-SCORE:    0.00 PKD
ROOT
HETATM    1  C   UNL     1      -8.491   7.263  67.097  1.00  0.00    -0.118 C  
HETATM    2  C   UNL     1      -8.381   6.234  68.236  1.00  0.00    -0.115 C  
HETATM    3  C   UNL     1      -7.026   5.514  68.095  1.00  0.00    -0.065 C  
HETATM    4  C   UNL     1      -6.009   6.604  68.488  1.00  0.00    -0.022 C  
HETATM    5  C   UNL     1      -6.908   7.812  68.822  1.00  0.00    -0.059 C  
HETATM    6  C   UNL     1      -8.105   7.104  69.464  1.00  0.00    -0.130 C  
HETATM    7  C   UNL     1      -7.479   8.341  67.496  1.00  0.00    -0.094 C  
HETATM    8  C   UNL     1      -8.302   9.588  67.656  1.00  0.00    -0.125 C  
HETATM    9  O   UNL     1      -7.867  10.654  68.063  1.00  0.00    -0.102 OA 
HETATM   10  N   UNL     1      -9.593   9.313  67.309  1.00  0.00    -0.149 N  
HETATM   11  O   UNL     1     -10.893   7.435  66.910  1.00  0.00    -0.357 OA 
HETATM   12  C   UNL     1      -9.812   7.982  67.076  1.00  0.00    -0.227 C  
ENDROOT
BRANCH  10  13
HETATM   13  C   UNL     1     -10.668  10.292  67.378  1.00  0.00    -0.281 C  
BRANCH  13  14
HETATM   14  C   UNL     1     -10.933  10.765  68.825  1.00  0.00    -0.295 C  
HETATM   15  C   UNL     1     -11.285   9.557  69.715  1.00  0.00    -0.173 C  
HETATM   16  C   UNL     1     -11.481   9.965  71.169  1.00  0.00    -0.459 C  
HETATM   17  C   UNL     1     -12.517  11.072  71.303  1.00  0.00    -0.475 C  
HETATM   18  C   UNL     1     -12.180  12.272  70.420  1.00  0.00    -0.371 C  
HETATM   19  C   UNL     1     -12.039  11.860  68.940  1.00  0.00    -0.213 C  
BRANCH  19  20
HETATM   20  C   UNL     1     -11.723  13.078  68.040  1.00  0.00    -0.355 C  
BRANCH  20  21
HETATM   21  N   UNL     1     -10.358  13.633  68.108  1.00  0.00    -0.239 NA 
HETATM   22  C   UNL     1      -9.936  14.102  66.758  1.00  0.00    -0.267 C  
HETATM   23  C   UNL     1     -10.774  15.280  66.217  1.00  0.00    -0.315 C  
HETATM   24  N   UNL     1     -10.780  16.420  67.149  1.00  0.00    -0.279 NA 
HETATM   25  C   UNL     1     -10.975  16.092  68.574  1.00  0.00    -0.338 C  
HETATM   26  C   UNL     1     -10.234  14.801  69.012  1.00  0.00    -0.237 C  
BRANCH  24  27
HETATM   27  C   UNL     1     -10.070  17.536  66.793  1.00  0.00    -0.320 A  
HETATM   28  N   UNL     1     -10.653  18.688  66.467  1.00  0.00    -0.397 NA 
HETATM   29  S   UNL     1      -9.506  19.846  66.242  1.00  0.00    -0.380 SA 
HETATM   30  C   UNL     1      -8.153  18.858  66.602  1.00  0.00    -0.280 A  
HETATM   31  C   UNL     1      -6.792  19.202  66.660  1.00  0.00    -0.205 A  
HETATM   32  C   UNL     1      -5.869  18.208  66.992  1.00  0.00    -0.162 A  
HETATM   33  C   UNL     1      -6.290  16.911  67.257  1.00  0.00    -0.203 A  
HETATM   34  C   UNL     1      -7.650  16.584  67.207  1.00  0.00    -0.192 A  
HETATM   35  C   UNL     1      -8.616  17.566  66.866  1.00  0.00    -0.267 A  
ENDBRANCH  24  27
ENDBRANCH  20  21
ENDBRANCH  19  20
ENDBRANCH  13  14
ENDBRANCH  10  13
TORSDOF 5
ENDMDL
MODEL       74
REMARK 921   NORMALIZED FREE ENERGY PREDICTED BY IDOCK:   -5.75 KCAL/MOL
REMARK 922        TOTAL FREE ENERGY PREDICTED BY IDOCK:   -9.16 KCAL/MOL
REMARK 923 INTER-LIGAND FREE ENERGY PREDICTED BY IDOCK:   -7.99 KCAL/MOL
REMARK 924 INTRA-LIGAND FREE ENERGY PREDICTED BY IDOCK:   -1.17 KCAL/MOL
REMARK 927      BINDING AFFINITY PREDICTED BY RF-SCORE:    0.00 PKD
ROOT
HETATM    1  C   UNL     1      -8.162   4.799  66.744  1.00  0.00    -0.107 C  
HETATM    2  C   UNL     1      -8.421   4.021  65.442  1.00  0.00    -0.109 C  
HETATM    3  C   UNL     1      -7.174   3.164  65.146  1.00  0.00    -0.066 C  
HETATM    4  C   UNL     1      -7.232   2.077  66.239  1.00  0.00    -0.060 C  
HETATM    5  C   UNL     1      -8.515   2.435  67.016  1.00  0.00    -0.105 C  
HETATM    6  C   UNL     1      -9.406   2.935  65.875  1.00  0.00    -0.056 C  
HETATM    7  C   UNL     1      -8.223   3.712  67.822  1.00  0.00    -0.092 C  
HETATM    8  C   UNL     1      -9.359   4.129  68.713  1.00  0.00    -0.159 C  
HETATM    9  O   UNL     1      -9.785   3.463  69.644  1.00  0.00    -0.144 OA 
HETATM   10  N   UNL     1      -9.838   5.333  68.284  1.00  0.00    -0.147 N  
HETATM   11  O   UNL     1      -9.634   6.685  66.412  1.00  0.00    -0.161 OA 
HETATM   12  C   UNL     1      -9.280   5.739  67.102  1.00  0.00    -0.115 C  
ENDROOT
BRANCH  10  13
HETATM   13  C   UNL     1     -10.964   6.014  68.904  1.00  0.00    -0.325 C  
BRANCH  13  14
HETATM   14  C   UNL     1     -10.559   6.746  70.203  1.00  0.00    -0.254 C  
HETATM   15  C   UNL     1     -11.342   6.166  71.398  1.00  0.00    -0.336 C  
HETATM   16  C   UNL     1     -10.920   6.805  72.714  1.00  0.00    -0.303 C  
HETATM   17  C   UNL     1     -11.037   8.322  72.659  1.00  0.00    -0.400 C  
HETATM   18  C   UNL     1     -10.269   8.906  71.475  1.00  0.00    -0.398 C  
HETATM   19  C   UNL     1     -10.742   8.295  70.141  1.00  0.00    -0.239 C  
BRANCH  19  20
HETATM   20  C   UNL     1      -9.984   8.904  68.937  1.00  0.00    -0.190 C  
BRANCH  20  21
HETATM   21  N   UNL     1     -10.782   9.644  67.940  1.00  0.00    -0.258 NA 
HETATM   22  C   UNL     1     -11.286  10.912  68.539  1.00  0.00    -0.299 C  
HETATM   23  C   UNL     1     -10.172  11.910  68.915  1.00  0.00    -0.075 C  
HETATM   24  N   UNL     1      -9.307  12.224  67.765  1.00  0.00    -0.187 NA 
HETATM   25  C   UNL     1      -8.891  11.078  66.935  1.00  0.00    -0.149 C  
HETATM   26  C   UNL     1     -10.016  10.029  66.731  1.00  0.00    -0.210 C  
BRANCH  24  27
HETATM   27  C   UNL     1      -9.417  13.471  67.208  1.00  0.00    -0.230 A  
HETATM   28  N   UNL     1      -8.493  14.416  67.368  1.00  0.00    -0.191 NA 
HETATM   29  S   UNL     1      -8.873  15.725  66.447  1.00  0.00    -0.349 SA 
HETATM   30  C   UNL     1     -10.298  15.073  65.755  1.00  0.00    -0.335 A  
HETATM   31  C   UNL     1     -11.158  15.636  64.797  1.00  0.00    -0.426 A  
HETATM   32  C   UNL     1     -12.263  14.892  64.377  1.00  0.00    -0.399 A  
HETATM   33  C   UNL     1     -12.504  13.627  64.898  1.00  0.00    -0.423 A  
HETATM   34  C   UNL     1     -11.633  13.073  65.844  1.00  0.00    -0.405 A  
HETATM   35  C   UNL     1     -10.504  13.803  66.298  1.00  0.00    -0.291 A  
ENDBRANCH  24  27
ENDBRANCH  20  21
ENDBRANCH  19  20
ENDBRANCH  13  14
ENDBRANCH  10  13
TORSDOF 5
ENDMDL
MODEL       75
REMARK 921   NORMALIZED FREE ENERGY PREDICTED BY IDOCK:   -5.75 KCAL/MOL
REMARK 922        TOTAL FREE ENERGY PREDICTED BY IDOCK:   -9.16 KCAL/MOL
REMARK 923 INTER-LIGAND FREE ENERGY PREDICTED BY IDOCK:   -8.40 KCAL/MOL
REMARK 924 INTRA-LIGAND FREE ENERGY PREDICTED BY IDOCK:   -0.76 KCAL/MOL
REMARK 927      BINDING AFFINITY PREDICTED BY RF-SCORE:    0.00 PKD
ROOT
HETATM    1  C   UNL     1     -12.573  15.242  69.862  1.00  0.00    -0.213 C  
HETATM    2  C   UNL     1     -12.305  15.770  71.282  1.00  0.00    -0.493 C  
HETATM    3  C   UNL     1     -13.638  15.748  72.056  1.00  0.00    -0.431 C  
HETATM    4  C   UNL     1     -13.893  14.241  72.267  1.00  0.00    -0.622 C  
HETATM    5  C   UNL     1     -12.665  13.586  71.603  1.00  0.00    -0.380 C  
HETATM    6  C   UNL     1     -11.576  14.604  71.954  1.00  0.00    -0.053 C  
HETATM    7  C   UNL     1     -12.823  13.748  70.082  1.00  0.00    -0.017 C  
HETATM    8  C   UNL     1     -11.743  13.065  69.293  1.00  0.00    -0.320 C  
HETATM    9  O   UNL     1     -11.546  11.859  69.291  1.00  0.00    -0.267 OA 
HETATM   10  N   UNL     1     -11.018  14.010  68.626  1.00  0.00    -0.254 N  
HETATM   11  O   UNL     1     -10.771  16.315  68.663  1.00  0.00    -0.273 OA 
HETATM   12  C   UNL     1     -11.359  15.289  68.976  1.00  0.00    -0.300 C  
ENDROOT
BRANCH  10  13
HETATM   13  C   UNL     1      -9.870  13.697  67.789  1.00  0.00    -0.232 C  
BRANCH  13  14
HETATM   14  C   UNL     1     -10.279  13.383  66.333  1.00  0.00    -0.293 C  
HETATM   15  C   UNL     1     -11.572  14.144  65.975  1.00  0.00    -0.364 C  
HETATM   16  C   UNL     1     -11.973  13.924  64.523  1.00  0.00    -0.464 C  
HETATM   17  C   UNL     1     -12.094  12.442  64.196  1.00  0.00    -0.539 C  
HETATM   18  C   UNL     1     -10.821  11.679  64.552  1.00  0.00    -0.383 C  
HETATM   19  C   UNL     1     -10.452  11.859  66.038  1.00  0.00    -0.282 C  
BRANCH  19  20
HETATM   20  C   UNL     1      -9.177  11.065  66.408  1.00  0.00    -0.175 C  
BRANCH  20  21
HETATM   21  N   UNL     1      -9.233   9.597  66.273  1.00  0.00    -0.158 NA 
HETATM   22  C   UNL     1      -7.993   8.992  66.838  1.00  0.00    -0.105 C  
HETATM   23  C   UNL     1      -7.831   9.205  68.357  1.00  0.00    -0.102 C  
HETATM   24  N   UNL     1      -8.998   8.713  69.107  1.00  0.00    -0.141 NA 
HETATM   25  C   UNL     1     -10.320   9.053  68.547  1.00  0.00    -0.203 C  
HETATM   26  C   UNL     1     -10.367   8.975  66.998  1.00  0.00    -0.269 C  
BRANCH  24  27
HETATM   27  C   UNL     1      -8.842   7.573  69.851  1.00  0.00    -0.141 A  
HETATM   28  N   UNL     1      -8.982   7.551  71.175  1.00  0.00    -0.142 NA 
HETATM   29  S   UNL     1      -8.873   6.003  71.719  1.00  0.00    -0.138 SA 
HETATM   30  C   UNL     1      -8.658   5.269  70.186  1.00  0.00    -0.117 A  
HETATM   31  C   UNL     1      -8.539   3.907  69.862  1.00  0.00    -0.104 A  
HETATM   32  C   UNL     1      -8.382   3.554  68.520  1.00  0.00    -0.093 A  
HETATM   33  C   UNL     1      -8.344   4.529  67.532  1.00  0.00    -0.100 A  
HETATM   34  C   UNL     1      -8.475   5.882  67.866  1.00  0.00    -0.107 A  
HETATM   35  C   UNL     1      -8.629   6.278  69.221  1.00  0.00    -0.124 A  
ENDBRANCH  24  27
ENDBRANCH  20  21
ENDBRANCH  19  20
ENDBRANCH  13  14
ENDBRANCH  10  13
TORSDOF 5
ENDMDL
MODEL       76
REMARK 921   NORMALIZED FREE ENERGY PREDICTED BY IDOCK:   -5.75 KCAL/MOL
REMARK 922        TOTAL FREE ENERGY PREDICTED BY IDOCK:   -9.15 KCAL/MOL
REMARK 923 INTER-LIGAND FREE ENERGY PREDICTED BY IDOCK:   -8.93 KCAL/MOL
REMARK 924 INTRA-LIGAND FREE ENERGY PREDICTED BY IDOCK:   -0.23 KCAL/MOL
REMARK 927      BINDING AFFINITY PREDICTED BY RF-SCORE:    0.00 PKD
ROOT
HETATM    1  C   UNL     1      -8.798  17.544  67.467  1.00  0.00    -0.229 C  
HETATM    2  C   UNL     1      -8.679  19.048  67.766  1.00  0.00    -0.328 C  
HETATM    3  C   UNL     1      -8.813  19.808  66.431  1.00  0.00    -0.428 C  
HETATM    4  C   UNL     1     -10.301  19.623  66.072  1.00  0.00    -0.620 C  
HETATM    5  C   UNL     1     -10.842  18.794  67.255  1.00  0.00    -0.408 C  
HETATM    6  C   UNL     1     -10.026  19.382  68.410  1.00  0.00    -0.527 C  
HETATM    7  C   UNL     1     -10.278  17.370  67.113  1.00  0.00    -0.323 C  
HETATM    8  C   UNL     1     -10.803  16.415  68.148  1.00  0.00    -0.346 C  
HETATM    9  O   UNL     1     -11.976  16.096  68.261  1.00  0.00    -0.107 OA 
HETATM   10  N   UNL     1      -9.767  16.007  68.938  1.00  0.00    -0.220 N  
HETATM   11  O   UNL     1      -7.574  16.640  69.343  1.00  0.00    -0.201 OA 
HETATM   12  C   UNL     1      -8.603  16.683  68.685  1.00  0.00    -0.253 C  
ENDROOT
BRANCH  10  13
HETATM   13  C   UNL     1      -9.927  15.101  70.065  1.00  0.00    -0.030 C  
BRANCH  13  14
HETATM   14  C   UNL     1     -11.400  14.986  70.515  1.00  0.00    -0.316 C  
HETATM   15  C   UNL     1     -11.600  15.727  71.853  1.00  0.00    -0.545 C  
HETATM   16  C   UNL     1     -13.055  15.706  72.299  1.00  0.00    -0.538 C  
HETATM   17  C   UNL     1     -13.597  14.285  72.367  1.00  0.00    -0.599 C  
HETATM   18  C   UNL     1     -13.400  13.540  71.048  1.00  0.00    -0.062 C  
HETATM   19  C   UNL     1     -11.915  13.517  70.632  1.00  0.00    -0.308 C  
BRANCH  19  20
HETATM   20  C   UNL     1     -11.708  12.741  69.310  1.00  0.00    -0.319 C  
BRANCH  20  21
HETATM   21  N   UNL     1     -12.350  11.417  69.196  1.00  0.00    -0.353 NA 
HETATM   22  C   UNL     1     -11.766  10.671  68.046  1.00  0.00     0.057 C  
HETATM   23  C   UNL     1     -10.271  10.330  68.218  1.00  0.00    -0.159 C  
HETATM   24  N   UNL     1     -10.019   9.582  69.461  1.00  0.00    -0.182 NA 
HETATM   25  C   UNL     1     -10.709  10.078  70.667  1.00  0.00    -0.254 C  
HETATM   26  C   UNL     1     -12.159  10.558  70.389  1.00  0.00    -0.329 C  
BRANCH  24  27
HETATM   27  C   UNL     1      -9.699   8.254  69.351  1.00  0.00    -0.177 A  
HETATM   28  N   UNL     1     -10.618   7.300  69.219  1.00  0.00    -0.222 NA 
HETATM   29  S   UNL     1      -9.881   5.851  68.966  1.00  0.00    -0.163 SA 
HETATM   30  C   UNL     1      -8.272   6.440  68.993  1.00  0.00    -0.115 A  
HETATM   31  C   UNL     1      -7.068   5.746  68.788  1.00  0.00    -0.073 A  
HETATM   32  C   UNL     1      -5.870   6.460  68.849  1.00  0.00    -0.021 A  
HETATM   33  C   UNL     1      -5.872   7.824  69.107  1.00  0.00    -0.030 A  
HETATM   34  C   UNL     1      -7.079   8.508  69.299  1.00  0.00    -0.059 A  
HETATM   35  C   UNL     1      -8.315   7.812  69.251  1.00  0.00    -0.136 A  
ENDBRANCH  24  27
ENDBRANCH  20  21
ENDBRANCH  19  20
ENDBRANCH  13  14
ENDBRANCH  10  13
TORSDOF 5
ENDMDL
MODEL       77
REMARK 921   NORMALIZED FREE ENERGY PREDICTED BY IDOCK:   -5.74 KCAL/MOL
REMARK 922        TOTAL FREE ENERGY PREDICTED BY IDOCK:   -9.14 KCAL/MOL
REMARK 923 INTER-LIGAND FREE ENERGY PREDICTED BY IDOCK:   -8.76 KCAL/MOL
REMARK 924 INTRA-LIGAND FREE ENERGY PREDICTED BY IDOCK:   -0.38 KCAL/MOL
REMARK 927      BINDING AFFINITY PREDICTED BY RF-SCORE:    0.00 PKD
ROOT
HETATM    1  C   UNL     1     -11.811   7.265  71.625  1.00  0.00    -0.330 C  
HETATM    2  C   UNL     1     -10.839   6.901  72.762  1.00  0.00    -0.305 C  
HETATM    3  C   UNL     1     -11.163   5.465  73.219  1.00  0.00    -0.322 C  
HETATM    4  C   UNL     1     -10.679   4.604  72.034  1.00  0.00    -0.072 C  
HETATM    5  C   UNL     1     -10.122   5.653  71.050  1.00  0.00    -0.266 C  
HETATM    6  C   UNL     1      -9.518   6.666  72.027  1.00  0.00    -0.148 C  
HETATM    7  C   UNL     1     -11.322   6.408  70.455  1.00  0.00    -0.453 C  
HETATM    8  C   UNL     1     -10.937   7.401  69.395  1.00  0.00    -0.108 C  
HETATM    9  O   UNL     1     -10.408   7.108  68.334  1.00  0.00    -0.182 OA 
HETATM   10  N   UNL     1     -11.242   8.657  69.836  1.00  0.00    -0.117 N  
HETATM   11  O   UNL     1     -11.828   9.671  71.836  1.00  0.00    -0.367 OA 
HETATM   12  C   UNL     1     -11.650   8.680  71.142  1.00  0.00    -0.281 C  
ENDROOT
BRANCH  10  13
HETATM   13  C   UNL     1     -10.970   9.863  69.069  1.00  0.00    -0.190 C  
BRANCH  13  14
HETATM   14  C   UNL     1      -9.456  10.087  68.854  1.00  0.00    -0.172 C  
HETATM   15  C   UNL     1      -8.685   9.729  70.140  1.00  0.00    -0.215 C  
HETATM   16  C   UNL     1      -7.180   9.862  69.952  1.00  0.00    -0.129 C  
HETATM   17  C   UNL     1      -6.801  11.248  69.448  1.00  0.00    -0.121 C  
HETATM   18  C   UNL     1      -7.564  11.615  68.177  1.00  0.00    -0.115 C  
HETATM   19  C   UNL     1      -9.089  11.533  68.392  1.00  0.00    -0.185 C  
BRANCH  19  20
HETATM   20  C   UNL     1      -9.865  11.930  67.114  1.00  0.00    -0.194 C  
BRANCH  20  21
HETATM   21  N   UNL     1     -10.892  12.981  67.246  1.00  0.00    -0.250 NA 
HETATM   22  C   UNL     1     -10.438  14.009  68.225  1.00  0.00    -0.244 C  
HETATM   23  C   UNL     1      -9.185  14.789  67.774  1.00  0.00    -0.194 C  
HETATM   24  N   UNL     1      -9.378  15.421  66.458  1.00  0.00    -0.260 NA 
HETATM   25  C   UNL     1     -10.023  14.587  65.426  1.00  0.00    -0.318 C  
HETATM   26  C   UNL     1     -11.172  13.704  65.983  1.00  0.00    -0.296 C  
BRANCH  24  27
HETATM   27  C   UNL     1      -9.512  16.784  66.420  1.00  0.00    -0.282 A  
HETATM   28  N   UNL     1     -10.533  17.392  65.818  1.00  0.00    -0.551 NA 
HETATM   29  S   UNL     1     -10.454  19.012  66.093  1.00  0.00    -0.431 SA 
HETATM   30  C   UNL     1      -9.046  18.979  67.070  1.00  0.00    -0.294 A  
HETATM   31  C   UNL     1      -8.397  20.037  67.728  1.00  0.00    -0.329 A  
HETATM   32  C   UNL     1      -7.258  19.750  68.484  1.00  0.00    -0.356 A  
HETATM   33  C   UNL     1      -6.781  18.449  68.580  1.00  0.00    -0.253 A  
HETATM   34  C   UNL     1      -7.444  17.402  67.929  1.00  0.00    -0.195 A  
HETATM   35  C   UNL     1      -8.600  17.657  67.146  1.00  0.00    -0.238 A  
ENDBRANCH  24  27
ENDBRANCH  20  21
ENDBRANCH  19  20
ENDBRANCH  13  14
ENDBRANCH  10  13
TORSDOF 5
ENDMDL
MODEL       78
REMARK 921   NORMALIZED FREE ENERGY PREDICTED BY IDOCK:   -5.70 KCAL/MOL
REMARK 922        TOTAL FREE ENERGY PREDICTED BY IDOCK:   -9.10 KCAL/MOL
REMARK 923 INTER-LIGAND FREE ENERGY PREDICTED BY IDOCK:   -8.11 KCAL/MOL
REMARK 924 INTRA-LIGAND FREE ENERGY PREDICTED BY IDOCK:   -0.98 KCAL/MOL
REMARK 927      BINDING AFFINITY PREDICTED BY RF-SCORE:    0.00 PKD
ROOT
HETATM    1  C   UNL     1     -11.497  14.820  66.963  1.00  0.00    -0.362 C  
HETATM    2  C   UNL     1     -10.640  15.839  66.190  1.00  0.00    -0.318 C  
HETATM    3  C   UNL     1     -10.424  17.063  67.101  1.00  0.00    -0.291 C  
HETATM    4  C   UNL     1      -9.466  16.527  68.184  1.00  0.00    -0.222 C  
HETATM    5  C   UNL     1      -9.238  15.065  67.751  1.00  0.00    -0.181 C  
HETATM    6  C   UNL     1      -9.243  15.217  66.228  1.00  0.00    -0.336 C  
HETATM    7  C   UNL     1     -10.538  14.293  68.034  1.00  0.00    -0.238 C  
HETATM    8  C   UNL     1     -10.431  12.821  67.753  1.00  0.00    -0.223 C  
HETATM    9  O   UNL     1      -9.679  12.059  68.339  1.00  0.00    -0.208 OA 
HETATM   10  N   UNL     1     -11.276  12.505  66.728  1.00  0.00    -0.280 N  
HETATM   11  O   UNL     1     -12.508  13.632  65.119  1.00  0.00    -0.424 OA 
HETATM   12  C   UNL     1     -11.848  13.606  66.148  1.00  0.00    -0.392 C  
ENDROOT
BRANCH  10  13
HETATM   13  C   UNL     1     -11.401  11.165  66.176  1.00  0.00     0.140 C  
BRANCH  13  14
HETATM   14  C   UNL     1     -10.108  10.705  65.465  1.00  0.00    -0.343 C  
HETATM   15  C   UNL     1     -10.186  11.043  63.963  1.00  0.00    -0.420 C  
HETATM   16  C   UNL     1      -8.901  10.676  63.234  1.00  0.00    -0.202 C  
HETATM   17  C   UNL     1      -8.532   9.216  63.454  1.00  0.00    -0.195 C  
HETATM   18  C   UNL     1      -8.457   8.869  64.939  1.00  0.00    -0.195 C  
HETATM   19  C   UNL     1      -9.783   9.190  65.660  1.00  0.00    -0.247 C  
BRANCH  19  20
HETATM   20  C   UNL     1      -9.719   8.815  67.160  1.00  0.00    -0.191 C  
BRANCH  20  21
HETATM   21  N   UNL     1      -9.212   7.472  67.500  1.00  0.00    -0.127 NA 
HETATM   22  C   UNL     1      -8.509   7.516  68.812  1.00  0.00    -0.129 C  
HETATM   23  C   UNL     1      -9.429   7.862  70.002  1.00  0.00    -0.157 C  
HETATM   24  N   UNL     1     -10.575   6.941  70.094  1.00  0.00    -0.212 NA 
HETATM   25  C   UNL     1     -11.255   6.625  68.824  1.00  0.00    -0.178 C  
HETATM   26  C   UNL     1     -10.278   6.450  67.632  1.00  0.00    -0.169 C  
BRANCH  24  27
HETATM   27  C   UNL     1     -10.581   6.034  71.120  1.00  0.00    -0.246 A  
HETATM   28  N   UNL     1     -11.186   6.265  72.283  1.00  0.00    -0.268 NA 
HETATM   29  S   UNL     1     -11.122   4.914  73.220  1.00  0.00    -0.347 SA 
HETATM   30  C   UNL     1     -10.293   3.928  72.090  1.00  0.00    -0.069 A  
HETATM   31  C   UNL     1      -9.926   2.576  72.192  1.00  0.00    -0.232 A  
HETATM   32  C   UNL     1      -9.259   1.985  71.117  1.00  0.00    -0.175 A  
HETATM   33  C   UNL     1      -8.968   2.720  69.975  1.00  0.00    -0.166 A  
HETATM   34  C   UNL     1      -9.349   4.064  69.880  1.00  0.00    -0.240 A  
HETATM   35  C   UNL     1     -10.022   4.699  70.957  1.00  0.00    -0.270 A  
ENDBRANCH  24  27
ENDBRANCH  20  21
ENDBRANCH  19  20
ENDBRANCH  13  14
ENDBRANCH  10  13
TORSDOF 5
ENDMDL
MODEL       79
REMARK 921   NORMALIZED FREE ENERGY PREDICTED BY IDOCK:   -5.70 KCAL/MOL
REMARK 922        TOTAL FREE ENERGY PREDICTED BY IDOCK:   -9.09 KCAL/MOL
REMARK 923 INTER-LIGAND FREE ENERGY PREDICTED BY IDOCK:   -7.56 KCAL/MOL
REMARK 924 INTRA-LIGAND FREE ENERGY PREDICTED BY IDOCK:   -1.53 KCAL/MOL
REMARK 927      BINDING AFFINITY PREDICTED BY RF-SCORE:    0.00 PKD
ROOT
HETATM    1  C   UNL     1     -11.245   8.773  70.524  1.00  0.00    -0.278 C  
HETATM    2  C   UNL     1     -11.612   9.174  71.963  1.00  0.00    -0.371 C  
HETATM    3  C   UNL     1     -13.106   9.552  71.983  1.00  0.00    -0.528 C  
HETATM    4  C   UNL     1     -13.812   8.195  71.790  1.00  0.00    -0.452 C  
HETATM    5  C   UNL     1     -12.635   7.202  71.700  1.00  0.00    -0.410 C  
HETATM    6  C   UNL     1     -11.657   7.832  72.696  1.00  0.00    -0.398 C  
HETATM    7  C   UNL     1     -11.948   7.425  70.342  1.00  0.00    -0.056 C  
HETATM    8  C   UNL     1     -10.835   6.453  70.069  1.00  0.00    -0.307 C  
HETATM    9  O   UNL     1     -10.984   5.246  69.960  1.00  0.00    -0.169 OA 
HETATM   10  N   UNL     1      -9.657   7.139  70.003  1.00  0.00    -0.165 N  
HETATM   11  O   UNL     1      -8.878   9.256  70.539  1.00  0.00    -0.206 OA 
HETATM   12  C   UNL     1      -9.785   8.456  70.353  1.00  0.00    -0.173 C  
ENDROOT
BRANCH  10  13
HETATM   13  C   UNL     1      -8.369   6.500  69.782  1.00  0.00    -0.127 C  
BRANCH  13  14
HETATM   14  C   UNL     1      -8.247   5.909  68.360  1.00  0.00    -0.109 C  
HETATM   15  C   UNL     1      -7.945   4.400  68.442  1.00  0.00    -0.078 C  
HETATM   16  C   UNL     1      -7.892   3.758  67.063  1.00  0.00    -0.084 C  
HETATM   17  C   UNL     1      -6.901   4.471  66.154  1.00  0.00    -0.058 C  
HETATM   18  C   UNL     1      -7.188   5.969  66.069  1.00  0.00    -0.075 C  
HETATM   19  C   UNL     1      -7.184   6.623  67.466  1.00  0.00    -0.090 C  
BRANCH  19  20
HETATM   20  C   UNL     1      -7.448   8.145  67.382  1.00  0.00    -0.093 C  
BRANCH  20  21
HETATM   21  N   UNL     1      -7.893   8.682  66.081  1.00  0.00    -0.096 NA 
HETATM   22  C   UNL     1      -9.331   9.063  66.159  1.00  0.00    -0.232 C  
HETATM   23  C   UNL     1      -9.619  10.219  67.140  1.00  0.00    -0.168 C  
HETATM   24  N   UNL     1      -8.814  11.413  66.829  1.00  0.00    -0.172 NA 
HETATM   25  C   UNL     1      -7.393  11.174  66.515  1.00  0.00    -0.129 C  
HETATM   26  C   UNL     1      -7.161   9.900  65.659  1.00  0.00    -0.113 C  
BRANCH  24  27
HETATM   27  C   UNL     1      -9.463  12.495  66.295  1.00  0.00    -0.210 A  
HETATM   28  N   UNL     1     -10.046  12.467  65.098  1.00  0.00    -0.274 NA 
HETATM   29  S   UNL     1     -10.850  13.879  64.839  1.00  0.00    -0.425 SA 
HETATM   30  C   UNL     1     -10.476  14.599  66.348  1.00  0.00    -0.295 A  
HETATM   31  C   UNL     1     -10.885  15.839  66.867  1.00  0.00    -0.265 A  
HETATM   32  C   UNL     1     -10.452  16.202  68.144  1.00  0.00    -0.279 A  
HETATM   33  C   UNL     1      -9.634  15.354  68.881  1.00  0.00    -0.220 A  
HETATM   34  C   UNL     1      -9.242  14.116  68.358  1.00  0.00    -0.203 A  
HETATM   35  C   UNL     1      -9.658  13.718  67.060  1.00  0.00    -0.251 A  
ENDBRANCH  24  27
ENDBRANCH  20  21
ENDBRANCH  19  20
ENDBRANCH  13  14
ENDBRANCH  10  13
TORSDOF 5
ENDMDL
MODEL       80
REMARK 921   NORMALIZED FREE ENERGY PREDICTED BY IDOCK:   -5.70 KCAL/MOL
REMARK 922        TOTAL FREE ENERGY PREDICTED BY IDOCK:   -9.08 KCAL/MOL
REMARK 923 INTER-LIGAND FREE ENERGY PREDICTED BY IDOCK:   -8.46 KCAL/MOL
REMARK 924 INTRA-LIGAND FREE ENERGY PREDICTED BY IDOCK:   -0.63 KCAL/MOL
REMARK 927      BINDING AFFINITY PREDICTED BY RF-SCORE:    0.00 PKD
ROOT
HETATM    1  C   UNL     1      -9.820   5.497  66.554  1.00  0.00    -0.194 C  
HETATM    2  C   UNL     1      -9.783   4.613  67.814  1.00  0.00    -0.205 C  
HETATM    3  C   UNL     1      -9.402   3.184  67.379  1.00  0.00    -0.232 C  
HETATM    4  C   UNL     1      -7.917   3.323  66.986  1.00  0.00    -0.079 C  
HETATM    5  C   UNL     1      -7.625   4.813  67.260  1.00  0.00    -0.086 C  
HETATM    6  C   UNL     1      -8.488   5.046  68.503  1.00  0.00    -0.091 C  
HETATM    7  C   UNL     1      -8.343   5.630  66.173  1.00  0.00    -0.120 C  
HETATM    8  C   UNL     1      -8.065   7.104  66.253  1.00  0.00    -0.118 C  
HETATM    9  O   UNL     1      -6.961   7.607  66.108  1.00  0.00    -0.063 OA 
HETATM   10  N   UNL     1      -9.227   7.758  66.544  1.00  0.00    -0.175 N  
HETATM   11  O   UNL     1     -11.355   7.212  67.284  1.00  0.00    -0.142 OA 
HETATM   12  C   UNL     1     -10.260   6.907  66.835  1.00  0.00    -0.240 C  
ENDROOT
BRANCH  10  13
HETATM   13  C   UNL     1      -9.313   9.199  66.727  1.00  0.00    -0.165 C  
BRANCH  13  14
HETATM   14  C   UNL     1      -9.902   9.909  65.488  1.00  0.00    -0.381 C  
HETATM   15  C   UNL     1      -9.020   9.630  64.254  1.00  0.00    -0.269 C  
HETATM   16  C   UNL     1      -9.604  10.248  62.991  1.00  0.00    -0.297 C  
HETATM   17  C   UNL     1      -9.857  11.739  63.165  1.00  0.00    -0.363 C  
HETATM   18  C   UNL     1     -10.725  12.026  64.388  1.00  0.00    -0.369 C  
HETATM   19  C   UNL     1     -10.099  11.447  65.672  1.00  0.00    -0.293 C  
BRANCH  19  20
HETATM   20  C   UNL     1     -10.964  11.759  66.917  1.00  0.00    -0.285 C  
BRANCH  20  21
HETATM   21  N   UNL     1     -10.268  12.282  68.109  1.00  0.00    -0.206 NA 
HETATM   22  C   UNL     1      -8.953  12.858  67.712  1.00  0.00    -0.191 C  
HETATM   23  C   UNL     1      -9.065  14.093  66.793  1.00  0.00    -0.247 C  
HETATM   24  N   UNL     1      -9.898  15.149  67.394  1.00  0.00    -0.223 NA 
HETATM   25  C   UNL     1     -11.153  14.702  68.027  1.00  0.00    -0.281 C  
HETATM   26  C   UNL     1     -11.007  13.365  68.801  1.00  0.00    -0.257 C  
BRANCH  24  27
HETATM   27  C   UNL     1      -9.268  16.279  67.843  1.00  0.00    -0.201 A  
HETATM   28  N   UNL     1      -8.260  16.245  68.712  1.00  0.00    -0.215 NA 
HETATM   29  S   UNL     1      -7.650  17.759  68.914  1.00  0.00    -0.169 SA 
HETATM   30  C   UNL     1      -8.701  18.544  67.811  1.00  0.00    -0.275 A  
HETATM   31  C   UNL     1      -8.729  19.893  67.419  1.00  0.00    -0.401 A  
HETATM   32  C   UNL     1      -9.686  20.293  66.483  1.00  0.00    -0.519 A  
HETATM   33  C   UNL     1     -10.587  19.376  65.956  1.00  0.00    -0.573 A  
HETATM   34  C   UNL     1     -10.540  18.033  66.347  1.00  0.00    -0.259 A  
HETATM   35  C   UNL     1      -9.586  17.592  67.301  1.00  0.00    -0.271 A  
ENDBRANCH  24  27
ENDBRANCH  20  21
ENDBRANCH  19  20
ENDBRANCH  13  14
ENDBRANCH  10  13
TORSDOF 5
ENDMDL
MODEL       81
REMARK 921   NORMALIZED FREE ENERGY PREDICTED BY IDOCK:   -5.69 KCAL/MOL
REMARK 922        TOTAL FREE ENERGY PREDICTED BY IDOCK:   -9.08 KCAL/MOL
REMARK 923 INTER-LIGAND FREE ENERGY PREDICTED BY IDOCK:   -8.18 KCAL/MOL
REMARK 924 INTRA-LIGAND FREE ENERGY PREDICTED BY IDOCK:   -0.90 KCAL/MOL
REMARK 927      BINDING AFFINITY PREDICTED BY RF-SCORE:    0.00 PKD
ROOT
HETATM    1  C   UNL     1      -8.461  18.161  67.236  1.00  0.00    -0.243 C  
HETATM    2  C   UNL     1      -9.362  19.160  67.982  1.00  0.00    -0.378 C  
HETATM    3  C   UNL     1      -9.399  20.466  67.165  1.00  0.00    -0.537 C  
HETATM    4  C   UNL     1     -10.231  20.078  65.925  1.00  0.00    -0.527 C  
HETATM    5  C   UNL     1     -10.582  18.601  66.193  1.00  0.00    -0.409 C  
HETATM    6  C   UNL     1     -10.770  18.626  67.713  1.00  0.00    -0.394 C  
HETATM    7  C   UNL     1      -9.294  17.781  66.009  1.00  0.00    -0.059 C  
HETATM    8  C   UNL     1      -9.506  16.299  66.141  1.00  0.00    -0.339 C  
HETATM    9  O   UNL     1     -10.210  15.633  65.398  1.00  0.00    -0.358 OA 
HETATM   10  N   UNL     1      -8.819  15.851  67.233  1.00  0.00    -0.190 N  
HETATM   11  O   UNL     1      -7.757  16.767  69.079  1.00  0.00    -0.240 OA 
HETATM   12  C   UNL     1      -8.277  16.865  67.977  1.00  0.00    -0.203 C  
ENDROOT
BRANCH  10  13
HETATM   13  C   UNL     1      -8.831  14.464  67.673  1.00  0.00    -0.193 C  
BRANCH  13  14
HETATM   14  C   UNL     1     -10.219  14.030  68.193  1.00  0.00    -0.243 C  
HETATM   15  C   UNL     1     -10.617  14.890  69.409  1.00  0.00    -0.255 C  
HETATM   16  C   UNL     1     -12.014  14.549  69.910  1.00  0.00    -0.382 C  
HETATM   17  C   UNL     1     -12.150  13.064  70.214  1.00  0.00    -0.388 C  
HETATM   18  C   UNL     1     -11.754  12.203  69.017  1.00  0.00    -0.377 C  
HETATM   19  C   UNL     1     -10.317  12.514  68.551  1.00  0.00    -0.233 C  
BRANCH  19  20
HETATM   20  C   UNL     1      -9.902  11.624  67.355  1.00  0.00    -0.183 C  
BRANCH  20  21
HETATM   21  N   UNL     1     -10.336  10.214  67.379  1.00  0.00    -0.222 NA 
HETATM   22  C   UNL     1     -10.403   9.683  65.989  1.00  0.00    -0.090 C  
HETATM   23  C   UNL     1      -9.035   9.624  65.277  1.00  0.00    -0.204 C  
HETATM   24  N   UNL     1      -8.050   8.847  66.047  1.00  0.00    -0.109 NA 
HETATM   25  C   UNL     1      -8.010   9.109  67.498  1.00  0.00    -0.100 C  
HETATM   26  C   UNL     1      -9.415   9.321  68.122  1.00  0.00    -0.138 C  
BRANCH  24  27
HETATM   27  C   UNL     1      -7.689   7.618  65.562  1.00  0.00    -0.101 A  
HETATM   28  N   UNL     1      -6.562   7.414  64.883  1.00  0.00    -0.043 NA 
HETATM   29  S   UNL     1      -6.377   5.807  64.584  1.00  0.00    -0.034 SA 
HETATM   30  C   UNL     1      -7.802   5.292  65.385  1.00  0.00    -0.094 A  
HETATM   31  C   UNL     1      -8.286   3.988  65.586  1.00  0.00    -0.109 A  
HETATM   32  C   UNL     1      -9.481   3.824  66.290  1.00  0.00    -0.190 A  
HETATM   33  C   UNL     1     -10.172   4.925  66.778  1.00  0.00    -0.274 A  
HETATM   34  C   UNL     1      -9.672   6.219  66.583  1.00  0.00    -0.195 A  
HETATM   35  C   UNL     1      -8.465   6.424  65.865  1.00  0.00    -0.147 A  
ENDBRANCH  24  27
ENDBRANCH  20  21
ENDBRANCH  19  20
ENDBRANCH  13  14
ENDBRANCH  10  13
TORSDOF 5
ENDMDL
MODEL       82
REMARK 921   NORMALIZED FREE ENERGY PREDICTED BY IDOCK:   -5.68 KCAL/MOL
REMARK 922        TOTAL FREE ENERGY PREDICTED BY IDOCK:   -9.06 KCAL/MOL
REMARK 923 INTER-LIGAND FREE ENERGY PREDICTED BY IDOCK:   -7.95 KCAL/MOL
REMARK 924 INTRA-LIGAND FREE ENERGY PREDICTED BY IDOCK:   -1.11 KCAL/MOL
REMARK 927      BINDING AFFINITY PREDICTED BY RF-SCORE:    0.00 PKD
ROOT
HETATM    1  C   UNL     1     -11.517  11.842  65.563  1.00  0.00    -0.311 C  
HETATM    2  C   UNL     1     -10.844  12.662  64.448  1.00  0.00    -0.386 C  
HETATM    3  C   UNL     1     -11.955  13.332  63.617  1.00  0.00    -0.547 C  
HETATM    4  C   UNL     1     -12.508  14.406  64.576  1.00  0.00    -0.362 C  
HETATM    5  C   UNL     1     -11.635  14.229  65.834  1.00  0.00    -0.358 C  
HETATM    6  C   UNL     1     -10.288  13.875  65.196  1.00  0.00    -0.403 C  
HETATM    7  C   UNL     1     -12.062  12.916  66.510  1.00  0.00    -0.375 C  
HETATM    8  C   UNL     1     -11.360  12.659  67.814  1.00  0.00    -0.297 C  
HETATM    9  O   UNL     1     -11.458  13.370  68.802  1.00  0.00    -0.261 OA 
HETATM   10  N   UNL     1     -10.587  11.541  67.686  1.00  0.00    -0.191 N  
HETATM   11  O   UNL     1      -9.802  10.192  65.973  1.00  0.00    -0.215 OA 
HETATM   12  C   UNL     1     -10.537  11.070  66.402  1.00  0.00    -0.251 C  
ENDROOT
BRANCH  10  13
HETATM   13  C   UNL     1      -9.744  11.024  68.753  1.00  0.00    -0.191 C  
BRANCH  13  14
HETATM   14  C   UNL     1      -8.276  10.852  68.304  1.00  0.00    -0.127 C  
HETATM   15  C   UNL     1      -7.746   9.477  68.757  1.00  0.00    -0.080 C  
HETATM   16  C   UNL     1      -6.324   9.231  68.270  1.00  0.00    -0.054 C  
HETATM   17  C   UNL     1      -5.387  10.352  68.696  1.00  0.00    -0.038 C  
HETATM   18  C   UNL     1      -5.906  11.720  68.258  1.00  0.00    -0.049 C  
HETATM   19  C   UNL     1      -7.324  11.986  68.802  1.00  0.00    -0.098 C  
BRANCH  19  20
HETATM   20  C   UNL     1      -7.842  13.382  68.382  1.00  0.00    -0.138 C  
BRANCH  20  21
HETATM   21  N   UNL     1      -7.884  14.428  69.421  1.00  0.00     0.027 NA 
HETATM   22  C   UNL     1      -6.553  15.090  69.523  1.00  0.00    -0.155 C  
HETATM   23  C   UNL     1      -6.142  15.865  68.253  1.00  0.00    -0.110 C  
HETATM   24  N   UNL     1      -7.155  16.863  67.869  1.00  0.00    -0.149 NA 
HETATM   25  C   UNL     1      -8.559  16.416  67.925  1.00  0.00    -0.175 C  
HETATM   26  C   UNL     1      -8.864  15.505  69.143  1.00  0.00    -0.253 C  
BRANCH  24  27
HETATM   27  C   UNL     1      -6.847  18.185  68.056  1.00  0.00    -0.208 A  
HETATM   28  N   UNL     1      -6.729  18.733  69.264  1.00  0.00    -0.283 NA 
HETATM   29  S   UNL     1      -6.211  20.288  69.118  1.00  0.00    -0.310 SA 
HETATM   30  C   UNL     1      -6.090  20.297  67.409  1.00  0.00    -0.199 A  
HETATM   31  C   UNL     1      -5.644  21.320  66.555  1.00  0.00    -0.319 A  
HETATM   32  C   UNL     1      -5.627  21.079  65.180  1.00  0.00    -0.259 A  
HETATM   33  C   UNL     1      -6.042  19.855  64.672  1.00  0.00    -0.316 A  
HETATM   34  C   UNL     1      -6.473  18.839  65.533  1.00  0.00    -0.317 A  
HETATM   35  C   UNL     1      -6.511  19.052  66.936  1.00  0.00    -0.195 A  
ENDBRANCH  24  27
ENDBRANCH  20  21
ENDBRANCH  19  20
ENDBRANCH  13  14
ENDBRANCH  10  13
TORSDOF 5
ENDMDL
MODEL       83
REMARK 921   NORMALIZED FREE ENERGY PREDICTED BY IDOCK:   -5.66 KCAL/MOL
REMARK 922        TOTAL FREE ENERGY PREDICTED BY IDOCK:   -9.04 KCAL/MOL
REMARK 923 INTER-LIGAND FREE ENERGY PREDICTED BY IDOCK:   -7.73 KCAL/MOL
REMARK 924 INTRA-LIGAND FREE ENERGY PREDICTED BY IDOCK:   -1.31 KCAL/MOL
REMARK 927      BINDING AFFINITY PREDICTED BY RF-SCORE:    0.00 PKD
ROOT
HETATM    1  C   UNL     1     -10.837  13.579  68.230  1.00  0.00    -0.277 C  
HETATM    2  C   UNL     1     -11.400  14.734  67.383  1.00  0.00    -0.361 C  
HETATM    3  C   UNL     1     -11.142  16.049  68.145  1.00  0.00    -0.344 C  
HETATM    4  C   UNL     1      -9.614  16.224  68.031  1.00  0.00    -0.224 C  
HETATM    5  C   UNL     1      -9.186  14.995  67.203  1.00  0.00    -0.229 C  
HETATM    6  C   UNL     1     -10.379  14.865  66.252  1.00  0.00    -0.302 C  
HETATM    7  C   UNL     1      -9.321  13.760  68.110  1.00  0.00    -0.211 C  
HETATM    8  C   UNL     1      -8.840  12.491  67.466  1.00  0.00    -0.184 C  
HETATM    9  O   UNL     1      -7.688  12.288  67.115  1.00  0.00    -0.160 OA 
HETATM   10  N   UNL     1      -9.900  11.643  67.314  1.00  0.00    -0.187 N  
HETATM   11  O   UNL     1     -12.212  11.760  67.435  1.00  0.00    -0.501 OA 
HETATM   12  C   UNL     1     -11.098  12.225  67.630  1.00  0.00    -0.268 C  
ENDROOT
BRANCH  10  13
HETATM   13  C   UNL     1      -9.795  10.332  66.692  1.00  0.00    -0.204 C  
BRANCH  13  14
HETATM   14  C   UNL     1      -9.245  10.414  65.251  1.00  0.00    -0.240 C  
HETATM   15  C   UNL     1     -10.355  10.889  64.292  1.00  0.00    -0.436 C  
HETATM   16  C   UNL     1      -9.838  11.059  62.869  1.00  0.00    -0.319 C  
HETATM   17  C   UNL     1      -9.176   9.785  62.362  1.00  0.00    -0.294 C  
HETATM   18  C   UNL     1      -8.079   9.302  63.308  1.00  0.00    -0.159 C  
HETATM   19  C   UNL     1      -8.622   9.079  64.734  1.00  0.00    -0.201 C  
BRANCH  19  20
HETATM   20  C   UNL     1      -7.519   8.565  65.688  1.00  0.00    -0.085 C  
BRANCH  20  21
HETATM   21  N   UNL     1      -7.392   7.103  65.849  1.00  0.00    -0.073 NA 
HETATM   22  C   UNL     1      -6.635   6.798  67.096  1.00  0.00    -0.047 C  
HETATM   23  C   UNL     1      -7.357   7.237  68.387  1.00  0.00    -0.103 C  
HETATM   24  N   UNL     1      -8.708   6.659  68.483  1.00  0.00    -0.124 NA 
HETATM   25  C   UNL     1      -9.517   6.694  67.249  1.00  0.00    -0.133 C  
HETATM   26  C   UNL     1      -8.692   6.402  65.968  1.00  0.00    -0.151 C  
BRANCH  24  27
HETATM   27  C   UNL     1      -8.914   5.672  69.410  1.00  0.00    -0.114 A  
HETATM   28  N   UNL     1      -8.123   4.607  69.517  1.00  0.00    -0.065 NA 
HETATM   29  S   UNL     1      -8.572   3.710  70.821  1.00  0.00    -0.074 SA 
HETATM   30  C   UNL     1      -9.848   4.732  71.334  1.00  0.00    -0.187 A  
HETATM   31  C   UNL     1     -10.682   4.616  72.458  1.00  0.00    -0.217 A  
HETATM   32  C   UNL     1     -11.654   5.596  72.670  1.00  0.00    -0.307 A  
HETATM   33  C   UNL     1     -11.790   6.660  71.787  1.00  0.00    -0.380 A  
HETATM   34  C   UNL     1     -10.945   6.771  70.676  1.00  0.00    -0.313 A  
HETATM   35  C   UNL     1      -9.951   5.789  70.426  1.00  0.00    -0.257 A  
ENDBRANCH  24  27
ENDBRANCH  20  21
ENDBRANCH  19  20
ENDBRANCH  13  14
ENDBRANCH  10  13
TORSDOF 5
ENDMDL
MODEL       84
REMARK 921   NORMALIZED FREE ENERGY PREDICTED BY IDOCK:   -5.66 KCAL/MOL
REMARK 922        TOTAL FREE ENERGY PREDICTED BY IDOCK:   -9.04 KCAL/MOL
REMARK 923 INTER-LIGAND FREE ENERGY PREDICTED BY IDOCK:   -8.57 KCAL/MOL
REMARK 924 INTRA-LIGAND FREE ENERGY PREDICTED BY IDOCK:   -0.47 KCAL/MOL
REMARK 927      BINDING AFFINITY PREDICTED BY RF-SCORE:    0.00 PKD
ROOT
HETATM    1  C   UNL     1      -9.639   4.910  68.228  1.00  0.00    -0.196 C  
HETATM    2  C   UNL     1      -8.832   4.011  69.182  1.00  0.00    -0.147 C  
HETATM    3  C   UNL     1      -9.524   2.635  69.235  1.00  0.00    -0.140 C  
HETATM    4  C   UNL     1      -9.231   2.044  67.841  1.00  0.00    -0.228 C  
HETATM    5  C   UNL     1      -8.393   3.149  67.166  1.00  0.00    -0.092 C  
HETATM    6  C   UNL     1      -7.588   3.664  68.363  1.00  0.00    -0.057 C  
HETATM    7  C   UNL     1      -9.341   4.316  66.849  1.00  0.00    -0.181 C  
HETATM    8  C   UNL     1      -8.680   5.434  66.093  1.00  0.00    -0.129 C  
HETATM    9  O   UNL     1      -8.204   5.324  64.973  1.00  0.00    -0.120 OA 
HETATM   10  N   UNL     1      -8.673   6.553  66.875  1.00  0.00    -0.113 N  
HETATM   11  O   UNL     1      -9.055   7.086  69.099  1.00  0.00    -0.137 OA 
HETATM   12  C   UNL     1      -9.109   6.315  68.151  1.00  0.00    -0.112 C  
ENDROOT
BRANCH  10  13
HETATM   13  C   UNL     1      -8.078   7.815  66.464  1.00  0.00    -0.111 C  
BRANCH  13  14
HETATM   14  C   UNL     1      -8.909   8.522  65.370  1.00  0.00    -0.173 C  
HETATM   15  C   UNL     1      -8.092   8.609  64.065  1.00  0.00    -0.163 C  
HETATM   16  C   UNL     1      -8.899   9.230  62.934  1.00  0.00    -0.185 C  
HETATM   17  C   UNL     1      -9.457  10.591  63.329  1.00  0.00    -0.360 C  
HETATM   18  C   UNL     1     -10.264  10.517  64.624  1.00  0.00    -0.364 C  
HETATM   19  C   UNL     1      -9.422   9.939  65.779  1.00  0.00    -0.280 C  
BRANCH  19  20
HETATM   20  C   UNL     1     -10.228   9.887  67.099  1.00  0.00    -0.228 C  
BRANCH  20  21
HETATM   21  N   UNL     1      -9.602  10.479  68.296  1.00  0.00    -0.154 NA 
HETATM   22  C   UNL     1      -9.076  11.835  67.971  1.00  0.00    -0.180 C  
HETATM   23  C   UNL     1     -10.171  12.856  67.599  1.00  0.00    -0.220 C  
HETATM   24  N   UNL     1     -11.194  12.971  68.651  1.00  0.00    -0.260 NA 
HETATM   25  C   UNL     1     -11.669  11.702  69.234  1.00  0.00    -0.331 C  
HETATM   26  C   UNL     1     -10.539  10.657  69.432  1.00  0.00    -0.239 C  
BRANCH  24  27
HETATM   27  C   UNL     1     -11.212  14.118  69.399  1.00  0.00    -0.255 A  
HETATM   28  N   UNL     1     -10.597  15.236  69.019  1.00  0.00    -0.235 NA 
HETATM   29  S   UNL     1     -10.947  16.449  70.074  1.00  0.00    -0.225 SA 
HETATM   30  C   UNL     1     -11.978  15.533  71.092  1.00  0.00    -0.382 A  
HETATM   31  C   UNL     1     -12.708  15.946  72.219  1.00  0.00    -0.515 A  
HETATM   32  C   UNL     1     -13.496  15.003  72.883  1.00  0.00    -0.565 A  
HETATM   33  C   UNL     1     -13.553  13.689  72.437  1.00  0.00    -0.703 A  
HETATM   34  C   UNL     1     -12.829  13.292  71.306  1.00  0.00    -0.398 A  
HETATM   35  C   UNL     1     -12.013  14.222  70.611  1.00  0.00    -0.392 A  
ENDBRANCH  24  27
ENDBRANCH  20  21
ENDBRANCH  19  20
ENDBRANCH  13  14
ENDBRANCH  10  13
TORSDOF 5
ENDMDL
MODEL       85
REMARK 921   NORMALIZED FREE ENERGY PREDICTED BY IDOCK:   -5.66 KCAL/MOL
REMARK 922        TOTAL FREE ENERGY PREDICTED BY IDOCK:   -9.03 KCAL/MOL
REMARK 923 INTER-LIGAND FREE ENERGY PREDICTED BY IDOCK:   -7.67 KCAL/MOL
REMARK 924 INTRA-LIGAND FREE ENERGY PREDICTED BY IDOCK:   -1.36 KCAL/MOL
REMARK 927      BINDING AFFINITY PREDICTED BY RF-SCORE:    0.00 PKD
ROOT
HETATM    1  C   UNL     1      -9.256   7.058  71.598  1.00  0.00    -0.144 C  
HETATM    2  C   UNL     1      -9.709   5.590  71.512  1.00  0.00    -0.201 C  
HETATM    3  C   UNL     1     -10.727   5.341  72.643  1.00  0.00    -0.290 C  
HETATM    4  C   UNL     1     -11.965   6.133  72.177  1.00  0.00    -0.314 C  
HETATM    5  C   UNL     1     -11.510   6.725  70.827  1.00  0.00    -0.392 C  
HETATM    6  C   UNL     1     -10.638   5.582  70.297  1.00  0.00    -0.357 C  
HETATM    7  C   UNL     1     -10.491   7.835  71.132  1.00  0.00    -0.227 C  
HETATM    8  C   UNL     1     -10.030   8.576  69.908  1.00  0.00    -0.189 C  
HETATM    9  O   UNL     1     -10.759   9.240  69.189  1.00  0.00    -0.224 OA 
HETATM   10  N   UNL     1      -8.696   8.347  69.730  1.00  0.00    -0.132 N  
HETATM   11  O   UNL     1      -7.086   6.895  70.550  1.00  0.00    -0.064 OA 
HETATM   12  C   UNL     1      -8.195   7.408  70.591  1.00  0.00    -0.112 C  
ENDROOT
BRANCH  10  13
HETATM   13  C   UNL     1      -7.932   8.889  68.617  1.00  0.00    -0.103 C  
BRANCH  13  14
HETATM   14  C   UNL     1      -8.071   8.028  67.342  1.00  0.00    -0.122 C  
HETATM   15  C   UNL     1      -6.801   7.177  67.142  1.00  0.00    -0.076 C  
HETATM   16  C   UNL     1      -6.923   6.254  65.937  1.00  0.00    -0.061 C  
HETATM   17  C   UNL     1      -7.275   7.028  64.674  1.00  0.00    -0.073 C  
HETATM   18  C   UNL     1      -8.528   7.879  64.864  1.00  0.00    -0.045 C  
HETATM   19  C   UNL     1      -8.375   8.852  66.051  1.00  0.00    -0.128 C  
BRANCH  19  20
HETATM   20  C   UNL     1      -9.634   9.734  66.228  1.00  0.00    -0.213 C  
BRANCH  20  21
HETATM   21  N   UNL     1      -9.530  11.149  65.822  1.00  0.00    -0.213 NA 
HETATM   22  C   UNL     1     -10.885  11.768  65.806  1.00  0.00    -0.291 C  
HETATM   23  C   UNL     1     -11.553  11.844  67.195  1.00  0.00    -0.290 C  
HETATM   24  N   UNL     1     -10.707  12.549  68.172  1.00  0.00    -0.219 NA 
HETATM   25  C   UNL     1      -9.275  12.194  68.165  1.00  0.00    -0.197 C  
HETATM   26  C   UNL     1      -8.706  11.972  66.738  1.00  0.00    -0.192 C  
BRANCH  24  27
HETATM   27  C   UNL     1     -11.101  13.798  68.571  1.00  0.00    -0.267 A  
HETATM   28  N   UNL     1     -11.717  14.024  69.730  1.00  0.00    -0.297 NA 
HETATM   29  S   UNL     1     -11.910  15.643  69.950  1.00  0.00    -0.354 SA 
HETATM   30  C   UNL     1     -11.143  16.133  68.498  1.00  0.00    -0.357 A  
HETATM   31  C   UNL     1     -10.887  17.430  68.023  1.00  0.00    -0.281 A  
HETATM   32  C   UNL     1     -10.227  17.571  66.800  1.00  0.00    -0.327 A  
HETATM   33  C   UNL     1      -9.836  16.454  66.074  1.00  0.00    -0.362 A  
HETATM   34  C   UNL     1     -10.087  15.167  66.563  1.00  0.00    -0.279 A  
HETATM   35  C   UNL     1     -10.761  14.985  67.799  1.00  0.00    -0.278 A  
ENDBRANCH  24  27
ENDBRANCH  20  21
ENDBRANCH  19  20
ENDBRANCH  13  14
ENDBRANCH  10  13
TORSDOF 5
ENDMDL
MODEL       86
REMARK 921   NORMALIZED FREE ENERGY PREDICTED BY IDOCK:   -5.65 KCAL/MOL
REMARK 922        TOTAL FREE ENERGY PREDICTED BY IDOCK:   -9.03 KCAL/MOL
REMARK 923 INTER-LIGAND FREE ENERGY PREDICTED BY IDOCK:   -8.15 KCAL/MOL
REMARK 924 INTRA-LIGAND FREE ENERGY PREDICTED BY IDOCK:   -0.88 KCAL/MOL
REMARK 927      BINDING AFFINITY PREDICTED BY RF-SCORE:    0.00 PKD
ROOT
HETATM    1  C   UNL     1      -9.579  14.210  66.569  1.00  0.00    -0.310 C  
HETATM    2  C   UNL     1     -10.148  15.619  66.811  1.00  0.00    -0.277 C  
HETATM    3  C   UNL     1     -10.180  16.355  65.457  1.00  0.00    -0.296 C  
HETATM    4  C   UNL     1     -11.308  15.631  64.693  1.00  0.00    -0.355 C  
HETATM    5  C   UNL     1     -11.794  14.579  65.710  1.00  0.00    -0.327 C  
HETATM    6  C   UNL     1     -11.642  15.358  67.019  1.00  0.00    -0.021 C  
HETATM    7  C   UNL     1     -10.704  13.499  65.812  1.00  0.00    -0.278 C  
HETATM    8  C   UNL     1     -11.085  12.347  66.699  1.00  0.00    -0.289 C  
HETATM    9  O   UNL     1     -12.020  11.591  66.484  1.00  0.00    -0.386 OA 
HETATM   10  N   UNL     1     -10.246  12.322  67.775  1.00  0.00    -0.199 N  
HETATM   11  O   UNL     1      -8.691  13.729  68.763  1.00  0.00    -0.095 OA 
HETATM   12  C   UNL     1      -9.420  13.412  67.834  1.00  0.00    -0.216 C  
ENDROOT
BRANCH  10  13
HETATM   13  C   UNL     1     -10.354  11.351  68.853  1.00  0.00    -0.184 C  
BRANCH  13  14
HETATM   14  C   UNL     1     -11.657  11.525  69.665  1.00  0.00    -0.403 C  
HETATM   15  C   UNL     1     -11.811  12.996  70.101  1.00  0.00    -0.324 C  
HETATM   16  C   UNL     1     -13.121  13.232  70.840  1.00  0.00    -0.076 C  
HETATM   17  C   UNL     1     -13.272  12.286  72.024  1.00  0.00    -0.508 C  
HETATM   18  C   UNL     1     -13.115  10.826  71.604  1.00  0.00    -0.551 C  
HETATM   19  C   UNL     1     -11.761  10.583  70.906  1.00  0.00    -0.431 C  
BRANCH  19  20
HETATM   20  C   UNL     1     -11.589   9.099  70.502  1.00  0.00    -0.197 C  
BRANCH  20  21
HETATM   21  N   UNL     1     -12.193   8.084  71.387  1.00  0.00    -0.306 NA 
HETATM   22  C   UNL     1     -12.113   6.743  70.742  1.00  0.00    -0.347 C  
HETATM   23  C   UNL     1     -10.671   6.231  70.544  1.00  0.00    -0.269 C  
HETATM   24  N   UNL     1      -9.919   6.208  71.809  1.00  0.00    -0.172 NA 
HETATM   25  C   UNL     1     -10.067   7.395  72.673  1.00  0.00    -0.208 C  
HETATM   26  C   UNL     1     -11.514   7.957  72.698  1.00  0.00    -0.395 C  
BRANCH  24  27
HETATM   27  C   UNL     1      -9.643   4.986  72.364  1.00  0.00    -0.145 A  
HETATM   28  N   UNL     1     -10.589   4.090  72.638  1.00  0.00    -0.148 NA 
HETATM   29  S   UNL     1      -9.894   2.691  73.154  1.00  0.00    -0.115 SA 
HETATM   30  C   UNL     1      -8.268   3.211  73.007  1.00  0.00    -0.079 A  
HETATM   31  C   UNL     1      -7.081   2.495  73.237  1.00  0.00    -0.032 A  
HETATM   32  C   UNL     1      -5.862   3.145  73.033  1.00  0.00    -0.008 A  
HETATM   33  C   UNL     1      -5.827   4.468  72.613  1.00  0.00    -0.012 A  
HETATM   34  C   UNL     1      -7.016   5.168  72.375  1.00  0.00    -0.079 A  
HETATM   35  C   UNL     1      -8.274   4.541  72.579  1.00  0.00    -0.109 A  
ENDBRANCH  24  27
ENDBRANCH  20  21
ENDBRANCH  19  20
ENDBRANCH  13  14
ENDBRANCH  10  13
TORSDOF 5
ENDMDL
MODEL       87
REMARK 921   NORMALIZED FREE ENERGY PREDICTED BY IDOCK:   -5.61 KCAL/MOL
REMARK 922        TOTAL FREE ENERGY PREDICTED BY IDOCK:   -8.98 KCAL/MOL
REMARK 923 INTER-LIGAND FREE ENERGY PREDICTED BY IDOCK:   -8.20 KCAL/MOL
REMARK 924 INTRA-LIGAND FREE ENERGY PREDICTED BY IDOCK:   -0.78 KCAL/MOL
REMARK 927      BINDING AFFINITY PREDICTED BY RF-SCORE:    0.00 PKD
ROOT
HETATM    1  C   UNL     1      -9.736  13.731  65.621  1.00  0.00    -0.136 C  
HETATM    2  C   UNL     1     -10.719  14.490  66.530  1.00  0.00    -0.312 C  
HETATM    3  C   UNL     1     -10.834  15.933  66.001  1.00  0.00    -0.226 C  
HETATM    4  C   UNL     1     -11.616  15.760  64.683  1.00  0.00    -0.218 C  
HETATM    5  C   UNL     1     -11.867  14.239  64.627  1.00  0.00    -0.459 C  
HETATM    6  C   UNL     1     -12.081  13.933  66.113  1.00  0.00    -0.478 C  
HETATM    7  C   UNL     1     -10.521  13.562  64.317  1.00  0.00    -0.258 C  
HETATM    8  C   UNL     1     -10.630  12.075  64.132  1.00  0.00    -0.355 C  
HETATM    9  O   UNL     1     -11.273  11.535  63.246  1.00  0.00    -0.329 OA 
HETATM   10  N   UNL     1      -9.930  11.454  65.127  1.00  0.00    -0.252 N  
HETATM   11  O   UNL     1      -8.966  12.031  67.155  1.00  0.00    -0.173 OA 
HETATM   12  C   UNL     1      -9.474  12.323  66.082  1.00  0.00    -0.217 C  
ENDROOT
BRANCH  10  13
HETATM   13  C   UNL     1      -9.852  10.009  65.270  1.00  0.00    -0.318 C  
BRANCH  13  14
HETATM   14  C   UNL     1      -8.467   9.458  64.862  1.00  0.00    -0.176 C  
HETATM   15  C   UNL     1      -8.498   9.000  63.390  1.00  0.00    -0.176 C  
HETATM   16  C   UNL     1      -7.132   8.519  62.919  1.00  0.00    -0.091 C  
HETATM   17  C   UNL     1      -6.582   7.427  63.827  1.00  0.00    -0.052 C  
HETATM   18  C   UNL     1      -6.553   7.869  65.288  1.00  0.00    -0.044 C  
HETATM   19  C   UNL     1      -7.951   8.301  65.774  1.00  0.00    -0.099 C  
BRANCH  19  20
HETATM   20  C   UNL     1      -7.930   8.723  67.263  1.00  0.00    -0.097 C  
BRANCH  20  21
HETATM   21  N   UNL     1      -8.781   7.958  68.194  1.00  0.00    -0.126 NA 
HETATM   22  C   UNL     1      -8.628   8.498  69.575  1.00  0.00    -0.131 C  
HETATM   23  C   UNL     1      -9.134   9.947  69.737  1.00  0.00    -0.225 C  
HETATM   24  N   UNL     1     -10.537  10.088  69.311  1.00  0.00    -0.213 NA 
HETATM   25  C   UNL     1     -10.902   9.416  68.049  1.00  0.00    -0.139 C  
HETATM   26  C   UNL     1     -10.227   8.030  67.876  1.00  0.00    -0.212 C  
BRANCH  24  27
HETATM   27  C   UNL     1     -11.481  10.279  70.284  1.00  0.00    -0.317 A  
HETATM   28  N   UNL     1     -11.920  11.486  70.637  1.00  0.00    -0.347 NA 
HETATM   29  S   UNL     1     -13.148  11.336  71.721  1.00  0.00    -0.309 SA 
HETATM   30  C   UNL     1     -13.175   9.623  71.752  1.00  0.00    -0.430 A  
HETATM   31  C   UNL     1     -14.038   8.761  72.450  1.00  0.00    -0.485 A  
HETATM   32  C   UNL     1     -13.865   7.383  72.302  1.00  0.00     0.024 A  
HETATM   33  C   UNL     1     -12.862   6.880  71.483  1.00  0.00    -0.384 A  
HETATM   34  C   UNL     1     -12.016   7.749  70.784  1.00  0.00    -0.168 A  
HETATM   35  C   UNL     1     -12.158   9.156  70.916  1.00  0.00    -0.270 A  
ENDBRANCH  24  27
ENDBRANCH  20  21
ENDBRANCH  19  20
ENDBRANCH  13  14
ENDBRANCH  10  13
TORSDOF 5
ENDMDL
MODEL       88
REMARK 921   NORMALIZED FREE ENERGY PREDICTED BY IDOCK:   -5.61 KCAL/MOL
REMARK 922        TOTAL FREE ENERGY PREDICTED BY IDOCK:   -8.97 KCAL/MOL
REMARK 923 INTER-LIGAND FREE ENERGY PREDICTED BY IDOCK:   -8.19 KCAL/MOL
REMARK 924 INTRA-LIGAND FREE ENERGY PREDICTED BY IDOCK:   -0.78 KCAL/MOL
REMARK 927      BINDING AFFINITY PREDICTED BY RF-SCORE:    0.00 PKD
ROOT
HETATM    1  C   UNL     1      -8.947   5.678  66.851  1.00  0.00    -0.112 C  
HETATM    2  C   UNL     1      -9.349   4.901  65.585  1.00  0.00    -0.167 C  
HETATM    3  C   UNL     1      -8.129   4.868  64.643  1.00  0.00    -0.111 C  
HETATM    4  C   UNL     1      -7.157   3.913  65.365  1.00  0.00    -0.063 C  
HETATM    5  C   UNL     1      -7.947   3.503  66.625  1.00  0.00    -0.088 C  
HETATM    6  C   UNL     1      -9.370   3.448  66.061  1.00  0.00    -0.148 C  
HETATM    7  C   UNL     1      -7.985   4.722  67.561  1.00  0.00    -0.094 C  
HETATM    8  C   UNL     1      -8.641   4.440  68.883  1.00  0.00    -0.084 C  
HETATM    9  O   UNL     1      -8.222   3.639  69.704  1.00  0.00    -0.053 OA 
HETATM   10  N   UNL     1      -9.776   5.192  68.982  1.00  0.00    -0.148 N  
HETATM   11  O   UNL     1     -11.116   6.458  67.575  1.00  0.00    -0.352 OA 
HETATM   12  C   UNL     1     -10.083   5.851  67.822  1.00  0.00    -0.159 C  
ENDROOT
BRANCH  10  13
HETATM   13  C   UNL     1     -10.675   5.140  70.125  1.00  0.00    -0.034 C  
BRANCH  13  14
HETATM   14  C   UNL     1     -10.072   5.824  71.372  1.00  0.00    -0.249 C  
HETATM   15  C   UNL     1      -9.693   4.760  72.422  1.00  0.00    -0.202 C  
HETATM   16  C   UNL     1      -9.023   5.382  73.640  1.00  0.00    -0.124 C  
HETATM   17  C   UNL     1      -9.884   6.480  74.250  1.00  0.00    -0.337 C  
HETATM   18  C   UNL     1     -10.269   7.536  73.216  1.00  0.00    -0.398 C  
HETATM   19  C   UNL     1     -10.998   6.906  72.012  1.00  0.00    -0.266 C  
BRANCH  19  20
HETATM   20  C   UNL     1     -11.412   7.977  70.975  1.00  0.00    -0.279 C  
BRANCH  20  21
HETATM   21  N   UNL     1     -11.021   9.373  71.252  1.00  0.00    -0.345 NA 
HETATM   22  C   UNL     1     -10.096   9.857  70.189  1.00  0.00    -0.255 C  
HETATM   23  C   UNL     1     -10.741   9.938  68.790  1.00  0.00    -0.220 C  
HETATM   24  N   UNL     1     -11.956  10.771  68.795  1.00  0.00    -0.429 NA 
HETATM   25  C   UNL     1     -12.885  10.556  69.921  1.00  0.00     0.142 C  
HETATM   26  C   UNL     1     -12.162  10.318  71.274  1.00  0.00    -0.395 C  
BRANCH  24  27
HETATM   27  C   UNL     1     -11.891  11.995  68.184  1.00  0.00    -0.286 A  
HETATM   28  N   UNL     1     -12.018  12.152  66.867  1.00  0.00    -0.609 NA 
HETATM   29  S   UNL     1     -12.037  13.755  66.498  1.00  0.00    -0.432 SA 
HETATM   30  C   UNL     1     -11.902  14.330  68.107  1.00  0.00    -0.339 A  
HETATM   31  C   UNL     1     -11.905  15.652  68.581  1.00  0.00    -0.306 A  
HETATM   32  C   UNL     1     -11.793  15.866  69.956  1.00  0.00    -0.322 A  
HETATM   33  C   UNL     1     -11.681  14.794  70.832  1.00  0.00    -0.360 A  
HETATM   34  C   UNL     1     -11.692  13.480  70.349  1.00  0.00    -0.201 A  
HETATM   35  C   UNL     1     -11.797  13.226  68.956  1.00  0.00    -0.365 A  
ENDBRANCH  24  27
ENDBRANCH  20  21
ENDBRANCH  19  20
ENDBRANCH  13  14
ENDBRANCH  10  13
TORSDOF 5
ENDMDL
MODEL       89
REMARK 921   NORMALIZED FREE ENERGY PREDICTED BY IDOCK:   -5.60 KCAL/MOL
REMARK 922        TOTAL FREE ENERGY PREDICTED BY IDOCK:   -8.96 KCAL/MOL
REMARK 923 INTER-LIGAND FREE ENERGY PREDICTED BY IDOCK:   -9.03 KCAL/MOL
REMARK 924 INTRA-LIGAND FREE ENERGY PREDICTED BY IDOCK:    0.07 KCAL/MOL
REMARK 927      BINDING AFFINITY PREDICTED BY RF-SCORE:    0.00 PKD
ROOT
HETATM    1  C   UNL     1      -8.607  17.761  67.296  1.00  0.00    -0.238 C  
HETATM    2  C   UNL     1      -9.138  18.954  68.111  1.00  0.00    -0.351 C  
HETATM    3  C   UNL     1      -8.927  20.231  67.274  1.00  0.00    -0.472 C  
HETATM    4  C   UNL     1      -9.959  20.076  66.137  1.00  0.00    -0.580 C  
HETATM    5  C   UNL     1     -10.645  18.737  66.473  1.00  0.00    -0.436 C  
HETATM    6  C   UNL     1     -10.656  18.800  68.003  1.00  0.00    -0.356 C  
HETATM    7  C   UNL     1      -9.637  17.615  66.173  1.00  0.00    -0.206 C  
HETATM    8  C   UNL     1     -10.204  16.236  66.359  1.00  0.00    -0.313 C  
HETATM    9  O   UNL     1     -11.130  15.777  65.709  1.00  0.00    -0.248 OA 
HETATM   10  N   UNL     1      -9.541  15.621  67.381  1.00  0.00    -0.216 N  
HETATM   11  O   UNL     1      -8.089  16.223  69.085  1.00  0.00    -0.235 OA 
HETATM   12  C   UNL     1      -8.682  16.457  68.042  1.00  0.00    -0.183 C  
ENDROOT
BRANCH  10  13
HETATM   13  C   UNL     1      -9.860  14.281  67.851  1.00  0.00    -0.226 C  
BRANCH  13  14
HETATM   14  C   UNL     1     -11.103  14.266  68.768  1.00  0.00    -0.276 C  
HETATM   15  C   UNL     1     -11.149  15.555  69.612  1.00  0.00    -0.280 C  
HETATM   16  C   UNL     1     -12.400  15.619  70.478  1.00  0.00    -0.443 C  
HETATM   17  C   UNL     1     -12.538  14.380  71.352  1.00  0.00    -0.426 C  
HETATM   18  C   UNL     1     -12.489  13.097  70.525  1.00  0.00    -0.322 C  
HETATM   19  C   UNL     1     -11.192  13.012  69.694  1.00  0.00    -0.080 C  
BRANCH  19  20
HETATM   20  C   UNL     1     -11.127  11.700  68.876  1.00  0.00    -0.232 C  
BRANCH  20  21
HETATM   21  N   UNL     1      -9.797  11.095  68.675  1.00  0.00    -0.198 NA 
HETATM   22  C   UNL     1      -9.626   9.936  69.596  1.00  0.00    -0.227 C  
HETATM   23  C   UNL     1     -10.596   8.769  69.316  1.00  0.00    -0.197 C  
HETATM   24  N   UNL     1     -10.502   8.301  67.922  1.00  0.00    -0.219 NA 
HETATM   25  C   UNL     1     -10.444   9.352  66.889  1.00  0.00    -0.211 C  
HETATM   26  C   UNL     1      -9.581  10.573  67.304  1.00  0.00    -0.163 C  
BRANCH  24  27
HETATM   27  C   UNL     1      -9.914   7.085  67.697  1.00  0.00    -0.154 A  
HETATM   28  N   UNL     1      -9.193   6.823  66.609  1.00  0.00    -0.154 NA 
HETATM   29  S   UNL     1      -8.519   5.328  66.736  1.00  0.00    -0.106 SA 
HETATM   30  C   UNL     1      -9.143   4.961  68.289  1.00  0.00    -0.114 A  
HETATM   31  C   UNL     1      -8.932   3.823  69.086  1.00  0.00    -0.176 A  
HETATM   32  C   UNL     1      -9.549   3.762  70.337  1.00  0.00    -0.262 A  
HETATM   33  C   UNL     1     -10.354   4.805  70.780  1.00  0.00    -0.184 A  
HETATM   34  C   UNL     1     -10.548   5.938  69.982  1.00  0.00    -0.364 A  
HETATM   35  C   UNL     1      -9.941   6.031  68.702  1.00  0.00    -0.183 A  
ENDBRANCH  24  27
ENDBRANCH  20  21
ENDBRANCH  19  20
ENDBRANCH  13  14
ENDBRANCH  10  13
TORSDOF 5
ENDMDL
MODEL       90
REMARK 921   NORMALIZED FREE ENERGY PREDICTED BY IDOCK:   -5.59 KCAL/MOL
REMARK 922        TOTAL FREE ENERGY PREDICTED BY IDOCK:   -8.95 KCAL/MOL
REMARK 923 INTER-LIGAND FREE ENERGY PREDICTED BY IDOCK:   -8.32 KCAL/MOL
REMARK 924 INTRA-LIGAND FREE ENERGY PREDICTED BY IDOCK:   -0.63 KCAL/MOL
REMARK 927      BINDING AFFINITY PREDICTED BY RF-SCORE:    0.00 PKD
ROOT
HETATM    1  C   UNL     1     -10.076  18.031  68.657  1.00  0.00    -0.401 C  
HETATM    2  C   UNL     1     -10.764  18.942  67.625  1.00  0.00    -0.469 C  
HETATM    3  C   UNL     1     -10.028  20.296  67.623  1.00  0.00    -0.551 C  
HETATM    4  C   UNL     1      -8.675  19.956  66.966  1.00  0.00    -0.402 C  
HETATM    5  C   UNL     1      -8.809  18.451  66.657  1.00  0.00    -0.297 C  
HETATM    6  C   UNL     1     -10.293  18.370  66.287  1.00  0.00    -0.440 C  
HETATM    7  C   UNL     1      -8.736  17.698  67.995  1.00  0.00    -0.253 C  
HETATM    8  C   UNL     1      -8.752  16.204  67.841  1.00  0.00    -0.174 C  
HETATM    9  O   UNL     1      -7.890  15.559  67.265  1.00  0.00    -0.167 OA 
HETATM   10  N   UNL     1      -9.891  15.714  68.414  1.00  0.00    -0.204 N  
HETATM   11  O   UNL     1     -11.904  16.550  69.202  1.00  0.00    -0.070 OA 
HETATM   12  C   UNL     1     -10.755  16.698  68.813  1.00  0.00    -0.342 C  
ENDROOT
BRANCH  10  13
HETATM   13  C   UNL     1     -10.243  14.302  68.416  1.00  0.00    -0.245 C  
BRANCH  13  14
HETATM   14  C   UNL     1     -10.545  13.775  66.996  1.00  0.00    -0.278 C  
HETATM   15  C   UNL     1     -11.023  14.933  66.097  1.00  0.00    -0.334 C  
HETATM   16  C   UNL     1     -11.260  14.475  64.664  1.00  0.00    -0.359 C  
HETATM   17  C   UNL     1     -12.223  13.297  64.608  1.00  0.00    -0.460 C  
HETATM   18  C   UNL     1     -11.762  12.146  65.500  1.00  0.00    -0.384 C  
HETATM   19  C   UNL     1     -11.578  12.605  66.961  1.00  0.00    -0.431 C  
BRANCH  19  20
HETATM   20  C   UNL     1     -11.137  11.435  67.872  1.00  0.00    -0.261 C  
BRANCH  20  21
HETATM   21  N   UNL     1     -10.250  10.415  67.279  1.00  0.00    -0.200 NA 
HETATM   22  C   UNL     1      -8.865  10.588  67.799  1.00  0.00    -0.125 C  
HETATM   23  C   UNL     1      -8.732  10.339  69.316  1.00  0.00    -0.174 C  
HETATM   24  N   UNL     1      -9.232   9.008  69.698  1.00  0.00    -0.153 NA 
HETATM   25  C   UNL     1     -10.511   8.596  69.088  1.00  0.00    -0.211 C  
HETATM   26  C   UNL     1     -10.645   9.023  67.602  1.00  0.00    -0.231 C  
BRANCH  24  27
HETATM   27  C   UNL     1      -8.311   8.062  70.064  1.00  0.00    -0.123 A  
HETATM   28  N   UNL     1      -8.055   7.758  71.335  1.00  0.00    -0.096 NA 
HETATM   29  S   UNL     1      -7.012   6.488  71.402  1.00  0.00    -0.077 SA 
HETATM   30  C   UNL     1      -6.871   6.258  69.710  1.00  0.00    -0.065 A  
HETATM   31  C   UNL     1      -6.153   5.278  69.004  1.00  0.00    -0.025 A  
HETATM   32  C   UNL     1      -6.204   5.292  67.609  1.00  0.00    -0.038 A  
HETATM   33  C   UNL     1      -6.949   6.254  66.938  1.00  0.00    -0.071 A  
HETATM   34  C   UNL     1      -7.670   7.218  67.653  1.00  0.00    -0.112 A  
HETATM   35  C   UNL     1      -7.634   7.238  69.072  1.00  0.00    -0.099 A  
ENDBRANCH  24  27
ENDBRANCH  20  21
ENDBRANCH  19  20
ENDBRANCH  13  14
ENDBRANCH  10  13
TORSDOF 5
ENDMDL
MODEL       91
REMARK 921   NORMALIZED FREE ENERGY PREDICTED BY IDOCK:   -5.53 KCAL/MOL
REMARK 922        TOTAL FREE ENERGY PREDICTED BY IDOCK:   -8.87 KCAL/MOL
REMARK 923 INTER-LIGAND FREE ENERGY PREDICTED BY IDOCK:   -8.28 KCAL/MOL
REMARK 924 INTRA-LIGAND FREE ENERGY PREDICTED BY IDOCK:   -0.59 KCAL/MOL
REMARK 927      BINDING AFFINITY PREDICTED BY RF-SCORE:    0.00 PKD
ROOT
HETATM    1  C   UNL     1     -10.677  16.587  66.472  1.00  0.00    -0.144 C  
HETATM    2  C   UNL     1      -9.178  16.936  66.454  1.00  0.00    -0.308 C  
HETATM    3  C   UNL     1      -8.971  18.182  67.338  1.00  0.00    -0.256 C  
HETATM    4  C   UNL     1      -9.204  17.641  68.763  1.00  0.00    -0.215 C  
HETATM    5  C   UNL     1      -9.499  16.146  68.522  1.00  0.00    -0.216 C  
HETATM    6  C   UNL     1      -8.560  15.858  67.347  1.00  0.00    -0.189 C  
HETATM    7  C   UNL     1     -10.897  16.050  67.889  1.00  0.00    -0.333 C  
HETATM    8  C   UNL     1     -11.366  14.637  67.688  1.00  0.00    -0.336 C  
HETATM    9  O   UNL     1     -11.560  13.838  68.592  1.00  0.00    -0.287 OA 
HETATM   10  N   UNL     1     -11.496  14.401  66.349  1.00  0.00    -0.351 N  
HETATM   11  O   UNL     1     -10.867  15.422  64.365  1.00  0.00    -0.215 OA 
HETATM   12  C   UNL     1     -11.024  15.429  65.578  1.00  0.00    -0.343 C  
ENDROOT
BRANCH  10  13
HETATM   13  C   UNL     1     -11.902  13.118  65.797  1.00  0.00    -0.397 C  
BRANCH  13  14
HETATM   14  C   UNL     1     -10.714  12.347  65.180  1.00  0.00    -0.327 C  
HETATM   15  C   UNL     1     -10.944  12.152  63.668  1.00  0.00    -0.527 C  
HETATM   16  C   UNL     1      -9.761  11.463  63.001  1.00  0.00    -0.393 C  
HETATM   17  C   UNL     1      -9.426  10.144  63.685  1.00  0.00    -0.320 C  
HETATM   18  C   UNL     1      -9.202  10.326  65.185  1.00  0.00    -0.252 C  
HETATM   19  C   UNL     1     -10.426  10.973  65.863  1.00  0.00    -0.300 C  
BRANCH  19  20
HETATM   20  C   UNL     1     -10.212  11.134  67.387  1.00  0.00    -0.190 C  
BRANCH  20  21
HETATM   21  N   UNL     1     -11.182  10.470  68.279  1.00  0.00    -0.294 NA 
HETATM   22  C   UNL     1     -11.248   9.017  67.958  1.00  0.00     0.441 C  
HETATM   23  C   UNL     1      -9.933   8.257  68.232  1.00  0.00    -0.191 C  
HETATM   24  N   UNL     1      -9.480   8.429  69.622  1.00  0.00    -0.165 NA 
HETATM   25  C   UNL     1      -9.557   9.799  70.164  1.00  0.00    -0.237 C  
HETATM   26  C   UNL     1     -10.830  10.565  69.716  1.00  0.00    -0.281 C  
BRANCH  24  27
HETATM   27  C   UNL     1      -9.583   7.352  70.462  1.00  0.00    -0.172 A  
HETATM   28  N   UNL     1      -9.938   7.466  71.740  1.00  0.00    -0.171 NA 
HETATM   29  S   UNL     1     -10.103   5.971  72.406  1.00  0.00    -0.177 SA 
HETATM   30  C   UNL     1      -9.729   5.081  70.990  1.00  0.00    -0.184 A  
HETATM   31  C   UNL     1      -9.721   3.691  70.791  1.00  0.00    -0.222 A  
HETATM   32  C   UNL     1      -9.389   3.202  69.526  1.00  0.00    -0.228 A  
HETATM   33  C   UNL     1      -9.076   4.073  68.491  1.00  0.00    -0.189 A  
HETATM   34  C   UNL     1      -9.099   5.458  68.698  1.00  0.00    -0.130 A  
HETATM   35  C   UNL     1      -9.424   5.989  69.974  1.00  0.00    -0.180 A  
ENDBRANCH  24  27
ENDBRANCH  20  21
ENDBRANCH  19  20
ENDBRANCH  13  14
ENDBRANCH  10  13
TORSDOF 5
ENDMDL
MODEL       92
REMARK 921   NORMALIZED FREE ENERGY PREDICTED BY IDOCK:   -5.49 KCAL/MOL
REMARK 922        TOTAL FREE ENERGY PREDICTED BY IDOCK:   -8.82 KCAL/MOL
REMARK 923 INTER-LIGAND FREE ENERGY PREDICTED BY IDOCK:   -8.80 KCAL/MOL
REMARK 924 INTRA-LIGAND FREE ENERGY PREDICTED BY IDOCK:   -0.02 KCAL/MOL
REMARK 927      BINDING AFFINITY PREDICTED BY RF-SCORE:    0.00 PKD
ROOT
HETATM    1  C   UNL     1      -9.030   6.494  66.031  1.00  0.00    -0.139 C  
HETATM    2  C   UNL     1      -8.626   5.467  67.103  1.00  0.00    -0.108 C  
HETATM    3  C   UNL     1      -7.884   4.314  66.398  1.00  0.00    -0.094 C  
HETATM    4  C   UNL     1      -6.545   4.961  65.988  1.00  0.00    -0.045 C  
HETATM    5  C   UNL     1      -6.678   6.401  66.523  1.00  0.00    -0.056 C  
HETATM    6  C   UNL     1      -7.459   6.151  67.817  1.00  0.00    -0.089 C  
HETATM    7  C   UNL     1      -7.696   7.131  65.631  1.00  0.00    -0.102 C  
HETATM    8  C   UNL     1      -7.856   8.585  65.973  1.00  0.00    -0.098 C  
HETATM    9  O   UNL     1      -6.965   9.416  65.888  1.00  0.00    -0.087 OA 
HETATM   10  N   UNL     1      -9.129   8.797  66.420  1.00  0.00    -0.165 N  
HETATM   11  O   UNL     1     -10.930   7.515  67.117  1.00  0.00    -0.293 OA 
HETATM   12  C   UNL     1      -9.837   7.637  66.583  1.00  0.00    -0.213 C  
ENDROOT
BRANCH  10  13
HETATM   13  C   UNL     1      -9.616  10.092  66.869  1.00  0.00    -0.175 C  
BRANCH  13  14
HETATM   14  C   UNL     1     -10.582  10.736  65.850  1.00  0.00    -0.216 C  
HETATM   15  C   UNL     1      -9.957  10.704  64.441  1.00  0.00    -0.415 C  
HETATM   16  C   UNL     1     -10.907  11.260  63.389  1.00  0.00    -0.311 C  
HETATM   17  C   UNL     1     -11.382  12.660  63.751  1.00  0.00    -0.529 C  
HETATM   18  C   UNL     1     -11.998  12.704  65.148  1.00  0.00    -0.474 C  
HETATM   19  C   UNL     1     -11.010  12.192  66.216  1.00  0.00    -0.332 C  
BRANCH  19  20
HETATM   20  C   UNL     1     -11.622  12.261  67.635  1.00  0.00    -0.354 C  
BRANCH  20  21
HETATM   21  N   UNL     1     -10.752  12.747  68.723  1.00  0.00    -0.238 NA 
HETATM   22  C   UNL     1      -9.410  13.094  68.178  1.00  0.00    -0.217 C  
HETATM   23  C   UNL     1      -9.426  14.271  67.180  1.00  0.00    -0.227 C  
HETATM   24  N   UNL     1     -10.040  15.475  67.765  1.00  0.00    -0.230 NA 
HETATM   25  C   UNL     1     -11.283  15.263  68.530  1.00  0.00    -0.303 C  
HETATM   26  C   UNL     1     -11.260  13.970  69.389  1.00  0.00    -0.237 C  
BRANCH  24  27
HETATM   27  C   UNL     1      -9.215  16.524  68.074  1.00  0.00    -0.214 A  
HETATM   28  N   UNL     1      -8.034  16.361  68.666  1.00  0.00    -0.207 NA 
HETATM   29  S   UNL     1      -7.252  17.806  68.751  1.00  0.00    -0.260 SA 
HETATM   30  C   UNL     1      -8.460  18.732  67.963  1.00  0.00    -0.292 A  
HETATM   31  C   UNL     1      -8.455  20.096  67.626  1.00  0.00    -0.357 A  
HETATM   32  C   UNL     1      -9.568  20.621  66.966  1.00  0.00    -0.484 A  
HETATM   33  C   UNL     1     -10.653  19.812  66.654  1.00  0.00    -0.578 A  
HETATM   34  C   UNL     1     -10.641  18.452  66.985  1.00  0.00    -0.400 A  
HETATM   35  C   UNL     1      -9.529  17.885  67.662  1.00  0.00    -0.260 A  
ENDBRANCH  24  27
ENDBRANCH  20  21
ENDBRANCH  19  20
ENDBRANCH  13  14
ENDBRANCH  10  13
TORSDOF 5
ENDMDL
MODEL       93
REMARK 921   NORMALIZED FREE ENERGY PREDICTED BY IDOCK:   -5.49 KCAL/MOL
REMARK 922        TOTAL FREE ENERGY PREDICTED BY IDOCK:   -8.81 KCAL/MOL
REMARK 923 INTER-LIGAND FREE ENERGY PREDICTED BY IDOCK:   -8.23 KCAL/MOL
REMARK 924 INTRA-LIGAND FREE ENERGY PREDICTED BY IDOCK:   -0.58 KCAL/MOL
REMARK 927      BINDING AFFINITY PREDICTED BY RF-SCORE:    0.00 PKD
ROOT
HETATM    1  C   UNL     1      -8.540   7.223  67.178  1.00  0.00    -0.121 C  
HETATM    2  C   UNL     1      -8.470   6.948  65.666  1.00  0.00    -0.141 C  
HETATM    3  C   UNL     1      -7.206   7.639  65.117  1.00  0.00    -0.069 C  
HETATM    4  C   UNL     1      -6.061   6.783  65.698  1.00  0.00    -0.035 C  
HETATM    5  C   UNL     1      -6.812   5.697  66.495  1.00  0.00    -0.059 C  
HETATM    6  C   UNL     1      -8.035   5.483  65.599  1.00  0.00    -0.109 C  
HETATM    7  C   UNL     1      -7.402   6.369  67.745  1.00  0.00    -0.088 C  
HETATM    8  C   UNL     1      -8.082   5.406  68.677  1.00  0.00    -0.091 C  
HETATM    9  O   UNL     1      -7.518   4.491  69.256  1.00  0.00    -0.055 OA 
HETATM   10  N   UNL     1      -9.413   5.706  68.728  1.00  0.00    -0.123 N  
HETATM   11  O   UNL     1     -10.919   7.008  67.539  1.00  0.00    -0.262 OA 
HETATM   12  C   UNL     1      -9.780   6.665  67.822  1.00  0.00    -0.123 C  
ENDROOT
BRANCH  10  13
HETATM   13  C   UNL     1     -10.376   4.948  69.512  1.00  0.00    -0.084 C  
BRANCH  13  14
HETATM   14  C   UNL     1     -10.188   5.163  71.031  1.00  0.00    -0.295 C  
HETATM   15  C   UNL     1     -10.162   3.802  71.754  1.00  0.00    -0.098 C  
HETATM   16  C   UNL     1      -9.902   3.960  73.246  1.00  0.00    -0.167 C  
HETATM   17  C   UNL     1     -10.904   4.909  73.889  1.00  0.00    -0.355 C  
HETATM   18  C   UNL     1     -10.941   6.259  73.176  1.00  0.00    -0.251 C  
HETATM   19  C   UNL     1     -11.261   6.096  71.676  1.00  0.00    -0.342 C  
BRANCH  19  20
HETATM   20  C   UNL     1     -11.326   7.464  70.957  1.00  0.00    -0.275 C  
BRANCH  20  21
HETATM   21  N   UNL     1     -11.309   8.673  71.802  1.00  0.00    -0.299 NA 
HETATM   22  C   UNL     1     -10.200   9.572  71.373  1.00  0.00    -0.100 C  
HETATM   23  C   UNL     1     -10.371  10.135  69.947  1.00  0.00    -0.261 C  
HETATM   24  N   UNL     1     -11.656  10.836  69.785  1.00  0.00    -0.289 NA 
HETATM   25  C   UNL     1     -12.838  10.162  70.357  1.00  0.00    -0.093 C  
HETATM   26  C   UNL     1     -12.552   9.476  71.719  1.00  0.00    -0.405 C  
BRANCH  24  27
HETATM   27  C   UNL     1     -11.628  12.201  69.682  1.00  0.00    -0.291 A  
HETATM   28  N   UNL     1     -11.122  12.834  68.625  1.00  0.00    -0.252 NA 
HETATM   29  S   UNL     1     -11.385  14.452  68.768  1.00  0.00    -0.291 SA 
HETATM   30  C   UNL     1     -12.226  14.384  70.259  1.00  0.00    -0.334 A  
HETATM   31  C   UNL     1     -12.819  15.425  70.993  1.00  0.00    -0.525 A  
HETATM   32  C   UNL     1     -13.466  15.111  72.190  1.00  0.00    -0.525 A  
HETATM   33  C   UNL     1     -13.521  13.798  72.641  1.00  0.00    -0.638 A  
HETATM   34  C   UNL     1     -12.937  12.768  71.895  1.00  0.00    -0.400 A  
HETATM   35  C   UNL     1     -12.264  13.052  70.678  1.00  0.00    -0.390 A  
ENDBRANCH  24  27
ENDBRANCH  20  21
ENDBRANCH  19  20
ENDBRANCH  13  14
ENDBRANCH  10  13
TORSDOF 5
ENDMDL
MODEL       94
REMARK 921   NORMALIZED FREE ENERGY PREDICTED BY IDOCK:   -5.48 KCAL/MOL
REMARK 922        TOTAL FREE ENERGY PREDICTED BY IDOCK:   -8.80 KCAL/MOL
REMARK 923 INTER-LIGAND FREE ENERGY PREDICTED BY IDOCK:   -7.61 KCAL/MOL
REMARK 924 INTRA-LIGAND FREE ENERGY PREDICTED BY IDOCK:   -1.19 KCAL/MOL
REMARK 927      BINDING AFFINITY PREDICTED BY RF-SCORE:    0.00 PKD
ROOT
HETATM    1  C   UNL     1     -10.570   6.441  71.506  1.00  0.00    -0.273 C  
HETATM    2  C   UNL     1     -11.967   6.765  70.947  1.00  0.00    -0.437 C  
HETATM    3  C   UNL     1     -12.747   7.529  72.035  1.00  0.00    -0.246 C  
HETATM    4  C   UNL     1     -12.041   8.900  72.072  1.00  0.00    -0.442 C  
HETATM    5  C   UNL     1     -10.953   8.758  70.988  1.00  0.00    -0.328 C  
HETATM    6  C   UNL     1     -11.691   7.898  69.957  1.00  0.00     0.251 C  
HETATM    7  C   UNL     1      -9.878   7.807  71.538  1.00  0.00    -0.200 C  
HETATM    8  C   UNL     1      -8.695   7.651  70.624  1.00  0.00    -0.140 C  
HETATM    9  O   UNL     1      -7.940   8.558  70.310  1.00  0.00    -0.094 OA 
HETATM   10  N   UNL     1      -8.640   6.357  70.190  1.00  0.00    -0.134 N  
HETATM   11  O   UNL     1     -10.023   4.497  70.181  1.00  0.00    -0.217 OA 
HETATM   12  C   UNL     1      -9.732   5.622  70.563  1.00  0.00    -0.180 C  
ENDROOT
BRANCH  10  13
HETATM   13  C   UNL     1      -7.633   5.866  69.262  1.00  0.00    -0.089 C  
BRANCH  13  14
HETATM   14  C   UNL     1      -8.253   5.389  67.930  1.00  0.00    -0.099 C  
HETATM   15  C   UNL     1      -7.961   3.889  67.722  1.00  0.00    -0.089 C  
HETATM   16  C   UNL     1      -8.619   3.355  66.457  1.00  0.00    -0.115 C  
HETATM   17  C   UNL     1      -8.220   4.171  65.234  1.00  0.00    -0.102 C  
HETATM   18  C   UNL     1      -8.501   5.659  65.432  1.00  0.00    -0.147 C  
HETATM   19  C   UNL     1      -7.785   6.206  66.684  1.00  0.00    -0.103 C  
BRANCH  19  20
HETATM   20  C   UNL     1      -8.046   7.719  66.872  1.00  0.00    -0.116 C  
BRANCH  20  21
HETATM   21  N   UNL     1      -8.884   8.391  65.860  1.00  0.00    -0.167 NA 
HETATM   22  C   UNL     1     -10.147   8.869  66.488  1.00  0.00    -0.286 C  
HETATM   23  C   UNL     1      -9.938   9.960  67.560  1.00  0.00    -0.185 C  
HETATM   24  N   UNL     1      -9.191  11.113  67.028  1.00  0.00    -0.161 NA 
HETATM   25  C   UNL     1      -8.017  10.796  66.193  1.00  0.00    -0.157 C  
HETATM   26  C   UNL     1      -8.244   9.582  65.253  1.00  0.00    -0.130 C  
BRANCH  24  27
HETATM   27  C   UNL     1      -9.881  12.279  66.827  1.00  0.00    -0.209 A  
HETATM   28  N   UNL     1      -9.765  13.333  67.633  1.00  0.00    -0.214 NA 
HETATM   29  S   UNL     1     -10.614  14.600  67.015  1.00  0.00    -0.284 SA 
HETATM   30  C   UNL     1     -11.165  13.799  65.603  1.00  0.00    -0.302 A  
HETATM   31  C   UNL     1     -11.933  14.301  64.540  1.00  0.00    -0.478 A  
HETATM   32  C   UNL     1     -12.247  13.444  63.483  1.00  0.00    -0.468 A  
HETATM   33  C   UNL     1     -11.808  12.126  63.487  1.00  0.00    -0.597 A  
HETATM   34  C   UNL     1     -11.033  11.641  64.547  1.00  0.00    -0.376 A  
HETATM   35  C   UNL     1     -10.701  12.482  65.641  1.00  0.00    -0.297 A  
ENDBRANCH  24  27
ENDBRANCH  20  21
ENDBRANCH  19  20
ENDBRANCH  13  14
ENDBRANCH  10  13
TORSDOF 5
ENDMDL
MODEL       95
REMARK 921   NORMALIZED FREE ENERGY PREDICTED BY IDOCK:   -5.46 KCAL/MOL
REMARK 922        TOTAL FREE ENERGY PREDICTED BY IDOCK:   -8.78 KCAL/MOL
REMARK 923 INTER-LIGAND FREE ENERGY PREDICTED BY IDOCK:   -7.85 KCAL/MOL
REMARK 924 INTRA-LIGAND FREE ENERGY PREDICTED BY IDOCK:   -0.93 KCAL/MOL
REMARK 927      BINDING AFFINITY PREDICTED BY RF-SCORE:    0.00 PKD
ROOT
HETATM    1  C   UNL     1      -8.853   8.657  65.180  1.00  0.00    -0.147 C  
HETATM    2  C   UNL     1      -7.705   8.447  64.177  1.00  0.00    -0.137 C  
HETATM    3  C   UNL     1      -8.326   8.048  62.823  1.00  0.00    -0.052 C  
HETATM    4  C   UNL     1      -8.993   9.354  62.347  1.00  0.00    -0.258 C  
HETATM    5  C   UNL     1      -8.658  10.346  63.480  1.00  0.00    -0.188 C  
HETATM    6  C   UNL     1      -7.252   9.874  63.863  1.00  0.00    -0.126 C  
HETATM    7  C   UNL     1      -9.507   9.955  64.700  1.00  0.00    -0.343 C  
HETATM    8  C   UNL     1      -9.360  10.901  65.859  1.00  0.00    -0.200 C  
HETATM    9  O   UNL     1      -9.678  12.080  65.832  1.00  0.00    -0.235 OA 
HETATM   10  N   UNL     1      -8.789  10.234  66.904  1.00  0.00    -0.132 N  
HETATM   11  O   UNL     1      -7.690   8.223  67.252  1.00  0.00    -0.098 OA 
HETATM   12  C   UNL     1      -8.372   8.974  66.569  1.00  0.00    -0.115 C  
ENDROOT
BRANCH  10  13
HETATM   13  C   UNL     1      -8.472  10.861  68.178  1.00  0.00    -0.131 C  
BRANCH  13  14
HETATM   14  C   UNL     1      -9.674  10.848  69.148  1.00  0.00    -0.141 C  
HETATM   15  C   UNL     1     -10.334   9.454  69.147  1.00  0.00    -0.221 C  
HETATM   16  C   UNL     1     -11.479   9.370  70.148  1.00  0.00    -0.175 C  
HETATM   17  C   UNL     1     -12.506  10.469  69.913  1.00  0.00    -0.190 C  
HETATM   18  C   UNL     1     -11.862  11.854  69.907  1.00  0.00    -0.418 C  
HETATM   19  C   UNL     1     -10.741  11.949  68.851  1.00  0.00    -0.236 C  
BRANCH  19  20
HETATM   20  C   UNL     1     -10.104  13.358  68.825  1.00  0.00    -0.085 C  
BRANCH  20  21
HETATM   21  N   UNL     1     -11.007  14.504  68.602  1.00  0.00    -0.242 NA 
HETATM   22  C   UNL     1     -10.613  15.635  69.488  1.00  0.00    -0.266 C  
HETATM   23  C   UNL     1      -9.218  16.215  69.177  1.00  0.00    -0.246 C  
HETATM   24  N   UNL     1      -9.100  16.634  67.770  1.00  0.00    -0.211 NA 
HETATM   25  C   UNL     1      -9.647  15.701  66.768  1.00  0.00    -0.240 C  
HETATM   26  C   UNL     1     -10.972  15.028  67.216  1.00  0.00    -0.326 C  
BRANCH  24  27
HETATM   27  C   UNL     1      -9.063  17.979  67.508  1.00  0.00    -0.253 A  
HETATM   28  N   UNL     1     -10.162  18.709  67.334  1.00  0.00    -0.362 NA 
HETATM   29  S   UNL     1      -9.756  20.297  67.187  1.00  0.00    -0.462 SA 
HETATM   30  C   UNL     1      -8.066  20.087  67.381  1.00  0.00    -0.323 A  
HETATM   31  C   UNL     1      -7.049  21.056  67.419  1.00  0.00    -0.393 A  
HETATM   32  C   UNL     1      -5.732  20.630  67.602  1.00  0.00    -0.279 A  
HETATM   33  C   UNL     1      -5.438  19.280  67.743  1.00  0.00    -0.176 A  
HETATM   34  C   UNL     1      -6.461  18.325  67.715  1.00  0.00    -0.193 A  
HETATM   35  C   UNL     1      -7.811  18.721  67.523  1.00  0.00    -0.249 A  
ENDBRANCH  24  27
ENDBRANCH  20  21
ENDBRANCH  19  20
ENDBRANCH  13  14
ENDBRANCH  10  13
TORSDOF 5
ENDMDL
MODEL       96
REMARK 921   NORMALIZED FREE ENERGY PREDICTED BY IDOCK:   -5.45 KCAL/MOL
REMARK 922        TOTAL FREE ENERGY PREDICTED BY IDOCK:   -8.77 KCAL/MOL
REMARK 923 INTER-LIGAND FREE ENERGY PREDICTED BY IDOCK:   -7.62 KCAL/MOL
REMARK 924 INTRA-LIGAND FREE ENERGY PREDICTED BY IDOCK:   -1.15 KCAL/MOL
REMARK 927      BINDING AFFINITY PREDICTED BY RF-SCORE:    0.00 PKD
ROOT
HETATM    1  C   UNL     1      -7.982   5.652  66.100  1.00  0.00    -0.106 C  
HETATM    2  C   UNL     1      -8.163   5.125  64.665  1.00  0.00    -0.132 C  
HETATM    3  C   UNL     1      -6.962   4.215  64.340  1.00  0.00    -0.046 C  
HETATM    4  C   UNL     1      -7.217   2.974  65.219  1.00  0.00    -0.066 C  
HETATM    5  C   UNL     1      -8.542   3.319  65.929  1.00  0.00    -0.120 C  
HETATM    6  C   UNL     1      -9.269   4.080  64.816  1.00  0.00    -0.152 C  
HETATM    7  C   UNL     1      -8.238   4.414  66.965  1.00  0.00    -0.101 C  
HETATM    8  C   UNL     1      -9.425   4.783  67.809  1.00  0.00    -0.146 C  
HETATM    9  O   UNL     1      -9.996   4.018  68.570  1.00  0.00    -0.045 OA 
HETATM   10  N   UNL     1      -9.763   6.081  67.552  1.00  0.00    -0.112 N  
HETATM   11  O   UNL     1      -9.261   7.696  65.967  1.00  0.00    -0.150 OA 
HETATM   12  C   UNL     1      -9.055   6.622  66.513  1.00  0.00    -0.149 C  
ENDROOT
BRANCH  10  13
HETATM   13  C   UNL     1     -10.891   6.754  68.177  1.00  0.00    -0.228 C  
BRANCH  13  14
HETATM   14  C   UNL     1     -10.542   7.296  69.581  1.00  0.00    -0.246 C  
HETATM   15  C   UNL     1     -11.227   6.434  70.661  1.00  0.00    -0.400 C  
HETATM   16  C   UNL     1     -10.850   6.885  72.066  1.00  0.00    -0.255 C  
HETATM   17  C   UNL     1     -11.140   8.365  72.273  1.00  0.00    -0.438 C  
HETATM   18  C   UNL     1     -10.470   9.227  71.205  1.00  0.00    -0.401 C  
HETATM   19  C   UNL     1     -10.901   8.802  69.786  1.00  0.00    -0.196 C  
BRANCH  19  20
HETATM   20  C   UNL     1     -10.244   9.690  68.703  1.00  0.00    -0.189 C  
BRANCH  20  21
HETATM   21  N   UNL     1     -11.135  10.293  67.693  1.00  0.00    -0.299 NA 
HETATM   22  C   UNL     1     -11.693  11.572  68.213  1.00  0.00    -0.301 C  
HETATM   23  C   UNL     1     -10.631  12.666  68.450  1.00  0.00    -0.243 C  
HETATM   24  N   UNL     1      -9.843  12.937  67.236  1.00  0.00    -0.215 NA 
HETATM   25  C   UNL     1      -9.391  11.753  66.480  1.00  0.00    -0.210 C  
HETATM   26  C   UNL     1     -10.453  10.623  66.419  1.00  0.00    -0.213 C  
BRANCH  24  27
HETATM   27  C   UNL     1     -10.061  14.123  66.587  1.00  0.00    -0.275 A  
HETATM   28  N   UNL     1     -10.853  14.227  65.522  1.00  0.00    -0.307 NA 
HETATM   29  S   UNL     1     -11.001  15.809  65.093  1.00  0.00    -0.351 SA 
HETATM   30  C   UNL     1     -10.022  16.446  66.347  1.00  0.00    -0.303 A  
HETATM   31  C   UNL     1      -9.726  17.786  66.649  1.00  0.00    -0.314 A  
HETATM   32  C   UNL     1      -8.902  18.055  67.744  1.00  0.00    -0.255 A  
HETATM   33  C   UNL     1      -8.389  17.019  68.514  1.00  0.00    -0.260 A  
HETATM   34  C   UNL     1      -8.701  15.689  68.210  1.00  0.00    -0.174 A  
HETATM   35  C   UNL     1      -9.529  15.378  67.100  1.00  0.00    -0.221 A  
ENDBRANCH  24  27
ENDBRANCH  20  21
ENDBRANCH  19  20
ENDBRANCH  13  14
ENDBRANCH  10  13
TORSDOF 5
ENDMDL
MODEL       97
REMARK 921   NORMALIZED FREE ENERGY PREDICTED BY IDOCK:   -5.41 KCAL/MOL
REMARK 922        TOTAL FREE ENERGY PREDICTED BY IDOCK:   -8.72 KCAL/MOL
REMARK 923 INTER-LIGAND FREE ENERGY PREDICTED BY IDOCK:   -7.51 KCAL/MOL
REMARK 924 INTRA-LIGAND FREE ENERGY PREDICTED BY IDOCK:   -1.21 KCAL/MOL
REMARK 927      BINDING AFFINITY PREDICTED BY RF-SCORE:    0.00 PKD
ROOT
HETATM    1  C   UNL     1      -7.110   6.436  66.565  1.00  0.00    -0.068 C  
HETATM    2  C   UNL     1      -7.090   7.115  65.185  1.00  0.00    -0.060 C  
HETATM    3  C   UNL     1      -5.776   6.720  64.481  1.00  0.00    -0.031 C  
HETATM    4  C   UNL     1      -5.993   5.228  64.152  1.00  0.00    -0.021 C  
HETATM    5  C   UNL     1      -7.411   4.957  64.693  1.00  0.00    -0.072 C  
HETATM    6  C   UNL     1      -8.094   6.291  64.377  1.00  0.00    -0.091 C  
HETATM    7  C   UNL     1      -7.326   4.958  66.228  1.00  0.00    -0.078 C  
HETATM    8  C   UNL     1      -8.624   4.604  66.898  1.00  0.00    -0.104 C  
HETATM    9  O   UNL     1      -9.189   3.528  66.784  1.00  0.00    -0.157 OA 
HETATM   10  N   UNL     1      -9.063   5.685  67.607  1.00  0.00    -0.107 N  
HETATM   11  O   UNL     1      -8.569   7.945  67.760  1.00  0.00    -0.127 OA 
HETATM   12  C   UNL     1      -8.312   6.809  67.389  1.00  0.00    -0.122 C  
ENDROOT
BRANCH  10  13
HETATM   13  C   UNL     1     -10.312   5.700  68.354  1.00  0.00    -0.196 C  
BRANCH  13  14
HETATM   14  C   UNL     1     -10.078   5.643  69.880  1.00  0.00    -0.289 C  
HETATM   15  C   UNL     1      -9.666   4.217  70.295  1.00  0.00    -0.280 C  
HETATM   16  C   UNL     1      -9.350   4.130  71.782  1.00  0.00    -0.194 C  
HETATM   17  C   UNL     1     -10.509   4.639  72.628  1.00  0.00    -0.258 C  
HETATM   18  C   UNL     1     -10.930   6.050  72.221  1.00  0.00    -0.310 C  
HETATM   19  C   UNL     1     -11.302   6.117  70.726  1.00  0.00    -0.364 C  
BRANCH  19  20
HETATM   20  C   UNL     1     -11.754   7.539  70.317  1.00  0.00    -0.023 C  
BRANCH  20  21
HETATM   21  N   UNL     1     -11.294   8.662  71.158  1.00  0.00    -0.264 NA 
HETATM   22  C   UNL     1     -10.369   9.530  70.377  1.00  0.00    -0.276 C  
HETATM   23  C   UNL     1     -11.038  10.233  69.176  1.00  0.00    -0.235 C  
HETATM   24  N   UNL     1     -12.213  11.019  69.587  1.00  0.00    -0.329 NA 
HETATM   25  C   UNL     1     -13.128  10.366  70.542  1.00  0.00    -0.140 C  
HETATM   26  C   UNL     1     -12.392   9.540  71.630  1.00  0.00    -0.398 C  
BRANCH  24  27
HETATM   27  C   UNL     1     -12.105  12.385  69.566  1.00  0.00    -0.189 A  
HETATM   28  N   UNL     1     -12.119  13.126  70.672  1.00  0.00    -0.325 NA 
HETATM   29  S   UNL     1     -11.820  14.698  70.290  1.00  0.00    -0.322 SA 
HETATM   30  C   UNL     1     -11.625  14.458  68.604  1.00  0.00    -0.314 A  
HETATM   31  C   UNL     1     -11.290  15.390  67.607  1.00  0.00    -0.292 A  
HETATM   32  C   UNL     1     -11.177  14.942  66.290  1.00  0.00    -0.331 A  
HETATM   33  C   UNL     1     -11.392  13.607  65.975  1.00  0.00    -0.322 A  
HETATM   34  C   UNL     1     -11.713  12.685  66.979  1.00  0.00    -0.438 A  
HETATM   35  C   UNL     1     -11.844  13.107  68.329  1.00  0.00    -0.384 A  
ENDBRANCH  24  27
ENDBRANCH  20  21
ENDBRANCH  19  20
ENDBRANCH  13  14
ENDBRANCH  10  13
TORSDOF 5
ENDMDL
MODEL       98
REMARK 921   NORMALIZED FREE ENERGY PREDICTED BY IDOCK:   -5.33 KCAL/MOL
REMARK 922        TOTAL FREE ENERGY PREDICTED BY IDOCK:   -8.61 KCAL/MOL
REMARK 923 INTER-LIGAND FREE ENERGY PREDICTED BY IDOCK:   -7.49 KCAL/MOL
REMARK 924 INTRA-LIGAND FREE ENERGY PREDICTED BY IDOCK:   -1.12 KCAL/MOL
REMARK 927      BINDING AFFINITY PREDICTED BY RF-SCORE:    0.00 PKD
ROOT
HETATM    1  C   UNL     1     -12.038  13.832  66.130  1.00  0.00    -0.477 C  
HETATM    2  C   UNL     1     -11.466  14.009  64.713  1.00  0.00    -0.371 C  
HETATM    3  C   UNL     1     -12.050  15.308  64.125  1.00  0.00    -0.146 C  
HETATM    4  C   UNL     1     -11.345  16.409  64.943  1.00  0.00    -0.103 C  
HETATM    5  C   UNL     1     -10.430  15.605  65.889  1.00  0.00    -0.358 C  
HETATM    6  C   UNL     1     -10.023  14.447  64.972  1.00  0.00    -0.201 C  
HETATM    7  C   UNL     1     -11.331  14.927  66.935  1.00  0.00    -0.338 C  
HETATM    8  C   UNL     1     -10.565  14.184  67.992  1.00  0.00    -0.239 C  
HETATM    9  O   UNL     1      -9.793  14.706  68.781  1.00  0.00    -0.221 OA 
HETATM   10  N   UNL     1     -10.851  12.852  67.889  1.00  0.00    -0.221 N  
HETATM   11  O   UNL     1     -11.866  11.434  66.362  1.00  0.00    -0.304 OA 
HETATM   12  C   UNL     1     -11.604  12.551  66.787  1.00  0.00    -0.382 C  
ENDROOT
BRANCH  10  13
HETATM   13  C   UNL     1     -10.252  11.837  68.742  1.00  0.00    -0.160 C  
BRANCH  13  14
HETATM   14  C   UNL     1     -11.312  11.065  69.560  1.00  0.00    -0.356 C  
HETATM   15  C   UNL     1     -11.996  12.017  70.562  1.00  0.00    -0.338 C  
HETATM   16  C   UNL     1     -13.103  11.318  71.340  1.00  0.00    -0.395 C  
HETATM   17  C   UNL     1     -12.591  10.061  72.031  1.00  0.00    -0.379 C  
HETATM   18  C   UNL     1     -11.907   9.114  71.048  1.00  0.00    -0.354 C  
HETATM   19  C   UNL     1     -10.750   9.813  70.305  1.00  0.00    -0.358 C  
BRANCH  19  20
HETATM   20  C   UNL     1     -10.037   8.849  69.328  1.00  0.00    -0.203 C  
BRANCH  20  21
HETATM   21  N   UNL     1     -10.716   7.575  69.021  1.00  0.00    -0.179 NA 
HETATM   22  C   UNL     1     -10.965   7.477  67.555  1.00  0.00    -0.063 C  
HETATM   23  C   UNL     1      -9.678   7.409  66.707  1.00  0.00    -0.207 C  
HETATM   24  N   UNL     1      -8.803   6.302  67.127  1.00  0.00    -0.109 NA 
HETATM   25  C   UNL     1      -8.625   6.133  68.581  1.00  0.00    -0.113 C  
HETATM   26  C   UNL     1      -9.926   6.376  69.390  1.00  0.00    -0.158 C  
BRANCH  24  27
HETATM   27  C   UNL     1      -8.701   5.220  66.293  1.00  0.00    -0.122 A  
HETATM   28  N   UNL     1      -9.504   4.162  66.383  1.00  0.00    -0.175 NA 
HETATM   29  S   UNL     1      -9.199   3.126  65.142  1.00  0.00    -0.144 SA 
HETATM   30  C   UNL     1      -7.979   4.068  64.393  1.00  0.00    -0.086 A  
HETATM   31  C   UNL     1      -7.268   3.821  63.207  1.00  0.00    -0.050 A  
HETATM   32  C   UNL     1      -6.320   4.758  62.792  1.00  0.00    -0.025 A  
HETATM   33  C   UNL     1      -6.086   5.906  63.538  1.00  0.00    -0.025 A  
HETATM   34  C   UNL     1      -6.809   6.147  64.713  1.00  0.00    -0.047 A  
HETATM   35  C   UNL     1      -7.776   5.213  65.168  1.00  0.00    -0.084 A  
ENDBRANCH  24  27
ENDBRANCH  20  21
ENDBRANCH  19  20
ENDBRANCH  13  14
ENDBRANCH  10  13
TORSDOF 5
ENDMDL
MODEL       99
REMARK 921   NORMALIZED FREE ENERGY PREDICTED BY IDOCK:   -5.33 KCAL/MOL
REMARK 922        TOTAL FREE ENERGY PREDICTED BY IDOCK:   -8.60 KCAL/MOL
REMARK 923 INTER-LIGAND FREE ENERGY PREDICTED BY IDOCK:   -8.00 KCAL/MOL
REMARK 924 INTRA-LIGAND FREE ENERGY PREDICTED BY IDOCK:   -0.61 KCAL/MOL
REMARK 927      BINDING AFFINITY PREDICTED BY RF-SCORE:    0.00 PKD
ROOT
HETATM    1  C   UNL     1      -9.525   8.459  72.752  1.00  0.00    -0.312 C  
HETATM    2  C   UNL     1      -8.500   7.344  73.025  1.00  0.00    -0.152 C  
HETATM    3  C   UNL     1      -8.695   6.867  74.477  1.00  0.00    -0.216 C  
HETATM    4  C   UNL     1     -10.043   6.118  74.419  1.00  0.00    -0.337 C  
HETATM    5  C   UNL     1     -10.446   6.245  72.936  1.00  0.00    -0.240 C  
HETATM    6  C   UNL     1      -9.074   6.150  72.261  1.00  0.00    -0.137 C  
HETATM    7  C   UNL     1     -10.858   7.707  72.695  1.00  0.00    -0.395 C  
HETATM    8  C   UNL     1     -11.375   7.960  71.307  1.00  0.00    -0.260 C  
HETATM    9  O   UNL     1     -12.379   7.447  70.840  1.00  0.00    -0.285 OA 
HETATM   10  N   UNL     1     -10.523   8.815  70.668  1.00  0.00    -0.200 N  
HETATM   11  O   UNL     1      -8.388   9.660  70.991  1.00  0.00    -0.253 OA 
HETATM   12  C   UNL     1      -9.384   9.069  71.384  1.00  0.00    -0.240 C  
ENDROOT
BRANCH  10  13
HETATM   13  C   UNL     1     -10.706   9.248  69.291  1.00  0.00    -0.196 C  
BRANCH  13  14
HETATM   14  C   UNL     1     -10.179   8.207  68.278  1.00  0.00    -0.245 C  
HETATM   15  C   UNL     1      -9.398   7.103  69.019  1.00  0.00    -0.140 C  
HETATM   16  C   UNL     1      -8.924   6.012  68.069  1.00  0.00    -0.112 C  
HETATM   17  C   UNL     1      -8.110   6.589  66.919  1.00  0.00    -0.113 C  
HETATM   18  C   UNL     1      -8.873   7.688  66.182  1.00  0.00    -0.192 C  
HETATM   19  C   UNL     1      -9.300   8.817  67.141  1.00  0.00    -0.188 C  
BRANCH  19  20
HETATM   20  C   UNL     1     -10.050   9.945  66.393  1.00  0.00    -0.240 C  
BRANCH  20  21
HETATM   21  N   UNL     1      -9.317  11.203  66.157  1.00  0.00    -0.199 NA 
HETATM   22  C   UNL     1     -10.280  12.300  65.862  1.00  0.00    -0.249 C  
HETATM   23  C   UNL     1     -11.212  12.646  67.042  1.00  0.00    -0.300 C  
HETATM   24  N   UNL     1     -10.453  12.979  68.260  1.00  0.00    -0.244 NA 
HETATM   25  C   UNL     1      -9.315  12.095  68.575  1.00  0.00    -0.106 C  
HETATM   26  C   UNL     1      -8.516  11.653  67.320  1.00  0.00    -0.156 C  
BRANCH  24  27
HETATM   27  C   UNL     1     -10.437  14.288  68.661  1.00  0.00    -0.249 A  
HETATM   28  N   UNL     1     -11.162  14.737  69.684  1.00  0.00    -0.266 NA 
HETATM   29  S   UNL     1     -10.789  16.312  69.979  1.00  0.00    -0.287 SA 
HETATM   30  C   UNL     1      -9.600  16.467  68.755  1.00  0.00    -0.249 A  
HETATM   31  C   UNL     1      -8.788  17.569  68.439  1.00  0.00    -0.276 A  
HETATM   32  C   UNL     1      -7.874  17.443  67.391  1.00  0.00    -0.212 A  
HETATM   33  C   UNL     1      -7.774  16.255  66.679  1.00  0.00    -0.286 A  
HETATM   34  C   UNL     1      -8.580  15.160  67.010  1.00  0.00    -0.265 A  
HETATM   35  C   UNL     1      -9.525  15.254  68.065  1.00  0.00    -0.198 A  
ENDBRANCH  24  27
ENDBRANCH  20  21
ENDBRANCH  19  20
ENDBRANCH  13  14
ENDBRANCH  10  13
TORSDOF 5
ENDMDL
MODEL      100
REMARK 921   NORMALIZED FREE ENERGY PREDICTED BY IDOCK:   -5.32 KCAL/MOL
REMARK 922        TOTAL FREE ENERGY PREDICTED BY IDOCK:   -8.60 KCAL/MOL
REMARK 923 INTER-LIGAND FREE ENERGY PREDICTED BY IDOCK:   -8.03 KCAL/MOL
REMARK 924 INTRA-LIGAND FREE ENERGY PREDICTED BY IDOCK:   -0.57 KCAL/MOL
REMARK 927      BINDING AFFINITY PREDICTED BY RF-SCORE:    0.00 PKD
ROOT
HETATM    1  C   UNL     1     -10.723   8.062  69.579  1.00  0.00    -0.185 C  
HETATM    2  C   UNL     1     -10.898   8.459  71.056  1.00  0.00    -0.280 C  
HETATM    3  C   UNL     1     -11.074   7.165  71.876  1.00  0.00    -0.268 C  
HETATM    4  C   UNL     1      -9.669   6.531  71.832  1.00  0.00    -0.159 C  
HETATM    5  C   UNL     1      -8.856   7.548  71.006  1.00  0.00    -0.146 C  
HETATM    6  C   UNL     1      -9.484   8.863  71.477  1.00  0.00    -0.347 C  
HETATM    7  C   UNL     1      -9.326   7.435  69.546  1.00  0.00    -0.156 C  
HETATM    8  C   UNL     1      -8.546   8.303  68.599  1.00  0.00    -0.133 C  
HETATM    9  O   UNL     1      -7.352   8.182  68.377  1.00  0.00    -0.090 OA 
HETATM   10  N   UNL     1      -9.382   9.246  68.074  1.00  0.00    -0.134 N  
HETATM   11  O   UNL     1     -11.503  10.078  68.503  1.00  0.00    -0.121 OA 
HETATM   12  C   UNL     1     -10.621   9.246  68.658  1.00  0.00    -0.187 C  
ENDROOT
BRANCH  10  13
HETATM   13  C   UNL     1      -8.946  10.274  67.142  1.00  0.00    -0.135 C  
BRANCH  13  14
HETATM   14  C   UNL     1      -8.995   9.789  65.676  1.00  0.00    -0.199 C  
HETATM   15  C   UNL     1      -7.588   9.357  65.218  1.00  0.00    -0.107 C  
HETATM   16  C   UNL     1      -7.601   8.799  63.802  1.00  0.00    -0.124 C  
HETATM   17  C   UNL     1      -8.224   9.782  62.821  1.00  0.00    -0.151 C  
HETATM   18  C   UNL     1      -9.616  10.221  63.268  1.00  0.00    -0.305 C  
HETATM   19  C   UNL     1      -9.586  10.838  64.681  1.00  0.00    -0.320 C  
BRANCH  19  20
HETATM   20  C   UNL     1     -10.992  11.307  65.126  1.00  0.00    -0.146 C  
BRANCH  20  21
HETATM   21  N   UNL     1     -11.316  12.735  64.943  1.00  0.00    -0.297 NA 
HETATM   22  C   UNL     1     -12.364  13.143  65.921  1.00  0.00    -0.398 C  
HETATM   23  C   UNL     1     -11.908  13.066  67.393  1.00  0.00    -0.357 C  
HETATM   24  N   UNL     1     -10.688  13.855  67.630  1.00  0.00    -0.248 NA 
HETATM   25  C   UNL     1      -9.622  13.722  66.618  1.00  0.00    -0.288 C  
HETATM   26  C   UNL     1     -10.164  13.641  65.166  1.00  0.00    -0.328 C  
BRANCH  24  27
HETATM   27  C   UNL     1     -10.810  15.015  68.348  1.00  0.00    -0.256 A  
HETATM   28  N   UNL     1     -11.303  15.049  69.584  1.00  0.00    -0.269 NA 
HETATM   29  S   UNL     1     -11.166  16.571  70.194  1.00  0.00     0.030 SA 
HETATM   30  C   UNL     1     -10.404  17.265  68.826  1.00  0.00    -0.358 A  
HETATM   31  C   UNL     1      -9.929  18.575  68.643  1.00  0.00    -0.419 A  
HETATM   32  C   UNL     1      -9.326  18.899  67.426  1.00  0.00    -0.321 A  
HETATM   33  C   UNL     1      -9.200  17.947  66.422  1.00  0.00    -0.258 A  
HETATM   34  C   UNL     1      -9.667  16.642  66.621  1.00  0.00    -0.280 A  
HETATM   35  C   UNL     1     -10.292  16.279  67.843  1.00  0.00    -0.285 A  
ENDBRANCH  24  27
ENDBRANCH  20  21
ENDBRANCH  19  20
ENDBRANCH  13  14
ENDBRANCH  10  13
TORSDOF 5
ENDMDL
MODEL      101
REMARK 921   NORMALIZED FREE ENERGY PREDICTED BY IDOCK:   -5.32 KCAL/MOL
REMARK 922        TOTAL FREE ENERGY PREDICTED BY IDOCK:   -8.59 KCAL/MOL
REMARK 923 INTER-LIGAND FREE ENERGY PREDICTED BY IDOCK:   -7.70 KCAL/MOL
REMARK 924 INTRA-LIGAND FREE ENERGY PREDICTED BY IDOCK:   -0.89 KCAL/MOL
REMARK 927      BINDING AFFINITY PREDICTED BY RF-SCORE:    0.00 PKD
ROOT
HETATM    1  C   UNL     1      -6.736   8.484  69.874  1.00  0.00    -0.042 C  
HETATM    2  C   UNL     1      -7.061   9.969  70.111  1.00  0.00    -0.157 C  
HETATM    3  C   UNL     1      -5.900  10.806  69.539  1.00  0.00    -0.043 C  
HETATM    4  C   UNL     1      -6.065  10.634  68.015  1.00  0.00    -0.046 C  
HETATM    5  C   UNL     1      -7.311   9.733  67.901  1.00  0.00    -0.085 C  
HETATM    6  C   UNL     1      -8.147  10.257  69.072  1.00  0.00    -0.132 C  
HETATM    7  C   UNL     1      -6.903   8.323  68.361  1.00  0.00    -0.065 C  
HETATM    8  C   UNL     1      -7.998   7.305  68.209  1.00  0.00    -0.124 C  
HETATM    9  O   UNL     1      -8.489   6.974  67.141  1.00  0.00    -0.119 OA 
HETATM   10  N   UNL     1      -8.360   6.858  69.447  1.00  0.00    -0.131 N  
HETATM   11  O   UNL     1      -8.021   7.479  71.655  1.00  0.00    -0.088 OA 
HETATM   12  C   UNL     1      -7.761   7.554  70.463  1.00  0.00    -0.094 C  
ENDROOT
BRANCH  10  13
HETATM   13  C   UNL     1      -9.419   5.886  69.670  1.00  0.00    -0.143 C  
BRANCH  13  14
HETATM   14  C   UNL     1      -9.633   5.592  71.172  1.00  0.00    -0.208 C  
HETATM   15  C   UNL     1      -8.946   4.265  71.550  1.00  0.00    -0.161 C  
HETATM   16  C   UNL     1      -9.065   3.971  73.039  1.00  0.00    -0.123 C  
HETATM   17  C   UNL     1     -10.517   3.993  73.498  1.00  0.00    -0.259 C  
HETATM   18  C   UNL     1     -11.208   5.302  73.123  1.00  0.00    -0.382 C  
HETATM   19  C   UNL     1     -11.133   5.564  71.605  1.00  0.00    -0.192 C  
BRANCH  19  20
HETATM   20  C   UNL     1     -11.856   6.877  71.219  1.00  0.00    -0.341 C  
BRANCH  20  21
HETATM   21  N   UNL     1     -12.173   7.819  72.309  1.00  0.00    -0.285 NA 
HETATM   22  C   UNL     1     -11.176   8.926  72.325  1.00  0.00    -0.199 C  
HETATM   23  C   UNL     1     -11.210   9.814  71.064  1.00  0.00    -0.381 C  
HETATM   24  N   UNL     1     -12.552  10.371  70.823  1.00  0.00    -0.350 NA 
HETATM   25  C   UNL     1     -13.680   9.435  70.982  1.00  0.00    -0.014 C  
HETATM   26  C   UNL     1     -13.503   8.459  72.175  1.00  0.00    -0.315 C  
BRANCH  24  27
HETATM   27  C   UNL     1     -12.735  11.710  71.048  1.00  0.00    -0.298 A  
HETATM   28  N   UNL     1     -13.398  12.180  72.103  1.00  0.00    -0.466 NA 
HETATM   29  S   UNL     1     -13.297  13.822  72.135  1.00  0.00    -0.511 SA 
HETATM   30  C   UNL     1     -12.323  13.988  70.736  1.00  0.00    -0.373 A  
HETATM   31  C   UNL     1     -11.781  15.151  70.163  1.00  0.00    -0.343 A  
HETATM   32  C   UNL     1     -10.999  15.025  69.014  1.00  0.00    -0.253 A  
HETATM   33  C   UNL     1     -10.764  13.776  68.451  1.00  0.00    -0.266 A  
HETATM   34  C   UNL     1     -11.300  12.623  69.038  1.00  0.00    -0.345 A  
HETATM   35  C   UNL     1     -12.106  12.715  70.203  1.00  0.00    -0.368 A  
ENDBRANCH  24  27
ENDBRANCH  20  21
ENDBRANCH  19  20
ENDBRANCH  13  14
ENDBRANCH  10  13
TORSDOF 5
ENDMDL
MODEL      102
REMARK 921   NORMALIZED FREE ENERGY PREDICTED BY IDOCK:   -5.32 KCAL/MOL
REMARK 922        TOTAL FREE ENERGY PREDICTED BY IDOCK:   -8.59 KCAL/MOL
REMARK 923 INTER-LIGAND FREE ENERGY PREDICTED BY IDOCK:   -8.30 KCAL/MOL
REMARK 924 INTRA-LIGAND FREE ENERGY PREDICTED BY IDOCK:   -0.30 KCAL/MOL
REMARK 927      BINDING AFFINITY PREDICTED BY RF-SCORE:    0.00 PKD
ROOT
HETATM    1  C   UNL     1      -9.044  15.270  66.978  1.00  0.00    -0.245 C  
HETATM    2  C   UNL     1      -8.876  16.563  67.795  1.00  0.00    -0.197 C  
HETATM    3  C   UNL     1      -8.677  17.727  66.804  1.00  0.00    -0.273 C  
HETATM    4  C   UNL     1     -10.070  17.879  66.161  1.00  0.00    -0.322 C  
HETATM    5  C   UNL     1     -10.901  16.794  66.875  1.00  0.00    -0.033 C  
HETATM    6  C   UNL     1     -10.297  16.854  68.281  1.00  0.00    -0.335 C  
HETATM    7  C   UNL     1     -10.429  15.430  66.345  1.00  0.00    -0.307 C  
HETATM    8  C   UNL     1     -11.224  14.273  66.882  1.00  0.00    -0.326 C  
HETATM    9  O   UNL     1     -12.416  14.103  66.681  1.00  0.00    -0.426 OA 
HETATM   10  N   UNL     1     -10.405  13.490  67.643  1.00  0.00    -0.236 N  
HETATM   11  O   UNL     1      -8.299  13.643  68.601  1.00  0.00    -0.133 OA 
HETATM   12  C   UNL     1      -9.167  14.042  67.837  1.00  0.00    -0.195 C  
ENDROOT
BRANCH  10  13
HETATM   13  C   UNL     1     -10.859  12.298  68.343  1.00  0.00    -0.230 C  
BRANCH  13  14
HETATM   14  C   UNL     1     -11.948  12.618  69.391  1.00  0.00    -0.318 C  
HETATM   15  C   UNL     1     -11.801  14.075  69.873  1.00  0.00    -0.393 C  
HETATM   16  C   UNL     1     -12.901  14.459  70.852  1.00  0.00    -0.419 C  
HETATM   17  C   UNL     1     -12.967  13.492  72.026  1.00  0.00    -0.420 C  
HETATM   18  C   UNL     1     -13.107  12.045  71.559  1.00  0.00    -0.362 C  
HETATM   19  C   UNL     1     -11.957  11.645  70.612  1.00  0.00    -0.356 C  
BRANCH  19  20
HETATM   20  C   UNL     1     -12.082  10.171  70.158  1.00  0.00    -0.149 C  
BRANCH  20  21
HETATM   21  N   UNL     1     -12.109   9.139  71.212  1.00  0.00    -0.309 NA 
HETATM   22  C   UNL     1     -12.152   7.785  70.591  1.00  0.00    -0.010 C  
HETATM   23  C   UNL     1     -10.889   7.432  69.778  1.00  0.00    -0.234 C  
HETATM   24  N   UNL     1      -9.664   7.559  70.585  1.00  0.00    -0.175 NA 
HETATM   25  C   UNL     1      -9.568   8.763  71.432  1.00  0.00    -0.267 C  
HETATM   26  C   UNL     1     -10.916   9.156  72.092  1.00  0.00    -0.049 C  
BRANCH  24  27
HETATM   27  C   UNL     1      -9.024   6.406  70.956  1.00  0.00    -0.146 A  
HETATM   28  N   UNL     1      -7.808   6.083  70.520  1.00  0.00    -0.100 NA 
HETATM   29  S   UNL     1      -7.291   4.718  71.278  1.00  0.00    -0.070 SA 
HETATM   30  C   UNL     1      -8.677   4.501  72.263  1.00  0.00    -0.118 A  
HETATM   31  C   UNL     1      -8.927   3.524  73.241  1.00  0.00    -0.104 A  
HETATM   32  C   UNL     1     -10.143   3.566  73.927  1.00  0.00    -0.188 A  
HETATM   33  C   UNL     1     -11.080   4.552  73.646  1.00  0.00    -0.369 A  
HETATM   34  C   UNL     1     -10.814   5.528  72.677  1.00  0.00    -0.305 A  
HETATM   35  C   UNL     1      -9.591   5.511  71.955  1.00  0.00    -0.177 A  
ENDBRANCH  24  27
ENDBRANCH  20  21
ENDBRANCH  19  20
ENDBRANCH  13  14
ENDBRANCH  10  13
TORSDOF 5
ENDMDL
MODEL      103
REMARK 921   NORMALIZED FREE ENERGY PREDICTED BY IDOCK:   -5.22 KCAL/MOL
REMARK 922        TOTAL FREE ENERGY PREDICTED BY IDOCK:   -8.46 KCAL/MOL
REMARK 923 INTER-LIGAND FREE ENERGY PREDICTED BY IDOCK:   -7.33 KCAL/MOL
REMARK 924 INTRA-LIGAND FREE ENERGY PREDICTED BY IDOCK:   -1.13 KCAL/MOL
REMARK 927      BINDING AFFINITY PREDICTED BY RF-SCORE:    0.00 PKD
ROOT
HETATM    1  C   UNL     1     -11.066  14.594  65.550  1.00  0.00    -0.345 C  
HETATM    2  C   UNL     1      -9.771  15.357  65.879  1.00  0.00    -0.392 C  
HETATM    3  C   UNL     1     -10.164  16.745  66.422  1.00  0.00    -0.329 C  
HETATM    4  C   UNL     1     -10.759  16.421  67.807  1.00  0.00    -0.328 C  
HETATM    5  C   UNL     1     -10.619  14.887  67.894  1.00  0.00    -0.254 C  
HETATM    6  C   UNL     1      -9.288  14.684  67.165  1.00  0.00    -0.231 C  
HETATM    7  C   UNL     1     -11.648  14.276  66.930  1.00  0.00    -0.405 C  
HETATM    8  C   UNL     1     -11.696  12.775  66.982  1.00  0.00    -0.374 C  
HETATM    9  O   UNL     1     -12.017  12.128  67.966  1.00  0.00    -0.465 OA 
HETATM   10  N   UNL     1     -11.293  12.278  65.775  1.00  0.00    -0.341 N  
HETATM   11  O   UNL     1     -10.244  13.070  63.866  1.00  0.00    -0.378 OA 
HETATM   12  C   UNL     1     -10.815  13.245  64.932  1.00  0.00    -0.345 C  
ENDROOT
BRANCH  10  13
HETATM   13  C   UNL     1     -11.189  10.856  65.488  1.00  0.00     0.271 C  
BRANCH  13  14
HETATM   14  C   UNL     1      -9.726  10.360  65.520  1.00  0.00    -0.307 C  
HETATM   15  C   UNL     1      -9.315   9.850  64.125  1.00  0.00    -0.295 C  
HETATM   16  C   UNL     1      -7.854   9.422  64.088  1.00  0.00    -0.124 C  
HETATM   17  C   UNL     1      -7.548   8.391  65.166  1.00  0.00    -0.088 C  
HETATM   18  C   UNL     1      -7.957   8.885  66.552  1.00  0.00    -0.103 C  
HETATM   19  C   UNL     1      -9.452   9.263  66.597  1.00  0.00    -0.246 C  
BRANCH  19  20
HETATM   20  C   UNL     1      -9.876   9.738  68.007  1.00  0.00    -0.148 C  
BRANCH  20  21
HETATM   21  N   UNL     1     -11.035   9.068  68.625  1.00  0.00    -0.006 NA 
HETATM   22  C   UNL     1     -10.831   7.592  68.610  1.00  0.00     0.028 C  
HETATM   23  C   UNL     1      -9.643   7.118  69.473  1.00  0.00    -0.154 C  
HETATM   24  N   UNL     1      -9.759   7.580  70.867  1.00  0.00    -0.173 NA 
HETATM   25  C   UNL     1     -10.170   8.984  71.052  1.00  0.00    -0.277 C  
HETATM   26  C   UNL     1     -11.255   9.444  70.042  1.00  0.00    -0.190 C  
BRANCH  24  27
HETATM   27  C   UNL     1     -10.058   6.646  71.823  1.00  0.00    -0.183 A  
HETATM   28  N   UNL     1     -11.307   6.291  72.118  1.00  0.00    -0.282 NA 
HETATM   29  S   UNL     1     -11.291   5.049  73.198  1.00  0.00    -0.265 SA 
HETATM   30  C   UNL     1      -9.587   4.903  73.305  1.00  0.00    -0.129 A  
HETATM   31  C   UNL     1      -8.819   3.979  74.034  1.00  0.00    -0.092 A  
HETATM   32  C   UNL     1      -7.427   4.057  73.948  1.00  0.00    -0.075 A  
HETATM   33  C   UNL     1      -6.820   5.027  73.160  1.00  0.00    -0.073 A  
HETATM   34  C   UNL     1      -7.597   5.935  72.430  1.00  0.00    -0.101 A  
HETATM   35  C   UNL     1      -9.014   5.889  72.499  1.00  0.00    -0.132 A  
ENDBRANCH  24  27
ENDBRANCH  20  21
ENDBRANCH  19  20
ENDBRANCH  13  14
ENDBRANCH  10  13
TORSDOF 5
ENDMDL
MODEL      104
REMARK 921   NORMALIZED FREE ENERGY PREDICTED BY IDOCK:   -5.19 KCAL/MOL
REMARK 922        TOTAL FREE ENERGY PREDICTED BY IDOCK:   -8.42 KCAL/MOL
REMARK 923 INTER-LIGAND FREE ENERGY PREDICTED BY IDOCK:   -7.73 KCAL/MOL
REMARK 924 INTRA-LIGAND FREE ENERGY PREDICTED BY IDOCK:   -0.69 KCAL/MOL
REMARK 927      BINDING AFFINITY PREDICTED BY RF-SCORE:    0.00 PKD
ROOT
HETATM    1  C   UNL     1      -7.892   6.759  67.489  1.00  0.00    -0.111 C  
HETATM    2  C   UNL     1      -6.774   6.310  66.531  1.00  0.00    -0.060 C  
HETATM    3  C   UNL     1      -7.117   4.891  66.036  1.00  0.00    -0.071 C  
HETATM    4  C   UNL     1      -8.323   5.129  65.105  1.00  0.00    -0.141 C  
HETATM    5  C   UNL     1      -8.513   6.658  65.168  1.00  0.00    -0.041 C  
HETATM    6  C   UNL     1      -7.056   7.120  65.265  1.00  0.00    -0.060 C  
HETATM    7  C   UNL     1      -9.083   6.994  66.556  1.00  0.00    -0.183 C  
HETATM    8  C   UNL     1      -9.416   8.449  66.729  1.00  0.00    -0.197 C  
HETATM    9  O   UNL     1     -10.258   9.047  66.078  1.00  0.00    -0.225 OA 
HETATM   10  N   UNL     1      -8.605   8.976  67.693  1.00  0.00    -0.120 N  
HETATM   11  O   UNL     1      -6.681   8.362  68.832  1.00  0.00    -0.051 OA 
HETATM   12  C   UNL     1      -7.633   8.106  68.108  1.00  0.00    -0.105 C  
ENDROOT
BRANCH  10  13
HETATM   13  C   UNL     1      -8.637  10.375  68.091  1.00  0.00    -0.125 C  
BRANCH  13  14
HETATM   14  C   UNL     1      -9.791  10.674  69.074  1.00  0.00    -0.218 C  
HETATM   15  C   UNL     1     -10.153   9.399  69.861  1.00  0.00    -0.243 C  
HETATM   16  C   UNL     1     -11.236   9.664  70.899  1.00  0.00    -0.422 C  
HETATM   17  C   UNL     1     -12.470  10.295  70.268  1.00  0.00    -0.239 C  
HETATM   18  C   UNL     1     -12.121  11.556  69.481  1.00  0.00    -0.351 C  
HETATM   19  C   UNL     1     -11.065  11.267  68.394  1.00  0.00    -0.296 C  
BRANCH  19  20
HETATM   20  C   UNL     1     -10.729  12.538  67.577  1.00  0.00    -0.225 C  
BRANCH  20  21
HETATM   21  N   UNL     1      -9.895  13.562  68.234  1.00  0.00    -0.230 NA 
HETATM   22  C   UNL     1      -8.971  14.173  67.238  1.00  0.00    -0.214 C  
HETATM   23  C   UNL     1      -9.689  14.960  66.122  1.00  0.00    -0.306 C  
HETATM   24  N   UNL     1     -10.574  16.002  66.669  1.00  0.00    -0.316 NA 
HETATM   25  C   UNL     1     -11.410  15.605  67.817  1.00  0.00    -0.261 C  
HETATM   26  C   UNL     1     -10.673  14.678  68.821  1.00  0.00    -0.249 C  
BRANCH  24  27
HETATM   27  C   UNL     1     -10.186  17.308  66.523  1.00  0.00    -0.325 A  
HETATM   28  N   UNL     1     -10.824  18.165  65.728  1.00  0.00    -0.266 NA 
HETATM   29  S   UNL     1     -10.184  19.670  65.907  1.00  0.00    -0.386 SA 
HETATM   30  C   UNL     1      -9.023  19.251  67.095  1.00  0.00    -0.296 A  
HETATM   31  C   UNL     1      -8.114  20.076  67.779  1.00  0.00    -0.320 A  
HETATM   32  C   UNL     1      -7.268  19.493  68.724  1.00  0.00    -0.391 A  
HETATM   33  C   UNL     1      -7.325  18.129  68.979  1.00  0.00    -0.200 A  
HETATM   34  C   UNL     1      -8.242  17.319  68.299  1.00  0.00    -0.237 A  
HETATM   35  C   UNL     1      -9.114  17.876  67.327  1.00  0.00    -0.251 A  
ENDBRANCH  24  27
ENDBRANCH  20  21
ENDBRANCH  19  20
ENDBRANCH  13  14
ENDBRANCH  10  13
TORSDOF 5
ENDMDL
MODEL      105
REMARK 921   NORMALIZED FREE ENERGY PREDICTED BY IDOCK:   -5.19 KCAL/MOL
REMARK 922        TOTAL FREE ENERGY PREDICTED BY IDOCK:   -8.42 KCAL/MOL
REMARK 923 INTER-LIGAND FREE ENERGY PREDICTED BY IDOCK:   -8.05 KCAL/MOL
REMARK 924 INTRA-LIGAND FREE ENERGY PREDICTED BY IDOCK:   -0.37 KCAL/MOL
REMARK 927      BINDING AFFINITY PREDICTED BY RF-SCORE:    0.00 PKD
ROOT
HETATM    1  C   UNL     1     -11.183   6.882  72.433  1.00  0.00    -0.303 C  
HETATM    2  C   UNL     1      -9.993   6.662  73.383  1.00  0.00    -0.231 C  
HETATM    3  C   UNL     1     -10.392   5.572  74.398  1.00  0.00    -0.282 C  
HETATM    4  C   UNL     1     -10.418   4.290  73.540  1.00  0.00    -0.265 C  
HETATM    5  C   UNL     1     -10.014   4.801  72.142  1.00  0.00    -0.237 C  
HETATM    6  C   UNL     1      -8.998   5.883  72.519  1.00  0.00    -0.132 C  
HETATM    7  C   UNL     1     -11.199   5.607  71.586  1.00  0.00    -0.204 C  
HETATM    8  C   UNL     1     -10.987   6.086  70.178  1.00  0.00    -0.359 C  
HETATM    9  O   UNL     1     -10.844   5.352  69.213  1.00  0.00    -0.221 OA 
HETATM   10  N   UNL     1     -10.947   7.451  70.178  1.00  0.00    -0.256 N  
HETATM   11  O   UNL     1     -10.755   9.155  71.737  1.00  0.00    -0.355 OA 
HETATM   12  C   UNL     1     -10.947   7.986  71.438  1.00  0.00    -0.234 C  
ENDROOT
BRANCH  10  13
HETATM   13  C   UNL     1     -10.722   8.246  68.980  1.00  0.00    -0.079 C  
BRANCH  13  14
HETATM   14  C   UNL     1      -9.233   8.612  68.796  1.00  0.00    -0.142 C  
HETATM   15  C   UNL     1      -8.342   7.469  69.322  1.00  0.00    -0.132 C  
HETATM   16  C   UNL     1      -6.864   7.753  69.091  1.00  0.00    -0.049 C  
HETATM   17  C   UNL     1      -6.453   9.093  69.687  1.00  0.00    -0.042 C  
HETATM   18  C   UNL     1      -7.334  10.231  69.176  1.00  0.00    -0.096 C  
HETATM   19  C   UNL     1      -8.825   9.964  69.464  1.00  0.00    -0.208 C  
BRANCH  19  20
HETATM   20  C   UNL     1      -9.717  11.128  68.971  1.00  0.00    -0.096 C  
BRANCH  20  21
HETATM   21  N   UNL     1      -9.698  11.428  67.527  1.00  0.00    -0.177 NA 
HETATM   22  C   UNL     1     -10.976  12.085  67.133  1.00  0.00    -0.270 C  
HETATM   23  C   UNL     1     -11.192  13.468  67.782  1.00  0.00    -0.282 C  
HETATM   24  N   UNL     1     -10.070  14.382  67.510  1.00  0.00    -0.231 NA 
HETATM   25  C   UNL     1      -8.718  13.809  67.651  1.00  0.00    -0.185 C  
HETATM   26  C   UNL     1      -8.612  12.353  67.124  1.00  0.00    -0.189 C  
BRANCH  24  27
HETATM   27  C   UNL     1     -10.289  15.417  66.639  1.00  0.00    -0.280 A  
HETATM   28  N   UNL     1     -10.836  15.244  65.437  1.00  0.00    -0.363 NA 
HETATM   29  S   UNL     1     -11.085  16.706  64.726  1.00  0.00     0.142 SA 
HETATM   30  C   UNL     1     -10.493  17.660  66.020  1.00  0.00    -0.278 A  
HETATM   31  C   UNL     1     -10.441  19.059  66.142  1.00  0.00    -0.541 A  
HETATM   32  C   UNL     1      -9.918  19.605  67.315  1.00  0.00    -0.518 A  
HETATM   33  C   UNL     1      -9.459  18.782  68.336  1.00  0.00    -0.391 A  
HETATM   34  C   UNL     1      -9.526  17.390  68.207  1.00  0.00    -0.290 A  
HETATM   35  C   UNL     1     -10.046  16.800  67.026  1.00  0.00    -0.276 A  
ENDBRANCH  24  27
ENDBRANCH  20  21
ENDBRANCH  19  20
ENDBRANCH  13  14
ENDBRANCH  10  13
TORSDOF 5
ENDMDL
MODEL      106
REMARK 921   NORMALIZED FREE ENERGY PREDICTED BY IDOCK:   -5.14 KCAL/MOL
REMARK 922        TOTAL FREE ENERGY PREDICTED BY IDOCK:   -8.36 KCAL/MOL
REMARK 923 INTER-LIGAND FREE ENERGY PREDICTED BY IDOCK:   -6.96 KCAL/MOL
REMARK 924 INTRA-LIGAND FREE ENERGY PREDICTED BY IDOCK:   -1.40 KCAL/MOL
REMARK 927      BINDING AFFINITY PREDICTED BY RF-SCORE:    0.00 PKD
ROOT
HETATM    1  C   UNL     1      -8.062   8.208  65.777  1.00  0.00    -0.115 C  
HETATM    2  C   UNL     1      -6.643   7.656  65.553  1.00  0.00    -0.045 C  
HETATM    3  C   UNL     1      -6.772   6.188  65.100  1.00  0.00    -0.044 C  
HETATM    4  C   UNL     1      -7.345   6.313  63.673  1.00  0.00    -0.072 C  
HETATM    5  C   UNL     1      -7.458   7.839  63.479  1.00  0.00    -0.115 C  
HETATM    6  C   UNL     1      -6.217   8.314  64.239  1.00  0.00    -0.066 C  
HETATM    7  C   UNL     1      -8.621   8.329  64.357  1.00  0.00     0.065 C  
HETATM    8  C   UNL     1      -8.917   9.793  64.193  1.00  0.00    -0.239 C  
HETATM    9  O   UNL     1      -9.294  10.309  63.152  1.00  0.00    -0.271 OA 
HETATM   10  N   UNL     1      -8.662  10.430  65.373  1.00  0.00    -0.173 N  
HETATM   11  O   UNL     1      -7.589   9.958  67.373  1.00  0.00    -0.091 OA 
HETATM   12  C   UNL     1      -8.071   9.617  66.302  1.00  0.00    -0.112 C  
ENDROOT
BRANCH  10  13
HETATM   13  C   UNL     1      -8.812  11.866  65.558  1.00  0.00     0.276 C  
BRANCH  13  14
HETATM   14  C   UNL     1     -10.292  12.307  65.517  1.00  0.00    -0.296 C  
HETATM   15  C   UNL     1     -10.491  13.374  64.422  1.00  0.00    -0.403 C  
HETATM   16  C   UNL     1     -11.952  13.784  64.293  1.00  0.00    -0.481 C  
HETATM   17  C   UNL     1     -12.521  14.248  65.627  1.00  0.00    -0.432 C  
HETATM   18  C   UNL     1     -12.323  13.200  66.720  1.00  0.00    -0.173 C  
HETATM   19  C   UNL     1     -10.835  12.830  66.884  1.00  0.00    -0.278 C  
BRANCH  19  20
HETATM   20  C   UNL     1     -10.629  11.788  68.009  1.00  0.00    -0.206 C  
BRANCH  20  21
HETATM   21  N   UNL     1     -11.679  10.767  68.184  1.00  0.00    -0.516 NA 
HETATM   22  C   UNL     1     -11.070   9.408  68.161  1.00  0.00     0.059 C  
HETATM   23  C   UNL     1     -10.107   9.136  69.336  1.00  0.00    -0.197 C  
HETATM   24  N   UNL     1     -10.757   9.355  70.639  1.00  0.00    -0.264 NA 
HETATM   25  C   UNL     1     -11.585  10.571  70.753  1.00  0.00    -0.338 C  
HETATM   26  C   UNL     1     -12.406  10.876  69.472  1.00  0.00    -0.171 C  
BRANCH  24  27
HETATM   27  C   UNL     1     -11.049   8.253  71.399  1.00  0.00    -0.251 A  
HETATM   28  N   UNL     1     -12.065   7.437  71.125  1.00  0.00    -0.321 NA 
HETATM   29  S   UNL     1     -12.030   6.147  72.146  1.00  0.00    -0.158 SA 
HETATM   30  C   UNL     1     -10.617   6.607  72.999  1.00  0.00    -0.256 A  
HETATM   31  C   UNL     1      -9.938   5.928  74.024  1.00  0.00    -0.227 A  
HETATM   32  C   UNL     1      -8.787   6.511  74.558  1.00  0.00    -0.187 A  
HETATM   33  C   UNL     1      -8.327   7.733  74.085  1.00  0.00    -0.297 A  
HETATM   34  C   UNL     1      -9.006   8.394  73.055  1.00  0.00    -0.242 A  
HETATM   35  C   UNL     1     -10.184   7.835  72.493  1.00  0.00    -0.320 A  
ENDBRANCH  24  27
ENDBRANCH  20  21
ENDBRANCH  19  20
ENDBRANCH  13  14
ENDBRANCH  10  13
TORSDOF 5
ENDMDL
MODEL      107
REMARK 921   NORMALIZED FREE ENERGY PREDICTED BY IDOCK:   -5.11 KCAL/MOL
REMARK 922        TOTAL FREE ENERGY PREDICTED BY IDOCK:   -8.33 KCAL/MOL
REMARK 923 INTER-LIGAND FREE ENERGY PREDICTED BY IDOCK:   -8.83 KCAL/MOL
REMARK 924 INTRA-LIGAND FREE ENERGY PREDICTED BY IDOCK:    0.50 KCAL/MOL
REMARK 927      BINDING AFFINITY PREDICTED BY RF-SCORE:    0.00 PKD
ROOT
HETATM    1  C   UNL     1     -10.261  14.984  70.123  1.00  0.00    -0.007 C  
HETATM    2  C   UNL     1     -11.387  13.945  70.264  1.00  0.00    -0.007 C  
HETATM    3  C   UNL     1     -12.181  14.277  71.542  1.00  0.00    -0.378 C  
HETATM    4  C   UNL     1     -12.925  15.573  71.163  1.00  0.00    -0.560 C  
HETATM    5  C   UNL     1     -12.479  15.815  69.707  1.00  0.00    -0.054 C  
HETATM    6  C   UNL     1     -12.393  14.375  69.194  1.00  0.00    -0.156 C  
HETATM    7  C   UNL     1     -11.009  16.265  69.746  1.00  0.00    -0.354 C  
HETATM    8  C   UNL     1     -10.463  16.637  68.396  1.00  0.00    -0.323 C  
HETATM    9  O   UNL     1     -10.880  17.559  67.712  1.00  0.00    -0.368 OA 
HETATM   10  N   UNL     1      -9.470  15.760  68.065  1.00  0.00    -0.201 N  
HETATM   11  O   UNL     1      -8.674  13.716  68.816  1.00  0.00    -0.075 OA 
HETATM   12  C   UNL     1      -9.358  14.721  68.949  1.00  0.00    -0.184 C  
ENDROOT
BRANCH  10  13
HETATM   13  C   UNL     1      -8.744  15.810  66.805  1.00  0.00    -0.271 C  
BRANCH  13  14
HETATM   14  C   UNL     1      -9.607  15.331  65.617  1.00  0.00    -0.313 C  
HETATM   15  C   UNL     1     -10.727  16.353  65.336  1.00  0.00    -0.310 C  
HETATM   16  C   UNL     1     -11.559  15.961  64.123  1.00  0.00    -0.058 C  
HETATM   17  C   UNL     1     -12.118  14.552  64.262  1.00  0.00    -0.448 C  
HETATM   18  C   UNL     1     -11.017  13.532  64.546  1.00  0.00    -0.405 C  
HETATM   19  C   UNL     1     -10.215  13.906  65.809  1.00  0.00    -0.331 C  
BRANCH  19  20
HETATM   20  C   UNL     1      -9.116  12.860  66.114  1.00  0.00     0.077 C  
BRANCH  20  21
HETATM   21  N   UNL     1      -9.456  11.441  65.899  1.00  0.00    -0.223 NA 
HETATM   22  C   UNL     1      -8.564  10.579  66.724  1.00  0.00    -0.126 C  
HETATM   23  C   UNL     1      -8.749  10.763  68.244  1.00  0.00    -0.136 C  
HETATM   24  N   UNL     1     -10.147  10.551  68.655  1.00  0.00    -0.171 NA 
HETATM   25  C   UNL     1     -11.176  11.174  67.801  1.00  0.00    -0.294 C  
HETATM   26  C   UNL     1     -10.844  11.095  66.287  1.00  0.00    -0.205 C  
BRANCH  24  27
HETATM   27  C   UNL     1     -10.437   9.412  69.359  1.00  0.00    -0.220 A  
HETATM   28  N   UNL     1      -9.740   8.286  69.226  1.00  0.00    -0.174 NA 
HETATM   29  S   UNL     1     -10.266   7.176  70.320  1.00  0.00    -0.200 SA 
HETATM   30  C   UNL     1     -11.452   8.170  71.057  1.00  0.00    -0.279 A  
HETATM   31  C   UNL     1     -12.295   7.889  72.145  1.00  0.00    -0.331 A  
HETATM   32  C   UNL     1     -13.180   8.881  72.573  1.00  0.00    -0.438 A  
HETATM   33  C   UNL     1     -13.224  10.114  71.935  1.00  0.00    -0.557 A  
HETATM   34  C   UNL     1     -12.370  10.385  70.859  1.00  0.00    -0.480 A  
HETATM   35  C   UNL     1     -11.463   9.399  70.393  1.00  0.00    -0.272 A  
ENDBRANCH  24  27
ENDBRANCH  20  21
ENDBRANCH  19  20
ENDBRANCH  13  14
ENDBRANCH  10  13
TORSDOF 5
ENDMDL
MODEL      108
REMARK 921   NORMALIZED FREE ENERGY PREDICTED BY IDOCK:   -5.10 KCAL/MOL
REMARK 922        TOTAL FREE ENERGY PREDICTED BY IDOCK:   -8.31 KCAL/MOL
REMARK 923 INTER-LIGAND FREE ENERGY PREDICTED BY IDOCK:   -7.43 KCAL/MOL
REMARK 924 INTRA-LIGAND FREE ENERGY PREDICTED BY IDOCK:   -0.88 KCAL/MOL
REMARK 927      BINDING AFFINITY PREDICTED BY RF-SCORE:    0.00 PKD
ROOT
HETATM    1  C   UNL     1     -11.984  14.298  66.045  1.00  0.00    -0.412 C  
HETATM    2  C   UNL     1     -11.245  14.461  64.706  1.00  0.00    -0.391 C  
HETATM    3  C   UNL     1     -11.633  15.829  64.113  1.00  0.00    -0.079 C  
HETATM    4  C   UNL     1     -10.921  16.828  65.048  1.00  0.00    -0.118 C  
HETATM    5  C   UNL     1     -10.198  15.908  66.052  1.00  0.00    -0.353 C  
HETATM    6  C   UNL     1      -9.805  14.744  65.136  1.00  0.00    -0.164 C  
HETATM    7  C   UNL     1     -11.270  15.292  66.965  1.00  0.00    -0.275 C  
HETATM    8  C   UNL     1     -10.700  14.442  68.067  1.00  0.00    -0.241 C  
HETATM    9  O   UNL     1      -9.974  14.860  68.955  1.00  0.00    -0.228 OA 
HETATM   10  N   UNL     1     -11.099  13.150  67.879  1.00  0.00    -0.252 N  
HETATM   11  O   UNL     1     -12.070  11.889  66.193  1.00  0.00    -0.519 OA 
HETATM   12  C   UNL     1     -11.751  12.960  66.690  1.00  0.00    -0.390 C  
ENDROOT
BRANCH  10  13
HETATM   13  C   UNL     1     -10.699  12.054  68.747  1.00  0.00    -0.220 C  
BRANCH  13  14
HETATM   14  C   UNL     1     -11.846  11.599  69.677  1.00  0.00    -0.419 C  
HETATM   15  C   UNL     1     -12.205  12.732  70.660  1.00  0.00    -0.374 C  
HETATM   16  C   UNL     1     -13.384  12.357  71.548  1.00  0.00    -0.155 C  
HETATM   17  C   UNL     1     -13.135  11.046  72.281  1.00  0.00    -0.085 C  
HETATM   18  C   UNL     1     -12.773   9.918  71.317  1.00  0.00    -0.482 C  
HETATM   19  C   UNL     1     -11.543  10.283  70.460  1.00  0.00    -0.424 C  
BRANCH  19  20
HETATM   20  C   UNL     1     -11.158   9.132  69.501  1.00  0.00    -0.051 C  
BRANCH  20  21
HETATM   21  N   UNL     1      -9.784   8.604  69.596  1.00  0.00    -0.177 NA 
HETATM   22  C   UNL     1      -9.438   8.354  71.023  1.00  0.00    -0.170 C  
HETATM   23  C   UNL     1     -10.290   7.253  71.688  1.00  0.00    -0.197 C  
HETATM   24  N   UNL     1     -10.225   5.985  70.942  1.00  0.00    -0.199 NA 
HETATM   25  C   UNL     1     -10.339   6.089  69.475  1.00  0.00    -0.233 C  
HETATM   26  C   UNL     1      -9.590   7.316  68.888  1.00  0.00    -0.143 C  
BRANCH  24  27
HETATM   27  C   UNL     1      -9.522   4.952  71.504  1.00  0.00    -0.154 A  
HETATM   28  N   UNL     1     -10.113   3.889  72.046  1.00  0.00    -0.173 NA 
HETATM   29  S   UNL     1      -8.975   2.786  72.487  1.00  0.00    -0.079 SA 
HETATM   30  C   UNL     1      -7.616   3.675  71.941  1.00  0.00    -0.057 A  
HETATM   31  C   UNL     1      -6.257   3.315  71.946  1.00  0.00    -0.014 A  
HETATM   32  C   UNL     1      -5.328   4.218  71.427  1.00  0.00     0.000 A  
HETATM   33  C   UNL     1      -5.739   5.444  70.919  1.00  0.00    -0.016 A  
HETATM   34  C   UNL     1      -7.096   5.787  70.909  1.00  0.00    -0.071 A  
HETATM   35  C   UNL     1      -8.069   4.896  71.434  1.00  0.00    -0.110 A  
ENDBRANCH  24  27
ENDBRANCH  20  21
ENDBRANCH  19  20
ENDBRANCH  13  14
ENDBRANCH  10  13
TORSDOF 5
ENDMDL
MODEL      109
REMARK 921   NORMALIZED FREE ENERGY PREDICTED BY IDOCK:   -5.07 KCAL/MOL
REMARK 922        TOTAL FREE ENERGY PREDICTED BY IDOCK:   -8.28 KCAL/MOL
REMARK 923 INTER-LIGAND FREE ENERGY PREDICTED BY IDOCK:   -7.44 KCAL/MOL
REMARK 924 INTRA-LIGAND FREE ENERGY PREDICTED BY IDOCK:   -0.84 KCAL/MOL
REMARK 927      BINDING AFFINITY PREDICTED BY RF-SCORE:    0.00 PKD
ROOT
HETATM    1  C   UNL     1      -8.586   4.154  73.285  1.00  0.00    -0.089 C  
HETATM    2  C   UNL     1      -8.672   2.635  73.054  1.00  0.00    -0.074 C  
HETATM    3  C   UNL     1      -9.070   1.976  74.390  1.00  0.00    -0.081 C  
HETATM    4  C   UNL     1     -10.541   2.403  74.565  1.00  0.00    -0.163 C  
HETATM    5  C   UNL     1     -10.811   3.242  73.299  1.00  0.00    -0.283 C  
HETATM    6  C   UNL     1      -9.975   2.477  72.269  1.00  0.00    -0.230 C  
HETATM    7  C   UNL     1     -10.050   4.569  73.456  1.00  0.00    -0.200 C  
HETATM    8  C   UNL     1     -10.301   5.537  72.335  1.00  0.00    -0.206 C  
HETATM    9  O   UNL     1     -11.390   6.024  72.074  1.00  0.00    -0.274 OA 
HETATM   10  N   UNL     1      -9.133   5.740  71.657  1.00  0.00    -0.143 N  
HETATM   11  O   UNL     1      -7.035   4.761  71.535  1.00  0.00    -0.041 OA 
HETATM   12  C   UNL     1      -8.125   4.910  72.069  1.00  0.00    -0.111 C  
ENDROOT
BRANCH  10  13
HETATM   13  C   UNL     1      -9.023   6.600  70.489  1.00  0.00    -0.152 C  
BRANCH  13  14
HETATM   14  C   UNL     1      -9.816   6.047  69.283  1.00  0.00    -0.191 C  
HETATM   15  C   UNL     1      -8.987   4.965  68.562  1.00  0.00    -0.131 C  
HETATM   16  C   UNL     1      -9.760   4.336  67.410  1.00  0.00    -0.210 C  
HETATM   17  C   UNL     1     -10.262   5.391  66.434  1.00  0.00    -0.268 C  
HETATM   18  C   UNL     1     -11.079   6.471  67.139  1.00  0.00    -0.434 C  
HETATM   19  C   UNL     1     -10.271   7.143  68.267  1.00  0.00    -0.210 C  
BRANCH  19  20
HETATM   20  C   UNL     1     -11.087   8.256  68.967  1.00  0.00     0.258 C  
BRANCH  20  21
HETATM   21  N   UNL     1     -10.330   9.339  69.622  1.00  0.00    -0.207 NA 
HETATM   22  C   UNL     1      -9.555  10.101  68.602  1.00  0.00    -0.163 C  
HETATM   23  C   UNL     1     -10.437  10.849  67.580  1.00  0.00    -0.209 C  
HETATM   24  N   UNL     1     -11.394  11.753  68.241  1.00  0.00    -0.257 NA 
HETATM   25  C   UNL     1     -12.095  11.207  69.418  1.00  0.00    -0.326 C  
HETATM   26  C   UNL     1     -11.187  10.328  70.319  1.00  0.00    -0.323 C  
BRANCH  24  27
HETATM   27  C   UNL     1     -11.169  13.101  68.141  1.00  0.00    -0.271 A  
HETATM   28  N   UNL     1     -10.777  13.845  69.173  1.00  0.00    -0.194 NA 
HETATM   29  S   UNL     1     -10.462  15.377  68.664  1.00  0.00    -0.245 SA 
HETATM   30  C   UNL     1     -10.810  15.111  67.008  1.00  0.00    -0.314 A  
HETATM   31  C   UNL     1     -10.708  16.001  65.925  1.00  0.00    -0.287 A  
HETATM   32  C   UNL     1     -11.042  15.538  64.651  1.00  0.00    -0.373 A  
HETATM   33  C   UNL     1     -11.467  14.229  64.462  1.00  0.00    -0.363 A  
HETATM   34  C   UNL     1     -11.554  13.349  65.548  1.00  0.00    -0.346 A  
HETATM   35  C   UNL     1     -11.229  13.787  66.858  1.00  0.00    -0.326 A  
ENDBRANCH  24  27
ENDBRANCH  20  21
ENDBRANCH  19  20
ENDBRANCH  13  14
ENDBRANCH  10  13
TORSDOF 5
ENDMDL
MODEL      110
REMARK 921   NORMALIZED FREE ENERGY PREDICTED BY IDOCK:   -5.02 KCAL/MOL
REMARK 922        TOTAL FREE ENERGY PREDICTED BY IDOCK:   -8.21 KCAL/MOL
REMARK 923 INTER-LIGAND FREE ENERGY PREDICTED BY IDOCK:   -7.62 KCAL/MOL
REMARK 924 INTRA-LIGAND FREE ENERGY PREDICTED BY IDOCK:   -0.59 KCAL/MOL
REMARK 927      BINDING AFFINITY PREDICTED BY RF-SCORE:    0.00 PKD
ROOT
HETATM    1  C   UNL     1      -8.581   7.778  72.905  1.00  0.00    -0.210 C  
HETATM    2  C   UNL     1      -7.217   7.116  72.640  1.00  0.00    -0.072 C  
HETATM    3  C   UNL     1      -6.571   6.800  74.004  1.00  0.00    -0.072 C  
HETATM    4  C   UNL     1      -7.440   5.645  74.542  1.00  0.00    -0.087 C  
HETATM    5  C   UNL     1      -8.468   5.430  73.412  1.00  0.00    -0.116 C  
HETATM    6  C   UNL     1      -7.598   5.707  72.182  1.00  0.00    -0.101 C  
HETATM    7  C   UNL     1      -9.436   6.624  73.437  1.00  0.00    -0.163 C  
HETATM    8  C   UNL     1     -10.561   6.502  72.448  1.00  0.00    -0.215 C  
HETATM    9  O   UNL     1     -11.410   5.625  72.474  1.00  0.00    -0.283 OA 
HETATM   10  N   UNL     1     -10.444   7.497  71.521  1.00  0.00    -0.204 N  
HETATM   11  O   UNL     1      -8.844   9.040  70.863  1.00  0.00    -0.203 OA 
HETATM   12  C   UNL     1      -9.282   8.210  71.647  1.00  0.00    -0.167 C  
ENDROOT
BRANCH  10  13
HETATM   13  C   UNL     1     -11.352   7.655  70.396  1.00  0.00    -0.219 C  
BRANCH  13  14
HETATM   14  C   UNL     1     -10.898   6.845  69.162  1.00  0.00    -0.262 C  
HETATM   15  C   UNL     1     -10.146   5.577  69.614  1.00  0.00    -0.309 C  
HETATM   16  C   UNL     1      -9.744   4.707  68.431  1.00  0.00    -0.198 C  
HETATM   17  C   UNL     1      -8.936   5.494  67.409  1.00  0.00    -0.107 C  
HETATM   18  C   UNL     1      -9.670   6.755  66.958  1.00  0.00    -0.200 C  
HETATM   19  C   UNL     1     -10.023   7.659  68.156  1.00  0.00    -0.203 C  
BRANCH  19  20
HETATM   20  C   UNL     1     -10.743   8.950  67.700  1.00  0.00    -0.151 C  
BRANCH  20  21
HETATM   21  N   UNL     1      -9.956  10.198  67.697  1.00  0.00    -0.174 NA 
HETATM   22  C   UNL     1      -9.649  10.597  66.295  1.00  0.00    -0.185 C  
HETATM   23  C   UNL     1     -10.897  10.961  65.463  1.00  0.00    -0.036 C  
HETATM   24  N   UNL     1     -11.696  12.018  66.107  1.00  0.00    -0.524 NA 
HETATM   25  C   UNL     1     -11.909  11.874  67.560  1.00  0.00    -0.179 C  
HETATM   26  C   UNL     1     -10.659  11.348  68.314  1.00  0.00    -0.195 C  
BRANCH  24  27
HETATM   27  C   UNL     1     -11.683  13.263  65.536  1.00  0.00    -0.346 A  
HETATM   28  N   UNL     1     -12.656  13.700  64.740  1.00  0.00    -0.644 NA 
HETATM   29  S   UNL     1     -12.392  15.278  64.355  1.00  0.00     0.067 SA 
HETATM   30  C   UNL     1     -10.956  15.466  65.271  1.00  0.00    -0.387 A  
HETATM   31  C   UNL     1     -10.168  16.614  65.461  1.00  0.00    -0.227 A  
HETATM   32  C   UNL     1      -9.036  16.517  66.273  1.00  0.00    -0.348 A  
HETATM   33  C   UNL     1      -8.699  15.311  66.875  1.00  0.00    -0.288 A  
HETATM   34  C   UNL     1      -9.499  14.177  66.687  1.00  0.00    -0.303 A  
HETATM   35  C   UNL     1     -10.653  14.238  65.863  1.00  0.00    -0.306 A  
ENDBRANCH  24  27
ENDBRANCH  20  21
ENDBRANCH  19  20
ENDBRANCH  13  14
ENDBRANCH  10  13
TORSDOF 5
ENDMDL
MODEL      111
REMARK 921   NORMALIZED FREE ENERGY PREDICTED BY IDOCK:   -5.01 KCAL/MOL
REMARK 922        TOTAL FREE ENERGY PREDICTED BY IDOCK:   -8.20 KCAL/MOL
REMARK 923 INTER-LIGAND FREE ENERGY PREDICTED BY IDOCK:   -7.78 KCAL/MOL
REMARK 924 INTRA-LIGAND FREE ENERGY PREDICTED BY IDOCK:   -0.42 KCAL/MOL
REMARK 927      BINDING AFFINITY PREDICTED BY RF-SCORE:    0.00 PKD
ROOT
HETATM    1  C   UNL     1     -11.265  16.273  66.943  1.00  0.00     0.182 C  
HETATM    2  C   UNL     1     -10.189  16.956  66.080  1.00  0.00    -0.352 C  
HETATM    3  C   UNL     1     -10.596  18.432  65.896  1.00  0.00    -0.313 C  
HETATM    4  C   UNL     1     -10.374  19.031  67.300  1.00  0.00    -0.505 C  
HETATM    5  C   UNL     1      -9.851  17.829  68.111  1.00  0.00    -0.326 C  
HETATM    6  C   UNL     1      -9.015  17.112  67.047  1.00  0.00    -0.244 C  
HETATM    7  C   UNL     1     -11.035  16.873  68.333  1.00  0.00    -0.296 C  
HETATM    8  C   UNL     1     -10.697  15.695  69.201  1.00  0.00    -0.243 C  
HETATM    9  O   UNL     1     -10.354  15.774  70.370  1.00  0.00    -0.248 OA 
HETATM   10  N   UNL     1     -10.805  14.554  68.459  1.00  0.00    -0.241 N  
HETATM   11  O   UNL     1     -10.998  13.984  66.220  1.00  0.00    -0.296 OA 
HETATM   12  C   UNL     1     -11.024  14.800  67.130  1.00  0.00    -0.320 C  
ENDROOT
BRANCH  10  13
HETATM   13  C   UNL     1     -10.515  13.227  68.981  1.00  0.00    -0.017 C  
BRANCH  13  14
HETATM   14  C   UNL     1     -11.745  12.591  69.667  1.00  0.00    -0.372 C  
HETATM   15  C   UNL     1     -12.117  13.395  70.929  1.00  0.00    -0.269 C  
HETATM   16  C   UNL     1     -13.371  12.849  71.597  1.00  0.00    -0.358 C  
HETATM   17  C   UNL     1     -13.236  11.364  71.907  1.00  0.00    -0.485 C  
HETATM   18  C   UNL     1     -12.862  10.559  70.665  1.00  0.00    -0.407 C  
HETATM   19  C   UNL     1     -11.560  11.082  70.025  1.00  0.00    -0.427 C  
BRANCH  19  20
HETATM   20  C   UNL     1     -11.164  10.252  68.781  1.00  0.00    -0.206 C  
BRANCH  20  21
HETATM   21  N   UNL     1      -9.820   9.644  68.774  1.00  0.00    -0.160 NA 
HETATM   22  C   UNL     1      -9.846   8.353  69.518  1.00  0.00    -0.181 C  
HETATM   23  C   UNL     1     -10.729   7.272  68.861  1.00  0.00    -0.150 C  
HETATM   24  N   UNL     1     -10.339   7.021  67.463  1.00  0.00    -0.199 NA 
HETATM   25  C   UNL     1     -10.065   8.216  66.642  1.00  0.00    -0.273 C  
HETATM   26  C   UNL     1      -9.314   9.332  67.416  1.00  0.00    -0.127 C  
BRANCH  24  27
HETATM   27  C   UNL     1      -9.712   5.837  67.181  1.00  0.00    -0.136 A  
HETATM   28  N   UNL     1     -10.292   4.862  66.483  1.00  0.00    -0.272 NA 
HETATM   29  S   UNL     1      -9.208   3.656  66.208  1.00  0.00    -0.174 SA 
HETATM   30  C   UNL     1      -7.880   4.399  66.995  1.00  0.00    -0.097 A  
HETATM   31  C   UNL     1      -6.555   3.948  67.119  1.00  0.00    -0.046 A  
HETATM   32  C   UNL     1      -5.642   4.750  67.807  1.00  0.00    -0.017 A  
HETATM   33  C   UNL     1      -6.037   5.964  68.354  1.00  0.00    -0.021 A  
HETATM   34  C   UNL     1      -7.358   6.407  68.214  1.00  0.00    -0.086 A  
HETATM   35  C   UNL     1      -8.315   5.615  67.528  1.00  0.00    -0.100 A  
ENDBRANCH  24  27
ENDBRANCH  20  21
ENDBRANCH  19  20
ENDBRANCH  13  14
ENDBRANCH  10  13
TORSDOF 5
ENDMDL
MODEL      112
REMARK 921   NORMALIZED FREE ENERGY PREDICTED BY IDOCK:   -5.00 KCAL/MOL
REMARK 922        TOTAL FREE ENERGY PREDICTED BY IDOCK:   -8.18 KCAL/MOL
REMARK 923 INTER-LIGAND FREE ENERGY PREDICTED BY IDOCK:   -7.39 KCAL/MOL
REMARK 924 INTRA-LIGAND FREE ENERGY PREDICTED BY IDOCK:   -0.79 KCAL/MOL
REMARK 927      BINDING AFFINITY PREDICTED BY RF-SCORE:    0.00 PKD
ROOT
HETATM    1  C   UNL     1      -8.609   5.254  73.384  1.00  0.00    -0.116 C  
HETATM    2  C   UNL     1      -8.575   3.759  73.020  1.00  0.00    -0.094 C  
HETATM    3  C   UNL     1      -9.116   2.966  74.226  1.00  0.00    -0.091 C  
HETATM    4  C   UNL     1     -10.620   3.308  74.221  1.00  0.00    -0.251 C  
HETATM    5  C   UNL     1     -10.758   4.244  73.003  1.00  0.00    -0.272 C  
HETATM    6  C   UNL     1      -9.744   3.612  72.045  1.00  0.00    -0.238 C  
HETATM    7  C   UNL     1     -10.104   5.584  73.376  1.00  0.00    -0.202 C  
HETATM    8  C   UNL     1     -10.252   6.637  72.314  1.00  0.00    -0.187 C  
HETATM    9  O   UNL     1     -11.320   7.095  71.939  1.00  0.00    -0.247 OA 
HETATM   10  N   UNL     1      -9.015   6.953  71.831  1.00  0.00    -0.137 N  
HETATM   11  O   UNL     1      -6.867   6.085  71.932  1.00  0.00    -0.065 OA 
HETATM   12  C   UNL     1      -8.028   6.136  72.314  1.00  0.00    -0.105 C  
ENDROOT
BRANCH  10  13
HETATM   13  C   UNL     1      -8.793   7.917  70.764  1.00  0.00    -0.139 C  
BRANCH  13  14
HETATM   14  C   UNL     1      -9.297   7.401  69.398  1.00  0.00    -0.155 C  
HETATM   15  C   UNL     1      -8.245   6.467  68.769  1.00  0.00    -0.121 C  
HETATM   16  C   UNL     1      -8.731   5.872  67.454  1.00  0.00    -0.108 C  
HETATM   17  C   UNL     1      -9.162   6.957  66.477  1.00  0.00    -0.195 C  
HETATM   18  C   UNL     1     -10.201   7.892  67.093  1.00  0.00    -0.360 C  
HETATM   19  C   UNL     1      -9.679   8.535  68.394  1.00  0.00    -0.169 C  
BRANCH  19  20
HETATM   20  C   UNL     1     -10.720   9.503  69.006  1.00  0.00    -0.202 C  
BRANCH  20  21
HETATM   21  N   UNL     1     -10.254  10.856  69.366  1.00  0.00    -0.174 NA 
HETATM   22  C   UNL     1      -9.257  11.328  68.364  1.00  0.00    -0.178 C  
HETATM   23  C   UNL     1      -9.838  11.516  66.947  1.00  0.00    -0.197 C  
HETATM   24  N   UNL     1     -10.997  12.423  66.946  1.00  0.00    -0.255 NA 
HETATM   25  C   UNL     1     -11.983  12.217  68.024  1.00  0.00    -0.166 C  
HETATM   26  C   UNL     1     -11.334  11.871  69.390  1.00  0.00    -0.261 C  
BRANCH  24  27
HETATM   27  C   UNL     1     -10.831  13.668  66.398  1.00  0.00    -0.290 A  
HETATM   28  N   UNL     1     -11.090  13.933  65.119  1.00  0.00    -0.320 NA 
HETATM   29  S   UNL     1     -10.923  15.547  64.843  1.00  0.00    -0.386 SA 
HETATM   30  C   UNL     1     -10.517  15.982  66.449  1.00  0.00    -0.309 A  
HETATM   31  C   UNL     1     -10.273  17.256  66.990  1.00  0.00    -0.320 A  
HETATM   32  C   UNL     1      -9.969  17.354  68.349  1.00  0.00    -0.329 A  
HETATM   33  C   UNL     1      -9.908  16.217  69.145  1.00  0.00    -0.258 A  
HETATM   34  C   UNL     1     -10.164  14.954  68.597  1.00  0.00    -0.236 A  
HETATM   35  C   UNL     1     -10.470  14.816  67.218  1.00  0.00    -0.264 A  
ENDBRANCH  24  27
ENDBRANCH  20  21
ENDBRANCH  19  20
ENDBRANCH  13  14
ENDBRANCH  10  13
TORSDOF 5
ENDMDL
MODEL      113
REMARK 921   NORMALIZED FREE ENERGY PREDICTED BY IDOCK:   -4.99 KCAL/MOL
REMARK 922        TOTAL FREE ENERGY PREDICTED BY IDOCK:   -8.17 KCAL/MOL
REMARK 923 INTER-LIGAND FREE ENERGY PREDICTED BY IDOCK:   -7.40 KCAL/MOL
REMARK 924 INTRA-LIGAND FREE ENERGY PREDICTED BY IDOCK:   -0.77 KCAL/MOL
REMARK 927      BINDING AFFINITY PREDICTED BY RF-SCORE:    0.00 PKD
ROOT
HETATM    1  C   UNL     1     -11.345  15.716  66.891  1.00  0.00    -0.017 C  
HETATM    2  C   UNL     1     -10.688  16.038  65.537  1.00  0.00    -0.374 C  
HETATM    3  C   UNL     1     -10.734  17.566  65.340  1.00  0.00    -0.008 C  
HETATM    4  C   UNL     1      -9.712  18.082  66.373  1.00  0.00    -0.324 C  
HETATM    5  C   UNL     1      -9.194  16.783  67.025  1.00  0.00    -0.238 C  
HETATM    6  C   UNL     1      -9.198  15.840  65.818  1.00  0.00    -0.255 C  
HETATM    7  C   UNL     1     -10.324  16.230  67.909  1.00  0.00    -0.285 C  
HETATM    8  C   UNL     1      -9.927  15.010  68.692  1.00  0.00    -0.220 C  
HETATM    9  O   UNL     1      -9.052  14.992  69.544  1.00  0.00    -0.165 OA 
HETATM   10  N   UNL     1     -10.673  13.950  68.265  1.00  0.00    -0.245 N  
HETATM   11  O   UNL     1     -12.068  13.448  66.483  1.00  0.00    -0.395 OA 
HETATM   12  C   UNL     1     -11.436  14.241  67.167  1.00  0.00    -0.359 C  
ENDROOT
BRANCH  10  13
HETATM   13  C   UNL     1     -10.523  12.601  68.790  1.00  0.00    -0.143 C  
BRANCH  13  14
HETATM   14  C   UNL     1     -11.765  12.145  69.588  1.00  0.00    -0.396 C  
HETATM   15  C   UNL     1     -12.038  13.131  70.741  1.00  0.00    -0.290 C  
HETATM   16  C   UNL     1     -13.300  12.764  71.511  1.00  0.00    -0.232 C  
HETATM   17  C   UNL     1     -13.250  11.326  72.011  1.00  0.00    -0.437 C  
HETATM   18  C   UNL     1     -12.973  10.342  70.877  1.00  0.00    -0.475 C  
HETATM   19  C   UNL     1     -11.664  10.687  70.138  1.00  0.00    -0.417 C  
BRANCH  19  20
HETATM   20  C   UNL     1     -11.368   9.676  69.005  1.00  0.00     0.099 C  
BRANCH  20  21
HETATM   21  N   UNL     1      -9.963   9.268  68.815  1.00  0.00    -0.175 NA 
HETATM   22  C   UNL     1      -9.681   8.044  69.617  1.00  0.00    -0.169 C  
HETATM   23  C   UNL     1     -10.478   6.803  69.163  1.00  0.00    -0.216 C  
HETATM   24  N   UNL     1     -10.268   6.509  67.736  1.00  0.00    -0.150 NA 
HETATM   25  C   UNL     1     -10.305   7.667  66.823  1.00  0.00    -0.273 C  
HETATM   26  C   UNL     1      -9.625   8.932  67.411  1.00  0.00    -0.157 C  
BRANCH  24  27
HETATM   27  C   UNL     1      -9.517   5.408  67.417  1.00  0.00    -0.120 A  
HETATM   28  N   UNL     1      -8.597   4.901  68.236  1.00  0.00    -0.101 NA 
HETATM   29  S   UNL     1      -7.999   3.506  67.602  1.00  0.00    -0.081 SA 
HETATM   30  C   UNL     1      -8.976   3.493  66.194  1.00  0.00    -0.142 A  
HETATM   31  C   UNL     1      -9.047   2.533  65.171  1.00  0.00    -0.135 A  
HETATM   32  C   UNL     1      -9.942   2.746  64.120  1.00  0.00    -0.117 A  
HETATM   33  C   UNL     1     -10.742   3.881  64.091  1.00  0.00    -0.229 A  
HETATM   34  C   UNL     1     -10.670   4.825  65.123  1.00  0.00     0.046 A  
HETATM   35  C   UNL     1      -9.766   4.645  66.202  1.00  0.00    -0.211 A  
ENDBRANCH  24  27
ENDBRANCH  20  21
ENDBRANCH  19  20
ENDBRANCH  13  14
ENDBRANCH  10  13
TORSDOF 5
ENDMDL
MODEL      114
REMARK 921   NORMALIZED FREE ENERGY PREDICTED BY IDOCK:   -4.98 KCAL/MOL
REMARK 922        TOTAL FREE ENERGY PREDICTED BY IDOCK:   -8.16 KCAL/MOL
REMARK 923 INTER-LIGAND FREE ENERGY PREDICTED BY IDOCK:   -7.35 KCAL/MOL
REMARK 924 INTRA-LIGAND FREE ENERGY PREDICTED BY IDOCK:   -0.81 KCAL/MOL
REMARK 927      BINDING AFFINITY PREDICTED BY RF-SCORE:    0.00 PKD
ROOT
HETATM    1  C   UNL     1      -9.877   5.544  66.299  1.00  0.00    -0.173 C  
HETATM    2  C   UNL     1      -9.437   4.555  67.392  1.00  0.00    -0.189 C  
HETATM    3  C   UNL     1      -9.377   3.149  66.763  1.00  0.00    -0.148 C  
HETATM    4  C   UNL     1      -8.150   3.236  65.833  1.00  0.00    -0.093 C  
HETATM    5  C   UNL     1      -7.647   4.676  66.056  1.00  0.00    -0.090 C  
HETATM    6  C   UNL     1      -7.944   4.851  67.548  1.00  0.00    -0.095 C  
HETATM    7  C   UNL     1      -8.653   5.624  65.382  1.00  0.00    -0.150 C  
HETATM    8  C   UNL     1      -8.239   7.068  65.432  1.00  0.00    -0.133 C  
HETATM    9  O   UNL     1      -7.236   7.517  64.899  1.00  0.00    -0.064 OA 
HETATM   10  N   UNL     1      -9.140   7.760  66.189  1.00  0.00    -0.172 N  
HETATM   11  O   UNL     1     -10.861   7.276  67.665  1.00  0.00    -0.228 OA 
HETATM   12  C   UNL     1     -10.052   6.948  66.809  1.00  0.00    -0.194 C  
ENDROOT
BRANCH  10  13
HETATM   13  C   UNL     1      -9.024   9.182  66.472  1.00  0.00    -0.148 C  
BRANCH  13  14
HETATM   14  C   UNL     1     -10.063  10.018  65.692  1.00  0.00    -0.321 C  
HETATM   15  C   UNL     1      -9.432  10.562  64.395  1.00  0.00    -0.333 C  
HETATM   16  C   UNL     1     -10.442  11.330  63.554  1.00  0.00    -0.457 C  
HETATM   17  C   UNL     1     -11.105  12.442  64.356  1.00  0.00    -0.381 C  
HETATM   18  C   UNL     1     -11.728  11.915  65.646  1.00  0.00    -0.214 C  
HETATM   19  C   UNL     1     -10.686  11.187  66.519  1.00  0.00    -0.314 C  
BRANCH  19  20
HETATM   20  C   UNL     1     -11.309  10.674  67.839  1.00  0.00    -0.268 C  
BRANCH  20  21
HETATM   21  N   UNL     1     -10.737  11.185  69.099  1.00  0.00    -0.222 NA 
HETATM   22  C   UNL     1     -11.484  10.619  70.258  1.00  0.00    -0.337 C  
HETATM   23  C   UNL     1     -11.350   9.088  70.399  1.00  0.00    -0.210 C  
HETATM   24  N   UNL     1      -9.942   8.666  70.476  1.00  0.00    -0.183 NA 
HETATM   25  C   UNL     1      -9.020   9.308  69.519  1.00  0.00    -0.152 C  
HETATM   26  C   UNL     1      -9.315  10.815  69.300  1.00  0.00    -0.067 C  
BRANCH  24  27
HETATM   27  C   UNL     1      -9.475   8.223  71.685  1.00  0.00    -0.195 A  
HETATM   28  N   UNL     1      -8.523   8.856  72.366  1.00  0.00    -0.365 NA 
HETATM   29  S   UNL     1      -8.316   8.136  73.831  1.00  0.00    -0.205 SA 
HETATM   30  C   UNL     1      -9.527   6.940  73.636  1.00  0.00    -0.188 A  
HETATM   31  C   UNL     1      -9.962   5.960  74.544  1.00  0.00    -0.301 A  
HETATM   32  C   UNL     1     -10.988   5.097  74.150  1.00  0.00     0.039 A  
HETATM   33  C   UNL     1     -11.561   5.208  72.890  1.00  0.00    -0.282 A  
HETATM   34  C   UNL     1     -11.127   6.197  71.999  1.00  0.00    -0.322 A  
HETATM   35  C   UNL     1     -10.082   7.086  72.362  1.00  0.00    -0.193 A  
ENDBRANCH  24  27
ENDBRANCH  20  21
ENDBRANCH  19  20
ENDBRANCH  13  14
ENDBRANCH  10  13
TORSDOF 5
ENDMDL
MODEL      115
REMARK 921   NORMALIZED FREE ENERGY PREDICTED BY IDOCK:   -4.98 KCAL/MOL
REMARK 922        TOTAL FREE ENERGY PREDICTED BY IDOCK:   -8.15 KCAL/MOL
REMARK 923 INTER-LIGAND FREE ENERGY PREDICTED BY IDOCK:   -7.07 KCAL/MOL
REMARK 924 INTRA-LIGAND FREE ENERGY PREDICTED BY IDOCK:   -1.08 KCAL/MOL
REMARK 927      BINDING AFFINITY PREDICTED BY RF-SCORE:    0.00 PKD
ROOT
HETATM    1  C   UNL     1      -9.777  13.685  66.049  1.00  0.00    -0.239 C  
HETATM    2  C   UNL     1     -10.865  14.413  66.858  1.00  0.00    -0.301 C  
HETATM    3  C   UNL     1     -10.734  15.923  66.579  1.00  0.00    -0.258 C  
HETATM    4  C   UNL     1     -11.216  16.051  65.120  1.00  0.00    -0.193 C  
HETATM    5  C   UNL     1     -11.581  14.599  64.748  1.00  0.00    -0.418 C  
HETATM    6  C   UNL     1     -12.145  14.098  66.081  1.00  0.00    -0.454 C  
HETATM    7  C   UNL     1     -10.265  13.817  64.604  1.00  0.00    -0.313 C  
HETATM    8  C   UNL     1     -10.461  12.400  64.142  1.00  0.00    -0.389 C  
HETATM    9  O   UNL     1     -10.936  12.086  63.062  1.00  0.00    -0.257 OA 
HETATM   10  N   UNL     1     -10.056  11.553  65.133  1.00  0.00    -0.256 N  
HETATM   11  O   UNL     1      -9.518  11.689  67.384  1.00  0.00    -0.166 OA 
HETATM   12  C   UNL     1      -9.748  12.203  66.298  1.00  0.00    -0.238 C  
ENDROOT
BRANCH  10  13
HETATM   13  C   UNL     1     -10.139  10.104  65.032  1.00  0.00    -0.235 C  
BRANCH  13  14
HETATM   14  C   UNL     1      -8.833   9.483  64.487  1.00  0.00    -0.249 C  
HETATM   15  C   UNL     1      -9.012   9.105  63.003  1.00  0.00    -0.020 C  
HETATM   16  C   UNL     1      -7.725   8.559  62.400  1.00  0.00    -0.127 C  
HETATM   17  C   UNL     1      -7.184   7.387  63.208  1.00  0.00    -0.079 C  
HETATM   18  C   UNL     1      -7.009   7.750  64.681  1.00  0.00    -0.063 C  
HETATM   19  C   UNL     1      -8.331   8.249  65.300  1.00  0.00    -0.175 C  
BRANCH  19  20
HETATM   20  C   UNL     1      -8.162   8.592  66.799  1.00  0.00    -0.105 C  
BRANCH  20  21
HETATM   21  N   UNL     1      -9.282   8.255  67.699  1.00  0.00    -0.137 NA 
HETATM   22  C   UNL     1      -9.601   6.804  67.586  1.00  0.00    -0.125 C  
HETATM   23  C   UNL     1      -8.465   5.877  68.068  1.00  0.00    -0.110 C  
HETATM   24  N   UNL     1      -8.060   6.180  69.450  1.00  0.00    -0.110 NA 
HETATM   25  C   UNL     1      -7.908   7.610  69.782  1.00  0.00    -0.110 C  
HETATM   26  C   UNL     1      -8.992   8.508  69.131  1.00  0.00    -0.146 C  
BRANCH  24  27
HETATM   27  C   UNL     1      -8.403   5.282  70.426  1.00  0.00    -0.111 A  
HETATM   28  N   UNL     1      -7.592   4.303  70.822  1.00  0.00    -0.051 NA 
HETATM   29  S   UNL     1      -8.260   3.514  72.102  1.00  0.00    -0.072 SA 
HETATM   30  C   UNL     1      -9.676   4.473  72.210  1.00  0.00    -0.163 A  
HETATM   31  C   UNL     1     -10.726   4.406  73.141  1.00  0.00    -0.296 A  
HETATM   32  C   UNL     1     -11.777   5.318  73.025  1.00  0.00    -0.217 A  
HETATM   33  C   UNL     1     -11.780   6.268  72.012  1.00  0.00    -0.374 A  
HETATM   34  C   UNL     1     -10.722   6.333  71.097  1.00  0.00    -0.301 A  
HETATM   35  C   UNL     1      -9.641   5.417  71.181  1.00  0.00    -0.214 A  
ENDBRANCH  24  27
ENDBRANCH  20  21
ENDBRANCH  19  20
ENDBRANCH  13  14
ENDBRANCH  10  13
TORSDOF 5
ENDMDL
MODEL      116
REMARK 921   NORMALIZED FREE ENERGY PREDICTED BY IDOCK:   -4.96 KCAL/MOL
REMARK 922        TOTAL FREE ENERGY PREDICTED BY IDOCK:   -8.14 KCAL/MOL
REMARK 923 INTER-LIGAND FREE ENERGY PREDICTED BY IDOCK:   -8.69 KCAL/MOL
REMARK 924 INTRA-LIGAND FREE ENERGY PREDICTED BY IDOCK:    0.56 KCAL/MOL
REMARK 927      BINDING AFFINITY PREDICTED BY RF-SCORE:    0.00 PKD
ROOT
HETATM    1  C   UNL     1      -8.534   6.741  67.265  1.00  0.00    -0.120 C  
HETATM    2  C   UNL     1      -9.892   6.442  66.606  1.00  0.00    -0.203 C  
HETATM    3  C   UNL     1      -9.783   5.079  65.895  1.00  0.00    -0.182 C  
HETATM    4  C   UNL     1      -9.717   4.078  67.066  1.00  0.00    -0.214 C  
HETATM    5  C   UNL     1      -9.813   4.990  68.306  1.00  0.00    -0.211 C  
HETATM    6  C   UNL     1     -10.779   6.063  67.794  1.00  0.00    -0.369 C  
HETATM    7  C   UNL     1      -8.478   5.744  68.427  1.00  0.00    -0.110 C  
HETATM    8  C   UNL     1      -8.387   6.603  69.656  1.00  0.00    -0.132 C  
HETATM    9  O   UNL     1      -8.417   6.177  70.800  1.00  0.00    -0.127 OA 
HETATM   10  N   UNL     1      -8.303   7.912  69.275  1.00  0.00    -0.134 N  
HETATM   11  O   UNL     1      -8.622   9.153  67.343  1.00  0.00    -0.115 OA 
HETATM   12  C   UNL     1      -8.484   8.089  67.930  1.00  0.00    -0.125 C  
ENDROOT
BRANCH  10  13
HETATM   13  C   UNL     1      -8.234   9.018  70.217  1.00  0.00    -0.143 C  
BRANCH  13  14
HETATM   14  C   UNL     1      -9.558   9.209  70.990  1.00  0.00    -0.350 C  
HETATM   15  C   UNL     1      -9.908   7.918  71.758  1.00  0.00    -0.223 C  
HETATM   16  C   UNL     1     -11.168   8.084  72.597  1.00  0.00    -0.462 C  
HETATM   17  C   UNL     1     -12.341   8.561  71.752  1.00  0.00    -0.388 C  
HETATM   18  C   UNL     1     -12.003   9.836  70.983  1.00  0.00    -0.440 C  
HETATM   19  C   UNL     1     -10.759   9.643  70.092  1.00  0.00    -0.321 C  
BRANCH  19  20
HETATM   20  C   UNL     1     -10.429  10.926  69.292  1.00  0.00    -0.202 C  
BRANCH  20  21
HETATM   21  N   UNL     1     -11.411  11.363  68.281  1.00  0.00    -0.282 NA 
HETATM   22  C   UNL     1     -11.902  12.730  68.613  1.00  0.00    -0.304 C  
HETATM   23  C   UNL     1     -10.810  13.818  68.544  1.00  0.00    -0.263 C  
HETATM   24  N   UNL     1     -10.146  13.845  67.230  1.00  0.00    -0.240 NA 
HETATM   25  C   UNL     1      -9.785  12.533  66.659  1.00  0.00    -0.242 C  
HETATM   26  C   UNL     1     -10.858  11.440  66.908  1.00  0.00    -0.285 C  
BRANCH  24  27
HETATM   27  C   UNL     1     -10.416  14.902  66.401  1.00  0.00    -0.299 A  
HETATM   28  N   UNL     1     -11.079  14.768  65.254  1.00  0.00    -0.350 NA 
HETATM   29  S   UNL     1     -11.353  16.250  64.595  1.00  0.00    -0.026 SA 
HETATM   30  C   UNL     1     -10.613  17.161  65.843  1.00  0.00    -0.215 A  
HETATM   31  C   UNL     1     -10.509  18.556  65.983  1.00  0.00    -0.433 A  
HETATM   32  C   UNL     1      -9.861  19.064  67.110  1.00  0.00    -0.383 A  
HETATM   33  C   UNL     1      -9.331  18.209  68.068  1.00  0.00    -0.289 A  
HETATM   34  C   UNL     1      -9.451  16.822  67.923  1.00  0.00    -0.230 A  
HETATM   35  C   UNL     1     -10.097  16.269  66.786  1.00  0.00    -0.281 A  
ENDBRANCH  24  27
ENDBRANCH  20  21
ENDBRANCH  19  20
ENDBRANCH  13  14
ENDBRANCH  10  13
TORSDOF 5
ENDMDL
MODEL      117
REMARK 921   NORMALIZED FREE ENERGY PREDICTED BY IDOCK:   -4.96 KCAL/MOL
REMARK 922        TOTAL FREE ENERGY PREDICTED BY IDOCK:   -8.14 KCAL/MOL
REMARK 923 INTER-LIGAND FREE ENERGY PREDICTED BY IDOCK:   -6.88 KCAL/MOL
REMARK 924 INTRA-LIGAND FREE ENERGY PREDICTED BY IDOCK:   -1.26 KCAL/MOL
REMARK 927      BINDING AFFINITY PREDICTED BY RF-SCORE:    0.00 PKD
ROOT
HETATM    1  C   UNL     1     -11.150  11.872  65.948  1.00  0.00    -0.365 C  
HETATM    2  C   UNL     1     -11.607  12.052  64.490  1.00  0.00    -0.387 C  
HETATM    3  C   UNL     1     -12.895  12.899  64.497  1.00  0.00    -0.273 C  
HETATM    4  C   UNL     1     -12.389  14.299  64.897  1.00  0.00    -0.435 C  
HETATM    5  C   UNL     1     -10.869  14.087  65.054  1.00  0.00    -0.401 C  
HETATM    6  C   UNL     1     -10.609  13.072  63.937  1.00  0.00    -0.292 C  
HETATM    7  C   UNL     1     -10.649  13.266  66.335  1.00  0.00    -0.288 C  
HETATM    8  C   UNL     1      -9.199  13.065  66.674  1.00  0.00    -0.219 C  
HETATM    9  O   UNL     1      -8.421  13.967  66.943  1.00  0.00    -0.174 OA 
HETATM   10  N   UNL     1      -8.908  11.734  66.592  1.00  0.00    -0.187 N  
HETATM   11  O   UNL     1      -9.901   9.815  65.751  1.00  0.00    -0.260 OA 
HETATM   12  C   UNL     1      -9.939  10.991  66.083  1.00  0.00    -0.231 C  
ENDROOT
BRANCH  10  13
HETATM   13  C   UNL     1      -7.579  11.188  66.827  1.00  0.00    -0.146 C  
BRANCH  13  14
HETATM   14  C   UNL     1      -7.146  11.324  68.303  1.00  0.00    -0.074 C  
HETATM   15  C   UNL     1      -5.767  12.008  68.384  1.00  0.00    -0.049 C  
HETATM   16  C   UNL     1      -5.331  12.233  69.826  1.00  0.00    -0.084 C  
HETATM   17  C   UNL     1      -5.354  10.936  70.624  1.00  0.00    -0.102 C  
HETATM   18  C   UNL     1      -6.716  10.249  70.546  1.00  0.00    -0.075 C  
HETATM   19  C   UNL     1      -7.124   9.972  69.084  1.00  0.00    -0.069 C  
BRANCH  19  20
HETATM   20  C   UNL     1      -8.490   9.252  69.003  1.00  0.00    -0.132 C  
BRANCH  20  21
HETATM   21  N   UNL     1      -8.550   8.003  68.220  1.00  0.00    -0.130 NA 
HETATM   22  C   UNL     1      -7.600   7.006  68.789  1.00  0.00    -0.105 C  
HETATM   23  C   UNL     1      -7.958   6.548  70.218  1.00  0.00    -0.115 C  
HETATM   24  N   UNL     1      -9.328   6.014  70.295  1.00  0.00    -0.157 NA 
HETATM   25  C   UNL     1     -10.366   6.788  69.588  1.00  0.00    -0.198 C  
HETATM   26  C   UNL     1      -9.885   7.358  68.227  1.00  0.00    -0.160 C  
BRANCH  24  27
HETATM   27  C   UNL     1      -9.475   4.663  70.464  1.00  0.00    -0.177 A  
HETATM   28  N   UNL     1      -9.035   3.773  69.576  1.00  0.00    -0.094 NA 
HETATM   29  S   UNL     1      -9.246   2.251  70.165  1.00  0.00    -0.111 SA 
HETATM   30  C   UNL     1      -9.920   2.713  71.671  1.00  0.00    -0.089 A  
HETATM   31  C   UNL     1     -10.314   1.907  72.752  1.00  0.00    -0.222 A  
HETATM   32  C   UNL     1     -10.831   2.528  73.891  1.00  0.00    -0.276 A  
HETATM   33  C   UNL     1     -10.952   3.911  73.950  1.00  0.00    -0.285 A  
HETATM   34  C   UNL     1     -10.545   4.704  72.870  1.00  0.00    -0.277 A  
HETATM   35  C   UNL     1     -10.022   4.106  71.694  1.00  0.00    -0.240 A  
ENDBRANCH  24  27
ENDBRANCH  20  21
ENDBRANCH  19  20
ENDBRANCH  13  14
ENDBRANCH  10  13
TORSDOF 5
ENDMDL
MODEL      118
REMARK 921   NORMALIZED FREE ENERGY PREDICTED BY IDOCK:   -4.95 KCAL/MOL
REMARK 922        TOTAL FREE ENERGY PREDICTED BY IDOCK:   -8.11 KCAL/MOL
REMARK 923 INTER-LIGAND FREE ENERGY PREDICTED BY IDOCK:   -7.79 KCAL/MOL
REMARK 924 INTRA-LIGAND FREE ENERGY PREDICTED BY IDOCK:   -0.32 KCAL/MOL
REMARK 927      BINDING AFFINITY PREDICTED BY RF-SCORE:    0.00 PKD
ROOT
HETATM    1  C   UNL     1      -9.410  14.167  67.539  1.00  0.00    -0.204 C  
HETATM    2  C   UNL     1      -9.585  14.877  68.893  1.00  0.00    -0.215 C  
HETATM    3  C   UNL     1      -9.646  16.394  68.627  1.00  0.00    -0.240 C  
HETATM    4  C   UNL     1     -11.015  16.573  67.941  1.00  0.00    -0.288 C  
HETATM    5  C   UNL     1     -11.578  15.138  67.913  1.00  0.00    -0.326 C  
HETATM    6  C   UNL     1     -11.047  14.600  69.245  1.00  0.00    -0.290 C  
HETATM    7  C   UNL     1     -10.774  14.349  66.867  1.00  0.00    -0.292 C  
HETATM    8  C   UNL     1     -11.280  12.950  66.656  1.00  0.00    -0.304 C  
HETATM    9  O   UNL     1     -12.388  12.674  66.225  1.00  0.00    -0.550 OA 
HETATM   10  N   UNL     1     -10.317  12.068  67.055  1.00  0.00    -0.210 N  
HETATM   11  O   UNL     1      -8.340  12.127  68.265  1.00  0.00    -0.163 OA 
HETATM   12  C   UNL     1      -9.256  12.677  67.670  1.00  0.00    -0.191 C  
ENDROOT
BRANCH  10  13
HETATM   13  C   UNL     1     -10.488  10.623  67.019  1.00  0.00    -0.243 C  
BRANCH  13  14
HETATM   14  C   UNL     1     -11.143  10.082  68.309  1.00  0.00    -0.247 C  
HETATM   15  C   UNL     1     -11.904  11.214  69.027  1.00  0.00    -0.418 C  
HETATM   16  C   UNL     1     -12.630  10.710  70.266  1.00  0.00    -0.333 C  
HETATM   17  C   UNL     1     -11.681   9.992  71.216  1.00  0.00    -0.452 C  
HETATM   18  C   UNL     1     -10.918   8.871  70.512  1.00  0.00    -0.280 C  
HETATM   19  C   UNL     1     -10.139   9.400  69.291  1.00  0.00    -0.200 C  
BRANCH  19  20
HETATM   20  C   UNL     1      -9.344   8.272  68.592  1.00  0.00    -0.143 C  
BRANCH  20  21
HETATM   21  N   UNL     1     -10.038   7.512  67.535  1.00  0.00    -0.182 NA 
HETATM   22  C   UNL     1      -9.075   7.157  66.455  1.00  0.00    -0.154 C  
HETATM   23  C   UNL     1      -7.956   6.196  66.908  1.00  0.00    -0.105 C  
HETATM   24  N   UNL     1      -8.499   4.963  67.501  1.00  0.00    -0.105 NA 
HETATM   25  C   UNL     1      -9.620   5.136  68.445  1.00  0.00    -0.139 C  
HETATM   26  C   UNL     1     -10.625   6.235  68.007  1.00  0.00    -0.262 C  
BRANCH  24  27
HETATM   27  C   UNL     1      -8.384   3.805  66.778  1.00  0.00    -0.103 A  
HETATM   28  N   UNL     1      -7.594   2.799  67.149  1.00  0.00    -0.069 NA 
HETATM   29  S   UNL     1      -7.813   1.520  66.137  1.00  0.00    -0.069 SA 
HETATM   30  C   UNL     1      -9.014   2.248  65.155  1.00  0.00    -0.123 A  
HETATM   31  C   UNL     1      -9.730   1.702  64.076  1.00  0.00    -0.131 A  
HETATM   32  C   UNL     1     -10.678   2.502  63.435  1.00  0.00    -0.216 A  
HETATM   33  C   UNL     1     -10.906   3.806  63.857  1.00  0.00    -0.196 A  
HETATM   34  C   UNL     1     -10.195   4.334  64.941  1.00  0.00    -0.193 A  
HETATM   35  C   UNL     1      -9.219   3.552  65.612  1.00  0.00    -0.158 A  
ENDBRANCH  24  27
ENDBRANCH  20  21
ENDBRANCH  19  20
ENDBRANCH  13  14
ENDBRANCH  10  13
TORSDOF 5
ENDMDL
MODEL      119
REMARK 921   NORMALIZED FREE ENERGY PREDICTED BY IDOCK:   -4.93 KCAL/MOL
REMARK 922        TOTAL FREE ENERGY PREDICTED BY IDOCK:   -8.10 KCAL/MOL
REMARK 923 INTER-LIGAND FREE ENERGY PREDICTED BY IDOCK:   -8.51 KCAL/MOL
REMARK 924 INTRA-LIGAND FREE ENERGY PREDICTED BY IDOCK:    0.41 KCAL/MOL
REMARK 927      BINDING AFFINITY PREDICTED BY RF-SCORE:    0.00 PKD
ROOT
HETATM    1  C   UNL     1      -9.788  12.206  65.120  1.00  0.00    -0.200 C  
HETATM    2  C   UNL     1     -10.877  13.279  64.941  1.00  0.00    -0.358 C  
HETATM    3  C   UNL     1     -11.392  13.194  63.491  1.00  0.00    -0.214 C  
HETATM    4  C   UNL     1     -12.180  11.868  63.479  1.00  0.00    -0.591 C  
HETATM    5  C   UNL     1     -12.033  11.365  64.929  1.00  0.00     0.428 C  
HETATM    6  C   UNL     1     -12.071  12.691  65.694  1.00  0.00    -0.502 C  
HETATM    7  C   UNL     1     -10.580  10.896  65.108  1.00  0.00    -0.268 C  
HETATM    8  C   UNL     1     -10.312  10.281  66.453  1.00  0.00    -0.195 C  
HETATM    9  O   UNL     1     -10.846   9.264  66.866  1.00  0.00    -0.144 OA 
HETATM   10  N   UNL     1      -9.418  11.064  67.125  1.00  0.00    -0.164 N  
HETATM   11  O   UNL     1      -8.515  13.190  66.921  1.00  0.00    -0.170 OA 
HETATM   12  C   UNL     1      -9.145  12.240  66.479  1.00  0.00    -0.188 C  
ENDROOT
BRANCH  10  13
HETATM   13  C   UNL     1      -8.960  10.779  68.477  1.00  0.00    -0.160 C  
BRANCH  13  14
HETATM   14  C   UNL     1     -10.094  10.921  69.517  1.00  0.00    -0.056 C  
HETATM   15  C   UNL     1     -10.860   9.590  69.644  1.00  0.00    -0.255 C  
HETATM   16  C   UNL     1     -11.940   9.659  70.715  1.00  0.00    -0.356 C  
HETATM   17  C   UNL     1     -12.891  10.824  70.474  1.00  0.00    -0.335 C  
HETATM   18  C   UNL     1     -12.140  12.148  70.342  1.00  0.00    -0.395 C  
HETATM   19  C   UNL     1     -11.087  12.088  69.217  1.00  0.00    -0.246 C  
BRANCH  19  20
HETATM   20  C   UNL     1     -10.343  13.436  69.063  1.00  0.00     0.018 C  
BRANCH  20  21
HETATM   21  N   UNL     1     -11.133  14.668  69.249  1.00  0.00    -0.259 NA 
HETATM   22  C   UNL     1     -10.291  15.714  69.896  1.00  0.00    -0.315 C  
HETATM   23  C   UNL     1      -9.101  16.180  69.031  1.00  0.00    -0.250 C  
HETATM   24  N   UNL     1      -9.538  16.656  67.708  1.00  0.00    -0.234 NA 
HETATM   25  C   UNL     1     -10.548  15.828  67.022  1.00  0.00    -0.316 C  
HETATM   26  C   UNL     1     -11.626  15.256  67.981  1.00  0.00    -0.312 C  
BRANCH  24  27
HETATM   27  C   UNL     1      -9.476  18.003  67.465  1.00  0.00    -0.262 A  
HETATM   28  N   UNL     1     -10.368  18.865  67.948  1.00  0.00    -0.394 NA 
HETATM   29  S   UNL     1      -9.906  20.402  67.586  1.00  0.00    -0.335 SA 
HETATM   30  C   UNL     1      -8.454  19.987  66.776  1.00  0.00    -0.324 A  
HETATM   31  C   UNL     1      -7.476  20.828  66.219  1.00  0.00     0.006 A  
HETATM   32  C   UNL     1      -6.361  20.243  65.616  1.00  0.00    -0.263 A  
HETATM   33  C   UNL     1      -6.225  18.862  65.570  1.00  0.00    -0.292 A  
HETATM   34  C   UNL     1      -7.201  18.034  66.139  1.00  0.00    -0.325 A  
HETATM   35  C   UNL     1      -8.351  18.595  66.754  1.00  0.00    -0.287 A  
ENDBRANCH  24  27
ENDBRANCH  20  21
ENDBRANCH  19  20
ENDBRANCH  13  14
ENDBRANCH  10  13
TORSDOF 5
ENDMDL
MODEL      120
REMARK 921   NORMALIZED FREE ENERGY PREDICTED BY IDOCK:   -4.93 KCAL/MOL
REMARK 922        TOTAL FREE ENERGY PREDICTED BY IDOCK:   -8.09 KCAL/MOL
REMARK 923 INTER-LIGAND FREE ENERGY PREDICTED BY IDOCK:   -7.10 KCAL/MOL
REMARK 924 INTRA-LIGAND FREE ENERGY PREDICTED BY IDOCK:   -1.00 KCAL/MOL
REMARK 927      BINDING AFFINITY PREDICTED BY RF-SCORE:    0.00 PKD
ROOT
HETATM    1  C   UNL     1      -7.530  17.020  66.601  1.00  0.00    -0.300 C  
HETATM    2  C   UNL     1      -6.939  17.621  67.889  1.00  0.00    -0.190 C  
HETATM    3  C   UNL     1      -6.319  18.986  67.533  1.00  0.00    -0.199 C  
HETATM    4  C   UNL     1      -7.554  19.867  67.253  1.00  0.00    -0.306 C  
HETATM    5  C   UNL     1      -8.731  18.901  67.498  1.00  0.00    -0.296 C  
HETATM    6  C   UNL     1      -8.179  18.073  68.662  1.00  0.00    -0.287 C  
HETATM    7  C   UNL     1      -8.755  17.899  66.331  1.00  0.00    -0.249 C  
HETATM    8  C   UNL     1      -9.919  16.950  66.383  1.00  0.00    -0.309 C  
HETATM    9  O   UNL     1     -11.089  17.289  66.308  1.00  0.00     0.132 OA 
HETATM   10  N   UNL     1      -9.446  15.682  66.561  1.00  0.00    -0.252 N  
HETATM   11  O   UNL     1      -7.446  14.670  67.151  1.00  0.00    -0.167 OA 
HETATM   12  C   UNL     1      -8.099  15.642  66.799  1.00  0.00    -0.244 C  
ENDROOT
BRANCH  10  13
HETATM   13  C   UNL     1     -10.308  14.516  66.687  1.00  0.00    -0.274 C  
BRANCH  13  14
HETATM   14  C   UNL     1     -10.621  13.872  65.318  1.00  0.00    -0.372 C  
HETATM   15  C   UNL     1     -11.915  14.476  64.738  1.00  0.00    -0.449 C  
HETATM   16  C   UNL     1     -12.223  13.926  63.352  1.00  0.00     0.005 C  
HETATM   17  C   UNL     1     -12.276  12.404  63.355  1.00  0.00    -0.623 C  
HETATM   18  C   UNL     1     -11.000  11.796  63.934  1.00  0.00    -0.476 C  
HETATM   19  C   UNL     1     -10.725  12.315  65.360  1.00  0.00    -0.320 C  
BRANCH  19  20
HETATM   20  C   UNL     1      -9.447  11.680  65.959  1.00  0.00    -0.229 C  
BRANCH  20  21
HETATM   21  N   UNL     1      -9.099  10.316  65.515  1.00  0.00    -0.165 NA 
HETATM   22  C   UNL     1      -7.708   9.989  65.937  1.00  0.00    -0.116 C  
HETATM   23  C   UNL     1      -7.519   9.926  67.468  1.00  0.00    -0.091 C  
HETATM   24  N   UNL     1      -8.454   8.979  68.097  1.00  0.00    -0.128 NA 
HETATM   25  C   UNL     1      -9.850   9.034  67.622  1.00  0.00    -0.173 C  
HETATM   26  C   UNL     1      -9.968   9.263  66.092  1.00  0.00    -0.277 C  
BRANCH  24  27
HETATM   27  C   UNL     1      -7.940   7.805  68.581  1.00  0.00    -0.122 A  
HETATM   28  N   UNL     1      -7.683   6.755  67.803  1.00  0.00    -0.109 NA 
HETATM   29  S   UNL     1      -6.941   5.581  68.684  1.00  0.00    -0.062 SA 
HETATM   30  C   UNL     1      -6.900   6.440  70.166  1.00  0.00    -0.057 A  
HETATM   31  C   UNL     1      -6.344   6.060  71.399  1.00  0.00    -0.048 A  
HETATM   32  C   UNL     1      -6.428   6.952  72.470  1.00  0.00    -0.054 A  
HETATM   33  C   UNL     1      -7.048   8.185  72.317  1.00  0.00    -0.102 A  
HETATM   34  C   UNL     1      -7.589   8.558  71.080  1.00  0.00    -0.104 A  
HETATM   35  C   UNL     1      -7.528   7.673  69.971  1.00  0.00    -0.082 A  
ENDBRANCH  24  27
ENDBRANCH  20  21
ENDBRANCH  19  20
ENDBRANCH  13  14
ENDBRANCH  10  13
TORSDOF 5
ENDMDL
MODEL      121
REMARK 921   NORMALIZED FREE ENERGY PREDICTED BY IDOCK:   -4.93 KCAL/MOL
REMARK 922        TOTAL FREE ENERGY PREDICTED BY IDOCK:   -8.09 KCAL/MOL
REMARK 923 INTER-LIGAND FREE ENERGY PREDICTED BY IDOCK:   -8.90 KCAL/MOL
REMARK 924 INTRA-LIGAND FREE ENERGY PREDICTED BY IDOCK:    0.81 KCAL/MOL
REMARK 927      BINDING AFFINITY PREDICTED BY RF-SCORE:    0.00 PKD
ROOT
HETATM    1  C   UNL     1     -12.223  14.024  66.118  1.00  0.00    -0.494 C  
HETATM    2  C   UNL     1     -12.260  12.555  65.659  1.00  0.00    -0.403 C  
HETATM    3  C   UNL     1     -12.897  12.512  64.257  1.00  0.00    -0.350 C  
HETATM    4  C   UNL     1     -11.814  13.147  63.362  1.00  0.00    -0.490 C  
HETATM    5  C   UNL     1     -10.681  13.461  64.360  1.00  0.00    -0.423 C  
HETATM    6  C   UNL     1     -10.799  12.264  65.308  1.00  0.00    -0.332 C  
HETATM    7  C   UNL     1     -11.145  14.645  65.225  1.00  0.00    -0.363 C  
HETATM    8  C   UNL     1     -10.095  15.130  66.185  1.00  0.00    -0.295 C  
HETATM    9  O   UNL     1      -9.021  15.606  65.851  1.00  0.00    -0.320 OA 
HETATM   10  N   UNL     1     -10.531  14.916  67.461  1.00  0.00    -0.251 N  
HETATM   11  O   UNL     1     -12.215  13.721  68.514  1.00  0.00    -0.348 OA 
HETATM   12  C   UNL     1     -11.692  14.193  67.514  1.00  0.00    -0.386 C  
ENDROOT
BRANCH  10  13
HETATM   13  C   UNL     1      -9.745  15.240  68.641  1.00  0.00    -0.212 C  
BRANCH  13  14
HETATM   14  C   UNL     1      -8.391  14.496  68.662  1.00  0.00    -0.164 C  
HETATM   15  C   UNL     1      -7.328  15.318  67.907  1.00  0.00    -0.155 C  
HETATM   16  C   UNL     1      -5.957  14.659  67.966  1.00  0.00    -0.158 C  
HETATM   17  C   UNL     1      -6.006  13.222  67.463  1.00  0.00    -0.073 C  
HETATM   18  C   UNL     1      -7.060  12.401  68.201  1.00  0.00    -0.097 C  
HETATM   19  C   UNL     1      -8.457  13.045  68.089  1.00  0.00    -0.176 C  
BRANCH  19  20
HETATM   20  C   UNL     1      -9.532  12.200  68.814  1.00  0.00     0.059 C  
BRANCH  20  21
HETATM   21  N   UNL     1     -10.073  11.032  68.093  1.00  0.00    -0.174 NA 
HETATM   22  C   UNL     1      -9.066   9.934  68.084  1.00  0.00    -0.121 C  
HETATM   23  C   UNL     1      -8.745   9.372  69.485  1.00  0.00    -0.161 C  
HETATM   24  N   UNL     1      -9.958   8.914  70.183  1.00  0.00    -0.179 NA 
HETATM   25  C   UNL     1     -11.129   9.808  70.101  1.00  0.00    -0.285 C  
HETATM   26  C   UNL     1     -11.299  10.469  68.707  1.00  0.00    -0.249 C  
BRANCH  24  27
HETATM   27  C   UNL     1     -10.135   7.564  70.333  1.00  0.00    -0.196 A  
HETATM   28  N   UNL     1     -10.128   6.718  69.305  1.00  0.00    -0.163 NA 
HETATM   29  S   UNL     1     -10.219   5.171  69.859  1.00  0.00    -0.272 SA 
HETATM   30  C   UNL     1     -10.244   5.560  71.527  1.00  0.00    -0.212 A  
HETATM   31  C   UNL     1     -10.265   4.701  72.639  1.00  0.00    -0.239 A  
HETATM   32  C   UNL     1     -10.270   5.267  73.916  1.00  0.00    -0.260 A  
HETATM   33  C   UNL     1     -10.254   6.646  74.079  1.00  0.00    -0.395 A  
HETATM   34  C   UNL     1     -10.221   7.491  72.964  1.00  0.00    -0.360 A  
HETATM   35  C   UNL     1     -10.222   6.951  71.651  1.00  0.00    -0.205 A  
ENDBRANCH  24  27
ENDBRANCH  20  21
ENDBRANCH  19  20
ENDBRANCH  13  14
ENDBRANCH  10  13
TORSDOF 5
ENDMDL
MODEL      122
REMARK 921   NORMALIZED FREE ENERGY PREDICTED BY IDOCK:   -4.92 KCAL/MOL
REMARK 922        TOTAL FREE ENERGY PREDICTED BY IDOCK:   -8.08 KCAL/MOL
REMARK 923 INTER-LIGAND FREE ENERGY PREDICTED BY IDOCK:   -7.61 KCAL/MOL
REMARK 924 INTRA-LIGAND FREE ENERGY PREDICTED BY IDOCK:   -0.47 KCAL/MOL
REMARK 927      BINDING AFFINITY PREDICTED BY RF-SCORE:    0.00 PKD
ROOT
HETATM    1  C   UNL     1     -11.102  15.271  67.895  1.00  0.00    -0.321 C  
HETATM    2  C   UNL     1     -10.370  16.292  67.006  1.00  0.00    -0.292 C  
HETATM    3  C   UNL     1      -9.916  17.461  67.901  1.00  0.00    -0.301 C  
HETATM    4  C   UNL     1      -8.787  16.835  68.745  1.00  0.00    -0.258 C  
HETATM    5  C   UNL     1      -8.722  15.388  68.217  1.00  0.00    -0.164 C  
HETATM    6  C   UNL     1      -9.026  15.614  66.733  1.00  0.00    -0.291 C  
HETATM    7  C   UNL     1      -9.974  14.655  68.728  1.00  0.00    -0.235 C  
HETATM    8  C   UNL     1      -9.998  13.195  68.373  1.00  0.00    -0.223 C  
HETATM    9  O   UNL     1      -9.181  12.376  68.764  1.00  0.00    -0.035 OA 
HETATM   10  N   UNL     1     -11.046  12.964  67.529  1.00  0.00    -0.258 N  
HETATM   11  O   UNL     1     -12.521  14.215  66.251  1.00  0.00    -0.466 OA 
HETATM   12  C   UNL     1     -11.669  14.113  67.122  1.00  0.00    -0.403 C  
ENDROOT
BRANCH  10  13
HETATM   13  C   UNL     1     -11.345  11.658  66.962  1.00  0.00    -0.305 C  
BRANCH  13  14
HETATM   14  C   UNL     1     -10.303  11.230  65.904  1.00  0.00    -0.304 C  
HETATM   15  C   UNL     1     -10.747  11.709  64.507  1.00  0.00    -0.378 C  
HETATM   16  C   UNL     1      -9.712  11.376  63.441  1.00  0.00    -0.385 C  
HETATM   17  C   UNL     1      -9.374   9.892  63.436  1.00  0.00    -0.223 C  
HETATM   18  C   UNL     1      -8.938   9.407  64.817  1.00  0.00    -0.241 C  
HETATM   19  C   UNL     1     -10.016   9.696  65.881  1.00  0.00    -0.351 C  
BRANCH  19  20
HETATM   20  C   UNL     1      -9.588   9.181  67.276  1.00  0.00    -0.154 C  
BRANCH  20  21
HETATM   21  N   UNL     1      -9.031   7.817  67.352  1.00  0.00    -0.123 NA 
HETATM   22  C   UNL     1      -8.033   7.741  68.456  1.00  0.00    -0.122 C  
HETATM   23  C   UNL     1      -8.637   7.958  69.859  1.00  0.00    -0.139 C  
HETATM   24  N   UNL     1      -9.738   7.019  70.132  1.00  0.00    -0.175 NA 
HETATM   25  C   UNL     1     -10.707   6.820  69.038  1.00  0.00    -0.246 C  
HETATM   26  C   UNL     1     -10.046   6.774  67.635  1.00  0.00    -0.161 C  
BRANCH  24  27
HETATM   27  C   UNL     1      -9.509   6.016  71.036  1.00  0.00    -0.168 A  
HETATM   28  N   UNL     1     -10.206   4.881  71.046  1.00  0.00    -0.213 NA 
HETATM   29  S   UNL     1      -9.571   3.849  72.159  1.00  0.00    -0.155 SA 
HETATM   30  C   UNL     1      -8.295   4.872  72.672  1.00  0.00    -0.116 A  
HETATM   31  C   UNL     1      -7.276   4.620  73.605  1.00  0.00    -0.073 A  
HETATM   32  C   UNL     1      -6.333   5.621  73.845  1.00  0.00    -0.068 A  
HETATM   33  C   UNL     1      -6.404   6.836  73.176  1.00  0.00    -0.062 A  
HETATM   34  C   UNL     1      -7.418   7.071  72.240  1.00  0.00    -0.086 A  
HETATM   35  C   UNL     1      -8.398   6.079  71.976  1.00  0.00    -0.118 A  
ENDBRANCH  24  27
ENDBRANCH  20  21
ENDBRANCH  19  20
ENDBRANCH  13  14
ENDBRANCH  10  13
TORSDOF 5
ENDMDL
MODEL      123
REMARK 921   NORMALIZED FREE ENERGY PREDICTED BY IDOCK:   -4.91 KCAL/MOL
REMARK 922        TOTAL FREE ENERGY PREDICTED BY IDOCK:   -8.07 KCAL/MOL
REMARK 923 INTER-LIGAND FREE ENERGY PREDICTED BY IDOCK:   -7.62 KCAL/MOL
REMARK 924 INTRA-LIGAND FREE ENERGY PREDICTED BY IDOCK:   -0.46 KCAL/MOL
REMARK 927      BINDING AFFINITY PREDICTED BY RF-SCORE:    0.00 PKD
ROOT
HETATM    1  C   UNL     1      -9.635   4.679  67.839  1.00  0.00    -0.205 C  
HETATM    2  C   UNL     1      -8.865   3.768  68.810  1.00  0.00    -0.156 C  
HETATM    3  C   UNL     1      -9.460   2.350  68.704  1.00  0.00    -0.194 C  
HETATM    4  C   UNL     1      -8.992   1.879  67.312  1.00  0.00    -0.160 C  
HETATM    5  C   UNL     1      -8.171   3.080  66.799  1.00  0.00    -0.089 C  
HETATM    6  C   UNL     1      -7.525   3.559  68.102  1.00  0.00    -0.057 C  
HETATM    7  C   UNL     1      -9.163   4.205  66.461  1.00  0.00    -0.163 C  
HETATM    8  C   UNL     1      -8.510   5.413  65.851  1.00  0.00    -0.127 C  
HETATM    9  O   UNL     1      -7.921   5.413  64.781  1.00  0.00    -0.097 OA 
HETATM   10  N   UNL     1      -8.659   6.472  66.700  1.00  0.00    -0.115 N  
HETATM   11  O   UNL     1      -9.293   6.820  68.902  1.00  0.00    -0.132 OA 
HETATM   12  C   UNL     1      -9.200   6.117  67.907  1.00  0.00    -0.115 C  
ENDROOT
BRANCH  10  13
HETATM   13  C   UNL     1      -8.117   7.795  66.434  1.00  0.00    -0.109 C  
BRANCH  13  14
HETATM   14  C   UNL     1      -8.919   8.546  65.348  1.00  0.00    -0.150 C  
HETATM   15  C   UNL     1      -8.063   8.701  64.075  1.00  0.00    -0.163 C  
HETATM   16  C   UNL     1      -8.840   9.369  62.949  1.00  0.00    -0.216 C  
HETATM   17  C   UNL     1      -9.422  10.705  63.390  1.00  0.00    -0.352 C  
HETATM   18  C   UNL     1     -10.268  10.564  64.654  1.00  0.00    -0.364 C  
HETATM   19  C   UNL     1      -9.457   9.938  65.807  1.00  0.00    -0.280 C  
BRANCH  19  20
HETATM   20  C   UNL     1     -10.303   9.818  67.097  1.00  0.00    -0.248 C  
BRANCH  20  21
HETATM   21  N   UNL     1      -9.802  10.508  68.301  1.00  0.00    -0.146 NA 
HETATM   22  C   UNL     1      -9.066  11.742  67.904  1.00  0.00    -0.181 C  
HETATM   23  C   UNL     1      -9.954  12.807  67.226  1.00  0.00    -0.219 C  
HETATM   24  N   UNL     1     -11.106  13.175  68.067  1.00  0.00    -0.252 NA 
HETATM   25  C   UNL     1     -11.820  12.058  68.713  1.00  0.00    -0.302 C  
HETATM   26  C   UNL     1     -10.874  10.942  69.229  1.00  0.00    -0.241 C  
BRANCH  24  27
HETATM   27  C   UNL     1     -11.096  14.413  68.653  1.00  0.00    -0.251 A  
HETATM   28  N   UNL     1     -11.337  14.599  69.949  1.00  0.00    -0.262 NA 
HETATM   29  S   UNL     1     -11.099  16.180  70.336  1.00  0.00    -0.302 SA 
HETATM   30  C   UNL     1     -10.626  16.698  68.773  1.00  0.00    -0.340 A  
HETATM   31  C   UNL     1     -10.210  17.971  68.346  1.00  0.00    -0.399 A  
HETATM   32  C   UNL     1      -9.860  18.141  67.005  1.00  0.00    -0.324 A  
HETATM   33  C   UNL     1      -9.925  17.076  66.116  1.00  0.00    -0.314 A  
HETATM   34  C   UNL     1     -10.330  15.810  66.556  1.00  0.00    -0.298 A  
HETATM   35  C   UNL     1     -10.700  15.602  67.910  1.00  0.00    -0.294 A  
ENDBRANCH  24  27
ENDBRANCH  20  21
ENDBRANCH  19  20
ENDBRANCH  13  14
ENDBRANCH  10  13
TORSDOF 5
ENDMDL
MODEL      124
REMARK 921   NORMALIZED FREE ENERGY PREDICTED BY IDOCK:   -4.90 KCAL/MOL
REMARK 922        TOTAL FREE ENERGY PREDICTED BY IDOCK:   -8.06 KCAL/MOL
REMARK 923 INTER-LIGAND FREE ENERGY PREDICTED BY IDOCK:   -6.73 KCAL/MOL
REMARK 924 INTRA-LIGAND FREE ENERGY PREDICTED BY IDOCK:   -1.33 KCAL/MOL
REMARK 927      BINDING AFFINITY PREDICTED BY RF-SCORE:    0.00 PKD
ROOT
HETATM    1  C   UNL     1      -6.915  10.142  68.742  1.00  0.00    -0.066 C  
HETATM    2  C   UNL     1      -5.406   9.875  68.611  1.00  0.00    -0.036 C  
HETATM    3  C   UNL     1      -5.187   8.350  68.678  1.00  0.00    -0.032 C  
HETATM    4  C   UNL     1      -5.764   7.856  67.336  1.00  0.00    -0.037 C  
HETATM    5  C   UNL     1      -6.227   9.161  66.657  1.00  0.00    -0.065 C  
HETATM    6  C   UNL     1      -5.135  10.127  67.127  1.00  0.00    -0.040 C  
HETATM    7  C   UNL     1      -7.478   9.650  67.406  1.00  0.00    -0.091 C  
HETATM    8  C   UNL     1      -8.105  10.869  66.789  1.00  0.00    -0.142 C  
HETATM    9  O   UNL     1      -8.583  10.906  65.666  1.00  0.00    -0.178 OA 
HETATM   10  N   UNL     1      -8.012  11.907  67.671  1.00  0.00    -0.137 N  
HETATM   11  O   UNL     1      -6.873  12.387  69.633  1.00  0.00    -0.006 OA 
HETATM   12  C   UNL     1      -7.255  11.607  68.772  1.00  0.00    -0.116 C  
ENDROOT
BRANCH  10  13
HETATM   13  C   UNL     1      -8.492  13.249  67.382  1.00  0.00    -0.206 C  
BRANCH  13  14
HETATM   14  C   UNL     1      -9.882  13.238  66.707  1.00  0.00    -0.264 C  
HETATM   15  C   UNL     1      -9.939  14.316  65.607  1.00  0.00    -0.346 C  
HETATM   16  C   UNL     1     -11.267  14.292  64.861  1.00  0.00    -0.381 C  
HETATM   17  C   UNL     1     -12.446  14.413  65.816  1.00  0.00    -0.334 C  
HETATM   18  C   UNL     1     -12.395  13.353  66.914  1.00  0.00    -0.262 C  
HETATM   19  C   UNL     1     -11.071  13.421  67.702  1.00  0.00    -0.288 C  
BRANCH  19  20
HETATM   20  C   UNL     1     -11.028  12.364  68.832  1.00  0.00    -0.223 C  
BRANCH  20  21
HETATM   21  N   UNL     1     -11.955  11.222  68.724  1.00  0.00    -0.506 NA 
HETATM   22  C   UNL     1     -11.181   9.951  68.642  1.00  0.00    -0.068 C  
HETATM   23  C   UNL     1     -10.369   9.632  69.914  1.00  0.00    -0.249 C  
HETATM   24  N   UNL     1     -11.220   9.607  71.116  1.00  0.00    -0.360 NA 
HETATM   25  C   UNL     1     -12.203  10.701  71.237  1.00  0.00    -0.341 C  
HETATM   26  C   UNL     1     -12.865  11.081  69.886  1.00  0.00     0.093 C  
BRANCH  24  27
HETATM   27  C   UNL     1     -11.474   8.390  71.690  1.00  0.00    -0.287 A  
HETATM   28  N   UNL     1     -12.484   7.610  71.310  1.00  0.00    -0.316 NA 
HETATM   29  S   UNL     1     -12.403   6.171  72.103  1.00  0.00     0.121 SA 
HETATM   30  C   UNL     1     -10.975   6.512  72.987  1.00  0.00    -0.239 A  
HETATM   31  C   UNL     1     -10.259   5.687  73.871  1.00  0.00    -0.259 A  
HETATM   32  C   UNL     1      -9.103   6.196  74.466  1.00  0.00    -0.162 A  
HETATM   33  C   UNL     1      -8.674   7.488  74.189  1.00  0.00    -0.282 A  
HETATM   34  C   UNL     1      -9.390   8.297  73.298  1.00  0.00    -0.244 A  
HETATM   35  C   UNL     1     -10.574   7.815  72.680  1.00  0.00    -0.377 A  
ENDBRANCH  24  27
ENDBRANCH  20  21
ENDBRANCH  19  20
ENDBRANCH  13  14
ENDBRANCH  10  13
TORSDOF 5
ENDMDL
MODEL      125
REMARK 921   NORMALIZED FREE ENERGY PREDICTED BY IDOCK:   -4.89 KCAL/MOL
REMARK 922        TOTAL FREE ENERGY PREDICTED BY IDOCK:   -8.04 KCAL/MOL
REMARK 923 INTER-LIGAND FREE ENERGY PREDICTED BY IDOCK:   -7.90 KCAL/MOL
REMARK 924 INTRA-LIGAND FREE ENERGY PREDICTED BY IDOCK:   -0.14 KCAL/MOL
REMARK 927      BINDING AFFINITY PREDICTED BY RF-SCORE:    0.00 PKD
ROOT
HETATM    1  C   UNL     1      -7.756   6.050  67.245  1.00  0.00    -0.097 C  
HETATM    2  C   UNL     1      -7.120   5.370  66.020  1.00  0.00    -0.068 C  
HETATM    3  C   UNL     1      -7.122   3.849  66.267  1.00  0.00    -0.064 C  
HETATM    4  C   UNL     1      -8.616   3.480  66.155  1.00  0.00    -0.117 C  
HETATM    5  C   UNL     1      -9.284   4.834  65.840  1.00  0.00    -0.149 C  
HETATM    6  C   UNL     1      -8.213   5.479  64.955  1.00  0.00    -0.139 C  
HETATM    7  C   UNL     1      -9.237   5.679  67.124  1.00  0.00    -0.114 C  
HETATM    8  C   UNL     1      -9.946   6.998  66.997  1.00  0.00    -0.210 C  
HETATM    9  O   UNL     1     -11.142   7.121  66.785  1.00  0.00    -0.254 OA 
HETATM   10  N   UNL     1      -9.032   8.004  67.121  1.00  0.00    -0.133 N  
HETATM   11  O   UNL     1      -6.725   8.229  67.106  1.00  0.00    -0.060 OA 
HETATM   12  C   UNL     1      -7.741   7.551  67.162  1.00  0.00    -0.112 C  
ENDROOT
BRANCH  10  13
HETATM   13  C   UNL     1      -9.373   9.415  67.015  1.00  0.00    -0.148 C  
BRANCH  13  14
HETATM   14  C   UNL     1      -9.754   9.815  65.573  1.00  0.00    -0.382 C  
HETATM   15  C   UNL     1      -8.673   9.324  64.589  1.00  0.00    -0.223 C  
HETATM   16  C   UNL     1      -9.044   9.630  63.144  1.00  0.00    -0.228 C  
HETATM   17  C   UNL     1      -9.342  11.110  62.946  1.00  0.00    -0.385 C  
HETATM   18  C   UNL     1     -10.407  11.608  63.920  1.00  0.00    -0.417 C  
HETATM   19  C   UNL     1      -9.999  11.346  65.383  1.00  0.00    -0.289 C  
BRANCH  19  20
HETATM   20  C   UNL     1     -11.065  11.873  66.373  1.00  0.00    -0.309 C  
BRANCH  20  21
HETATM   21  N   UNL     1     -10.581  12.468  67.634  1.00  0.00    -0.214 NA 
HETATM   22  C   UNL     1      -9.327  13.232  67.381  1.00  0.00    -0.217 C  
HETATM   23  C   UNL     1      -9.517  14.455  66.458  1.00  0.00    -0.289 C  
HETATM   24  N   UNL     1     -10.551  15.370  66.969  1.00  0.00    -0.303 NA 
HETATM   25  C   UNL     1     -11.789  14.739  67.464  1.00  0.00    -0.301 C  
HETATM   26  C   UNL     1     -11.535  13.423  68.246  1.00  0.00    -0.315 C  
BRANCH  24  27
HETATM   27  C   UNL     1     -10.140  16.571  67.485  1.00  0.00    -0.267 A  
HETATM   28  N   UNL     1     -10.782  17.188  68.475  1.00  0.00    -0.349 NA 
HETATM   29  S   UNL     1      -9.935  18.519  68.941  1.00  0.00    -0.260 SA 
HETATM   30  C   UNL     1      -8.633  18.318  67.846  1.00  0.00    -0.258 A  
HETATM   31  C   UNL     1      -7.466  19.088  67.703  1.00  0.00    -0.251 A  
HETATM   32  C   UNL     1      -6.535  18.710  66.732  1.00  0.00    -0.203 A  
HETATM   33  C   UNL     1      -6.761  17.600  65.929  1.00  0.00    -0.250 A  
HETATM   34  C   UNL     1      -7.923  16.834  66.089  1.00  0.00    -0.273 A  
HETATM   35  C   UNL     1      -8.894  17.193  67.060  1.00  0.00    -0.246 A  
ENDBRANCH  24  27
ENDBRANCH  20  21
ENDBRANCH  19  20
ENDBRANCH  13  14
ENDBRANCH  10  13
TORSDOF 5
ENDMDL
MODEL      126
REMARK 921   NORMALIZED FREE ENERGY PREDICTED BY IDOCK:   -4.89 KCAL/MOL
REMARK 922        TOTAL FREE ENERGY PREDICTED BY IDOCK:   -8.04 KCAL/MOL
REMARK 923 INTER-LIGAND FREE ENERGY PREDICTED BY IDOCK:   -7.51 KCAL/MOL
REMARK 924 INTRA-LIGAND FREE ENERGY PREDICTED BY IDOCK:   -0.53 KCAL/MOL
REMARK 927      BINDING AFFINITY PREDICTED BY RF-SCORE:    0.00 PKD
ROOT
HETATM    1  C   UNL     1      -7.460  16.995  67.380  1.00  0.00    -0.184 C  
HETATM    2  C   UNL     1      -7.612  17.888  68.624  1.00  0.00    -0.285 C  
HETATM    3  C   UNL     1      -6.871  19.212  68.351  1.00  0.00    -0.296 C  
HETATM    4  C   UNL     1      -7.763  19.899  67.296  1.00  0.00    -0.311 C  
HETATM    5  C   UNL     1      -8.915  18.891  67.107  1.00  0.00    -0.299 C  
HETATM    6  C   UNL     1      -9.065  18.361  68.537  1.00  0.00    -0.345 C  
HETATM    7  C   UNL     1      -8.348  17.684  66.341  1.00  0.00    -0.288 C  
HETATM    8  C   UNL     1      -9.388  16.656  65.994  1.00  0.00    -0.235 C  
HETATM    9  O   UNL     1     -10.342  16.860  65.260  1.00  0.00    -0.624 OA 
HETATM   10  N   UNL     1      -9.101  15.497  66.657  1.00  0.00    -0.255 N  
HETATM   11  O   UNL     1      -7.719  14.816  68.388  1.00  0.00    -0.110 OA 
HETATM   12  C   UNL     1      -8.075  15.634  67.552  1.00  0.00    -0.160 C  
ENDROOT
BRANCH  10  13
HETATM   13  C   UNL     1      -9.926  14.301  66.573  1.00  0.00    -0.281 C  
BRANCH  13  14
HETATM   14  C   UNL     1     -10.931  14.204  67.743  1.00  0.00    -0.274 C  
HETATM   15  C   UNL     1     -11.276  15.616  68.257  1.00  0.00    -0.353 C  
HETATM   16  C   UNL     1     -12.323  15.574  69.362  1.00  0.00    -0.143 C  
HETATM   17  C   UNL     1     -11.895  14.659  70.501  1.00  0.00    -0.367 C  
HETATM   18  C   UNL     1     -11.546  13.259  70.001  1.00  0.00    -0.212 C  
HETATM   19  C   UNL     1     -10.444  13.305  68.923  1.00  0.00    -0.123 C  
BRANCH  19  20
HETATM   20  C   UNL     1     -10.069  11.886  68.434  1.00  0.00    -0.206 C  
BRANCH  20  21
HETATM   21  N   UNL     1     -10.768  10.748  69.061  1.00  0.00    -0.213 NA 
HETATM   22  C   UNL     1     -11.281   9.828  68.007  1.00  0.00     0.009 C  
HETATM   23  C   UNL     1     -10.171   9.151  67.177  1.00  0.00    -0.261 C  
HETATM   24  N   UNL     1      -9.213   8.428  68.030  1.00  0.00    -0.137 NA 
HETATM   25  C   UNL     1      -8.767   9.134  69.247  1.00  0.00    -0.139 C  
HETATM   26  C   UNL     1      -9.903   9.930  69.943  1.00  0.00    -0.245 C  
BRANCH  24  27
HETATM   27  C   UNL     1      -9.245   7.059  68.005  1.00  0.00    -0.129 A  
HETATM   28  N   UNL     1      -9.726   6.331  69.011  1.00  0.00    -0.129 NA 
HETATM   29  S   UNL     1      -9.748   4.742  68.584  1.00  0.00    -0.139 SA 
HETATM   30  C   UNL     1      -9.133   4.954  66.999  1.00  0.00    -0.118 A  
HETATM   31  C   UNL     1      -8.921   3.996  65.993  1.00  0.00    -0.129 A  
HETATM   32  C   UNL     1      -8.415   4.424  64.764  1.00  0.00    -0.123 A  
HETATM   33  C   UNL     1      -8.129   5.765  64.545  1.00  0.00    -0.132 A  
HETATM   34  C   UNL     1      -8.356   6.712  65.551  1.00  0.00    -0.144 A  
HETATM   35  C   UNL     1      -8.862   6.312  66.815  1.00  0.00    -0.126 A  
ENDBRANCH  24  27
ENDBRANCH  20  21
ENDBRANCH  19  20
ENDBRANCH  13  14
ENDBRANCH  10  13
TORSDOF 5
ENDMDL
MODEL      127
REMARK 921   NORMALIZED FREE ENERGY PREDICTED BY IDOCK:   -4.88 KCAL/MOL
REMARK 922        TOTAL FREE ENERGY PREDICTED BY IDOCK:   -8.02 KCAL/MOL
REMARK 923 INTER-LIGAND FREE ENERGY PREDICTED BY IDOCK:   -7.17 KCAL/MOL
REMARK 924 INTRA-LIGAND FREE ENERGY PREDICTED BY IDOCK:   -0.85 KCAL/MOL
REMARK 927      BINDING AFFINITY PREDICTED BY RF-SCORE:    0.00 PKD
ROOT
HETATM    1  C   UNL     1      -9.438   8.657  66.011  1.00  0.00    -0.278 C  
HETATM    2  C   UNL     1      -9.317   9.828  65.019  1.00  0.00    -0.325 C  
HETATM    3  C   UNL     1     -10.502  10.782  65.266  1.00  0.00    -0.282 C  
HETATM    4  C   UNL     1     -10.160  11.419  66.628  1.00  0.00    -0.247 C  
HETATM    5  C   UNL     1      -8.811  10.764  66.987  1.00  0.00    -0.137 C  
HETATM    6  C   UNL     1      -8.170  10.657  65.600  1.00  0.00    -0.154 C  
HETATM    7  C   UNL     1      -9.095   9.299  67.358  1.00  0.00    -0.141 C  
HETATM    8  C   UNL     1      -7.878   8.555  67.830  1.00  0.00    -0.103 C  
HETATM    9  O   UNL     1      -7.241   8.839  68.833  1.00  0.00    -0.071 OA 
HETATM   10  N   UNL     1      -7.598   7.557  66.941  1.00  0.00    -0.100 N  
HETATM   11  O   UNL     1      -8.237   6.949  64.798  1.00  0.00    -0.122 OA 
HETATM   12  C   UNL     1      -8.378   7.609  65.817  1.00  0.00    -0.141 C  
ENDROOT
BRANCH  10  13
HETATM   13  C   UNL     1      -6.460   6.660  67.076  1.00  0.00    -0.043 C  
BRANCH  13  14
HETATM   14  C   UNL     1      -6.894   5.181  67.179  1.00  0.00    -0.060 C  
HETATM   15  C   UNL     1      -7.024   4.573  65.768  1.00  0.00    -0.063 C  
HETATM   16  C   UNL     1      -7.376   3.093  65.821  1.00  0.00    -0.072 C  
HETATM   17  C   UNL     1      -8.632   2.848  66.647  1.00  0.00    -0.110 C  
HETATM   18  C   UNL     1      -8.515   3.451  68.045  1.00  0.00    -0.106 C  
HETATM   19  C   UNL     1      -8.215   4.962  67.983  1.00  0.00    -0.096 C  
BRANCH  19  20
HETATM   20  C   UNL     1      -8.123   5.582  69.397  1.00  0.00    -0.095 C  
BRANCH  20  21
HETATM   21  N   UNL     1      -9.232   5.305  70.330  1.00  0.00    -0.139 NA 
HETATM   22  C   UNL     1      -9.206   6.287  71.450  1.00  0.00    -0.149 C  
HETATM   23  C   UNL     1      -9.466   7.743  71.009  1.00  0.00    -0.155 C  
HETATM   24  N   UNL     1     -10.736   7.874  70.274  1.00  0.00    -0.233 NA 
HETATM   25  C   UNL     1     -11.010   6.836  69.263  1.00  0.00    -0.259 C  
HETATM   26  C   UNL     1     -10.573   5.415  69.709  1.00  0.00    -0.277 C  
BRANCH  24  27
HETATM   27  C   UNL     1     -11.774   8.507  70.906  1.00  0.00    -0.245 A  
HETATM   28  N   UNL     1     -12.584   7.885  71.761  1.00  0.00    -0.320 NA 
HETATM   29  S   UNL     1     -13.616   8.973  72.438  1.00  0.00    -0.439 SA 
HETATM   30  C   UNL     1     -13.002  10.356  71.632  1.00  0.00    -0.475 A  
HETATM   31  C   UNL     1     -13.383  11.702  71.763  1.00  0.00    -0.340 A  
HETATM   32  C   UNL     1     -12.716  12.659  70.996  1.00  0.00    -0.316 A  
HETATM   33  C   UNL     1     -11.700  12.286  70.125  1.00  0.00    -0.280 A  
HETATM   34  C   UNL     1     -11.321  10.942  70.013  1.00  0.00    -0.386 A  
HETATM   35  C   UNL     1     -11.983   9.942  70.772  1.00  0.00    -0.410 A  
ENDBRANCH  24  27
ENDBRANCH  20  21
ENDBRANCH  19  20
ENDBRANCH  13  14
ENDBRANCH  10  13
TORSDOF 5
ENDMDL
MODEL      128
REMARK 921   NORMALIZED FREE ENERGY PREDICTED BY IDOCK:   -4.85 KCAL/MOL
REMARK 922        TOTAL FREE ENERGY PREDICTED BY IDOCK:   -7.99 KCAL/MOL
REMARK 923 INTER-LIGAND FREE ENERGY PREDICTED BY IDOCK:   -6.76 KCAL/MOL
REMARK 924 INTRA-LIGAND FREE ENERGY PREDICTED BY IDOCK:   -1.23 KCAL/MOL
REMARK 927      BINDING AFFINITY PREDICTED BY RF-SCORE:    0.00 PKD
ROOT
HETATM    1  C   UNL     1     -10.958   6.982  72.482  1.00  0.00    -0.298 C  
HETATM    2  C   UNL     1     -12.288   7.056  71.711  1.00  0.00    -0.391 C  
HETATM    3  C   UNL     1     -13.282   7.872  72.559  1.00  0.00     0.150 C  
HETATM    4  C   UNL     1     -12.725   9.307  72.465  1.00  0.00    -0.310 C  
HETATM    5  C   UNL     1     -11.487   9.139  71.560  1.00  0.00    -0.437 C  
HETATM    6  C   UNL     1     -11.987   8.059  70.596  1.00  0.00    -0.044 C  
HETATM    7  C   UNL     1     -10.412   8.409  72.382  1.00  0.00    -0.402 C  
HETATM    8  C   UNL     1      -9.104   8.262  71.658  1.00  0.00    -0.185 C  
HETATM    9  O   UNL     1      -8.404   9.196  71.300  1.00  0.00    -0.288 OA 
HETATM   10  N   UNL     1      -8.864   6.935  71.445  1.00  0.00    -0.134 N  
HETATM   11  O   UNL     1     -10.046   4.944  71.561  1.00  0.00    -0.185 OA 
HETATM   12  C   UNL     1      -9.922   6.138  71.793  1.00  0.00    -0.172 C  
ENDROOT
BRANCH  10  13
HETATM   13  C   UNL     1      -7.695   6.435  70.738  1.00  0.00    -0.102 C  
BRANCH  13  14
HETATM   14  C   UNL     1      -8.070   5.739  69.411  1.00  0.00    -0.101 C  
HETATM   15  C   UNL     1      -7.512   4.302  69.396  1.00  0.00    -0.054 C  
HETATM   16  C   UNL     1      -7.923   3.549  68.137  1.00  0.00    -0.071 C  
HETATM   17  C   UNL     1      -7.527   4.310  66.879  1.00  0.00    -0.081 C  
HETATM   18  C   UNL     1      -8.071   5.737  66.887  1.00  0.00    -0.102 C  
HETATM   19  C   UNL     1      -7.604   6.511  68.136  1.00  0.00    -0.103 C  
BRANCH  19  20
HETATM   20  C   UNL     1      -8.132   7.965  68.134  1.00  0.00    -0.123 C  
BRANCH  20  21
HETATM   21  N   UNL     1      -9.028   8.357  67.029  1.00  0.00    -0.138 NA 
HETATM   22  C   UNL     1     -10.332   8.822  67.579  1.00  0.00    -0.268 C  
HETATM   23  C   UNL     1     -10.229  10.107  68.427  1.00  0.00    -0.169 C  
HETATM   24  N   UNL     1      -9.596  11.206  67.681  1.00  0.00    -0.168 NA 
HETATM   25  C   UNL     1      -8.395  10.853  66.900  1.00  0.00    -0.133 C  
HETATM   26  C   UNL     1      -8.503   9.470  66.203  1.00  0.00    -0.120 C  
BRANCH  24  27
HETATM   27  C   UNL     1     -10.393  12.246  67.280  1.00  0.00    -0.214 A  
HETATM   28  N   UNL     1     -11.406  12.090  66.429  1.00  0.00    -0.341 NA 
HETATM   29  S   UNL     1     -12.233  13.505  66.287  1.00  0.00    -0.392 SA 
HETATM   30  C   UNL     1     -11.281  14.403  67.394  1.00  0.00    -0.325 A  
HETATM   31  C   UNL     1     -11.439  15.730  67.829  1.00  0.00    -0.175 A  
HETATM   32  C   UNL     1     -10.529  16.237  68.759  1.00  0.00    -0.282 A  
HETATM   33  C   UNL     1      -9.494  15.446  69.239  1.00  0.00    -0.261 A  
HETATM   34  C   UNL     1      -9.354  14.122  68.807  1.00  0.00    -0.092 A  
HETATM   35  C   UNL     1     -10.256  13.575  67.857  1.00  0.00    -0.247 A  
ENDBRANCH  24  27
ENDBRANCH  20  21
ENDBRANCH  19  20
ENDBRANCH  13  14
ENDBRANCH  10  13
TORSDOF 5
ENDMDL
MODEL      129
REMARK 921   NORMALIZED FREE ENERGY PREDICTED BY IDOCK:   -4.82 KCAL/MOL
REMARK 922        TOTAL FREE ENERGY PREDICTED BY IDOCK:   -7.95 KCAL/MOL
REMARK 923 INTER-LIGAND FREE ENERGY PREDICTED BY IDOCK:   -6.89 KCAL/MOL
REMARK 924 INTRA-LIGAND FREE ENERGY PREDICTED BY IDOCK:   -1.06 KCAL/MOL
REMARK 927      BINDING AFFINITY PREDICTED BY RF-SCORE:    0.00 PKD
ROOT
HETATM    1  C   UNL     1     -10.925  12.587  66.476  1.00  0.00    -0.303 C  
HETATM    2  C   UNL     1     -11.445  12.161  65.091  1.00  0.00    -0.376 C  
HETATM    3  C   UNL     1     -12.860  12.746  64.916  1.00  0.00    -0.357 C  
HETATM    4  C   UNL     1     -12.595  14.257  64.758  1.00  0.00    -0.310 C  
HETATM    5  C   UNL     1     -11.059  14.350  64.846  1.00  0.00    -0.404 C  
HETATM    6  C   UNL     1     -10.656  13.056  64.134  1.00  0.00    -0.421 C  
HETATM    7  C   UNL     1     -10.665  14.087  66.308  1.00  0.00    -0.289 C  
HETATM    8  C   UNL     1      -9.193  14.244  66.568  1.00  0.00    -0.235 C  
HETATM    9  O   UNL     1      -8.577  15.291  66.438  1.00  0.00    -0.276 OA 
HETATM   10  N   UNL     1      -8.677  13.033  66.930  1.00  0.00    -0.189 N  
HETATM   11  O   UNL     1      -9.342  10.813  66.899  1.00  0.00    -0.158 OA 
HETATM   12  C   UNL     1      -9.576  12.009  66.803  1.00  0.00    -0.208 C  
ENDROOT
BRANCH  10  13
HETATM   13  C   UNL     1      -7.268  12.818  67.223  1.00  0.00    -0.082 C  
BRANCH  13  14
HETATM   14  C   UNL     1      -6.935  13.084  68.708  1.00  0.00    -0.103 C  
HETATM   15  C   UNL     1      -6.234  14.450  68.852  1.00  0.00    -0.088 C  
HETATM   16  C   UNL     1      -5.954  14.791  70.309  1.00  0.00    -0.160 C  
HETATM   17  C   UNL     1      -5.162  13.688  70.998  1.00  0.00    -0.151 C  
HETATM   18  C   UNL     1      -5.845  12.329  70.856  1.00  0.00     0.095 C  
HETATM   19  C   UNL     1      -6.074  11.965  69.375  1.00  0.00    -0.096 C  
BRANCH  19  20
HETATM   20  C   UNL     1      -6.742  10.577  69.228  1.00  0.00    -0.069 C  
BRANCH  20  21
HETATM   21  N   UNL     1      -7.545  10.090  70.366  1.00  0.00    -0.265 NA 
HETATM   22  C   UNL     1      -8.840   9.543  69.872  1.00  0.00    -0.211 C  
HETATM   23  C   UNL     1      -8.689   8.293  68.980  1.00  0.00    -0.143 C  
HETATM   24  N   UNL     1      -7.936   7.224  69.658  1.00  0.00    -0.124 NA 
HETATM   25  C   UNL     1      -6.724   7.647  70.386  1.00  0.00    -0.042 C  
HETATM   26  C   UNL     1      -6.895   8.998  71.129  1.00  0.00    -0.092 C  
BRANCH  24  27
HETATM   27  C   UNL     1      -8.631   6.118  70.069  1.00  0.00    -0.136 A  
HETATM   28  N   UNL     1      -8.582   4.955  69.423  1.00  0.00    -0.086 NA 
HETATM   29  S   UNL     1      -9.412   3.814  70.269  1.00  0.00    -0.189 SA 
HETATM   30  C   UNL     1      -9.862   4.826  71.576  1.00  0.00    -0.187 A  
HETATM   31  C   UNL     1     -10.573   4.505  72.745  1.00  0.00    -0.263 A  
HETATM   32  C   UNL     1     -10.807   5.515  73.679  1.00  0.00    -0.294 A  
HETATM   33  C   UNL     1     -10.348   6.807  73.456  1.00  0.00    -0.342 A  
HETATM   34  C   UNL     1      -9.631   7.112  72.293  1.00  0.00    -0.161 A  
HETATM   35  C   UNL     1      -9.380   6.111  71.317  1.00  0.00    -0.170 A  
ENDBRANCH  24  27
ENDBRANCH  20  21
ENDBRANCH  19  20
ENDBRANCH  13  14
ENDBRANCH  10  13
TORSDOF 5
ENDMDL
MODEL      130
REMARK 921   NORMALIZED FREE ENERGY PREDICTED BY IDOCK:   -4.82 KCAL/MOL
REMARK 922        TOTAL FREE ENERGY PREDICTED BY IDOCK:   -7.95 KCAL/MOL
REMARK 923 INTER-LIGAND FREE ENERGY PREDICTED BY IDOCK:   -7.31 KCAL/MOL
REMARK 924 INTRA-LIGAND FREE ENERGY PREDICTED BY IDOCK:   -0.63 KCAL/MOL
REMARK 927      BINDING AFFINITY PREDICTED BY RF-SCORE:    0.00 PKD
ROOT
HETATM    1  C   UNL     1      -9.369  14.350  65.919  1.00  0.00    -0.100 C  
HETATM    2  C   UNL     1      -9.836  15.397  66.945  1.00  0.00    -0.251 C  
HETATM    3  C   UNL     1      -9.688  16.790  66.302  1.00  0.00    -0.318 C  
HETATM    4  C   UNL     1     -10.802  16.802  65.236  1.00  0.00    -0.148 C  
HETATM    5  C   UNL     1     -11.463  15.419  65.411  1.00  0.00    -0.115 C  
HETATM    6  C   UNL     1     -11.358  15.245  66.929  1.00  0.00    -0.209 C  
HETATM    7  C   UNL     1     -10.481  14.369  64.866  1.00  0.00    -0.448 C  
HETATM    8  C   UNL     1     -11.034  12.971  64.879  1.00  0.00    -0.307 C  
HETATM    9  O   UNL     1     -12.008  12.609  64.237  1.00  0.00    -0.357 OA 
HETATM   10  N   UNL     1     -10.296  12.212  65.741  1.00  0.00    -0.250 N  
HETATM   11  O   UNL     1      -8.718  12.560  67.403  1.00  0.00    -0.171 OA 
HETATM   12  C   UNL     1      -9.389  12.946  66.456  1.00  0.00    -0.222 C  
ENDROOT
BRANCH  10  13
HETATM   13  C   UNL     1     -10.580  10.813  66.020  1.00  0.00    -0.156 C  
BRANCH  13  14
HETATM   14  C   UNL     1      -9.339   9.915  65.814  1.00  0.00    -0.259 C  
HETATM   15  C   UNL     1      -8.742  10.159  64.414  1.00  0.00    -0.217 C  
HETATM   16  C   UNL     1      -7.470   9.351  64.193  1.00  0.00    -0.113 C  
HETATM   17  C   UNL     1      -7.702   7.867  64.445  1.00  0.00    -0.123 C  
HETATM   18  C   UNL     1      -8.299   7.615  65.828  1.00  0.00    -0.144 C  
HETATM   19  C   UNL     1      -9.617   8.393  66.023  1.00  0.00    -0.196 C  
BRANCH  19  20
HETATM   20  C   UNL     1     -10.238   8.119  67.413  1.00  0.00    -0.258 C  
BRANCH  20  21
HETATM   21  N   UNL     1      -9.455   8.528  68.595  1.00  0.00    -0.143 NA 
HETATM   22  C   UNL     1     -10.372   8.793  69.740  1.00  0.00    -0.211 C  
HETATM   23  C   UNL     1     -11.133   7.544  70.231  1.00  0.00    -0.248 C  
HETATM   24  N   UNL     1     -10.216   6.447  70.585  1.00  0.00    -0.187 NA 
HETATM   25  C   UNL     1      -9.110   6.198  69.642  1.00  0.00    -0.137 C  
HETATM   26  C   UNL     1      -8.495   7.498  69.060  1.00  0.00    -0.133 C  
BRANCH  24  27
HETATM   27  C   UNL     1     -10.066   6.148  71.913  1.00  0.00    -0.189 A  
HETATM   28  N   UNL     1     -10.016   7.081  72.862  1.00  0.00    -0.176 NA 
HETATM   29  S   UNL     1      -9.980   6.366  74.343  1.00  0.00    -0.346 SA 
HETATM   30  C   UNL     1     -10.061   4.748  73.783  1.00  0.00    -0.175 A  
HETATM   31  C   UNL     1     -10.123   3.554  74.522  1.00  0.00    -0.215 A  
HETATM   32  C   UNL     1     -10.195   2.345  73.827  1.00  0.00    -0.186 A  
HETATM   33  C   UNL     1     -10.205   2.327  72.438  1.00  0.00    -0.222 A  
HETATM   34  C   UNL     1     -10.154   3.523  71.713  1.00  0.00    -0.147 A  
HETATM   35  C   UNL     1     -10.073   4.771  72.386  1.00  0.00    -0.235 A  
ENDBRANCH  24  27
ENDBRANCH  20  21
ENDBRANCH  19  20
ENDBRANCH  13  14
ENDBRANCH  10  13
TORSDOF 5
ENDMDL
MODEL      131
REMARK 921   NORMALIZED FREE ENERGY PREDICTED BY IDOCK:   -4.81 KCAL/MOL
REMARK 922        TOTAL FREE ENERGY PREDICTED BY IDOCK:   -7.94 KCAL/MOL
REMARK 923 INTER-LIGAND FREE ENERGY PREDICTED BY IDOCK:   -7.39 KCAL/MOL
REMARK 924 INTRA-LIGAND FREE ENERGY PREDICTED BY IDOCK:   -0.55 KCAL/MOL
REMARK 927      BINDING AFFINITY PREDICTED BY RF-SCORE:    0.00 PKD
ROOT
HETATM    1  C   UNL     1      -8.209  17.195  67.191  1.00  0.00    -0.214 C  
HETATM    2  C   UNL     1      -8.538  17.818  68.559  1.00  0.00    -0.291 C  
HETATM    3  C   UNL     1      -8.133  19.305  68.512  1.00  0.00    -0.401 C  
HETATM    4  C   UNL     1      -9.184  19.922  67.567  1.00  0.00    -0.448 C  
HETATM    5  C   UNL     1     -10.073  18.715  67.202  1.00  0.00    -0.391 C  
HETATM    6  C   UNL     1     -10.062  17.946  68.526  1.00  0.00    -0.392 C  
HETATM    7  C   UNL     1      -9.258  17.812  66.262  1.00  0.00    -0.203 C  
HETATM    8  C   UNL     1     -10.036  16.638  65.739  1.00  0.00    -0.277 C  
HETATM    9  O   UNL     1     -11.029  16.726  65.033  1.00  0.00    -0.584 OA 
HETATM   10  N   UNL     1      -9.472  15.488  66.213  1.00  0.00    -0.296 N  
HETATM   11  O   UNL     1      -7.929  14.884  67.834  1.00  0.00    -0.121 OA 
HETATM   12  C   UNL     1      -8.486  15.718  67.134  1.00  0.00    -0.208 C  
ENDROOT
BRANCH  10  13
HETATM   13  C   UNL     1      -9.996  14.161  65.928  1.00  0.00    -0.311 C  
BRANCH  13  14
HETATM   14  C   UNL     1     -10.895  13.633  67.067  1.00  0.00    -0.291 C  
HETATM   15  C   UNL     1     -11.329  14.799  67.977  1.00  0.00    -0.332 C  
HETATM   16  C   UNL     1     -12.280  14.337  69.073  1.00  0.00    -0.255 C  
HETATM   17  C   UNL     1     -11.685  13.195  69.884  1.00  0.00    -0.327 C  
HETATM   18  C   UNL     1     -11.247  12.036  68.990  1.00  0.00    -0.313 C  
HETATM   19  C   UNL     1     -10.239  12.500  67.919  1.00  0.00    -0.219 C  
BRANCH  19  20
HETATM   20  C   UNL     1      -9.774  11.323  67.029  1.00  0.00    -0.186 C  
BRANCH  20  21
HETATM   21  N   UNL     1      -9.818   9.972  67.619  1.00  0.00    -0.158 NA 
HETATM   22  C   UNL     1     -10.107   8.968  66.557  1.00  0.00    -0.283 C  
HETATM   23  C   UNL     1      -9.000   8.854  65.487  1.00  0.00    -0.197 C  
HETATM   24  N   UNL     1      -7.687   8.565  66.087  1.00  0.00    -0.092 NA 
HETATM   25  C   UNL     1      -7.340   9.340  67.293  1.00  0.00    -0.091 C  
HETATM   26  C   UNL     1      -8.542   9.556  68.250  1.00  0.00    -0.120 C  
BRANCH  24  27
HETATM   27  C   UNL     1      -7.167   7.311  65.905  1.00  0.00    -0.074 A  
HETATM   28  N   UNL     1      -7.307   6.335  66.800  1.00  0.00    -0.077 NA 
HETATM   29  S   UNL     1      -6.691   4.934  66.195  1.00  0.00    -0.051 SA 
HETATM   30  C   UNL     1      -6.226   5.565  64.671  1.00  0.00    -0.022 A  
HETATM   31  C   UNL     1      -5.655   4.901  63.572  1.00  0.00    -0.016 A  
HETATM   32  C   UNL     1      -5.373   5.641  62.422  1.00  0.00    -0.014 A  
HETATM   33  C   UNL     1      -5.652   7.000  62.369  1.00  0.00    -0.037 A  
HETATM   34  C   UNL     1      -6.232   7.648  63.466  1.00  0.00    -0.054 A  
HETATM   35  C   UNL     1      -6.525   6.929  64.654  1.00  0.00    -0.042 A  
ENDBRANCH  24  27
ENDBRANCH  20  21
ENDBRANCH  19  20
ENDBRANCH  13  14
ENDBRANCH  10  13
TORSDOF 5
ENDMDL
MODEL      132
REMARK 921   NORMALIZED FREE ENERGY PREDICTED BY IDOCK:   -4.81 KCAL/MOL
REMARK 922        TOTAL FREE ENERGY PREDICTED BY IDOCK:   -7.94 KCAL/MOL
REMARK 923 INTER-LIGAND FREE ENERGY PREDICTED BY IDOCK:   -7.87 KCAL/MOL
REMARK 924 INTRA-LIGAND FREE ENERGY PREDICTED BY IDOCK:   -0.07 KCAL/MOL
REMARK 927      BINDING AFFINITY PREDICTED BY RF-SCORE:    0.00 PKD
ROOT
HETATM    1  C   UNL     1      -7.612   4.778  73.578  1.00  0.00    -0.087 C  
HETATM    2  C   UNL     1      -6.287   4.384  72.902  1.00  0.00    -0.032 C  
HETATM    3  C   UNL     1      -5.452   3.588  73.925  1.00  0.00     0.000 C  
HETATM    4  C   UNL     1      -6.216   2.253  74.037  1.00  0.00    -0.008 C  
HETATM    5  C   UNL     1      -7.387   2.442  73.051  1.00  0.00    -0.040 C  
HETATM    6  C   UNL     1      -6.703   3.260  71.951  1.00  0.00    -0.019 C  
HETATM    7  C   UNL     1      -8.364   3.447  73.683  1.00  0.00    -0.075 C  
HETATM    8  C   UNL     1      -9.613   3.656  72.875  1.00  0.00    -0.126 C  
HETATM    9  O   UNL     1     -10.435   2.785  72.637  1.00  0.00    -0.156 OA 
HETATM   10  N   UNL     1      -9.644   4.948  72.436  1.00  0.00    -0.144 N  
HETATM   11  O   UNL     1      -8.179   6.739  72.289  1.00  0.00    -0.106 OA 
HETATM   12  C   UNL     1      -8.489   5.632  72.705  1.00  0.00    -0.120 C  
ENDROOT
BRANCH  10  13
HETATM   13  C   UNL     1     -10.703   5.484  71.594  1.00  0.00    -0.231 C  
BRANCH  13  14
HETATM   14  C   UNL     1     -10.413   5.277  70.091  1.00  0.00    -0.338 C  
HETATM   15  C   UNL     1      -9.575   4.000  69.889  1.00  0.00    -0.281 C  
HETATM   16  C   UNL     1      -9.328   3.713  68.414  1.00  0.00    -0.225 C  
HETATM   17  C   UNL     1      -8.695   4.907  67.712  1.00  0.00    -0.105 C  
HETATM   18  C   UNL     1      -9.515   6.179  67.911  1.00  0.00    -0.115 C  
HETATM   19  C   UNL     1      -9.713   6.494  69.408  1.00  0.00    -0.155 C  
BRANCH  19  20
HETATM   20  C   UNL     1     -10.521   7.798  69.612  1.00  0.00    -0.229 C  
BRANCH  20  21
HETATM   21  N   UNL     1      -9.816   8.941  70.223  1.00  0.00    -0.175 NA 
HETATM   22  C   UNL     1      -9.523   9.966  69.183  1.00  0.00    -0.196 C  
HETATM   23  C   UNL     1     -10.784  10.611  68.570  1.00  0.00    -0.217 C  
HETATM   24  N   UNL     1     -11.655  11.198  69.601  1.00  0.00    -0.295 NA 
HETATM   25  C   UNL     1     -11.873  10.380  70.809  1.00  0.00    -0.368 C  
HETATM   26  C   UNL     1     -10.599   9.629  71.278  1.00  0.00    -0.199 C  
BRANCH  24  27
HETATM   27  C   UNL     1     -11.718  12.565  69.678  1.00  0.00    -0.302 A  
HETATM   28  N   UNL     1     -11.191  13.364  68.752  1.00  0.00    -0.261 NA 
HETATM   29  S   UNL     1     -11.578  14.928  69.084  1.00  0.00    -0.325 SA 
HETATM   30  C   UNL     1     -12.508  14.608  70.488  1.00  0.00    -0.347 A  
HETATM   31  C   UNL     1     -13.220  15.503  71.304  1.00  0.00    -0.588 A  
HETATM   32  C   UNL     1     -13.919  14.991  72.399  1.00  0.00    -0.593 A  
HETATM   33  C   UNL     1     -13.909  13.629  72.671  1.00  0.00    -0.494 A  
HETATM   34  C   UNL     1     -13.205  12.746  71.843  1.00  0.00    -0.511 A  
HETATM   35  C   UNL     1     -12.477  13.232  70.726  1.00  0.00    -0.403 A  
ENDBRANCH  24  27
ENDBRANCH  20  21
ENDBRANCH  19  20
ENDBRANCH  13  14
ENDBRANCH  10  13
TORSDOF 5
ENDMDL
MODEL      133
REMARK 921   NORMALIZED FREE ENERGY PREDICTED BY IDOCK:   -4.79 KCAL/MOL
REMARK 922        TOTAL FREE ENERGY PREDICTED BY IDOCK:   -7.91 KCAL/MOL
REMARK 923 INTER-LIGAND FREE ENERGY PREDICTED BY IDOCK:   -7.49 KCAL/MOL
REMARK 924 INTRA-LIGAND FREE ENERGY PREDICTED BY IDOCK:   -0.42 KCAL/MOL
REMARK 927      BINDING AFFINITY PREDICTED BY RF-SCORE:    0.00 PKD
ROOT
HETATM    1  C   UNL     1     -10.492   7.488  69.973  1.00  0.00    -0.231 C  
HETATM    2  C   UNL     1     -11.460   8.577  70.467  1.00  0.00    -0.198 C  
HETATM    3  C   UNL     1     -12.189   8.033  71.711  1.00  0.00    -0.352 C  
HETATM    4  C   UNL     1     -11.081   8.016  72.784  1.00  0.00    -0.448 C  
HETATM    5  C   UNL     1      -9.857   8.568  72.026  1.00  0.00    -0.383 C  
HETATM    6  C   UNL     1     -10.529   9.601  71.117  1.00  0.00    -0.281 C  
HETATM    7  C   UNL     1      -9.396   7.479  71.042  1.00  0.00    -0.157 C  
HETATM    8  C   UNL     1      -8.141   7.839  70.298  1.00  0.00    -0.113 C  
HETATM    9  O   UNL     1      -7.056   8.027  70.826  1.00  0.00    -0.047 OA 
HETATM   10  N   UNL     1      -8.432   7.950  68.969  1.00  0.00    -0.130 N  
HETATM   11  O   UNL     1     -10.326   8.093  67.641  1.00  0.00    -0.219 OA 
HETATM   12  C   UNL     1      -9.773   7.867  68.707  1.00  0.00    -0.158 C  
ENDROOT
BRANCH  10  13
HETATM   13  C   UNL     1      -7.450   8.320  67.962  1.00  0.00    -0.097 C  
BRANCH  13  14
HETATM   14  C   UNL     1      -7.991   8.139  66.526  1.00  0.00    -0.101 C  
HETATM   15  C   UNL     1      -7.600   6.748  65.989  1.00  0.00    -0.086 C  
HETATM   16  C   UNL     1      -8.178   6.495  64.603  1.00  0.00    -0.052 C  
HETATM   17  C   UNL     1      -7.788   7.595  63.626  1.00  0.00    -0.120 C  
HETATM   18  C   UNL     1      -8.166   8.978  64.152  1.00  0.00    -0.166 C  
HETATM   19  C   UNL     1      -7.530   9.250  65.530  1.00  0.00    -0.090 C  
BRANCH  19  20
HETATM   20  C   UNL     1      -7.891  10.661  66.054  1.00  0.00    -0.156 C  
BRANCH  20  21
HETATM   21  N   UNL     1      -9.022  10.763  66.996  1.00  0.00    -0.141 NA 
HETATM   22  C   UNL     1      -8.602  11.526  68.205  1.00  0.00    -0.161 C  
HETATM   23  C   UNL     1      -8.240  12.998  67.921  1.00  0.00    -0.166 C  
HETATM   24  N   UNL     1      -9.340  13.713  67.252  1.00  0.00    -0.224 NA 
HETATM   25  C   UNL     1     -10.010  12.990  66.154  1.00  0.00    -0.278 C  
HETATM   26  C   UNL     1     -10.196  11.477  66.441  1.00  0.00    -0.224 C  
BRANCH  24  27
HETATM   27  C   UNL     1     -10.031  14.644  67.982  1.00  0.00    -0.220 A  
HETATM   28  N   UNL     1      -9.975  15.949  67.725  1.00  0.00    -0.227 NA 
HETATM   29  S   UNL     1     -11.034  16.752  68.694  1.00  0.00    -0.246 SA 
HETATM   30  C   UNL     1     -11.652  15.371  69.498  1.00  0.00    -0.332 A  
HETATM   31  C   UNL     1     -12.668  15.287  70.466  1.00  0.00    -0.440 A  
HETATM   32  C   UNL     1     -13.004  14.029  70.969  1.00  0.00    -0.378 A  
HETATM   33  C   UNL     1     -12.349  12.889  70.521  1.00  0.00    -0.362 A  
HETATM   34  C   UNL     1     -11.347  12.985  69.548  1.00  0.00    -0.223 A  
HETATM   35  C   UNL     1     -10.973  14.248  69.020  1.00  0.00    -0.282 A  
ENDBRANCH  24  27
ENDBRANCH  20  21
ENDBRANCH  19  20
ENDBRANCH  13  14
ENDBRANCH  10  13
TORSDOF 5
ENDMDL
MODEL      134
REMARK 921   NORMALIZED FREE ENERGY PREDICTED BY IDOCK:   -4.79 KCAL/MOL
REMARK 922        TOTAL FREE ENERGY PREDICTED BY IDOCK:   -7.91 KCAL/MOL
REMARK 923 INTER-LIGAND FREE ENERGY PREDICTED BY IDOCK:   -7.10 KCAL/MOL
REMARK 924 INTRA-LIGAND FREE ENERGY PREDICTED BY IDOCK:   -0.81 KCAL/MOL
REMARK 927      BINDING AFFINITY PREDICTED BY RF-SCORE:    0.00 PKD
ROOT
HETATM    1  C   UNL     1      -7.884  10.648  65.153  1.00  0.00    -0.015 C  
HETATM    2  C   UNL     1      -7.418   9.903  63.889  1.00  0.00    -0.134 C  
HETATM    3  C   UNL     1      -5.912  10.179  63.706  1.00  0.00    -0.140 C  
HETATM    4  C   UNL     1      -5.269   9.381  64.858  1.00  0.00    -0.045 C  
HETATM    5  C   UNL     1      -6.485   8.732  65.551  1.00  0.00    -0.063 C  
HETATM    6  C   UNL     1      -7.379   8.442  64.341  1.00  0.00    -0.091 C  
HETATM    7  C   UNL     1      -7.243   9.848  66.290  1.00  0.00    -0.102 C  
HETATM    8  C   UNL     1      -8.405   9.346  67.100  1.00  0.00    -0.124 C  
HETATM    9  O   UNL     1      -8.307   8.583  68.048  1.00  0.00    -0.124 OA 
HETATM   10  N   UNL     1      -9.559   9.852  66.576  1.00  0.00    -0.180 N  
HETATM   11  O   UNL     1     -10.226  10.934  64.637  1.00  0.00    -0.302 OA 
HETATM   12  C   UNL     1      -9.362  10.523  65.399  1.00  0.00    -0.211 C  
ENDROOT
BRANCH  10  13
HETATM   13  C   UNL     1     -10.881   9.541  67.099  1.00  0.00    -0.086 C  
BRANCH  13  14
HETATM   14  C   UNL     1     -10.971   9.768  68.624  1.00  0.00    -0.189 C  
HETATM   15  C   UNL     1     -11.466   8.483  69.318  1.00  0.00     0.586 C  
HETATM   16  C   UNL     1     -11.498   8.635  70.832  1.00  0.00    -0.315 C  
HETATM   17  C   UNL     1     -12.323   9.843  71.254  1.00  0.00    -0.478 C  
HETATM   18  C   UNL     1     -11.845  11.121  70.568  1.00  0.00    -0.448 C  
HETATM   19  C   UNL     1     -11.868  10.979  69.033  1.00  0.00    -0.399 C  
BRANCH  19  20
HETATM   20  C   UNL     1     -11.409  12.282  68.335  1.00  0.00    -0.292 C  
BRANCH  20  21
HETATM   21  N   UNL     1     -10.228  12.966  68.893  1.00  0.00    -0.067 NA 
HETATM   22  C   UNL     1      -9.168  13.074  67.851  1.00  0.00    -0.208 C  
HETATM   23  C   UNL     1      -9.561  13.961  66.651  1.00  0.00    -0.289 C  
HETATM   24  N   UNL     1      -9.964  15.312  67.077  1.00  0.00    -0.232 NA 
HETATM   25  C   UNL     1     -10.856  15.382  68.250  1.00  0.00    -0.269 C  
HETATM   26  C   UNL     1     -10.502  14.349  69.352  1.00  0.00    -0.080 C  
BRANCH  24  27
HETATM   27  C   UNL     1      -9.109  16.346  66.802  1.00  0.00    -0.234 A  
HETATM   28  N   UNL     1      -7.887  16.160  66.307  1.00  0.00    -0.161 NA 
HETATM   29  S   UNL     1      -7.201  17.615  65.962  1.00  0.00    -0.213 SA 
HETATM   30  C   UNL     1      -8.534  18.581  66.437  1.00  0.00    -0.258 A  
HETATM   31  C   UNL     1      -8.688  19.976  66.373  1.00  0.00    -0.364 A  
HETATM   32  C   UNL     1      -9.889  20.533  66.816  1.00  0.00    -0.460 A  
HETATM   33  C   UNL     1     -10.905  19.724  67.309  1.00  0.00    -0.469 A  
HETATM   34  C   UNL     1     -10.744  18.335  67.357  1.00  0.00    -0.377 A  
HETATM   35  C   UNL     1      -9.534  17.734  66.922  1.00  0.00    -0.271 A  
ENDBRANCH  24  27
ENDBRANCH  20  21
ENDBRANCH  19  20
ENDBRANCH  13  14
ENDBRANCH  10  13
TORSDOF 5
ENDMDL
MODEL      135
REMARK 921   NORMALIZED FREE ENERGY PREDICTED BY IDOCK:   -4.78 KCAL/MOL
REMARK 922        TOTAL FREE ENERGY PREDICTED BY IDOCK:   -7.90 KCAL/MOL
REMARK 923 INTER-LIGAND FREE ENERGY PREDICTED BY IDOCK:   -8.61 KCAL/MOL
REMARK 924 INTRA-LIGAND FREE ENERGY PREDICTED BY IDOCK:    0.71 KCAL/MOL
REMARK 927      BINDING AFFINITY PREDICTED BY RF-SCORE:    0.00 PKD
ROOT
HETATM    1  C   UNL     1     -10.449  12.481  65.132  1.00  0.00    -0.320 C  
HETATM    2  C   UNL     1     -11.131  13.642  64.388  1.00  0.00    -0.378 C  
HETATM    3  C   UNL     1     -11.793  13.068  63.120  1.00  0.00    -0.228 C  
HETATM    4  C   UNL     1     -12.974  12.252  63.683  1.00  0.00    -0.300 C  
HETATM    5  C   UNL     1     -12.853  12.472  65.204  1.00  0.00    -0.005 C  
HETATM    6  C   UNL     1     -12.368  13.925  65.242  1.00  0.00    -0.485 C  
HETATM    7  C   UNL     1     -11.629  11.678  65.688  1.00  0.00    -0.087 C  
HETATM    8  C   UNL     1     -11.442  11.717  67.179  1.00  0.00    -0.295 C  
HETATM    9  O   UNL     1     -12.238  11.264  67.986  1.00  0.00    -0.621 OA 
HETATM   10  N   UNL     1     -10.274  12.365  67.460  1.00  0.00    -0.207 N  
HETATM   11  O   UNL     1      -8.741  13.692  66.336  1.00  0.00     0.014 OA 
HETATM   12  C   UNL     1      -9.694  12.925  66.354  1.00  0.00    -0.263 C  
ENDROOT
BRANCH  10  13
HETATM   13  C   UNL     1      -9.800  12.610  68.814  1.00  0.00     0.029 C  
BRANCH  13  14
HETATM   14  C   UNL     1     -10.797  13.456  69.636  1.00  0.00     0.189 C  
HETATM   15  C   UNL     1     -11.788  12.532  70.371  1.00  0.00    -0.246 C  
HETATM   16  C   UNL     1     -12.744  13.319  71.257  1.00  0.00    -0.411 C  
HETATM   17  C   UNL     1     -13.475  14.397  70.468  1.00  0.00     0.147 C  
HETATM   18  C   UNL     1     -12.502  15.315  69.730  1.00  0.00    -0.223 C  
HETATM   19  C   UNL     1     -11.574  14.516  68.793  1.00  0.00    -0.343 C  
BRANCH  19  20
HETATM   20  C   UNL     1     -10.606  15.446  68.025  1.00  0.00    -0.263 C  
BRANCH  20  21
HETATM   21  N   UNL     1      -9.838  16.426  68.818  1.00  0.00    -0.239 NA 
HETATM   22  C   UNL     1      -8.383  16.273  68.536  1.00  0.00    -0.204 C  
HETATM   23  C   UNL     1      -7.991  16.606  67.081  1.00  0.00    -0.182 C  
HETATM   24  N   UNL     1      -8.423  17.960  66.694  1.00  0.00    -0.250 NA 
HETATM   25  C   UNL     1      -9.789  18.345  67.098  1.00  0.00    -0.320 C  
HETATM   26  C   UNL     1     -10.176  17.836  68.511  1.00  0.00    -0.382 C  
BRANCH  24  27
HETATM   27  C   UNL     1      -7.455  18.919  66.548  1.00  0.00    -0.240 A  
HETATM   28  N   UNL     1      -7.162  19.472  65.373  1.00  0.00    -0.420 NA 
HETATM   29  S   UNL     1      -6.065  20.680  65.587  1.00  0.00    -0.245 SA 
HETATM   30  C   UNL     1      -5.947  20.540  67.291  1.00  0.00    -0.196 A  
HETATM   31  C   UNL     1      -5.203  21.315  68.197  1.00  0.00    -0.268 A  
HETATM   32  C   UNL     1      -5.283  21.008  69.556  1.00  0.00    -0.395 A  
HETATM   33  C   UNL     1      -6.080  19.961  70.000  1.00  0.00    -0.368 A  
HETATM   34  C   UNL     1      -6.827  19.204  69.089  1.00  0.00    -0.361 A  
HETATM   35  C   UNL     1      -6.764  19.483  67.698  1.00  0.00    -0.246 A  
ENDBRANCH  24  27
ENDBRANCH  20  21
ENDBRANCH  19  20
ENDBRANCH  13  14
ENDBRANCH  10  13
TORSDOF 5
ENDMDL
MODEL      136
REMARK 921   NORMALIZED FREE ENERGY PREDICTED BY IDOCK:   -4.77 KCAL/MOL
REMARK 922        TOTAL FREE ENERGY PREDICTED BY IDOCK:   -7.88 KCAL/MOL
REMARK 923 INTER-LIGAND FREE ENERGY PREDICTED BY IDOCK:   -6.56 KCAL/MOL
REMARK 924 INTRA-LIGAND FREE ENERGY PREDICTED BY IDOCK:   -1.32 KCAL/MOL
REMARK 927      BINDING AFFINITY PREDICTED BY RF-SCORE:    0.00 PKD
ROOT
HETATM    1  C   UNL     1      -8.186   6.902  67.238  1.00  0.00    -0.118 C  
HETATM    2  C   UNL     1      -8.437   7.052  65.727  1.00  0.00    -0.154 C  
HETATM    3  C   UNL     1      -7.259   7.846  65.128  1.00  0.00    -0.061 C  
HETATM    4  C   UNL     1      -6.088   6.844  65.207  1.00  0.00    -0.036 C  
HETATM    5  C   UNL     1      -6.745   5.593  65.826  1.00  0.00    -0.055 C  
HETATM    6  C   UNL     1      -8.133   5.655  65.184  1.00  0.00    -0.127 C  
HETATM    7  C   UNL     1      -7.025   5.906  67.305  1.00  0.00    -0.069 C  
HETATM    8  C   UNL     1      -7.577   4.735  68.069  1.00  0.00    -0.082 C  
HETATM    9  O   UNL     1      -6.979   3.687  68.253  1.00  0.00    -0.049 OA 
HETATM   10  N   UNL     1      -8.846   5.033  68.477  1.00  0.00    -0.100 N  
HETATM   11  O   UNL     1     -10.456   6.637  68.020  1.00  0.00    -0.176 OA 
HETATM   12  C   UNL     1      -9.312   6.210  67.957  1.00  0.00    -0.114 C  
ENDROOT
BRANCH  10  13
HETATM   13  C   UNL     1      -9.688   4.105  69.216  1.00  0.00    -0.149 C  
BRANCH  13  14
HETATM   14  C   UNL     1      -9.284   4.011  70.704  1.00  0.00    -0.196 C  
HETATM   15  C   UNL     1      -9.004   2.543  71.080  1.00  0.00    -0.149 C  
HETATM   16  C   UNL     1      -8.527   2.409  72.521  1.00  0.00    -0.063 C  
HETATM   17  C   UNL     1      -9.506   3.052  73.494  1.00  0.00    -0.120 C  
HETATM   18  C   UNL     1      -9.795   4.506  73.126  1.00  0.00    -0.168 C  
HETATM   19  C   UNL     1     -10.331   4.628  71.686  1.00  0.00    -0.189 C  
BRANCH  19  20
HETATM   20  C   UNL     1     -10.649   6.097  71.320  1.00  0.00    -0.243 C  
BRANCH  20  21
HETATM   21  N   UNL     1     -11.631   6.806  72.163  1.00  0.00    -0.279 NA 
HETATM   22  C   UNL     1     -11.012   8.038  72.729  1.00  0.00    -0.382 C  
HETATM   23  C   UNL     1     -10.631   9.089  71.665  1.00  0.00    -0.364 C  
HETATM   24  N   UNL     1     -11.783   9.462  70.827  1.00  0.00    -0.283 NA 
HETATM   25  C   UNL     1     -12.631   8.350  70.358  1.00  0.00     0.698 C  
HETATM   26  C   UNL     1     -12.840   7.246  71.428  1.00  0.00    -0.382 C  
BRANCH  24  27
HETATM   27  C   UNL     1     -12.323  10.708  71.006  1.00  0.00    -0.403 A  
HETATM   28  N   UNL     1     -13.142  11.000  72.015  1.00  0.00    -0.458 NA 
HETATM   29  S   UNL     1     -13.478  12.611  72.008  1.00  0.00    -0.285 SA 
HETATM   30  C   UNL     1     -12.508  13.009  70.653  1.00  0.00    -0.268 A  
HETATM   31  C   UNL     1     -12.262  14.267  70.076  1.00  0.00    -0.417 A  
HETATM   32  C   UNL     1     -11.414  14.336  68.969  1.00  0.00    -0.318 A  
HETATM   33  C   UNL     1     -10.829  13.186  68.453  1.00  0.00    -0.283 A  
HETATM   34  C   UNL     1     -11.073  11.941  69.043  1.00  0.00    -0.300 A  
HETATM   35  C   UNL     1     -11.936  11.832  70.165  1.00  0.00    -0.421 A  
ENDBRANCH  24  27
ENDBRANCH  20  21
ENDBRANCH  19  20
ENDBRANCH  13  14
ENDBRANCH  10  13
TORSDOF 5
ENDMDL
MODEL      137
REMARK 921   NORMALIZED FREE ENERGY PREDICTED BY IDOCK:   -4.76 KCAL/MOL
REMARK 922        TOTAL FREE ENERGY PREDICTED BY IDOCK:   -7.88 KCAL/MOL
REMARK 923 INTER-LIGAND FREE ENERGY PREDICTED BY IDOCK:   -7.64 KCAL/MOL
REMARK 924 INTRA-LIGAND FREE ENERGY PREDICTED BY IDOCK:   -0.23 KCAL/MOL
REMARK 927      BINDING AFFINITY PREDICTED BY RF-SCORE:    0.00 PKD
ROOT
HETATM    1  C   UNL     1     -11.954  14.041  66.281  1.00  0.00    -0.454 C  
HETATM    2  C   UNL     1     -11.318  14.284  64.901  1.00  0.00    -0.372 C  
HETATM    3  C   UNL     1     -11.819  15.645  64.381  1.00  0.00    -0.183 C  
HETATM    4  C   UNL     1     -11.098  16.655  65.298  1.00  0.00    -0.036 C  
HETATM    5  C   UNL     1     -10.259  15.747  66.220  1.00  0.00    -0.317 C  
HETATM    6  C   UNL     1      -9.869  14.634  65.242  1.00  0.00    -0.228 C  
HETATM    7  C   UNL     1     -11.231  15.046  67.183  1.00  0.00    -0.336 C  
HETATM    8  C   UNL     1     -10.542  14.198  68.215  1.00  0.00    -0.251 C  
HETATM    9  O   UNL     1      -9.780  14.629  69.066  1.00  0.00    -0.214 OA 
HETATM   10  N   UNL     1     -10.884  12.892  68.012  1.00  0.00    -0.233 N  
HETATM   11  O   UNL     1     -11.900  11.628  66.356  1.00  0.00    -0.470 OA 
HETATM   12  C   UNL     1     -11.605  12.700  66.864  1.00  0.00    -0.373 C  
ENDROOT
BRANCH  10  13
HETATM   13  C   UNL     1     -10.367  11.794  68.816  1.00  0.00    -0.179 C  
BRANCH  13  14
HETATM   14  C   UNL     1      -9.003  11.285  68.297  1.00  0.00    -0.172 C  
HETATM   15  C   UNL     1      -8.303  12.394  67.487  1.00  0.00    -0.173 C  
HETATM   16  C   UNL     1      -6.919  11.964  67.019  1.00  0.00    -0.116 C  
HETATM   17  C   UNL     1      -6.976  10.659  66.237  1.00  0.00    -0.133 C  
HETATM   18  C   UNL     1      -7.673   9.555  67.029  1.00  0.00    -0.091 C  
HETATM   19  C   UNL     1      -9.096   9.977  67.450  1.00  0.00    -0.146 C  
BRANCH  19  20
HETATM   20  C   UNL     1      -9.815   8.850  68.230  1.00  0.00    -0.167 C  
BRANCH  20  21
HETATM   21  N   UNL     1      -9.762   7.492  67.656  1.00  0.00    -0.142 NA 
HETATM   22  C   UNL     1      -8.604   6.748  68.227  1.00  0.00    -0.124 C  
HETATM   23  C   UNL     1      -8.716   6.490  69.745  1.00  0.00    -0.143 C  
HETATM   24  N   UNL     1      -9.964   5.790  70.091  1.00  0.00    -0.186 NA 
HETATM   25  C   UNL     1     -11.188   6.280  69.430  1.00  0.00    -0.420 C  
HETATM   26  C   UNL     1     -10.965   6.676  67.946  1.00  0.00    -0.257 C  
BRANCH  24  27
HETATM   27  C   UNL     1      -9.871   4.478  70.477  1.00  0.00    -0.227 A  
HETATM   28  N   UNL     1      -9.407   3.522  69.675  1.00  0.00    -0.162 NA 
HETATM   29  S   UNL     1      -9.297   2.106  70.505  1.00  0.00    -0.105 SA 
HETATM   30  C   UNL     1      -9.845   2.716  72.010  1.00  0.00    -0.163 A  
HETATM   31  C   UNL     1      -9.968   2.056  73.244  1.00  0.00    -0.162 A  
HETATM   32  C   UNL     1     -10.433   2.782  74.342  1.00  0.00    -0.213 A  
HETATM   33  C   UNL     1     -10.766   4.125  74.214  1.00  0.00    -0.259 A  
HETATM   34  C   UNL     1     -10.628   4.774  72.982  1.00  0.00    -0.279 A  
HETATM   35  C   UNL     1     -10.165   4.066  71.842  1.00  0.00    -0.160 A  
ENDBRANCH  24  27
ENDBRANCH  20  21
ENDBRANCH  19  20
ENDBRANCH  13  14
ENDBRANCH  10  13
TORSDOF 5
ENDMDL
MODEL      138
REMARK 921   NORMALIZED FREE ENERGY PREDICTED BY IDOCK:   -4.73 KCAL/MOL
REMARK 922        TOTAL FREE ENERGY PREDICTED BY IDOCK:   -7.83 KCAL/MOL
REMARK 923 INTER-LIGAND FREE ENERGY PREDICTED BY IDOCK:   -8.00 KCAL/MOL
REMARK 924 INTRA-LIGAND FREE ENERGY PREDICTED BY IDOCK:    0.16 KCAL/MOL
REMARK 927      BINDING AFFINITY PREDICTED BY RF-SCORE:    0.00 PKD
ROOT
HETATM    1  C   UNL     1     -12.251  12.861  66.218  1.00  0.00    -0.340 C  
HETATM    2  C   UNL     1     -11.461  11.974  65.240  1.00  0.00    -0.358 C  
HETATM    3  C   UNL     1     -12.254  11.900  63.921  1.00  0.00    -0.497 C  
HETATM    4  C   UNL     1     -12.093  13.319  63.338  1.00  0.00    -0.508 C  
HETATM    5  C   UNL     1     -11.214  14.027  64.388  1.00  0.00    -0.318 C  
HETATM    6  C   UNL     1     -10.300  12.875  64.815  1.00  0.00    -0.345 C  
HETATM    7  C   UNL     1     -12.085  14.266  65.632  1.00  0.00    -0.399 C  
HETATM    8  C   UNL     1     -11.385  15.044  66.711  1.00  0.00    -0.293 C  
HETATM    9  O   UNL     1     -10.989  16.192  66.587  1.00  0.00    -0.211 OA 
HETATM   10  N   UNL     1     -11.244  14.246  67.809  1.00  0.00    -0.280 N  
HETATM   11  O   UNL     1     -11.447  11.994  68.324  1.00  0.00    -0.256 OA 
HETATM   12  C   UNL     1     -11.618  12.949  67.579  1.00  0.00    -0.356 C  
ENDROOT
BRANCH  10  13
HETATM   13  C   UNL     1     -10.578  14.673  69.030  1.00  0.00    -0.247 C  
BRANCH  13  14
HETATM   14  C   UNL     1      -9.098  15.046  68.786  1.00  0.00    -0.197 C  
HETATM   15  C   UNL     1      -8.990  16.532  68.389  1.00  0.00    -0.219 C  
HETATM   16  C   UNL     1      -7.541  16.965  68.213  1.00  0.00    -0.202 C  
HETATM   17  C   UNL     1      -6.809  16.073  67.220  1.00  0.00    -0.236 C  
HETATM   18  C   UNL     1      -6.915  14.598  67.601  1.00  0.00    -0.205 C  
HETATM   19  C   UNL     1      -8.386  14.151  67.723  1.00  0.00    -0.175 C  
BRANCH  19  20
HETATM   20  C   UNL     1      -8.497  12.651  68.083  1.00  0.00    -0.177 C  
BRANCH  20  21
HETATM   21  N   UNL     1      -7.387  11.772  67.665  1.00  0.00    -0.110 NA 
HETATM   22  C   UNL     1      -6.951  10.931  68.814  1.00  0.00    -0.078 C  
HETATM   23  C   UNL     1      -8.027   9.939  69.305  1.00  0.00    -0.121 C  
HETATM   24  N   UNL     1      -8.505   9.068  68.217  1.00  0.00    -0.128 NA 
HETATM   25  C   UNL     1      -8.781   9.732  66.929  1.00  0.00    -0.135 C  
HETATM   26  C   UNL     1      -7.748  10.835  66.575  1.00  0.00    -0.145 C  
BRANCH  24  27
HETATM   27  C   UNL     1      -8.128   7.752  68.243  1.00  0.00    -0.124 A  
HETATM   28  N   UNL     1      -6.965   7.325  67.753  1.00  0.00    -0.073 NA 
HETATM   29  S   UNL     1      -6.778   5.725  68.082  1.00  0.00    -0.059 SA 
HETATM   30  C   UNL     1      -8.250   5.524  68.935  1.00  0.00    -0.099 A  
HETATM   31  C   UNL     1      -8.757   4.382  69.577  1.00  0.00    -0.117 A  
HETATM   32  C   UNL     1      -9.991   4.474  70.223  1.00  0.00    -0.288 A  
HETATM   33  C   UNL     1     -10.699   5.669  70.229  1.00  0.00    -0.364 A  
HETATM   34  C   UNL     1     -10.178   6.804  69.597  1.00  0.00    -0.207 A  
HETATM   35  C   UNL     1      -8.930   6.745  68.924  1.00  0.00    -0.131 A  
ENDBRANCH  24  27
ENDBRANCH  20  21
ENDBRANCH  19  20
ENDBRANCH  13  14
ENDBRANCH  10  13
TORSDOF 5
ENDMDL
MODEL      139
REMARK 921   NORMALIZED FREE ENERGY PREDICTED BY IDOCK:   -4.73 KCAL/MOL
REMARK 922        TOTAL FREE ENERGY PREDICTED BY IDOCK:   -7.83 KCAL/MOL
REMARK 923 INTER-LIGAND FREE ENERGY PREDICTED BY IDOCK:   -7.62 KCAL/MOL
REMARK 924 INTRA-LIGAND FREE ENERGY PREDICTED BY IDOCK:   -0.21 KCAL/MOL
REMARK 927      BINDING AFFINITY PREDICTED BY RF-SCORE:    0.00 PKD
ROOT
HETATM    1  C   UNL     1     -10.351   7.834  71.100  1.00  0.00    -0.218 C  
HETATM    2  C   UNL     1      -8.992   8.320  71.635  1.00  0.00    -0.235 C  
HETATM    3  C   UNL     1      -9.016   8.196  73.171  1.00  0.00    -0.330 C  
HETATM    4  C   UNL     1      -8.975   6.672  73.399  1.00  0.00    -0.140 C  
HETATM    5  C   UNL     1      -8.915   6.109  71.964  1.00  0.00    -0.139 C  
HETATM    6  C   UNL     1      -8.048   7.170  71.280  1.00  0.00    -0.107 C  
HETATM    7  C   UNL     1     -10.299   6.321  71.329  1.00  0.00    -0.255 C  
HETATM    8  C   UNL     1     -10.423   5.727  69.954  1.00  0.00    -0.290 C  
HETATM    9  O   UNL     1     -10.329   4.535  69.706  1.00  0.00    -0.116 OA 
HETATM   10  N   UNL     1     -10.615   6.735  69.054  1.00  0.00    -0.216 N  
HETATM   11  O   UNL     1     -10.444   9.047  69.013  1.00  0.00    -0.219 OA 
HETATM   12  C   UNL     1     -10.484   7.980  69.609  1.00  0.00    -0.224 C  
ENDROOT
BRANCH  10  13
HETATM   13  C   UNL     1     -10.743   6.517  67.621  1.00  0.00    -0.307 C  
BRANCH  13  14
HETATM   14  C   UNL     1      -9.369   6.366  66.930  1.00  0.00    -0.150 C  
HETATM   15  C   UNL     1      -8.465   5.431  67.759  1.00  0.00    -0.105 C  
HETATM   16  C   UNL     1      -7.125   5.191  67.077  1.00  0.00    -0.069 C  
HETATM   17  C   UNL     1      -6.420   6.502  66.757  1.00  0.00    -0.043 C  
HETATM   18  C   UNL     1      -7.309   7.438  65.941  1.00  0.00    -0.075 C  
HETATM   19  C   UNL     1      -8.641   7.721  66.664  1.00  0.00    -0.138 C  
BRANCH  19  20
HETATM   20  C   UNL     1      -9.534   8.690  65.852  1.00  0.00    -0.173 C  
BRANCH  20  21
HETATM   21  N   UNL     1      -8.862   9.805  65.158  1.00  0.00    -0.167 NA 
HETATM   22  C   UNL     1      -9.871  10.627  64.432  1.00  0.00    -0.334 C  
HETATM   23  C   UNL     1     -10.879  11.339  65.359  1.00  0.00    -0.188 C  
HETATM   24  N   UNL     1     -10.202  12.175  66.365  1.00  0.00    -0.216 NA 
HETATM   25  C   UNL     1      -9.032  11.569  67.030  1.00  0.00    -0.174 C  
HETATM   26  C   UNL     1      -8.148  10.731  66.069  1.00  0.00    -0.158 C  
BRANCH  24  27
HETATM   27  C   UNL     1     -10.281  13.535  66.220  1.00  0.00    -0.299 A  
HETATM   28  N   UNL     1     -10.360  14.129  65.031  1.00  0.00    -0.413 NA 
HETATM   29  S   UNL     1     -10.589  15.746  65.233  1.00  0.00    -0.400 SA 
HETATM   30  C   UNL     1     -10.623  15.728  66.946  1.00  0.00    -0.317 A  
HETATM   31  C   UNL     1     -10.840  16.789  67.842  1.00  0.00    -0.311 A  
HETATM   32  C   UNL     1     -10.832  16.515  69.211  1.00  0.00    -0.326 A  
HETATM   33  C   UNL     1     -10.615  15.224  69.674  1.00  0.00    -0.285 A  
HETATM   34  C   UNL     1     -10.411  14.173  68.771  1.00  0.00    -0.230 A  
HETATM   35  C   UNL     1     -10.405  14.416  67.373  1.00  0.00    -0.252 A  
ENDBRANCH  24  27
ENDBRANCH  20  21
ENDBRANCH  19  20
ENDBRANCH  13  14
ENDBRANCH  10  13
TORSDOF 5
ENDMDL
MODEL      140
REMARK 921   NORMALIZED FREE ENERGY PREDICTED BY IDOCK:   -4.73 KCAL/MOL
REMARK 922        TOTAL FREE ENERGY PREDICTED BY IDOCK:   -7.83 KCAL/MOL
REMARK 923 INTER-LIGAND FREE ENERGY PREDICTED BY IDOCK:   -8.40 KCAL/MOL
REMARK 924 INTRA-LIGAND FREE ENERGY PREDICTED BY IDOCK:    0.57 KCAL/MOL
REMARK 927      BINDING AFFINITY PREDICTED BY RF-SCORE:    0.00 PKD
ROOT
HETATM    1  C   UNL     1      -9.894   6.722  70.222  1.00  0.00    -0.185 C  
HETATM    2  C   UNL     1      -8.507   6.075  70.387  1.00  0.00    -0.132 C  
HETATM    3  C   UNL     1      -8.703   4.696  71.046  1.00  0.00    -0.140 C  
HETATM    4  C   UNL     1      -9.362   3.865  69.925  1.00  0.00    -0.245 C  
HETATM    5  C   UNL     1      -9.448   4.868  68.756  1.00  0.00    -0.202 C  
HETATM    6  C   UNL     1      -8.149   5.652  68.961  1.00  0.00    -0.097 C  
HETATM    7  C   UNL     1     -10.539   5.892  69.108  1.00  0.00    -0.369 C  
HETATM    8  C   UNL     1     -10.806   6.881  68.008  1.00  0.00    -0.200 C  
HETATM    9  O   UNL     1     -11.234   6.586  66.903  1.00  0.00    -0.387 OA 
HETATM   10  N   UNL     1     -10.459   8.128  68.443  1.00  0.00    -0.193 N  
HETATM   11  O   UNL     1      -9.275   9.056  70.206  1.00  0.00    -0.171 OA 
HETATM   12  C   UNL     1      -9.832   8.115  69.659  1.00  0.00    -0.184 C  
ENDROOT
BRANCH  10  13
HETATM   13  C   UNL     1     -10.559   9.321  67.616  1.00  0.00    -0.261 C  
BRANCH  13  14
HETATM   14  C   UNL     1      -9.812   9.163  66.272  1.00  0.00    -0.359 C  
HETATM   15  C   UNL     1      -8.414   8.562  66.517  1.00  0.00    -0.119 C  
HETATM   16  C   UNL     1      -7.669   8.316  65.212  1.00  0.00    -0.106 C  
HETATM   17  C   UNL     1      -7.588   9.581  64.368  1.00  0.00    -0.122 C  
HETATM   18  C   UNL     1      -8.969  10.187  64.125  1.00  0.00    -0.267 C  
HETATM   19  C   UNL     1      -9.694  10.486  65.453  1.00  0.00    -0.315 C  
BRANCH  19  20
HETATM   20  C   UNL     1     -11.083  11.125  65.210  1.00  0.00    -0.006 C  
BRANCH  20  21
HETATM   21  N   UNL     1     -11.604  12.026  66.255  1.00  0.00    -0.486 NA 
HETATM   22  C   UNL     1     -10.472  12.714  66.938  1.00  0.00    -0.233 C  
HETATM   23  C   UNL     1      -9.671  13.659  66.018  1.00  0.00    -0.222 C  
HETATM   24  N   UNL     1     -10.537  14.664  65.378  1.00  0.00    -0.347 NA 
HETATM   25  C   UNL     1     -11.814  14.167  64.834  1.00  0.00    -0.402 C  
HETATM   26  C   UNL     1     -12.488  13.096  65.733  1.00  0.00    -0.377 C  
BRANCH  24  27
HETATM   27  C   UNL     1     -10.433  15.960  65.809  1.00  0.00    -0.370 A  
HETATM   28  N   UNL     1     -10.595  17.004  64.999  1.00  0.00    -0.655 NA 
HETATM   29  S   UNL     1     -10.550  18.397  65.873  1.00  0.00    -0.105 SA 
HETATM   30  C   UNL     1     -10.337  17.662  67.406  1.00  0.00    -0.360 A  
HETATM   31  C   UNL     1     -10.261  18.260  68.675  1.00  0.00    -0.377 A  
HETATM   32  C   UNL     1     -10.095  17.436  69.790  1.00  0.00     0.312 A  
HETATM   33  C   UNL     1     -10.007  16.057  69.643  1.00  0.00    -0.226 A  
HETATM   34  C   UNL     1     -10.095  15.472  68.375  1.00  0.00    -0.214 A  
HETATM   35  C   UNL     1     -10.256  16.280  67.219  1.00  0.00    -0.279 A  
ENDBRANCH  24  27
ENDBRANCH  20  21
ENDBRANCH  19  20
ENDBRANCH  13  14
ENDBRANCH  10  13
TORSDOF 5
ENDMDL
MODEL      141
REMARK 921   NORMALIZED FREE ENERGY PREDICTED BY IDOCK:   -4.71 KCAL/MOL
REMARK 922        TOTAL FREE ENERGY PREDICTED BY IDOCK:   -7.81 KCAL/MOL
REMARK 923 INTER-LIGAND FREE ENERGY PREDICTED BY IDOCK:   -6.54 KCAL/MOL
REMARK 924 INTRA-LIGAND FREE ENERGY PREDICTED BY IDOCK:   -1.27 KCAL/MOL
REMARK 927      BINDING AFFINITY PREDICTED BY RF-SCORE:    0.00 PKD
ROOT
HETATM    1  C   UNL     1     -10.801  12.792  66.627  1.00  0.00    -0.288 C  
HETATM    2  C   UNL     1     -11.305  12.205  65.297  1.00  0.00    -0.386 C  
HETATM    3  C   UNL     1     -12.740  12.719  65.066  1.00  0.00    -0.455 C  
HETATM    4  C   UNL     1     -12.528  14.213  64.750  1.00  0.00    -0.395 C  
HETATM    5  C   UNL     1     -10.996  14.369  64.822  1.00  0.00    -0.409 C  
HETATM    6  C   UNL     1     -10.547  13.021  64.248  1.00  0.00    -0.434 C  
HETATM    7  C   UNL     1     -10.592  14.274  66.303  1.00  0.00    -0.291 C  
HETATM    8  C   UNL     1      -9.127  14.509  66.539  1.00  0.00    -0.219 C  
HETATM    9  O   UNL     1      -8.549  15.557  66.297  1.00  0.00    -0.291 OA 
HETATM   10  N   UNL     1      -8.569  13.361  67.024  1.00  0.00    -0.192 N  
HETATM   11  O   UNL     1      -9.156  11.128  67.228  1.00  0.00    -0.148 OA 
HETATM   12  C   UNL     1      -9.432  12.299  67.008  1.00  0.00    -0.204 C  
ENDROOT
BRANCH  10  13
HETATM   13  C   UNL     1      -7.153  13.227  67.333  1.00  0.00    -0.099 C  
BRANCH  13  14
HETATM   14  C   UNL     1      -6.852  13.515  68.820  1.00  0.00    -0.108 C  
HETATM   15  C   UNL     1      -6.356  14.966  68.984  1.00  0.00    -0.099 C  
HETATM   16  C   UNL     1      -6.119  15.320  70.446  1.00  0.00    -0.071 C  
HETATM   17  C   UNL     1      -5.170  14.333  71.111  1.00  0.00    -0.144 C  
HETATM   18  C   UNL     1      -5.649  12.892  70.950  1.00  0.00    -0.170 C  
HETATM   19  C   UNL     1      -5.833  12.523  69.464  1.00  0.00    -0.105 C  
BRANCH  19  20
HETATM   20  C   UNL     1      -6.293  11.055  69.296  1.00  0.00    -0.065 C  
BRANCH  20  21
HETATM   21  N   UNL     1      -6.829  10.374  70.491  1.00  0.00    -0.323 NA 
HETATM   22  C   UNL     1      -8.156   9.774  70.175  1.00  0.00    -0.182 C  
HETATM   23  C   UNL     1      -8.096   8.649  69.120  1.00  0.00    -0.116 C  
HETATM   24  N   UNL     1      -7.158   7.582  69.509  1.00  0.00    -0.067 NA 
HETATM   25  C   UNL     1      -5.860   8.026  70.051  1.00  0.00    -0.022 C  
HETATM   26  C   UNL     1      -5.975   9.266  70.978  1.00  0.00    -0.064 C  
BRANCH  24  27
HETATM   27  C   UNL     1      -7.688   6.380  69.896  1.00  0.00    -0.109 A  
HETATM   28  N   UNL     1      -7.938   6.079  71.169  1.00  0.00    -0.114 NA 
HETATM   29  S   UNL     1      -8.703   4.624  71.255  1.00  0.00    -0.120 SA 
HETATM   30  C   UNL     1      -8.764   4.333  69.567  1.00  0.00    -0.082 A  
HETATM   31  C   UNL     1      -9.344   3.259  68.872  1.00  0.00    -0.232 A  
HETATM   32  C   UNL     1      -9.273   3.254  67.477  1.00  0.00    -0.233 A  
HETATM   33  C   UNL     1      -8.642   4.288  66.797  1.00  0.00    -0.108 A  
HETATM   34  C   UNL     1      -8.078   5.358  67.501  1.00  0.00    -0.101 A  
HETATM   35  C   UNL     1      -8.125   5.393  68.919  1.00  0.00    -0.094 A  
ENDBRANCH  24  27
ENDBRANCH  20  21
ENDBRANCH  19  20
ENDBRANCH  13  14
ENDBRANCH  10  13
TORSDOF 5
ENDMDL
MODEL      142
REMARK 921   NORMALIZED FREE ENERGY PREDICTED BY IDOCK:   -4.69 KCAL/MOL
REMARK 922        TOTAL FREE ENERGY PREDICTED BY IDOCK:   -7.78 KCAL/MOL
REMARK 923 INTER-LIGAND FREE ENERGY PREDICTED BY IDOCK:   -7.48 KCAL/MOL
REMARK 924 INTRA-LIGAND FREE ENERGY PREDICTED BY IDOCK:   -0.30 KCAL/MOL
REMARK 927      BINDING AFFINITY PREDICTED BY RF-SCORE:    0.00 PKD
ROOT
HETATM    1  C   UNL     1      -7.082  16.184  67.093  1.00  0.00    -0.253 C  
HETATM    2  C   UNL     1      -6.065  16.703  68.124  1.00  0.00    -0.129 C  
HETATM    3  C   UNL     1      -5.745  18.170  67.777  1.00  0.00    -0.154 C  
HETATM    4  C   UNL     1      -7.048  18.908  68.147  1.00  0.00    -0.273 C  
HETATM    5  C   UNL     1      -7.949  17.773  68.677  1.00  0.00    -0.276 C  
HETATM    6  C   UNL     1      -6.912  16.895  69.383  1.00  0.00    -0.164 C  
HETATM    7  C   UNL     1      -8.372  16.920  67.469  1.00  0.00    -0.201 C  
HETATM    8  C   UNL     1      -9.341  15.826  67.821  1.00  0.00    -0.206 C  
HETATM    9  O   UNL     1     -10.462  16.015  68.266  1.00  0.00    -0.251 OA 
HETATM   10  N   UNL     1      -8.745  14.619  67.594  1.00  0.00    -0.168 N  
HETATM   11  O   UNL     1      -6.609  13.817  67.183  1.00  0.00    -0.180 OA 
HETATM   12  C   UNL     1      -7.418  14.729  67.276  1.00  0.00    -0.141 C  
ENDROOT
BRANCH  10  13
HETATM   13  C   UNL     1      -9.392  13.343  67.861  1.00  0.00    -0.216 C  
BRANCH  13  14
HETATM   14  C   UNL     1      -9.442  12.443  66.606  1.00  0.00    -0.232 C  
HETATM   15  C   UNL     1     -10.436  13.024  65.582  1.00  0.00    -0.291 C  
HETATM   16  C   UNL     1     -10.463  12.210  64.295  1.00  0.00    -0.373 C  
HETATM   17  C   UNL     1     -10.749  10.741  64.571  1.00  0.00    -0.147 C  
HETATM   18  C   UNL     1      -9.773  10.156  65.590  1.00  0.00    -0.322 C  
HETATM   19  C   UNL     1      -9.793  10.952  66.910  1.00  0.00    -0.222 C  
BRANCH  19  20
HETATM   20  C   UNL     1      -8.824  10.346  67.953  1.00  0.00    -0.125 C  
BRANCH  20  21
HETATM   21  N   UNL     1      -9.007   8.923  68.299  1.00  0.00    -0.137 NA 
HETATM   22  C   UNL     1      -7.831   8.438  69.074  1.00  0.00    -0.102 C  
HETATM   23  C   UNL     1      -7.663   9.120  70.448  1.00  0.00    -0.127 C  
HETATM   24  N   UNL     1      -8.876   8.994  71.274  1.00  0.00    -0.267 NA 
HETATM   25  C   UNL     1     -10.157   9.239  70.585  1.00  0.00    -0.276 C  
HETATM   26  C   UNL     1     -10.198   8.665  69.144  1.00  0.00    -0.208 C  
BRANCH  24  27
HETATM   27  C   UNL     1      -8.826   8.150  72.351  1.00  0.00    -0.197 A  
HETATM   28  N   UNL     1      -8.018   8.354  73.390  1.00  0.00    -0.361 NA 
HETATM   29  S   UNL     1      -8.325   7.237  74.559  1.00  0.00    -0.198 SA 
HETATM   30  C   UNL     1      -9.593   6.431  73.734  1.00  0.00    -0.175 A  
HETATM   31  C   UNL     1     -10.394   5.360  74.167  1.00  0.00    -0.307 A  
HETATM   32  C   UNL     1     -11.382   4.880  73.306  1.00  0.00    -0.408 A  
HETATM   33  C   UNL     1     -11.567   5.449  72.052  1.00  0.00     0.048 A  
HETATM   34  C   UNL     1     -10.770   6.523  71.637  1.00  0.00    -0.267 A  
HETATM   35  C   UNL     1      -9.750   7.032  72.484  1.00  0.00    -0.170 A  
ENDBRANCH  24  27
ENDBRANCH  20  21
ENDBRANCH  19  20
ENDBRANCH  13  14
ENDBRANCH  10  13
TORSDOF 5
ENDMDL
MODEL      143
REMARK 921   NORMALIZED FREE ENERGY PREDICTED BY IDOCK:   -4.67 KCAL/MOL
REMARK 922        TOTAL FREE ENERGY PREDICTED BY IDOCK:   -7.75 KCAL/MOL
REMARK 923 INTER-LIGAND FREE ENERGY PREDICTED BY IDOCK:   -7.14 KCAL/MOL
REMARK 924 INTRA-LIGAND FREE ENERGY PREDICTED BY IDOCK:   -0.62 KCAL/MOL
REMARK 927      BINDING AFFINITY PREDICTED BY RF-SCORE:    0.00 PKD
ROOT
HETATM    1  C   UNL     1     -10.168  15.077  68.567  1.00  0.00    -0.227 C  
HETATM    2  C   UNL     1      -9.985  16.187  67.517  1.00  0.00    -0.243 C  
HETATM    3  C   UNL     1      -9.226  17.350  68.187  1.00  0.00    -0.270 C  
HETATM    4  C   UNL     1      -7.805  16.781  68.368  1.00  0.00    -0.214 C  
HETATM    5  C   UNL     1      -7.920  15.366  67.765  1.00  0.00    -0.159 C  
HETATM    6  C   UNL     1      -8.889  15.629  66.608  1.00  0.00    -0.327 C  
HETATM    7  C   UNL     1      -8.753  14.517  68.738  1.00  0.00    -0.147 C  
HETATM    8  C   UNL     1      -8.866  13.076  68.329  1.00  0.00    -0.172 C  
HETATM    9  O   UNL     1      -7.921  12.308  68.238  1.00  0.00    -0.149 OA 
HETATM   10  N   UNL     1     -10.173  12.798  68.048  1.00  0.00    -0.222 N  
HETATM   11  O   UNL     1     -12.133  13.982  67.687  1.00  0.00    -0.382 OA 
HETATM   12  C   UNL     1     -10.970  13.911  68.058  1.00  0.00    -0.251 C  
ENDROOT
BRANCH  10  13
HETATM   13  C   UNL     1     -10.634  11.497  67.587  1.00  0.00    -0.199 C  
BRANCH  13  14
HETATM   14  C   UNL     1     -11.161  10.622  68.746  1.00  0.00    -0.337 C  
HETATM   15  C   UNL     1     -12.159  11.429  69.601  1.00  0.00    -0.373 C  
HETATM   16  C   UNL     1     -12.763  10.582  70.713  1.00  0.00    -0.471 C  
HETATM   17  C   UNL     1     -11.685   9.943  71.577  1.00  0.00    -0.414 C  
HETATM   18  C   UNL     1     -10.688   9.146  70.738  1.00  0.00    -0.327 C  
HETATM   19  C   UNL     1     -10.037  10.025  69.651  1.00  0.00    -0.263 C  
BRANCH  19  20
HETATM   20  C   UNL     1      -9.007   9.226  68.817  1.00  0.00    -0.132 C  
BRANCH  20  21
HETATM   21  N   UNL     1      -9.326   7.817  68.519  1.00  0.00    -0.147 NA 
HETATM   22  C   UNL     1     -10.168   7.739  67.291  1.00  0.00    -0.273 C  
HETATM   23  C   UNL     1      -9.451   8.221  66.012  1.00  0.00    -0.119 C  
HETATM   24  N   UNL     1      -8.190   7.496  65.785  1.00  0.00    -0.130 NA 
HETATM   25  C   UNL     1      -7.332   7.301  66.969  1.00  0.00    -0.093 C  
HETATM   26  C   UNL     1      -8.132   6.978  68.259  1.00  0.00    -0.123 C  
BRANCH  24  27
HETATM   27  C   UNL     1      -8.152   6.595  64.753  1.00  0.00    -0.099 A  
HETATM   28  N   UNL     1      -7.639   6.888  63.560  1.00  0.00    -0.095 NA 
HETATM   29  S   UNL     1      -7.621   5.539  62.618  1.00  0.00    -0.073 SA 
HETATM   30  C   UNL     1      -8.282   4.473  63.786  1.00  0.00    -0.103 A  
HETATM   31  C   UNL     1      -8.518   3.091  63.695  1.00  0.00    -0.086 A  
HETATM   32  C   UNL     1      -9.060   2.435  64.802  1.00  0.00    -0.129 A  
HETATM   33  C   UNL     1      -9.359   3.135  65.964  1.00  0.00    -0.104 A  
HETATM   34  C   UNL     1      -9.108   4.510  66.046  1.00  0.00    -0.130 A  
HETATM   35  C   UNL     1      -8.564   5.211  64.938  1.00  0.00    -0.151 A  
ENDBRANCH  24  27
ENDBRANCH  20  21
ENDBRANCH  19  20
ENDBRANCH  13  14
ENDBRANCH  10  13
TORSDOF 5
ENDMDL
MODEL      144
REMARK 921   NORMALIZED FREE ENERGY PREDICTED BY IDOCK:   -4.66 KCAL/MOL
REMARK 922        TOTAL FREE ENERGY PREDICTED BY IDOCK:   -7.75 KCAL/MOL
REMARK 923 INTER-LIGAND FREE ENERGY PREDICTED BY IDOCK:   -7.68 KCAL/MOL
REMARK 924 INTRA-LIGAND FREE ENERGY PREDICTED BY IDOCK:   -0.06 KCAL/MOL
REMARK 927      BINDING AFFINITY PREDICTED BY RF-SCORE:    0.00 PKD
ROOT
HETATM    1  C   UNL     1      -7.994   9.939  65.264  1.00  0.00    -0.137 C  
HETATM    2  C   UNL     1      -8.723   8.614  65.548  1.00  0.00    -0.219 C  
HETATM    3  C   UNL     1      -7.952   7.486  64.835  1.00  0.00    -0.132 C  
HETATM    4  C   UNL     1      -6.655   7.374  65.663  1.00  0.00    -0.045 C  
HETATM    5  C   UNL     1      -6.851   8.441  66.759  1.00  0.00    -0.069 C  
HETATM    6  C   UNL     1      -8.358   8.321  67.004  1.00  0.00    -0.122 C  
HETATM    7  C   UNL     1      -6.710   9.818  66.090  1.00  0.00    -0.085 C  
HETATM    8  C   UNL     1      -6.779  10.963  67.061  1.00  0.00    -0.098 C  
HETATM    9  O   UNL     1      -5.975  11.155  67.960  1.00  0.00    -0.049 OA 
HETATM   10  N   UNL     1      -7.890  11.708  66.787  1.00  0.00    -0.154 N  
HETATM   11  O   UNL     1      -9.822  11.495  65.525  1.00  0.00    -0.219 OA 
HETATM   12  C   UNL     1      -8.697  11.135  65.842  1.00  0.00    -0.164 C  
ENDROOT
BRANCH  10  13
HETATM   13  C   UNL     1      -8.280  12.878  67.559  1.00  0.00    -0.184 C  
BRANCH  13  14
HETATM   14  C   UNL     1      -7.687  14.182  66.980  1.00  0.00     0.128 C  
HETATM   15  C   UNL     1      -6.489  14.638  67.836  1.00  0.00    -0.177 C  
HETATM   16  C   UNL     1      -5.823  15.880  67.259  1.00  0.00    -0.024 C  
HETATM   17  C   UNL     1      -6.825  17.010  67.063  1.00  0.00    -0.231 C  
HETATM   18  C   UNL     1      -8.019  16.566  66.221  1.00  0.00    -0.307 C  
HETATM   19  C   UNL     1      -8.722  15.342  66.842  1.00  0.00    -0.285 C  
BRANCH  19  20
HETATM   20  C   UNL     1      -9.949  14.907  66.005  1.00  0.00    -0.313 C  
BRANCH  20  21
HETATM   21  N   UNL     1     -11.283  15.246  66.535  1.00  0.00    -0.281 NA 
HETATM   22  C   UNL     1     -12.020  13.999  66.882  1.00  0.00    -0.447 C  
HETATM   23  C   UNL     1     -11.375  13.192  68.029  1.00  0.00    -0.292 C  
HETATM   24  N   UNL     1     -11.201  14.009  69.242  1.00  0.00    -0.261 NA 
HETATM   25  C   UNL     1     -10.673  15.371  69.036  1.00  0.00    -0.242 C  
HETATM   26  C   UNL     1     -11.243  16.064  67.770  1.00  0.00    -0.231 C  
BRANCH  24  27
HETATM   27  C   UNL     1     -12.017  13.744  70.310  1.00  0.00    -0.326 A  
HETATM   28  N   UNL     1     -12.624  12.571  70.479  1.00  0.00    -0.163 NA 
HETATM   29  S   UNL     1     -13.399  12.551  71.931  1.00  0.00    -0.241 SA 
HETATM   30  C   UNL     1     -12.930  14.124  72.426  1.00  0.00    -0.391 A  
HETATM   31  C   UNL     1     -13.196  14.791  73.634  1.00  0.00     0.128 A  
HETATM   32  C   UNL     1     -12.688  16.080  73.807  1.00  0.00    -0.719 A  
HETATM   33  C   UNL     1     -11.938  16.685  72.807  1.00  0.00    -0.340 A  
HETATM   34  C   UNL     1     -11.670  16.006  71.613  1.00  0.00    -0.583 A  
HETATM   35  C   UNL     1     -12.177  14.697  71.399  1.00  0.00    -0.411 A  
ENDBRANCH  24  27
ENDBRANCH  20  21
ENDBRANCH  19  20
ENDBRANCH  13  14
ENDBRANCH  10  13
TORSDOF 5
ENDMDL
MODEL      145
REMARK 921   NORMALIZED FREE ENERGY PREDICTED BY IDOCK:   -4.66 KCAL/MOL
REMARK 922        TOTAL FREE ENERGY PREDICTED BY IDOCK:   -7.74 KCAL/MOL
REMARK 923 INTER-LIGAND FREE ENERGY PREDICTED BY IDOCK:   -7.74 KCAL/MOL
REMARK 924 INTRA-LIGAND FREE ENERGY PREDICTED BY IDOCK:   -0.01 KCAL/MOL
REMARK 927      BINDING AFFINITY PREDICTED BY RF-SCORE:    0.00 PKD
ROOT
HETATM    1  C   UNL     1      -8.863  17.024  67.431  1.00  0.00    -0.210 C  
HETATM    2  C   UNL     1      -7.434  16.729  66.941  1.00  0.00    -0.257 C  
HETATM    3  C   UNL     1      -6.460  17.578  67.782  1.00  0.00    -0.163 C  
HETATM    4  C   UNL     1      -6.518  16.904  69.168  1.00  0.00    -0.215 C  
HETATM    5  C   UNL     1      -7.506  15.741  68.946  1.00  0.00    -0.173 C  
HETATM    6  C   UNL     1      -7.152  15.338  67.512  1.00  0.00    -0.224 C  
HETATM    7  C   UNL     1      -8.911  16.351  68.805  1.00  0.00    -0.246 C  
HETATM    8  C   UNL     1      -9.999  15.322  68.683  1.00  0.00    -0.216 C  
HETATM    9  O   UNL     1     -10.280  14.508  69.549  1.00  0.00    -0.108 OA 
HETATM   10  N   UNL     1     -10.576  15.434  67.451  1.00  0.00    -0.283 N  
HETATM   11  O   UNL     1     -10.115  16.486  65.437  1.00  0.00    -0.570 OA 
HETATM   12  C   UNL     1      -9.919  16.313  66.631  1.00  0.00    -0.264 C  
ENDROOT
BRANCH  10  13
HETATM   13  C   UNL     1     -11.647  14.566  66.985  1.00  0.00    -0.386 C  
BRANCH  13  14
HETATM   14  C   UNL     1     -11.333  13.942  65.607  1.00  0.00    -0.310 C  
HETATM   15  C   UNL     1     -12.584  14.002  64.707  1.00  0.00    -0.326 C  
HETATM   16  C   UNL     1     -12.300  13.466  63.310  1.00  0.00    -0.244 C  
HETATM   17  C   UNL     1     -11.721  12.059  63.360  1.00  0.00    -0.519 C  
HETATM   18  C   UNL     1     -10.485  11.988  64.253  1.00  0.00    -0.369 C  
HETATM   19  C   UNL     1     -10.794  12.479  65.682  1.00  0.00    -0.311 C  
BRANCH  19  20
HETATM   20  C   UNL     1      -9.550  12.383  66.597  1.00  0.00    -0.229 C  
BRANCH  20  21
HETATM   21  N   UNL     1      -9.654  11.523  67.791  1.00  0.00    -0.171 NA 
HETATM   22  C   UNL     1     -10.164  10.178  67.401  1.00  0.00    -0.218 C  
HETATM   23  C   UNL     1      -9.208   9.393  66.478  1.00  0.00    -0.159 C  
HETATM   24  N   UNL     1      -7.867   9.253  67.069  1.00  0.00    -0.098 NA 
HETATM   25  C   UNL     1      -7.306  10.464  67.697  1.00  0.00    -0.088 C  
HETATM   26  C   UNL     1      -8.359  11.295  68.476  1.00  0.00    -0.155 C  
BRANCH  24  27
HETATM   27  C   UNL     1      -7.497   8.013  67.519  1.00  0.00    -0.097 A  
HETATM   28  N   UNL     1      -6.354   7.792  68.165  1.00  0.00    -0.048 NA 
HETATM   29  S   UNL     1      -6.303   6.232  68.685  1.00  0.00    -0.043 SA 
HETATM   30  C   UNL     1      -7.842   5.773  68.087  1.00  0.00    -0.104 A  
HETATM   31  C   UNL     1      -8.513   4.545  68.210  1.00  0.00    -0.099 A  
HETATM   32  C   UNL     1      -9.781   4.420  67.639  1.00  0.00    -0.198 A  
HETATM   33  C   UNL     1     -10.362   5.487  66.965  1.00  0.00    -0.306 A  
HETATM   34  C   UNL     1      -9.688   6.709  66.859  1.00  0.00    -0.209 A  
HETATM   35  C   UNL     1      -8.394   6.870  67.421  1.00  0.00    -0.122 A  
ENDBRANCH  24  27
ENDBRANCH  20  21
ENDBRANCH  19  20
ENDBRANCH  13  14
ENDBRANCH  10  13
TORSDOF 5
ENDMDL
MODEL      146
REMARK 921   NORMALIZED FREE ENERGY PREDICTED BY IDOCK:   -4.64 KCAL/MOL
REMARK 922        TOTAL FREE ENERGY PREDICTED BY IDOCK:   -7.73 KCAL/MOL
REMARK 923 INTER-LIGAND FREE ENERGY PREDICTED BY IDOCK:   -7.02 KCAL/MOL
REMARK 924 INTRA-LIGAND FREE ENERGY PREDICTED BY IDOCK:   -0.71 KCAL/MOL
REMARK 927      BINDING AFFINITY PREDICTED BY RF-SCORE:    0.00 PKD
ROOT
HETATM    1  C   UNL     1      -8.499  16.064  66.946  1.00  0.00    -0.275 C  
HETATM    2  C   UNL     1      -9.117  17.107  67.893  1.00  0.00    -0.230 C  
HETATM    3  C   UNL     1      -9.140  18.461  67.156  1.00  0.00    -0.267 C  
HETATM    4  C   UNL     1     -10.226  18.253  66.080  1.00  0.00    -0.393 C  
HETATM    5  C   UNL     1     -10.704  16.811  66.345  1.00  0.00    -0.105 C  
HETATM    6  C   UNL     1     -10.606  16.756  67.872  1.00  0.00    -0.350 C  
HETATM    7  C   UNL     1      -9.583  15.864  65.884  1.00  0.00    -0.378 C  
HETATM    8  C   UNL     1      -9.950  14.410  65.989  1.00  0.00    -0.317 C  
HETATM    9  O   UNL     1     -10.855  13.879  65.364  1.00  0.00    -0.298 OA 
HETATM   10  N   UNL     1      -9.135  13.815  66.909  1.00  0.00    -0.247 N  
HETATM   11  O   UNL     1      -7.648  14.479  68.559  1.00  0.00    -0.109 OA 
HETATM   12  C   UNL     1      -8.345  14.709  67.581  1.00  0.00    -0.177 C  
ENDROOT
BRANCH  10  13
HETATM   13  C   UNL     1      -9.239  12.413  67.283  1.00  0.00    -0.187 C  
BRANCH  13  14
HETATM   14  C   UNL     1     -10.513  12.122  68.106  1.00  0.00    -0.225 C  
HETATM   15  C   UNL     1     -10.921  13.377  68.903  1.00  0.00    -0.284 C  
HETATM   16  C   UNL     1     -12.218  13.162  69.672  1.00  0.00    -0.241 C  
HETATM   17  C   UNL     1     -12.134  11.938  70.573  1.00  0.00    -0.422 C  
HETATM   18  C   UNL     1     -11.725  10.689  69.795  1.00  0.00    -0.385 C  
HETATM   19  C   UNL     1     -10.383  10.896  69.064  1.00  0.00    -0.230 C  
BRANCH  19  20
HETATM   20  C   UNL     1      -9.952   9.623  68.296  1.00  0.00    -0.155 C  
BRANCH  20  21
HETATM   21  N   UNL     1     -10.639   8.363  68.639  1.00  0.00    -0.163 NA 
HETATM   22  C   UNL     1     -10.879   7.568  67.401  1.00  0.00    -0.202 C  
HETATM   23  C   UNL     1      -9.587   7.093  66.705  1.00  0.00    -0.170 C  
HETATM   24  N   UNL     1      -8.723   6.325  67.617  1.00  0.00    -0.114 NA 
HETATM   25  C   UNL     1      -8.556   6.881  68.973  1.00  0.00    -0.128 C  
HETATM   26  C   UNL     1      -9.862   7.490  69.550  1.00  0.00    -0.169 C  
BRANCH  24  27
HETATM   27  C   UNL     1      -8.624   4.974  67.413  1.00  0.00    -0.104 A  
HETATM   28  N   UNL     1      -9.352   4.087  68.089  1.00  0.00    -0.153 NA 
HETATM   29  S   UNL     1      -9.087   2.579  67.489  1.00  0.00    -0.171 SA 
HETATM   30  C   UNL     1      -7.992   3.045  66.257  1.00  0.00    -0.081 A  
HETATM   31  C   UNL     1      -7.367   2.255  65.277  1.00  0.00    -0.062 A  
HETATM   32  C   UNL     1      -6.514   2.878  64.364  1.00  0.00    -0.031 A  
HETATM   33  C   UNL     1      -6.290   4.248  64.426  1.00  0.00    -0.034 A  
HETATM   34  C   UNL     1      -6.928   5.027  65.399  1.00  0.00    -0.062 A  
HETATM   35  C   UNL     1      -7.796   4.425  66.348  1.00  0.00    -0.098 A  
ENDBRANCH  24  27
ENDBRANCH  20  21
ENDBRANCH  19  20
ENDBRANCH  13  14
ENDBRANCH  10  13
TORSDOF 5
ENDMDL
MODEL      147
REMARK 921   NORMALIZED FREE ENERGY PREDICTED BY IDOCK:   -4.64 KCAL/MOL
REMARK 922        TOTAL FREE ENERGY PREDICTED BY IDOCK:   -7.71 KCAL/MOL
REMARK 923 INTER-LIGAND FREE ENERGY PREDICTED BY IDOCK:   -5.82 KCAL/MOL
REMARK 924 INTRA-LIGAND FREE ENERGY PREDICTED BY IDOCK:   -1.89 KCAL/MOL
REMARK 927      BINDING AFFINITY PREDICTED BY RF-SCORE:    0.00 PKD
ROOT
HETATM    1  C   UNL     1      -7.630   9.007  64.990  1.00  0.00    -0.103 C  
HETATM    2  C   UNL     1      -6.566   8.825  63.893  1.00  0.00    -0.087 C  
HETATM    3  C   UNL     1      -6.787   7.445  63.243  1.00  0.00    -0.054 C  
HETATM    4  C   UNL     1      -8.097   7.638  62.453  1.00  0.00    -0.130 C  
HETATM    5  C   UNL     1      -8.457   9.111  62.735  1.00  0.00    -0.211 C  
HETATM    6  C   UNL     1      -7.062   9.741  62.773  1.00  0.00    -0.115 C  
HETATM    7  C   UNL     1      -8.925   9.199  64.197  1.00  0.00    -0.054 C  
HETATM    8  C   UNL     1      -9.407  10.567  64.588  1.00  0.00    -0.248 C  
HETATM    9  O   UNL     1     -10.373  11.127  64.093  1.00  0.00    -0.310 OA 
HETATM   10  N   UNL     1      -8.574  11.072  65.544  1.00  0.00    -0.147 N  
HETATM   11  O   UNL     1      -6.490  10.576  66.431  1.00  0.00    -0.088 OA 
HETATM   12  C   UNL     1      -7.471  10.290  65.759  1.00  0.00    -0.144 C  
ENDROOT
BRANCH  10  13
HETATM   13  C   UNL     1      -8.731  12.397  66.126  1.00  0.00     0.202 C  
BRANCH  13  14
HETATM   14  C   UNL     1     -10.061  12.539  66.899  1.00  0.00    -0.232 C  
HETATM   15  C   UNL     1     -10.785  13.828  66.462  1.00  0.00    -0.284 C  
HETATM   16  C   UNL     1     -12.140  13.973  67.143  1.00  0.00    -0.436 C  
HETATM   17  C   UNL     1     -12.014  13.895  68.658  1.00  0.00    -0.401 C  
HETATM   18  C   UNL     1     -11.292  12.624  69.100  1.00  0.00    -0.339 C  
HETATM   19  C   UNL     1      -9.898  12.513  68.451  1.00  0.00    -0.202 C  
BRANCH  19  20
HETATM   20  C   UNL     1      -9.154  11.240  68.918  1.00  0.00    -0.053 C  
BRANCH  20  21
HETATM   21  N   UNL     1      -9.933  10.242  69.677  1.00  0.00    -0.227 NA 
HETATM   22  C   UNL     1     -10.627   9.321  68.733  1.00  0.00    -0.193 C  
HETATM   23  C   UNL     1      -9.669   8.457  67.886  1.00  0.00    -0.158 C  
HETATM   24  N   UNL     1      -8.741   7.683  68.728  1.00  0.00    -0.129 NA 
HETATM   25  C   UNL     1      -8.126   8.412  69.854  1.00  0.00    -0.119 C  
HETATM   26  C   UNL     1      -9.105   9.387  70.560  1.00  0.00    -0.256 C  
BRANCH  24  27
HETATM   27  C   UNL     1      -8.936   6.330  68.811  1.00  0.00    -0.125 A  
HETATM   28  N   UNL     1      -9.352   5.728  69.923  1.00  0.00    -0.146 NA 
HETATM   29  S   UNL     1      -9.618   4.133  69.625  1.00  0.00    -0.195 SA 
HETATM   30  C   UNL     1      -9.211   4.172  67.961  1.00  0.00    -0.147 A  
HETATM   31  C   UNL     1      -9.255   3.137  67.011  1.00  0.00    -0.198 A  
HETATM   32  C   UNL     1      -8.881   3.425  65.697  1.00  0.00    -0.135 A  
HETATM   33  C   UNL     1      -8.475   4.705  65.341  1.00  0.00    -0.126 A  
HETATM   34  C   UNL     1      -8.447   5.730  66.294  1.00  0.00    -0.126 A  
HETATM   35  C   UNL     1      -8.813   5.472  67.641  1.00  0.00    -0.105 A  
ENDBRANCH  24  27
ENDBRANCH  20  21
ENDBRANCH  19  20
ENDBRANCH  13  14
ENDBRANCH  10  13
TORSDOF 5
ENDMDL
MODEL      148
REMARK 921   NORMALIZED FREE ENERGY PREDICTED BY IDOCK:   -4.57 KCAL/MOL
REMARK 922        TOTAL FREE ENERGY PREDICTED BY IDOCK:   -7.63 KCAL/MOL
REMARK 923 INTER-LIGAND FREE ENERGY PREDICTED BY IDOCK:   -7.21 KCAL/MOL
REMARK 924 INTRA-LIGAND FREE ENERGY PREDICTED BY IDOCK:   -0.41 KCAL/MOL
REMARK 927      BINDING AFFINITY PREDICTED BY RF-SCORE:    0.00 PKD
ROOT
HETATM    1  C   UNL     1     -10.945   9.359  69.703  1.00  0.00    -0.216 C  
HETATM    2  C   UNL     1      -9.495   9.362  70.217  1.00  0.00    -0.294 C  
HETATM    3  C   UNL     1      -8.731   8.242  69.483  1.00  0.00    -0.138 C  
HETATM    4  C   UNL     1      -8.610   8.787  68.045  1.00  0.00    -0.134 C  
HETATM    5  C   UNL     1      -9.306  10.161  68.136  1.00  0.00    -0.140 C  
HETATM    6  C   UNL     1      -8.890  10.596  69.545  1.00  0.00     0.029 C  
HETATM    7  C   UNL     1     -10.815   9.903  68.277  1.00  0.00    -0.275 C  
HETATM    8  C   UNL     1     -11.638  11.160  68.277  1.00  0.00    -0.289 C  
HETATM    9  O   UNL     1     -11.710  11.938  67.338  1.00  0.00    -0.503 OA 
HETATM   10  N   UNL     1     -12.244  11.291  69.493  1.00  0.00    -0.291 N  
HETATM   11  O   UNL     1     -12.070  10.342  71.601  1.00  0.00    -0.326 OA 
HETATM   12  C   UNL     1     -11.821  10.361  70.404  1.00  0.00    -0.328 C  
ENDROOT
BRANCH  10  13
HETATM   13  C   UNL     1     -13.093  12.418  69.848  1.00  0.00     1.211 C  
BRANCH  13  14
HETATM   14  C   UNL     1     -12.385  13.400  70.808  1.00  0.00    -0.433 C  
HETATM   15  C   UNL     1     -13.163  13.488  72.137  1.00  0.00    -0.551 C  
HETATM   16  C   UNL     1     -12.461  14.387  73.145  1.00  0.00    -0.290 C  
HETATM   17  C   UNL     1     -12.195  15.771  72.567  1.00  0.00    -0.570 C  
HETATM   18  C   UNL     1     -11.429  15.695  71.248  1.00  0.00    -0.469 C  
HETATM   19  C   UNL     1     -12.175  14.828  70.213  1.00  0.00    -0.394 C  
BRANCH  19  20
HETATM   20  C   UNL     1     -11.415  14.771  68.867  1.00  0.00    -0.297 C  
BRANCH  20  21
HETATM   21  N   UNL     1      -9.998  14.364  68.908  1.00  0.00    -0.213 NA 
HETATM   22  C   UNL     1      -9.449  14.307  67.524  1.00  0.00    -0.209 C  
HETATM   23  C   UNL     1      -9.406  15.676  66.813  1.00  0.00    -0.246 C  
HETATM   24  N   UNL     1      -8.657  16.675  67.593  1.00  0.00    -0.198 NA 
HETATM   25  C   UNL     1      -8.937  16.710  69.041  1.00  0.00    -0.204 C  
HETATM   26  C   UNL     1      -9.130  15.301  69.661  1.00  0.00    -0.125 C  
BRANCH  24  27
HETATM   27  C   UNL     1      -7.429  17.059  67.122  1.00  0.00    -0.173 A  
HETATM   28  N   UNL     1      -6.397  16.222  67.033  1.00  0.00    -0.286 NA 
HETATM   29  S   UNL     1      -5.135  16.974  66.293  1.00  0.00     0.229 SA 
HETATM   30  C   UNL     1      -5.926  18.471  66.025  1.00  0.00    -0.177 A  
HETATM   31  C   UNL     1      -5.454  19.620  65.370  1.00  0.00    -0.189 A  
HETATM   32  C   UNL     1      -6.303  20.724  65.268  1.00  0.00    -0.267 A  
HETATM   33  C   UNL     1      -7.584  20.683  65.804  1.00  0.00     0.136 A  
HETATM   34  C   UNL     1      -8.047  19.528  66.445  1.00  0.00    -0.331 A  
HETATM   35  C   UNL     1      -7.208  18.390  66.573  1.00  0.00    -0.259 A  
ENDBRANCH  24  27
ENDBRANCH  20  21
ENDBRANCH  19  20
ENDBRANCH  13  14
ENDBRANCH  10  13
TORSDOF 5
ENDMDL
MODEL      149
REMARK 921   NORMALIZED FREE ENERGY PREDICTED BY IDOCK:   -4.52 KCAL/MOL
REMARK 922        TOTAL FREE ENERGY PREDICTED BY IDOCK:   -7.57 KCAL/MOL
REMARK 923 INTER-LIGAND FREE ENERGY PREDICTED BY IDOCK:   -6.54 KCAL/MOL
REMARK 924 INTRA-LIGAND FREE ENERGY PREDICTED BY IDOCK:   -1.03 KCAL/MOL
REMARK 927      BINDING AFFINITY PREDICTED BY RF-SCORE:    0.00 PKD
ROOT
HETATM    1  C   UNL     1      -7.024   9.626  67.279  1.00  0.00    -0.085 C  
HETATM    2  C   UNL     1      -5.533   9.381  66.989  1.00  0.00    -0.040 C  
HETATM    3  C   UNL     1      -5.337   7.869  66.763  1.00  0.00    -0.028 C  
HETATM    4  C   UNL     1      -6.018   7.628  65.401  1.00  0.00    -0.038 C  
HETATM    5  C   UNL     1      -6.507   9.037  65.005  1.00  0.00    -0.065 C  
HETATM    6  C   UNL     1      -5.367   9.897  65.559  1.00  0.00    -0.052 C  
HETATM    7  C   UNL     1      -7.691   9.387  65.921  1.00  0.00    -0.099 C  
HETATM    8  C   UNL     1      -8.340  10.699  65.584  1.00  0.00    -0.162 C  
HETATM    9  O   UNL     1      -8.898  10.941  64.525  1.00  0.00    -0.162 OA 
HETATM   10  N   UNL     1      -8.165  11.560  66.629  1.00  0.00    -0.168 N  
HETATM   11  O   UNL     1      -6.878  11.672  68.554  1.00  0.00    -0.063 OA 
HETATM   12  C   UNL     1      -7.335  11.062  67.597  1.00  0.00    -0.094 C  
ENDROOT
BRANCH  10  13
HETATM   13  C   UNL     1      -8.641  12.935  66.624  1.00  0.00     0.019 C  
BRANCH  13  14
HETATM   14  C   UNL     1     -10.105  13.042  66.142  1.00  0.00    -0.287 C  
HETATM   15  C   UNL     1     -10.197  14.023  64.956  1.00  0.00    -0.395 C  
HETATM   16  C   UNL     1     -11.611  14.103  64.397  1.00  0.00    -0.377 C  
HETATM   17  C   UNL     1     -12.621  14.451  65.483  1.00  0.00    -0.345 C  
HETATM   18  C   UNL     1     -12.534  13.488  66.665  1.00  0.00    -0.263 C  
HETATM   19  C   UNL     1     -11.112  13.455  67.261  1.00  0.00    -0.300 C  
BRANCH  19  20
HETATM   20  C   UNL     1     -11.028  12.500  68.476  1.00  0.00    -0.249 C  
BRANCH  20  21
HETATM   21  N   UNL     1     -11.938  11.338  68.486  1.00  0.00    -0.575 NA 
HETATM   22  C   UNL     1     -11.216  10.129  68.001  1.00  0.00    -0.179 C  
HETATM   23  C   UNL     1     -10.058   9.684  68.919  1.00  0.00    -0.187 C  
HETATM   24  N   UNL     1     -10.511   9.459  70.302  1.00  0.00    -0.231 NA 
HETATM   25  C   UNL     1     -11.421  10.478  70.860  1.00  0.00    -0.215 C  
HETATM   26  C   UNL     1     -12.459  11.001  69.832  1.00  0.00    -0.219 C  
BRANCH  24  27
HETATM   27  C   UNL     1     -10.575   8.165  70.748  1.00  0.00    -0.214 A  
HETATM   28  N   UNL     1     -11.494   7.746  71.616  1.00  0.00    -0.254 NA 
HETATM   29  S   UNL     1     -11.367   6.118  71.815  1.00  0.00    -0.276 SA 
HETATM   30  C   UNL     1     -10.077   5.883  70.712  1.00  0.00    -0.199 A  
HETATM   31  C   UNL     1      -9.452   4.688  70.317  1.00  0.00    -0.240 A  
HETATM   32  C   UNL     1      -8.417   4.757  69.383  1.00  0.00    -0.091 A  
HETATM   33  C   UNL     1      -8.017   5.979  68.858  1.00  0.00    -0.100 A  
HETATM   34  C   UNL     1      -8.655   7.162  69.251  1.00  0.00    -0.137 A  
HETATM   35  C   UNL     1      -9.706   7.131  70.204  1.00  0.00    -0.171 A  
ENDBRANCH  24  27
ENDBRANCH  20  21
ENDBRANCH  19  20
ENDBRANCH  13  14
ENDBRANCH  10  13
TORSDOF 5
ENDMDL
MODEL      150
REMARK 921   NORMALIZED FREE ENERGY PREDICTED BY IDOCK:   -4.52 KCAL/MOL
REMARK 922        TOTAL FREE ENERGY PREDICTED BY IDOCK:   -7.57 KCAL/MOL
REMARK 923 INTER-LIGAND FREE ENERGY PREDICTED BY IDOCK:   -6.42 KCAL/MOL
REMARK 924 INTRA-LIGAND FREE ENERGY PREDICTED BY IDOCK:   -1.15 KCAL/MOL
REMARK 927      BINDING AFFINITY PREDICTED BY RF-SCORE:    0.00 PKD
ROOT
HETATM    1  C   UNL     1     -10.972  10.042  66.584  1.00  0.00     0.046 C  
HETATM    2  C   UNL     1     -10.098  10.380  65.364  1.00  0.00    -0.354 C  
HETATM    3  C   UNL     1     -11.012  10.981  64.278  1.00  0.00    -0.148 C  
HETATM    4  C   UNL     1     -11.381  12.362  64.858  1.00  0.00    -0.361 C  
HETATM    5  C   UNL     1     -10.618  12.389  66.198  1.00  0.00    -0.283 C  
HETATM    6  C   UNL     1      -9.343  11.633  65.814  1.00  0.00    -0.220 C  
HETATM    7  C   UNL     1     -11.331  11.417  67.153  1.00  0.00    -0.327 C  
HETATM    8  C   UNL     1     -10.755  11.413  68.541  1.00  0.00    -0.201 C  
HETATM    9  O   UNL     1     -10.752  12.377  69.290  1.00  0.00    -0.103 OA 
HETATM   10  N   UNL     1     -10.218  10.183  68.792  1.00  0.00    -0.177 N  
HETATM   11  O   UNL     1      -9.644   8.289  67.584  1.00  0.00    -0.145 OA 
HETATM   12  C   UNL     1     -10.206   9.370  67.691  1.00  0.00    -0.227 C  
ENDROOT
BRANCH  10  13
HETATM   13  C   UNL     1      -9.545   9.841  70.036  1.00  0.00    -0.241 C  
BRANCH  13  14
HETATM   14  C   UNL     1      -8.100   9.349  69.801  1.00  0.00    -0.134 C  
HETATM   15  C   UNL     1      -7.826   8.096  70.657  1.00  0.00    -0.091 C  
HETATM   16  C   UNL     1      -6.436   7.530  70.400  1.00  0.00    -0.038 C  
HETATM   17  C   UNL     1      -5.358   8.585  70.602  1.00  0.00    -0.028 C  
HETATM   18  C   UNL     1      -5.623   9.832  69.763  1.00  0.00    -0.037 C  
HETATM   19  C   UNL     1      -7.010  10.434  70.070  1.00  0.00    -0.159 C  
BRANCH  19  20
HETATM   20  C   UNL     1      -7.270  11.713  69.239  1.00  0.00    -0.020 C  
BRANCH  20  21
HETATM   21  N   UNL     1      -6.126  12.616  69.013  1.00  0.00    -0.079 NA 
HETATM   22  C   UNL     1      -6.203  13.193  67.641  1.00  0.00    -0.153 C  
HETATM   23  C   UNL     1      -7.427  14.105  67.417  1.00  0.00    -0.134 C  
HETATM   24  N   UNL     1      -7.489  15.193  68.407  1.00  0.00    -0.111 NA 
HETATM   25  C   UNL     1      -7.218  14.812  69.806  1.00  0.00    -0.098 C  
HETATM   26  C   UNL     1      -6.081  13.766  69.947  1.00  0.00    -0.140 C  
BRANCH  24  27
HETATM   27  C   UNL     1      -7.209  16.463  67.976  1.00  0.00    -0.136 A  
HETATM   28  N   UNL     1      -6.063  16.786  67.380  1.00  0.00    -0.145 NA 
HETATM   29  S   UNL     1      -6.126  18.347  66.865  1.00  0.00    -0.162 SA 
HETATM   30  C   UNL     1      -7.724  18.666  67.395  1.00  0.00    -0.228 A  
HETATM   31  C   UNL     1      -8.494  19.832  67.244  1.00  0.00    -0.363 A  
HETATM   32  C   UNL     1      -9.791  19.843  67.758  1.00  0.00    -0.530 A  
HETATM   33  C   UNL     1     -10.306  18.726  68.405  1.00  0.00    -0.360 A  
HETATM   34  C   UNL     1      -9.533  17.567  68.539  1.00  0.00    -0.296 A  
HETATM   35  C   UNL     1      -8.207  17.522  68.035  1.00  0.00    -0.239 A  
ENDBRANCH  24  27
ENDBRANCH  20  21
ENDBRANCH  19  20
ENDBRANCH  13  14
ENDBRANCH  10  13
TORSDOF 5
ENDMDL
MODEL      151
REMARK 921   NORMALIZED FREE ENERGY PREDICTED BY IDOCK:   -4.50 KCAL/MOL
REMARK 922        TOTAL FREE ENERGY PREDICTED BY IDOCK:   -7.53 KCAL/MOL
REMARK 923 INTER-LIGAND FREE ENERGY PREDICTED BY IDOCK:   -7.79 KCAL/MOL
REMARK 924 INTRA-LIGAND FREE ENERGY PREDICTED BY IDOCK:    0.25 KCAL/MOL
REMARK 927      BINDING AFFINITY PREDICTED BY RF-SCORE:    0.00 PKD
ROOT
HETATM    1  C   UNL     1      -7.671  10.304  63.231  1.00  0.00    -0.133 C  
HETATM    2  C   UNL     1      -7.354   8.893  62.704  1.00  0.00    -0.099 C  
HETATM    3  C   UNL     1      -5.856   8.847  62.345  1.00  0.00    -0.091 C  
HETATM    4  C   UNL     1      -5.167   8.885  63.724  1.00  0.00    -0.061 C  
HETATM    5  C   UNL     1      -6.356   8.932  64.705  1.00  0.00    -0.066 C  
HETATM    6  C   UNL     1      -7.362   8.039  63.973  1.00  0.00    -0.097 C  
HETATM    7  C   UNL     1      -6.984  10.332  64.599  1.00  0.00    -0.079 C  
HETATM    8  C   UNL     1      -8.102  10.561  65.577  1.00  0.00    -0.155 C  
HETATM    9  O   UNL     1      -7.969  10.552  66.791  1.00  0.00    -0.114 OA 
HETATM   10  N   UNL     1      -9.265  10.738  64.884  1.00  0.00    -0.205 N  
HETATM   11  O   UNL     1     -10.027  10.431  62.717  1.00  0.00    -0.205 OA 
HETATM   12  C   UNL     1      -9.128  10.505  63.542  1.00  0.00    -0.247 C  
ENDROOT
BRANCH  10  13
HETATM   13  C   UNL     1     -10.554  10.952  65.524  1.00  0.00    -0.170 C  
BRANCH  13  14
HETATM   14  C   UNL     1     -10.823  12.446  65.808  1.00  0.00    -0.312 C  
HETATM   15  C   UNL     1     -10.556  13.278  64.537  1.00  0.00    -0.437 C  
HETATM   16  C   UNL     1     -10.882  14.750  64.747  1.00  0.00    -0.395 C  
HETATM   17  C   UNL     1     -10.138  15.320  65.947  1.00  0.00    -0.359 C  
HETATM   18  C   UNL     1     -10.391  14.500  67.210  1.00  0.00    -0.260 C  
HETATM   19  C   UNL     1     -10.005  13.021  67.008  1.00  0.00    -0.242 C  
BRANCH  19  20
HETATM   20  C   UNL     1     -10.236  12.193  68.294  1.00  0.00    -0.208 C  
BRANCH  20  21
HETATM   21  N   UNL     1     -11.283  11.155  68.251  1.00  0.00    -0.254 NA 
HETATM   22  C   UNL     1     -10.659   9.805  68.341  1.00  0.00    -0.226 C  
HETATM   23  C   UNL     1      -9.945   9.536  69.682  1.00  0.00    -0.205 C  
HETATM   24  N   UNL     1     -10.845   9.734  70.831  1.00  0.00    -0.328 NA 
HETATM   25  C   UNL     1     -11.699  10.936  70.786  1.00  0.00    -0.252 C  
HETATM   26  C   UNL     1     -12.253  11.241  69.369  1.00  0.00    -0.247 C  
BRANCH  24  27
HETATM   27  C   UNL     1     -11.263   8.620  71.511  1.00  0.00    -0.290 A  
HETATM   28  N   UNL     1     -12.391   7.977  71.215  1.00  0.00    -0.297 NA 
HETATM   29  S   UNL     1     -12.506   6.611  72.126  1.00  0.00    -0.070 SA 
HETATM   30  C   UNL     1     -11.017   6.799  72.953  1.00  0.00    -0.263 A  
HETATM   31  C   UNL     1     -10.407   5.948  73.890  1.00  0.00    -0.287 A  
HETATM   32  C   UNL     1      -9.170   6.320  74.420  1.00  0.00    -0.185 A  
HETATM   33  C   UNL     1      -8.560   7.505  74.028  1.00  0.00    -0.272 A  
HETATM   34  C   UNL     1      -9.171   8.338  73.085  1.00  0.00    -0.293 A  
HETATM   35  C   UNL     1     -10.432   7.996  72.530  1.00  0.00    -0.383 A  
ENDBRANCH  24  27
ENDBRANCH  20  21
ENDBRANCH  19  20
ENDBRANCH  13  14
ENDBRANCH  10  13
TORSDOF 5
ENDMDL
MODEL      152
REMARK 921   NORMALIZED FREE ENERGY PREDICTED BY IDOCK:   -4.49 KCAL/MOL
REMARK 922        TOTAL FREE ENERGY PREDICTED BY IDOCK:   -7.53 KCAL/MOL
REMARK 923 INTER-LIGAND FREE ENERGY PREDICTED BY IDOCK:   -7.36 KCAL/MOL
REMARK 924 INTRA-LIGAND FREE ENERGY PREDICTED BY IDOCK:   -0.17 KCAL/MOL
REMARK 927      BINDING AFFINITY PREDICTED BY RF-SCORE:    0.00 PKD
ROOT
HETATM    1  C   UNL     1     -10.562  13.810  65.833  1.00  0.00    -0.289 C  
HETATM    2  C   UNL     1     -11.891  14.485  65.448  1.00  0.00    -0.344 C  
HETATM    3  C   UNL     1     -11.924  14.623  63.913  1.00  0.00    -0.039 C  
HETATM    4  C   UNL     1     -12.101  13.168  63.435  1.00  0.00    -0.558 C  
HETATM    5  C   UNL     1     -12.164  12.375  64.757  1.00  0.00    -0.493 C  
HETATM    6  C   UNL     1     -12.918  13.368  65.646  1.00  0.00    -0.145 C  
HETATM    7  C   UNL     1     -10.749  12.367  65.357  1.00  0.00    -0.317 C  
HETATM    8  C   UNL     1     -10.634  11.540  66.606  1.00  0.00    -0.253 C  
HETATM    9  O   UNL     1     -10.820  10.334  66.655  1.00  0.00    -0.159 OA 
HETATM   10  N   UNL     1     -10.330  12.361  67.653  1.00  0.00    -0.214 N  
HETATM   11  O   UNL     1     -10.304  14.638  68.087  1.00  0.00    -0.225 OA 
HETATM   12  C   UNL     1     -10.372  13.689  67.320  1.00  0.00    -0.249 C  
ENDROOT
BRANCH  10  13
HETATM   13  C   UNL     1     -10.178  11.893  69.022  1.00  0.00     0.009 C  
BRANCH  13  14
HETATM   14  C   UNL     1     -11.540  11.672  69.717  1.00  0.00    -0.389 C  
HETATM   15  C   UNL     1     -11.911  12.915  70.549  1.00  0.00    -0.282 C  
HETATM   16  C   UNL     1     -13.284  12.775  71.193  1.00  0.00    -0.034 C  
HETATM   17  C   UNL     1     -13.383  11.503  72.024  1.00  0.00    -0.397 C  
HETATM   18  C   UNL     1     -13.011  10.266  71.209  1.00  0.00    -0.517 C  
HETATM   19  C   UNL     1     -11.597  10.391  70.607  1.00  0.00    -0.440 C  
BRANCH  19  20
HETATM   20  C   UNL     1     -11.207   9.128  69.804  1.00  0.00    -0.056 C  
BRANCH  20  21
HETATM   21  N   UNL     1     -11.275   7.832  70.506  1.00  0.00    -0.266 NA 
HETATM   22  C   UNL     1     -10.886   6.734  69.578  1.00  0.00    -0.273 C  
HETATM   23  C   UNL     1      -9.418   6.808  69.106  1.00  0.00    -0.141 C  
HETATM   24  N   UNL     1      -8.479   6.843  70.239  1.00  0.00    -0.137 NA 
HETATM   25  C   UNL     1      -8.843   7.738  71.354  1.00  0.00    -0.132 C  
HETATM   26  C   UNL     1     -10.362   7.738  71.670  1.00  0.00    -0.197 C  
BRANCH  24  27
HETATM   27  C   UNL     1      -7.725   5.724  70.476  1.00  0.00    -0.099 A  
HETATM   28  N   UNL     1      -6.646   5.733  71.256  1.00  0.00    -0.044 NA 
HETATM   29  S   UNL     1      -6.077   4.200  71.434  1.00  0.00    -0.014 SA 
HETATM   30  C   UNL     1      -7.280   3.431  70.487  1.00  0.00    -0.037 A  
HETATM   31  C   UNL     1      -7.465   2.063  70.225  1.00  0.00    -0.036 A  
HETATM   32  C   UNL     1      -8.540   1.679  69.422  1.00  0.00    -0.092 A  
HETATM   33  C   UNL     1      -9.405   2.629  68.896  1.00  0.00    -0.223 A  
HETATM   34  C   UNL     1      -9.218   3.989  69.173  1.00  0.00    -0.217 A  
HETATM   35  C   UNL     1      -8.131   4.416  69.980  1.00  0.00    -0.060 A  
ENDBRANCH  24  27
ENDBRANCH  20  21
ENDBRANCH  19  20
ENDBRANCH  13  14
ENDBRANCH  10  13
TORSDOF 5
ENDMDL
MODEL      153
REMARK 921   NORMALIZED FREE ENERGY PREDICTED BY IDOCK:   -4.46 KCAL/MOL
REMARK 922        TOTAL FREE ENERGY PREDICTED BY IDOCK:   -7.49 KCAL/MOL
REMARK 923 INTER-LIGAND FREE ENERGY PREDICTED BY IDOCK:   -6.53 KCAL/MOL
REMARK 924 INTRA-LIGAND FREE ENERGY PREDICTED BY IDOCK:   -0.96 KCAL/MOL
REMARK 927      BINDING AFFINITY PREDICTED BY RF-SCORE:    0.00 PKD
ROOT
HETATM    1  C   UNL     1      -8.842  14.914  66.760  1.00  0.00    -0.291 C  
HETATM    2  C   UNL     1      -9.183  15.730  68.019  1.00  0.00    -0.188 C  
HETATM    3  C   UNL     1      -8.929  17.217  67.703  1.00  0.00    -0.224 C  
HETATM    4  C   UNL     1     -10.068  17.564  66.722  1.00  0.00    -0.320 C  
HETATM    5  C   UNL     1     -10.844  16.237  66.610  1.00  0.00    -0.115 C  
HETATM    6  C   UNL     1     -10.713  15.710  68.042  1.00  0.00    -0.287 C  
HETATM    7  C   UNL     1      -9.977  15.264  65.794  1.00  0.00    -0.391 C  
HETATM    8  C   UNL     1     -10.653  13.951  65.516  1.00  0.00    -0.311 C  
HETATM    9  O   UNL     1     -11.672  13.826  64.855  1.00  0.00    -0.335 OA 
HETATM   10  N   UNL     1      -9.962  12.956  66.146  1.00  0.00    -0.269 N  
HETATM   11  O   UNL     1      -8.313  12.783  67.766  1.00  0.00    -0.151 OA 
HETATM   12  C   UNL     1      -8.972  13.430  66.966  1.00  0.00    -0.224 C  
ENDROOT
BRANCH  10  13
HETATM   13  C   UNL     1     -10.361  11.558  66.114  1.00  0.00    -0.245 C  
BRANCH  13  14
HETATM   14  C   UNL     1      -9.300  10.665  65.434  1.00  0.00    -0.250 C  
HETATM   15  C   UNL     1      -9.042  11.159  63.996  1.00  0.00    -0.053 C  
HETATM   16  C   UNL     1      -7.945  10.354  63.311  1.00  0.00    -0.117 C  
HETATM   17  C   UNL     1      -8.249   8.862  63.337  1.00  0.00    -0.181 C  
HETATM   18  C   UNL     1      -8.512   8.364  64.756  1.00  0.00    -0.120 C  
HETATM   19  C   UNL     1      -9.662   9.146  65.424  1.00  0.00    -0.080 C  
BRANCH  19  20
HETATM   20  C   UNL     1      -9.948   8.625  66.852  1.00  0.00    -0.260 C  
BRANCH  20  21
HETATM   21  N   UNL     1      -8.989   8.994  67.911  1.00  0.00    -0.132 NA 
HETATM   22  C   UNL     1      -9.724   9.491  69.107  1.00  0.00    -0.178 C  
HETATM   23  C   UNL     1     -10.609   8.424  69.784  1.00  0.00    -0.221 C  
HETATM   24  N   UNL     1      -9.837   7.225  70.151  1.00  0.00    -0.179 NA 
HETATM   25  C   UNL     1      -8.891   6.727  69.134  1.00  0.00    -0.134 C  
HETATM   26  C   UNL     1      -8.152   7.862  68.377  1.00  0.00    -0.123 C  
BRANCH  24  27
HETATM   27  C   UNL     1      -9.591   7.009  71.481  1.00  0.00    -0.158 A  
HETATM   28  N   UNL     1     -10.374   6.251  72.246  1.00  0.00    -0.188 NA 
HETATM   29  S   UNL     1      -9.704   6.092  73.740  1.00  0.00    -0.187 SA 
HETATM   30  C   UNL     1      -8.298   7.019  73.426  1.00  0.00    -0.119 A  
HETATM   31  C   UNL     1      -7.203   7.284  74.266  1.00  0.00    -0.113 A  
HETATM   32  C   UNL     1      -6.159   8.067  73.770  1.00  0.00    -0.089 A  
HETATM   33  C   UNL     1      -6.205   8.571  72.477  1.00  0.00    -0.078 A  
HETATM   34  C   UNL     1      -7.296   8.291  71.646  1.00  0.00    -0.098 A  
HETATM   35  C   UNL     1      -8.379   7.504  72.119  1.00  0.00    -0.127 A  
ENDBRANCH  24  27
ENDBRANCH  20  21
ENDBRANCH  19  20
ENDBRANCH  13  14
ENDBRANCH  10  13
TORSDOF 5
ENDMDL
MODEL      154
REMARK 921   NORMALIZED FREE ENERGY PREDICTED BY IDOCK:   -4.46 KCAL/MOL
REMARK 922        TOTAL FREE ENERGY PREDICTED BY IDOCK:   -7.49 KCAL/MOL
REMARK 923 INTER-LIGAND FREE ENERGY PREDICTED BY IDOCK:   -5.98 KCAL/MOL
REMARK 924 INTRA-LIGAND FREE ENERGY PREDICTED BY IDOCK:   -1.51 KCAL/MOL
REMARK 927      BINDING AFFINITY PREDICTED BY RF-SCORE:    0.00 PKD
ROOT
HETATM    1  C   UNL     1      -6.292  10.390  67.524  1.00  0.00    -0.058 C  
HETATM    2  C   UNL     1      -6.737  11.105  68.812  1.00  0.00    -0.067 C  
HETATM    3  C   UNL     1      -5.912  12.401  68.943  1.00  0.00    -0.070 C  
HETATM    4  C   UNL     1      -6.478  13.289  67.816  1.00  0.00    -0.161 C  
HETATM    5  C   UNL     1      -7.569  12.399  67.189  1.00  0.00    -0.104 C  
HETATM    6  C   UNL     1      -8.102  11.684  68.434  1.00  0.00    -0.153 C  
HETATM    7  C   UNL     1      -6.859  11.278  66.413  1.00  0.00    -0.055 C  
HETATM    8  C   UNL     1      -7.801  10.382  65.660  1.00  0.00    -0.154 C  
HETATM    9  O   UNL     1      -8.525  10.753  64.749  1.00  0.00    -0.143 OA 
HETATM   10  N   UNL     1      -7.731   9.124  66.186  1.00  0.00    -0.095 N  
HETATM   11  O   UNL     1      -6.867   8.112  68.084  1.00  0.00    -0.071 OA 
HETATM   12  C   UNL     1      -6.970   9.063  67.322  1.00  0.00    -0.078 C  
ENDROOT
BRANCH  10  13
HETATM   13  C   UNL     1      -8.540   8.011  65.713  1.00  0.00    -0.153 C  
BRANCH  13  14
HETATM   14  C   UNL     1      -7.695   6.951  64.972  1.00  0.00    -0.112 C  
HETATM   15  C   UNL     1      -7.739   7.213  63.453  1.00  0.00    -0.119 C  
HETATM   16  C   UNL     1      -6.857   6.237  62.686  1.00  0.00    -0.041 C  
HETATM   17  C   UNL     1      -7.212   4.792  63.009  1.00  0.00    -0.047 C  
HETATM   18  C   UNL     1      -7.177   4.524  64.512  1.00  0.00    -0.066 C  
HETATM   19  C   UNL     1      -8.116   5.479  65.277  1.00  0.00    -0.122 C  
BRANCH  19  20
HETATM   20  C   UNL     1      -8.102   5.192  66.797  1.00  0.00    -0.108 C  
BRANCH  20  21
HETATM   21  N   UNL     1      -9.345   4.670  67.397  1.00  0.00    -0.135 NA 
HETATM   22  C   UNL     1      -9.229   4.678  68.882  1.00  0.00    -0.129 C  
HETATM   23  C   UNL     1      -9.104   6.091  69.491  1.00  0.00    -0.137 C  
HETATM   24  N   UNL     1     -10.219   6.963  69.085  1.00  0.00    -0.180 NA 
HETATM   25  C   UNL     1     -10.601   6.906  67.661  1.00  0.00    -0.261 C  
HETATM   26  C   UNL     1     -10.547   5.473  67.069  1.00  0.00    -0.260 C  
BRANCH  24  27
HETATM   27  C   UNL     1     -11.155   7.283  70.033  1.00  0.00    -0.240 A  
HETATM   28  N   UNL     1     -11.694   6.378  70.848  1.00  0.00    -0.343 NA 
HETATM   29  S   UNL     1     -12.659   7.129  71.949  1.00  0.00    -0.253 SA 
HETATM   30  C   UNL     1     -12.377   8.728  71.402  1.00  0.00    -0.306 A  
HETATM   31  C   UNL     1     -12.855   9.942  71.923  1.00  0.00    -0.524 A  
HETATM   32  C   UNL     1     -12.469  11.130  71.299  1.00  0.00    -0.466 A  
HETATM   33  C   UNL     1     -11.633  11.109  70.191  1.00  0.00    -0.410 A  
HETATM   34  C   UNL     1     -11.154   9.893  69.688  1.00  0.00    -0.279 A  
HETATM   35  C   UNL     1     -11.531   8.665  70.292  1.00  0.00    -0.084 A  
ENDBRANCH  24  27
ENDBRANCH  20  21
ENDBRANCH  19  20
ENDBRANCH  13  14
ENDBRANCH  10  13
TORSDOF 5
ENDMDL
MODEL      155
REMARK 921   NORMALIZED FREE ENERGY PREDICTED BY IDOCK:   -4.45 KCAL/MOL
REMARK 922        TOTAL FREE ENERGY PREDICTED BY IDOCK:   -7.48 KCAL/MOL
REMARK 923 INTER-LIGAND FREE ENERGY PREDICTED BY IDOCK:   -6.97 KCAL/MOL
REMARK 924 INTRA-LIGAND FREE ENERGY PREDICTED BY IDOCK:   -0.51 KCAL/MOL
REMARK 927      BINDING AFFINITY PREDICTED BY RF-SCORE:    0.00 PKD
ROOT
HETATM    1  C   UNL     1      -9.838   9.736  66.195  1.00  0.00    -0.329 C  
HETATM    2  C   UNL     1      -9.067   8.738  65.313  1.00  0.00    -0.156 C  
HETATM    3  C   UNL     1      -8.953   9.344  63.901  1.00  0.00    -0.166 C  
HETATM    4  C   UNL     1      -7.955  10.503  64.099  1.00  0.00    -0.001 C  
HETATM    5  C   UNL     1      -7.608  10.408  65.598  1.00  0.00    -0.150 C  
HETATM    6  C   UNL     1      -7.624   8.890  65.797  1.00  0.00    -0.090 C  
HETATM    7  C   UNL     1      -8.840  10.881  66.387  1.00  0.00    -0.178 C  
HETATM    8  C   UNL     1      -8.613  10.938  67.872  1.00  0.00    -0.130 C  
HETATM    9  O   UNL     1      -7.801  11.668  68.418  1.00  0.00    -0.124 OA 
HETATM   10  N   UNL     1      -9.428  10.026  68.478  1.00  0.00    -0.145 N  
HETATM   11  O   UNL     1     -10.747   8.227  67.848  1.00  0.00    -0.178 OA 
HETATM   12  C   UNL     1     -10.088   9.223  67.587  1.00  0.00    -0.214 C  
ENDROOT
BRANCH  10  13
HETATM   13  C   UNL     1      -9.442   9.794  69.914  1.00  0.00    -0.231 C  
BRANCH  13  14
HETATM   14  C   UNL     1     -10.859   9.471  70.438  1.00  0.00    -0.338 C  
HETATM   15  C   UNL     1     -11.762  10.714  70.310  1.00  0.00    -0.433 C  
HETATM   16  C   UNL     1     -13.192  10.422  70.744  1.00  0.00    -0.266 C  
HETATM   17  C   UNL     1     -13.240   9.847  72.153  1.00  0.00    -0.511 C  
HETATM   18  C   UNL     1     -12.344   8.618  72.292  1.00  0.00    -0.449 C  
HETATM   19  C   UNL     1     -10.886   8.936  71.905  1.00  0.00    -0.433 C  
BRANCH  19  20
HETATM   20  C   UNL     1      -9.971   7.700  72.071  1.00  0.00    -0.175 C  
BRANCH  20  21
HETATM   21  N   UNL     1     -10.617   6.373  72.046  1.00  0.00    -0.208 NA 
HETATM   22  C   UNL     1     -11.157   6.102  70.684  1.00  0.00    -0.317 C  
HETATM   23  C   UNL     1     -10.072   5.992  69.593  1.00  0.00    -0.190 C  
HETATM   24  N   UNL     1      -9.061   4.975  69.927  1.00  0.00    -0.115 NA 
HETATM   25  C   UNL     1      -8.575   4.976  71.319  1.00  0.00    -0.125 C  
HETATM   26  C   UNL     1      -9.694   5.256  72.358  1.00  0.00    -0.152 C  
BRANCH  24  27
HETATM   27  C   UNL     1      -9.066   3.811  69.203  1.00  0.00    -0.137 A  
HETATM   28  N   UNL     1      -9.356   2.628  69.743  1.00  0.00    -0.132 NA 
HETATM   29  S   UNL     1      -9.412   1.481  68.566  1.00  0.00    -0.148 SA 
HETATM   30  C   UNL     1      -9.075   2.528  67.252  1.00  0.00    -0.157 A  
HETATM   31  C   UNL     1      -9.012   2.238  65.878  1.00  0.00    -0.110 A  
HETATM   32  C   UNL     1      -8.728   3.279  64.992  1.00  0.00    -0.115 A  
HETATM   33  C   UNL     1      -8.514   4.569  65.460  1.00  0.00    -0.121 A  
HETATM   34  C   UNL     1      -8.591   4.847  66.830  1.00  0.00    -0.108 A  
HETATM   35  C   UNL     1      -8.870   3.813  67.761  1.00  0.00    -0.136 A  
ENDBRANCH  24  27
ENDBRANCH  20  21
ENDBRANCH  19  20
ENDBRANCH  13  14
ENDBRANCH  10  13
TORSDOF 5
ENDMDL
MODEL      156
REMARK 921   NORMALIZED FREE ENERGY PREDICTED BY IDOCK:   -4.45 KCAL/MOL
REMARK 922        TOTAL FREE ENERGY PREDICTED BY IDOCK:   -7.48 KCAL/MOL
REMARK 923 INTER-LIGAND FREE ENERGY PREDICTED BY IDOCK:   -6.84 KCAL/MOL
REMARK 924 INTRA-LIGAND FREE ENERGY PREDICTED BY IDOCK:   -0.64 KCAL/MOL
REMARK 927      BINDING AFFINITY PREDICTED BY RF-SCORE:    0.00 PKD
ROOT
HETATM    1  C   UNL     1     -11.840  12.129  65.543  1.00  0.00    -0.350 C  
HETATM    2  C   UNL     1     -11.093  12.635  64.296  1.00  0.00    -0.405 C  
HETATM    3  C   UNL     1     -12.106  13.386  63.410  1.00  0.00    -0.437 C  
HETATM    4  C   UNL     1     -12.386  14.672  64.214  1.00  0.00    -0.375 C  
HETATM    5  C   UNL     1     -11.487  14.506  65.456  1.00  0.00    -0.343 C  
HETATM    6  C   UNL     1     -10.273  13.808  64.835  1.00  0.00    -0.374 C  
HETATM    7  C   UNL     1     -12.113  13.411  66.335  1.00  0.00    -0.464 C  
HETATM    8  C   UNL     1     -11.394  13.208  67.639  1.00  0.00    -0.298 C  
HETATM    9  O   UNL     1     -11.295  14.057  68.512  1.00  0.00    -0.247 OA 
HETATM   10  N   UNL     1     -10.856  11.954  67.656  1.00  0.00    -0.217 N  
HETATM   11  O   UNL     1     -10.447  10.249  66.139  1.00  0.00    -0.210 OA 
HETATM   12  C   UNL     1     -10.975  11.305  66.456  1.00  0.00    -0.245 C  
ENDROOT
BRANCH  10  13
HETATM   13  C   UNL     1     -10.063  11.437  68.761  1.00  0.00    -0.188 C  
BRANCH  13  14
HETATM   14  C   UNL     1      -8.545  11.552  68.492  1.00  0.00    -0.140 C  
HETATM   15  C   UNL     1      -8.265  12.763  67.580  1.00  0.00    -0.179 C  
HETATM   16  C   UNL     1      -6.773  12.962  67.349  1.00  0.00    -0.131 C  
HETATM   17  C   UNL     1      -6.119  11.698  66.808  1.00  0.00    -0.134 C  
HETATM   18  C   UNL     1      -6.396  10.491  67.701  1.00  0.00    -0.056 C  
HETATM   19  C   UNL     1      -7.910  10.261  67.884  1.00  0.00    -0.101 C  
BRANCH  19  20
HETATM   20  C   UNL     1      -8.194   9.024  68.768  1.00  0.00    -0.117 C  
BRANCH  20  21
HETATM   21  N   UNL     1      -7.034   8.359  69.393  1.00  0.00    -0.049 NA 
HETATM   22  C   UNL     1      -7.189   8.364  70.875  1.00  0.00    -0.059 C  
HETATM   23  C   UNL     1      -8.389   7.535  71.379  1.00  0.00    -0.107 C  
HETATM   24  N   UNL     1      -8.334   6.144  70.899  1.00  0.00    -0.125 NA 
HETATM   25  C   UNL     1      -7.977   5.962  69.479  1.00  0.00    -0.105 C  
HETATM   26  C   UNL     1      -6.874   6.940  68.995  1.00  0.00    -0.069 C  
BRANCH  24  27
HETATM   27  C   UNL     1      -8.037   5.167  71.812  1.00  0.00    -0.116 A  
HETATM   28  N   UNL     1      -6.788   4.840  72.136  1.00  0.00    -0.054 NA 
HETATM   29  S   UNL     1      -6.802   3.742  73.362  1.00  0.00    -0.046 SA 
HETATM   30  C   UNL     1      -8.504   3.670  73.543  1.00  0.00    -0.083 A  
HETATM   31  C   UNL     1      -9.268   2.945  74.473  1.00  0.00    -0.102 A  
HETATM   32  C   UNL     1     -10.659   3.062  74.426  1.00  0.00    -0.207 A  
HETATM   33  C   UNL     1     -11.269   3.877  73.481  1.00  0.00    -0.312 A  
HETATM   34  C   UNL     1     -10.496   4.604  72.567  1.00  0.00    -0.257 A  
HETATM   35  C   UNL     1      -9.080   4.503  72.581  1.00  0.00    -0.137 A  
ENDBRANCH  24  27
ENDBRANCH  20  21
ENDBRANCH  19  20
ENDBRANCH  13  14
ENDBRANCH  10  13
TORSDOF 5
ENDMDL
MODEL      157
REMARK 921   NORMALIZED FREE ENERGY PREDICTED BY IDOCK:   -4.45 KCAL/MOL
REMARK 922        TOTAL FREE ENERGY PREDICTED BY IDOCK:   -7.48 KCAL/MOL
REMARK 923 INTER-LIGAND FREE ENERGY PREDICTED BY IDOCK:   -7.05 KCAL/MOL
REMARK 924 INTRA-LIGAND FREE ENERGY PREDICTED BY IDOCK:   -0.43 KCAL/MOL
REMARK 927      BINDING AFFINITY PREDICTED BY RF-SCORE:    0.00 PKD
ROOT
HETATM    1  C   UNL     1      -7.776   5.198  73.648  1.00  0.00    -0.099 C  
HETATM    2  C   UNL     1      -6.545   4.685  72.880  1.00  0.00    -0.051 C  
HETATM    3  C   UNL     1      -5.582   4.047  73.900  1.00  0.00    -0.004 C  
HETATM    4  C   UNL     1      -6.319   2.756  74.314  1.00  0.00    -0.020 C  
HETATM    5  C   UNL     1      -7.607   2.806  73.467  1.00  0.00    -0.051 C  
HETATM    6  C   UNL     1      -7.072   3.434  72.176  1.00  0.00    -0.041 C  
HETATM    7  C   UNL     1      -8.500   3.911  74.053  1.00  0.00    -0.090 C  
HETATM    8  C   UNL     1      -9.844   4.010  73.387  1.00  0.00    -0.120 C  
HETATM    9  O   UNL     1     -10.684   3.124  73.393  1.00  0.00    -0.170 OA 
HETATM   10  N   UNL     1      -9.938   5.219  72.759  1.00  0.00    -0.158 N  
HETATM   11  O   UNL     1      -8.514   6.944  72.152  1.00  0.00    -0.113 OA 
HETATM   12  C   UNL     1      -8.761   5.919  72.771  1.00  0.00    -0.125 C  
ENDROOT
BRANCH  10  13
HETATM   13  C   UNL     1     -11.098   5.632  71.986  1.00  0.00    -0.230 C  
BRANCH  13  14
HETATM   14  C   UNL     1     -10.884   5.443  70.467  1.00  0.00    -0.200 C  
HETATM   15  C   UNL     1      -9.860   4.317  70.219  1.00  0.00    -0.263 C  
HETATM   16  C   UNL     1      -9.673   4.042  68.733  1.00  0.00    -0.143 C  
HETATM   17  C   UNL     1      -9.298   5.308  67.974  1.00  0.00    -0.135 C  
HETATM   18  C   UNL     1     -10.304   6.431  68.218  1.00  0.00    -0.228 C  
HETATM   19  C   UNL     1     -10.446   6.743  69.722  1.00  0.00    -0.240 C  
BRANCH  19  20
HETATM   20  C   UNL     1     -11.444   7.899  69.971  1.00  0.00     0.054 C  
BRANCH  20  21
HETATM   21  N   UNL     1     -11.054   8.929  70.953  1.00  0.00    -0.257 NA 
HETATM   22  C   UNL     1     -10.204   9.958  70.292  1.00  0.00    -0.264 C  
HETATM   23  C   UNL     1     -10.937  10.766  69.200  1.00  0.00    -0.244 C  
HETATM   24  N   UNL     1     -12.159  11.403  69.718  1.00  0.00    -0.322 NA 
HETATM   25  C   UNL     1     -13.012  10.563  70.580  1.00  0.00    -0.285 C  
HETATM   26  C   UNL     1     -12.204   9.654  71.544  1.00  0.00    -0.399 C  
BRANCH  24  27
HETATM   27  C   UNL     1     -12.148  12.763  69.881  1.00  0.00    -0.259 A  
HETATM   28  N   UNL     1     -12.289  13.348  71.069  1.00  0.00    -0.358 NA 
HETATM   29  S   UNL     1     -12.079  14.973  70.915  1.00  0.00    -0.358 SA 
HETATM   30  C   UNL     1     -11.756  14.972  69.232  1.00  0.00    -0.323 A  
HETATM   31  C   UNL     1     -11.424  16.048  68.391  1.00  0.00    -0.331 A  
HETATM   32  C   UNL     1     -11.192  15.787  67.039  1.00  0.00    -0.082 A  
HETATM   33  C   UNL     1     -11.289  14.495  66.541  1.00  0.00    -0.354 A  
HETATM   34  C   UNL     1     -11.609  13.430  67.391  1.00  0.00    -0.394 A  
HETATM   35  C   UNL     1     -11.859  13.658  68.770  1.00  0.00    -0.395 A  
ENDBRANCH  24  27
ENDBRANCH  20  21
ENDBRANCH  19  20
ENDBRANCH  13  14
ENDBRANCH  10  13
TORSDOF 5
ENDMDL
MODEL      158
REMARK 921   NORMALIZED FREE ENERGY PREDICTED BY IDOCK:   -4.44 KCAL/MOL
REMARK 922        TOTAL FREE ENERGY PREDICTED BY IDOCK:   -7.46 KCAL/MOL
REMARK 923 INTER-LIGAND FREE ENERGY PREDICTED BY IDOCK:   -6.99 KCAL/MOL
REMARK 924 INTRA-LIGAND FREE ENERGY PREDICTED BY IDOCK:   -0.47 KCAL/MOL
REMARK 927      BINDING AFFINITY PREDICTED BY RF-SCORE:    0.00 PKD
ROOT
HETATM    1  C   UNL     1     -10.664   7.155  68.201  1.00  0.00    -0.214 C  
HETATM    2  C   UNL     1      -9.901   6.330  69.252  1.00  0.00    -0.167 C  
HETATM    3  C   UNL     1     -10.344   4.861  69.114  1.00  0.00    -0.103 C  
HETATM    4  C   UNL     1      -9.707   4.429  67.777  1.00  0.00    -0.191 C  
HETATM    5  C   UNL     1      -8.962   5.701  67.322  1.00  0.00    -0.111 C  
HETATM    6  C   UNL     1      -8.488   6.249  68.671  1.00  0.00    -0.122 C  
HETATM    7  C   UNL     1     -10.024   6.721  66.879  1.00  0.00    -0.252 C  
HETATM    8  C   UNL     1      -9.439   7.984  66.312  1.00  0.00    -0.172 C  
HETATM    9  O   UNL     1      -8.757   8.034  65.300  1.00  0.00    -0.130 OA 
HETATM   10  N   UNL     1      -9.766   9.028  67.128  1.00  0.00    -0.169 N  
HETATM   11  O   UNL     1     -10.629   9.326  69.259  1.00  0.00    -0.221 OA 
HETATM   12  C   UNL     1     -10.378   8.629  68.286  1.00  0.00    -0.207 C  
ENDROOT
BRANCH  10  13
HETATM   13  C   UNL     1      -9.332  10.396  66.892  1.00  0.00    -0.162 C  
BRANCH  13  14
HETATM   14  C   UNL     1      -7.960  10.692  67.538  1.00  0.00    -0.110 C  
HETATM   15  C   UNL     1      -7.317   9.379  68.027  1.00  0.00    -0.079 C  
HETATM   16  C   UNL     1      -5.927   9.611  68.603  1.00  0.00    -0.042 C  
HETATM   17  C   UNL     1      -5.949  10.661  69.706  1.00  0.00    -0.062 C  
HETATM   18  C   UNL     1      -6.589  11.964  69.233  1.00  0.00    -0.110 C  
HETATM   19  C   UNL     1      -8.019  11.729  68.703  1.00  0.00    -0.116 C  
BRANCH  19  20
HETATM   20  C   UNL     1      -8.680  13.052  68.247  1.00  0.00    -0.173 C  
BRANCH  20  21
HETATM   21  N   UNL     1      -7.945  14.303  68.517  1.00  0.00    -0.141 NA 
HETATM   22  C   UNL     1      -7.549  14.942  67.231  1.00  0.00    -0.181 C  
HETATM   23  C   UNL     1      -8.744  15.408  66.373  1.00  0.00    -0.272 C  
HETATM   24  N   UNL     1      -9.631  16.319  67.117  1.00  0.00    -0.230 NA 
HETATM   25  C   UNL     1      -9.948  15.925  68.503  1.00  0.00    -0.216 C  
HETATM   26  C   UNL     1      -8.739  15.312  69.258  1.00  0.00    -0.237 C  
BRANCH  24  27
HETATM   27  C   UNL     1      -9.625  17.642  66.764  1.00  0.00    -0.294 A  
HETATM   28  N   UNL     1     -10.645  18.226  66.138  1.00  0.00    -0.371 NA 
HETATM   29  S   UNL     1     -10.362  19.841  66.004  1.00  0.00    -0.470 SA 
HETATM   30  C   UNL     1      -8.852  19.846  66.814  1.00  0.00    -0.348 A  
HETATM   31  C   UNL     1      -8.016  20.931  67.128  1.00  0.00    -0.182 A  
HETATM   32  C   UNL     1      -6.826  20.676  67.813  1.00  0.00    -0.367 A  
HETATM   33  C   UNL     1      -6.480  19.380  68.174  1.00  0.00    -0.260 A  
HETATM   34  C   UNL     1      -7.327  18.309  67.865  1.00  0.00    -0.233 A  
HETATM   35  C   UNL     1      -8.541  18.530  67.163  1.00  0.00    -0.273 A  
ENDBRANCH  24  27
ENDBRANCH  20  21
ENDBRANCH  19  20
ENDBRANCH  13  14
ENDBRANCH  10  13
TORSDOF 5
ENDMDL
MODEL      159
REMARK 921   NORMALIZED FREE ENERGY PREDICTED BY IDOCK:   -4.42 KCAL/MOL
REMARK 922        TOTAL FREE ENERGY PREDICTED BY IDOCK:   -7.44 KCAL/MOL
REMARK 923 INTER-LIGAND FREE ENERGY PREDICTED BY IDOCK:   -7.47 KCAL/MOL
REMARK 924 INTRA-LIGAND FREE ENERGY PREDICTED BY IDOCK:    0.03 KCAL/MOL
REMARK 927      BINDING AFFINITY PREDICTED BY RF-SCORE:    0.00 PKD
ROOT
HETATM    1  C   UNL     1     -10.400  17.991  66.925  1.00  0.00    -0.377 C  
HETATM    2  C   UNL     1      -9.024  18.656  66.748  1.00  0.00    -0.297 C  
HETATM    3  C   UNL     1      -9.194  20.168  66.995  1.00  0.00    -0.503 C  
HETATM    4  C   UNL     1      -9.446  20.247  68.514  1.00  0.00    -0.041 C  
HETATM    5  C   UNL     1      -9.373  18.771  68.954  1.00  0.00    -0.302 C  
HETATM    6  C   UNL     1      -8.277  18.251  68.020  1.00  0.00    -0.274 C  
HETATM    7  C   UNL     1     -10.641  18.073  68.434  1.00  0.00    -0.249 C  
HETATM    8  C   UNL     1     -10.758  16.641  68.876  1.00  0.00    -0.337 C  
HETATM    9  O   UNL     1     -10.861  16.284  70.039  1.00  0.00    -0.335 OA 
HETATM   10  N   UNL     1     -10.693  15.834  67.777  1.00  0.00    -0.299 N  
HETATM   11  O   UNL     1     -10.104  16.032  65.543  1.00  0.00    -0.382 OA 
HETATM   12  C   UNL     1     -10.385  16.516  66.630  1.00  0.00    -0.298 C  
ENDROOT
BRANCH  10  13
HETATM   13  C   UNL     1     -10.742  14.382  67.845  1.00  0.00    -0.244 C  
BRANCH  13  14
HETATM   14  C   UNL     1     -10.871  13.737  66.447  1.00  0.00    -0.287 C  
HETATM   15  C   UNL     1     -12.330  13.303  66.203  1.00  0.00    -0.423 C  
HETATM   16  C   UNL     1     -12.522  12.730  64.805  1.00  0.00    -0.539 C  
HETATM   17  C   UNL     1     -11.552  11.588  64.532  1.00  0.00    -0.149 C  
HETATM   18  C   UNL     1     -10.104  12.006  64.777  1.00  0.00    -0.286 C  
HETATM   19  C   UNL     1      -9.905  12.532  66.213  1.00  0.00    -0.260 C  
BRANCH  19  20
HETATM   20  C   UNL     1      -8.433  12.932  66.473  1.00  0.00     0.197 C  
BRANCH  20  21
HETATM   21  N   UNL     1      -7.462  11.840  66.675  1.00  0.00    -0.049 NA 
HETATM   22  C   UNL     1      -6.638  12.116  67.886  1.00  0.00    -0.085 C  
HETATM   23  C   UNL     1      -7.446  12.124  69.201  1.00  0.00     0.121 C  
HETATM   24  N   UNL     1      -8.191  10.868  69.394  1.00  0.00    -0.036 NA 
HETATM   25  C   UNL     1      -8.895  10.344  68.209  1.00  0.00    -0.135 C  
HETATM   26  C   UNL     1      -8.092  10.516  66.892  1.00  0.00    -0.120 C  
BRANCH  24  27
HETATM   27  C   UNL     1      -7.748  10.009  70.365  1.00  0.00     0.033 A  
HETATM   28  N   UNL     1      -6.457   9.830  70.635  1.00  0.00    -0.102 NA 
HETATM   29  S   UNL     1      -6.295   8.850  71.946  1.00  0.00    -0.026 SA 
HETATM   30  C   UNL     1      -7.969   8.636  72.241  1.00  0.00    -0.008 A  
HETATM   31  C   UNL     1      -8.606   7.929  73.275  1.00  0.00    -0.276 A  
HETATM   32  C   UNL     1     -10.001   7.912  73.308  1.00  0.00    -0.331 A  
HETATM   33  C   UNL     1     -10.740   8.579  72.339  1.00  0.00    -0.376 A  
HETATM   34  C   UNL     1     -10.094   9.289  71.320  1.00  0.00    -0.361 A  
HETATM   35  C   UNL     1      -8.677   9.322  71.252  1.00  0.00    -0.031 A  
ENDBRANCH  24  27
ENDBRANCH  20  21
ENDBRANCH  19  20
ENDBRANCH  13  14
ENDBRANCH  10  13
TORSDOF 5
ENDMDL
MODEL      160
REMARK 921   NORMALIZED FREE ENERGY PREDICTED BY IDOCK:   -4.37 KCAL/MOL
REMARK 922        TOTAL FREE ENERGY PREDICTED BY IDOCK:   -7.37 KCAL/MOL
REMARK 923 INTER-LIGAND FREE ENERGY PREDICTED BY IDOCK:   -7.22 KCAL/MOL
REMARK 924 INTRA-LIGAND FREE ENERGY PREDICTED BY IDOCK:   -0.15 KCAL/MOL
REMARK 927      BINDING AFFINITY PREDICTED BY RF-SCORE:    0.00 PKD
ROOT
HETATM    1  C   UNL     1     -10.643   6.529  72.007  1.00  0.00    -0.244 C  
HETATM    2  C   UNL     1      -9.629   6.906  73.101  1.00  0.00    -0.183 C  
HETATM    3  C   UNL     1     -10.162   6.373  74.445  1.00  0.00    -0.343 C  
HETATM    4  C   UNL     1      -9.998   4.846  74.304  1.00  0.00    -0.225 C  
HETATM    5  C   UNL     1      -9.375   4.693  72.902  1.00  0.00    -0.144 C  
HETATM    6  C   UNL     1      -8.475   5.931  72.855  1.00  0.00    -0.121 C  
HETATM    7  C   UNL     1     -10.472   5.013  71.874  1.00  0.00    -0.255 C  
HETATM    8  C   UNL     1     -10.035   4.807  70.450  1.00  0.00    -0.245 C  
HETATM    9  O   UNL     1      -9.704   3.731  69.979  1.00  0.00    -0.197 OA 
HETATM   10  N   UNL     1     -10.040   6.012  69.809  1.00  0.00    -0.179 N  
HETATM   11  O   UNL     1     -10.176   8.254  70.382  1.00  0.00    -0.196 OA 
HETATM   12  C   UNL     1     -10.275   7.066  70.651  1.00  0.00    -0.191 C  
ENDROOT
BRANCH  10  13
HETATM   13  C   UNL     1      -9.637   6.183  68.421  1.00  0.00    -0.118 C  
BRANCH  13  14
HETATM   14  C   UNL     1      -8.120   6.436  68.281  1.00  0.00    -0.113 C  
HETATM   15  C   UNL     1      -7.361   5.713  69.412  1.00  0.00    -0.070 C  
HETATM   16  C   UNL     1      -5.853   5.872  69.271  1.00  0.00    -0.023 C  
HETATM   17  C   UNL     1      -5.452   7.338  69.187  1.00  0.00    -0.015 C  
HETATM   18  C   UNL     1      -6.203   8.066  68.073  1.00  0.00    -0.047 C  
HETATM   19  C   UNL     1      -7.730   7.948  68.254  1.00  0.00    -0.121 C  
BRANCH  19  20
HETATM   20  C   UNL     1      -8.493   8.707  67.142  1.00  0.00    -0.114 C  
BRANCH  20  21
HETATM   21  N   UNL     1      -7.983  10.037  66.759  1.00  0.00    -0.113 NA 
HETATM   22  C   UNL     1      -8.410  10.360  65.369  1.00  0.00    -0.165 C  
HETATM   23  C   UNL     1      -9.938  10.502  65.203  1.00  0.00    -0.309 C  
HETATM   24  N   UNL     1     -10.498  11.501  66.129  1.00  0.00    -0.244 NA 
HETATM   25  C   UNL     1     -10.003  11.447  67.518  1.00  0.00    -0.182 C  
HETATM   26  C   UNL     1      -8.486  11.137  67.616  1.00  0.00    -0.122 C  
BRANCH  24  27
HETATM   27  C   UNL     1     -10.927  12.689  65.599  1.00  0.00    -0.280 A  
HETATM   28  N   UNL     1     -12.077  12.811  64.938  1.00  0.00    -0.412 NA 
HETATM   29  S   UNL     1     -12.343  14.393  64.575  1.00  0.00    -0.348 SA 
HETATM   30  C   UNL     1     -10.928  15.008  65.320  1.00  0.00    -0.382 A  
HETATM   31  C   UNL     1     -10.502  16.341  65.453  1.00  0.00    -0.365 A  
HETATM   32  C   UNL     1      -9.302  16.591  66.122  1.00  0.00    -0.339 A  
HETATM   33  C   UNL     1      -8.550  15.545  66.642  1.00  0.00    -0.325 A  
HETATM   34  C   UNL     1      -8.991  14.223  66.513  1.00  0.00    -0.161 A  
HETATM   35  C   UNL     1     -10.203  13.931  65.833  1.00  0.00    -0.326 A  
ENDBRANCH  24  27
ENDBRANCH  20  21
ENDBRANCH  19  20
ENDBRANCH  13  14
ENDBRANCH  10  13
TORSDOF 5
ENDMDL
MODEL      161
REMARK 921   NORMALIZED FREE ENERGY PREDICTED BY IDOCK:   -4.36 KCAL/MOL
REMARK 922        TOTAL FREE ENERGY PREDICTED BY IDOCK:   -7.36 KCAL/MOL
REMARK 923 INTER-LIGAND FREE ENERGY PREDICTED BY IDOCK:   -6.32 KCAL/MOL
REMARK 924 INTRA-LIGAND FREE ENERGY PREDICTED BY IDOCK:   -1.03 KCAL/MOL
REMARK 927      BINDING AFFINITY PREDICTED BY RF-SCORE:    0.00 PKD
ROOT
HETATM    1  C   UNL     1      -7.186   8.178  65.326  1.00  0.00    -0.068 C  
HETATM    2  C   UNL     1      -6.074   8.002  64.277  1.00  0.00    -0.057 C  
HETATM    3  C   UNL     1      -6.250   6.615  63.629  1.00  0.00    -0.038 C  
HETATM    4  C   UNL     1      -7.528   6.786  62.782  1.00  0.00    -0.082 C  
HETATM    5  C   UNL     1      -7.917   8.256  63.037  1.00  0.00    -0.156 C  
HETATM    6  C   UNL     1      -6.532   8.904  63.130  1.00  0.00    -0.090 C  
HETATM    7  C   UNL     1      -8.448   8.349  64.477  1.00  0.00    -0.078 C  
HETATM    8  C   UNL     1      -8.963   9.714  64.837  1.00  0.00    -0.217 C  
HETATM    9  O   UNL     1      -9.913  10.258  64.296  1.00  0.00    -0.328 OA 
HETATM   10  N   UNL     1      -8.177  10.236  65.824  1.00  0.00    -0.141 N  
HETATM   11  O   UNL     1      -6.128   9.771  66.802  1.00  0.00    -0.061 OA 
HETATM   12  C   UNL     1      -7.075   9.468  66.092  1.00  0.00    -0.092 C  
ENDROOT
BRANCH  10  13
HETATM   13  C   UNL     1      -8.374  11.562  66.388  1.00  0.00    -0.118 C  
BRANCH  13  14
HETATM   14  C   UNL     1      -9.802  11.751  66.947  1.00  0.00    -0.221 C  
HETATM   15  C   UNL     1     -10.430  13.031  66.360  1.00  0.00    -0.285 C  
HETATM   16  C   UNL     1     -11.869  13.218  66.824  1.00  0.00    -0.448 C  
HETATM   17  C   UNL     1     -11.972  13.197  68.343  1.00  0.00    -0.324 C  
HETATM   18  C   UNL     1     -11.348  11.935  68.934  1.00  0.00    -0.335 C  
HETATM   19  C   UNL     1      -9.874  11.782  68.506  1.00  0.00    -0.192 C  
BRANCH  19  20
HETATM   20  C   UNL     1      -9.231  10.518  69.125  1.00  0.00    -0.171 C  
BRANCH  20  21
HETATM   21  N   UNL     1     -10.115   9.613  69.885  1.00  0.00    -0.229 NA 
HETATM   22  C   UNL     1     -10.332   8.357  69.114  1.00  0.00    -0.220 C  
HETATM   23  C   UNL     1      -9.052   7.519  68.913  1.00  0.00    -0.140 C  
HETATM   24  N   UNL     1      -8.401   7.198  70.194  1.00  0.00    -0.135 NA 
HETATM   25  C   UNL     1      -8.301   8.304  71.165  1.00  0.00    -0.129 C  
HETATM   26  C   UNL     1      -9.564   9.206  71.199  1.00  0.00    -0.277 C  
BRANCH  24  27
HETATM   27  C   UNL     1      -8.467   5.903  70.634  1.00  0.00    -0.129 A  
HETATM   28  N   UNL     1      -7.504   5.013  70.402  1.00  0.00    -0.061 NA 
HETATM   29  S   UNL     1      -7.841   3.611  71.194  1.00  0.00    -0.059 SA 
HETATM   30  C   UNL     1      -9.299   4.141  71.922  1.00  0.00    -0.132 A  
HETATM   31  C   UNL     1     -10.146   3.460  72.813  1.00  0.00    -0.232 A  
HETATM   32  C   UNL     1     -11.284   4.118  73.282  1.00  0.00    -0.307 A  
HETATM   33  C   UNL     1     -11.570   5.415  72.876  1.00  0.00    -0.296 A  
HETATM   34  C   UNL     1     -10.712   6.087  71.997  1.00  0.00    -0.281 A  
HETATM   35  C   UNL     1      -9.550   5.447  71.494  1.00  0.00    -0.195 A  
ENDBRANCH  24  27
ENDBRANCH  20  21
ENDBRANCH  19  20
ENDBRANCH  13  14
ENDBRANCH  10  13
TORSDOF 5
ENDMDL
MODEL      162
REMARK 921   NORMALIZED FREE ENERGY PREDICTED BY IDOCK:   -4.33 KCAL/MOL
REMARK 922        TOTAL FREE ENERGY PREDICTED BY IDOCK:   -7.32 KCAL/MOL
REMARK 923 INTER-LIGAND FREE ENERGY PREDICTED BY IDOCK:   -6.34 KCAL/MOL
REMARK 924 INTRA-LIGAND FREE ENERGY PREDICTED BY IDOCK:   -0.98 KCAL/MOL
REMARK 927      BINDING AFFINITY PREDICTED BY RF-SCORE:    0.00 PKD
ROOT
HETATM    1  C   UNL     1     -10.931  12.900  68.574  1.00  0.00    -0.288 C  
HETATM    2  C   UNL     1     -11.905  12.817  67.386  1.00  0.00    -0.404 C  
HETATM    3  C   UNL     1     -11.424  13.810  66.309  1.00  0.00    -0.349 C  
HETATM    4  C   UNL     1     -10.138  13.147  65.775  1.00  0.00    -0.290 C  
HETATM    5  C   UNL     1     -10.049  11.848  66.600  1.00  0.00    -0.225 C  
HETATM    6  C   UNL     1     -11.533  11.489  66.724  1.00  0.00    -0.233 C  
HETATM    7  C   UNL     1      -9.659  12.239  68.035  1.00  0.00    -0.206 C  
HETATM    8  C   UNL     1      -9.437  11.058  68.937  1.00  0.00    -0.155 C  
HETATM    9  O   UNL     1      -8.565  10.219  68.773  1.00  0.00    -0.123 OA 
HETATM   10  N   UNL     1     -10.381  11.072  69.923  1.00  0.00     0.140 N  
HETATM   11  O   UNL     1     -12.379  12.163  70.362  1.00  0.00    -0.303 OA 
HETATM   12  C   UNL     1     -11.338  12.032  69.733  1.00  0.00    -0.126 C  
ENDROOT
BRANCH  10  13
HETATM   13  C   UNL     1     -10.478  10.050  70.954  1.00  0.00     0.033 C  
BRANCH  13  14
HETATM   14  C   UNL     1     -11.726   9.157  70.773  1.00  0.00    -0.308 C  
HETATM   15  C   UNL     1     -12.735   9.431  71.906  1.00  0.00    -0.484 C  
HETATM   16  C   UNL     1     -14.017   8.628  71.728  1.00  0.00    -0.492 C  
HETATM   17  C   UNL     1     -13.728   7.140  71.592  1.00  0.00    -0.406 C  
HETATM   18  C   UNL     1     -12.725   6.858  70.475  1.00  0.00     0.115 C  
HETATM   19  C   UNL     1     -11.408   7.631  70.693  1.00  0.00    -0.288 C  
BRANCH  19  20
HETATM   20  C   UNL     1     -10.380   7.327  69.578  1.00  0.00    -0.225 C  
BRANCH  20  21
HETATM   21  N   UNL     1     -10.880   6.658  68.362  1.00  0.00    -0.254 NA 
HETATM   22  C   UNL     1     -10.442   7.413  67.154  1.00  0.00    -0.333 C  
HETATM   23  C   UNL     1      -8.912   7.427  66.949  1.00  0.00    -0.135 C  
HETATM   24  N   UNL     1      -8.353   6.066  66.903  1.00  0.00    -0.105 NA 
HETATM   25  C   UNL     1      -8.857   5.123  67.918  1.00  0.00    -0.102 C  
HETATM   26  C   UNL     1     -10.377   5.274  68.193  1.00  0.00    -0.114 C  
BRANCH  24  27
HETATM   27  C   UNL     1      -7.914   5.600  65.692  1.00  0.00    -0.111 A  
HETATM   28  N   UNL     1      -6.632   5.620  65.333  1.00  0.00    -0.039 NA 
HETATM   29  S   UNL     1      -6.447   4.853  63.890  1.00  0.00    -0.034 SA 
HETATM   30  C   UNL     1      -8.092   4.424  63.682  1.00  0.00    -0.095 A  
HETATM   31  C   UNL     1      -8.693   3.679  62.653  1.00  0.00    -0.089 A  
HETATM   32  C   UNL     1     -10.069   3.449  62.714  1.00  0.00    -0.136 A  
HETATM   33  C   UNL     1     -10.823   3.947  63.769  1.00  0.00    -0.138 A  
HETATM   34  C   UNL     1     -10.211   4.677  64.794  1.00  0.00     0.108 A  
HETATM   35  C   UNL     1      -8.816   4.937  64.761  1.00  0.00    -0.147 A  
ENDBRANCH  24  27
ENDBRANCH  20  21
ENDBRANCH  19  20
ENDBRANCH  13  14
ENDBRANCH  10  13
TORSDOF 5
ENDMDL
MODEL      163
REMARK 921   NORMALIZED FREE ENERGY PREDICTED BY IDOCK:   -4.31 KCAL/MOL
REMARK 922        TOTAL FREE ENERGY PREDICTED BY IDOCK:   -7.30 KCAL/MOL
REMARK 923 INTER-LIGAND FREE ENERGY PREDICTED BY IDOCK:   -7.23 KCAL/MOL
REMARK 924 INTRA-LIGAND FREE ENERGY PREDICTED BY IDOCK:   -0.07 KCAL/MOL
REMARK 927      BINDING AFFINITY PREDICTED BY RF-SCORE:    0.00 PKD
ROOT
HETATM    1  C   UNL     1     -10.102  12.082  64.485  1.00  0.00    -0.293 C  
HETATM    2  C   UNL     1     -10.060  11.049  63.345  1.00  0.00    -0.424 C  
HETATM    3  C   UNL     1      -8.814  11.342  62.486  1.00  0.00    -0.273 C  
HETATM    4  C   UNL     1      -7.650  10.920  63.406  1.00  0.00     0.355 C  
HETATM    5  C   UNL     1      -8.374  10.421  64.673  1.00  0.00    -0.155 C  
HETATM    6  C   UNL     1      -9.613   9.769  64.053  1.00  0.00    -0.003 C  
HETATM    7  C   UNL     1      -8.945  11.654  65.392  1.00  0.00     0.085 C  
HETATM    8  C   UNL     1      -9.597  11.331  66.707  1.00  0.00    -0.193 C  
HETATM    9  O   UNL     1      -9.012  10.859  67.669  1.00  0.00    -0.139 OA 
HETATM   10  N   UNL     1     -10.929  11.616  66.621  1.00  0.00    -0.287 N  
HETATM   11  O   UNL     1     -12.471  12.096  64.957  1.00  0.00    -0.490 OA 
HETATM   12  C   UNL     1     -11.323  11.953  65.353  1.00  0.00    -0.277 C  
ENDROOT
BRANCH  10  13
HETATM   13  C   UNL     1     -11.869  11.391  67.708  1.00  0.00    -0.120 C  
BRANCH  13  14
HETATM   14  C   UNL     1     -12.098  12.663  68.554  1.00  0.00    -0.130 C  
HETATM   15  C   UNL     1     -11.431  13.874  67.871  1.00  0.00    -0.350 C  
HETATM   16  C   UNL     1     -11.695  15.167  68.630  1.00  0.00    -0.364 C  
HETATM   17  C   UNL     1     -11.274  15.053  70.089  1.00  0.00    -0.291 C  
HETATM   18  C   UNL     1     -11.925  13.854  70.773  1.00  0.00    -0.348 C  
HETATM   19  C   UNL     1     -11.606  12.540  70.031  1.00  0.00    -0.207 C  
BRANCH  19  20
HETATM   20  C   UNL     1     -12.243  11.319  70.737  1.00  0.00    -0.380 C  
BRANCH  20  21
HETATM   21  N   UNL     1     -11.992   9.991  70.147  1.00  0.00    -0.181 NA 
HETATM   22  C   UNL     1     -10.575   9.595  70.383  1.00  0.00    -0.295 C  
HETATM   23  C   UNL     1     -10.223   9.397  71.873  1.00  0.00     0.253 C  
HETATM   24  N   UNL     1     -11.116   8.422  72.522  1.00  0.00    -0.361 NA 
HETATM   25  C   UNL     1     -12.552   8.552  72.211  1.00  0.00    -0.381 C  
HETATM   26  C   UNL     1     -12.828   8.913  70.728  1.00  0.00     0.230 C  
BRANCH  24  27
HETATM   27  C   UNL     1     -10.592   7.199  72.848  1.00  0.00    -0.281 A  
HETATM   28  N   UNL     1     -10.502   6.765  74.104  1.00  0.00    -0.311 NA 
HETATM   29  S   UNL     1      -9.968   5.209  74.117  1.00  0.00    -0.221 SA 
HETATM   30  C   UNL     1      -9.856   5.024  72.417  1.00  0.00    -0.169 A  
HETATM   31  C   UNL     1      -9.499   3.890  71.668  1.00  0.00    -0.220 A  
HETATM   32  C   UNL     1      -9.495   3.988  70.275  1.00  0.00    -0.255 A  
HETATM   33  C   UNL     1      -9.836   5.179  69.648  1.00  0.00    -0.286 A  
HETATM   34  C   UNL     1     -10.201   6.299  70.404  1.00  0.00    -0.248 A  
HETATM   35  C   UNL     1     -10.210   6.238  71.823  1.00  0.00    -0.224 A  
ENDBRANCH  24  27
ENDBRANCH  20  21
ENDBRANCH  19  20
ENDBRANCH  13  14
ENDBRANCH  10  13
TORSDOF 5
ENDMDL
MODEL      164
REMARK 921   NORMALIZED FREE ENERGY PREDICTED BY IDOCK:   -4.30 KCAL/MOL
REMARK 922        TOTAL FREE ENERGY PREDICTED BY IDOCK:   -7.29 KCAL/MOL
REMARK 923 INTER-LIGAND FREE ENERGY PREDICTED BY IDOCK:   -6.82 KCAL/MOL
REMARK 924 INTRA-LIGAND FREE ENERGY PREDICTED BY IDOCK:   -0.46 KCAL/MOL
REMARK 927      BINDING AFFINITY PREDICTED BY RF-SCORE:    0.00 PKD
ROOT
HETATM    1  C   UNL     1      -9.203  15.248  67.502  1.00  0.00    -0.202 C  
HETATM    2  C   UNL     1      -9.197  15.674  68.981  1.00  0.00    -0.243 C  
HETATM    3  C   UNL     1      -9.220  17.215  69.030  1.00  0.00    -0.135 C  
HETATM    4  C   UNL     1     -10.648  17.557  68.556  1.00  0.00    -0.312 C  
HETATM    5  C   UNL     1     -11.272  16.168  68.310  1.00  0.00    -0.343 C  
HETATM    6  C   UNL     1     -10.623  15.362  69.438  1.00  0.00    -0.251 C  
HETATM    7  C   UNL     1     -10.623  15.590  67.042  1.00  0.00    -0.311 C  
HETATM    8  C   UNL     1     -11.209  14.273  66.618  1.00  0.00    -0.334 C  
HETATM    9  O   UNL     1     -12.369  14.113  66.273  1.00  0.00    -0.456 OA 
HETATM   10  N   UNL     1     -10.247  13.309  66.721  1.00  0.00    -0.250 N  
HETATM   11  O   UNL     1      -8.149  13.082  67.680  1.00  0.00    -0.146 OA 
HETATM   12  C   UNL     1      -9.100  13.759  67.317  1.00  0.00    -0.232 C  
ENDROOT
BRANCH  10  13
HETATM   13  C   UNL     1     -10.484  11.905  66.419  1.00  0.00    -0.223 C  
BRANCH  13  14
HETATM   14  C   UNL     1     -10.992  11.123  67.650  1.00  0.00    -0.323 C  
HETATM   15  C   UNL     1     -11.822  12.053  68.558  1.00  0.00    -0.369 C  
HETATM   16  C   UNL     1     -12.408  11.305  69.748  1.00  0.00    -0.277 C  
HETATM   17  C   UNL     1     -11.327  10.580  70.538  1.00  0.00    -0.400 C  
HETATM   18  C   UNL     1     -10.496   9.660  69.647  1.00  0.00    -0.246 C  
HETATM   19  C   UNL     1      -9.859  10.435  68.476  1.00  0.00    -0.176 C  
BRANCH  19  20
HETATM   20  C   UNL     1      -8.995   9.511  67.586  1.00  0.00    -0.117 C  
BRANCH  20  21
HETATM   21  N   UNL     1      -9.694   8.714  66.560  1.00  0.00    -0.234 NA 
HETATM   22  C   UNL     1      -8.757   8.390  65.448  1.00  0.00    -0.141 C  
HETATM   23  C   UNL     1      -7.583   7.481  65.866  1.00  0.00    -0.088 C  
HETATM   24  N   UNL     1      -8.052   6.231  66.487  1.00  0.00    -0.109 NA 
HETATM   25  C   UNL     1      -9.144   6.365  67.470  1.00  0.00    -0.114 C  
HETATM   26  C   UNL     1     -10.209   7.417  67.062  1.00  0.00    -0.287 C  
BRANCH  24  27
HETATM   27  C   UNL     1      -7.915   5.073  65.768  1.00  0.00    -0.107 A  
HETATM   28  N   UNL     1      -8.519   4.875  64.598  1.00  0.00    -0.138 NA 
HETATM   29  S   UNL     1      -8.019   3.448  63.950  1.00  0.00    -0.082 SA 
HETATM   30  C   UNL     1      -6.932   3.030  65.206  1.00  0.00    -0.053 A  
HETATM   31  C   UNL     1      -6.078   1.919  65.309  1.00  0.00    -0.018 A  
HETATM   32  C   UNL     1      -5.268   1.806  66.440  1.00  0.00    -0.005 A  
HETATM   33  C   UNL     1      -5.307   2.771  67.438  1.00  0.00    -0.016 A  
HETATM   34  C   UNL     1      -6.153   3.880  67.319  1.00  0.00    -0.025 A  
HETATM   35  C   UNL     1      -6.996   4.024  66.186  1.00  0.00    -0.062 A  
ENDBRANCH  24  27
ENDBRANCH  20  21
ENDBRANCH  19  20
ENDBRANCH  13  14
ENDBRANCH  10  13
TORSDOF 5
ENDMDL
MODEL      165
REMARK 921   NORMALIZED FREE ENERGY PREDICTED BY IDOCK:   -4.30 KCAL/MOL
REMARK 922        TOTAL FREE ENERGY PREDICTED BY IDOCK:   -7.28 KCAL/MOL
REMARK 923 INTER-LIGAND FREE ENERGY PREDICTED BY IDOCK:   -6.15 KCAL/MOL
REMARK 924 INTRA-LIGAND FREE ENERGY PREDICTED BY IDOCK:   -1.13 KCAL/MOL
REMARK 927      BINDING AFFINITY PREDICTED BY RF-SCORE:    0.00 PKD
ROOT
HETATM    1  C   UNL     1      -9.566  15.245  67.291  1.00  0.00    -0.214 C  
HETATM    2  C   UNL     1      -9.487  16.279  68.428  1.00  0.00    -0.216 C  
HETATM    3  C   UNL     1     -10.751  17.158  68.358  1.00  0.00    -0.347 C  
HETATM    4  C   UNL     1     -11.869  16.198  68.814  1.00  0.00    -0.130 C  
HETATM    5  C   UNL     1     -11.105  14.891  69.105  1.00  0.00    -0.279 C  
HETATM    6  C   UNL     1      -9.797  15.448  69.675  1.00  0.00    -0.263 C  
HETATM    7  C   UNL     1     -10.676  14.297  67.753  1.00  0.00    -0.253 C  
HETATM    8  C   UNL     1     -10.003  12.959  67.874  1.00  0.00    -0.233 C  
HETATM    9  O   UNL     1     -10.540  11.953  68.312  1.00  0.00    -0.198 OA 
HETATM   10  N   UNL     1      -8.709  13.076  67.454  1.00  0.00    -0.195 N  
HETATM   11  O   UNL     1      -7.217  14.783  66.972  1.00  0.00    -0.127 OA 
HETATM   12  C   UNL     1      -8.345  14.372  67.201  1.00  0.00    -0.191 C  
ENDROOT
BRANCH  10  13
HETATM   13  C   UNL     1      -7.759  11.975  67.469  1.00  0.00    -0.155 C  
BRANCH  13  14
HETATM   14  C   UNL     1      -7.215  11.694  68.888  1.00  0.00    -0.113 C  
HETATM   15  C   UNL     1      -5.865  12.412  69.084  1.00  0.00    -0.075 C  
HETATM   16  C   UNL     1      -5.326  12.227  70.496  1.00  0.00    -0.145 C  
HETATM   17  C   UNL     1      -5.228  10.753  70.866  1.00  0.00    -0.105 C  
HETATM   18  C   UNL     1      -6.560  10.032  70.671  1.00  0.00    -0.088 C  
HETATM   19  C   UNL     1      -7.071  10.176  69.223  1.00  0.00    -0.076 C  
BRANCH  19  20
HETATM   20  C   UNL     1      -8.407   9.424  69.014  1.00  0.00    -0.124 C  
BRANCH  20  21
HETATM   21  N   UNL     1      -8.353   8.141  68.287  1.00  0.00    -0.125 NA 
HETATM   22  C   UNL     1      -7.501   7.173  69.034  1.00  0.00    -0.094 C  
HETATM   23  C   UNL     1      -8.070   6.778  70.414  1.00  0.00    -0.116 C  
HETATM   24  N   UNL     1      -9.438   6.244  70.309  1.00  0.00    -0.160 NA 
HETATM   25  C   UNL     1     -10.356   6.982  69.422  1.00  0.00    -0.207 C  
HETATM   26  C   UNL     1      -9.676   7.493  68.124  1.00  0.00    -0.154 C  
BRANCH  24  27
HETATM   27  C   UNL     1      -9.614   4.900  70.514  1.00  0.00    -0.184 A  
HETATM   28  N   UNL     1      -9.351   3.989  69.580  1.00  0.00    -0.156 NA 
HETATM   29  S   UNL     1      -9.531   2.480  70.210  1.00  0.00    -0.043 SA 
HETATM   30  C   UNL     1      -9.949   2.977  71.796  1.00  0.00    -0.122 A  
HETATM   31  C   UNL     1     -10.207   2.194  72.934  1.00  0.00    -0.218 A  
HETATM   32  C   UNL     1     -10.518   2.842  74.131  1.00  0.00    -0.233 A  
HETATM   33  C   UNL     1     -10.572   4.229  74.191  1.00  0.00    -0.323 A  
HETATM   34  C   UNL     1     -10.302   4.999  73.054  1.00  0.00    -0.233 A  
HETATM   35  C   UNL     1      -9.989   4.373  71.818  1.00  0.00    -0.257 A  
ENDBRANCH  24  27
ENDBRANCH  20  21
ENDBRANCH  19  20
ENDBRANCH  13  14
ENDBRANCH  10  13
TORSDOF 5
ENDMDL
MODEL      166
REMARK 921   NORMALIZED FREE ENERGY PREDICTED BY IDOCK:   -4.29 KCAL/MOL
REMARK 922        TOTAL FREE ENERGY PREDICTED BY IDOCK:   -7.27 KCAL/MOL
REMARK 923 INTER-LIGAND FREE ENERGY PREDICTED BY IDOCK:   -6.49 KCAL/MOL
REMARK 924 INTRA-LIGAND FREE ENERGY PREDICTED BY IDOCK:   -0.78 KCAL/MOL
REMARK 927      BINDING AFFINITY PREDICTED BY RF-SCORE:    0.00 PKD
ROOT
HETATM    1  C   UNL     1      -9.391  14.583  67.808  1.00  0.00    -0.198 C  
HETATM    2  C   UNL     1      -9.614  15.566  68.971  1.00  0.00    -0.238 C  
HETATM    3  C   UNL     1     -10.383  16.784  68.420  1.00  0.00    -0.319 C  
HETATM    4  C   UNL     1     -11.790  16.213  68.148  1.00  0.00     0.149 C  
HETATM    5  C   UNL     1     -11.659  14.742  68.592  1.00  0.00    -0.345 C  
HETATM    6  C   UNL     1     -10.716  14.891  69.790  1.00  0.00    -0.223 C  
HETATM    7  C   UNL     1     -10.792  14.022  67.547  1.00  0.00    -0.277 C  
HETATM    8  C   UNL     1     -10.659  12.546  67.796  1.00  0.00    -0.219 C  
HETATM    9  O   UNL     1     -11.590  11.757  67.781  1.00  0.00    -0.369 OA 
HETATM   10  N   UNL     1      -9.352  12.261  68.071  1.00  0.00    -0.190 N  
HETATM   11  O   UNL     1      -7.422  13.430  68.600  1.00  0.00    -0.114 OA 
HETATM   12  C   UNL     1      -8.576  13.381  68.200  1.00  0.00    -0.174 C  
ENDROOT
BRANCH  10  13
HETATM   13  C   UNL     1      -8.874  10.925  68.393  1.00  0.00    -0.147 C  
BRANCH  13  14
HETATM   14  C   UNL     1      -8.532  10.108  67.127  1.00  0.00    -0.125 C  
HETATM   15  C   UNL     1      -7.884  11.024  66.070  1.00  0.00    -0.077 C  
HETATM   16  C   UNL     1      -7.459  10.246  64.832  1.00  0.00    -0.114 C  
HETATM   17  C   UNL     1      -8.621   9.458  64.243  1.00  0.00    -0.216 C  
HETATM   18  C   UNL     1      -9.273   8.551  65.284  1.00  0.00     0.036 C  
HETATM   19  C   UNL     1      -9.752   9.354  66.510  1.00  0.00    -0.299 C  
BRANCH  19  20
HETATM   20  C   UNL     1     -10.437   8.441  67.555  1.00  0.00    -0.257 C  
BRANCH  20  21
HETATM   21  N   UNL     1      -9.864   7.096  67.756  1.00  0.00    -0.140 NA 
HETATM   22  C   UNL     1      -8.773   7.160  68.768  1.00  0.00    -0.124 C  
HETATM   23  C   UNL     1      -9.254   7.558  70.180  1.00  0.00    -0.154 C  
HETATM   24  N   UNL     1     -10.319   6.665  70.667  1.00  0.00    -0.200 NA 
HETATM   25  C   UNL     1     -11.378   6.330  69.697  1.00  0.00    -0.422 C  
HETATM   26  C   UNL     1     -10.842   6.101  68.259  1.00  0.00    -0.306 C  
BRANCH  24  27
HETATM   27  C   UNL     1     -10.003   5.786  71.669  1.00  0.00    -0.174 A  
HETATM   28  N   UNL     1     -10.212   6.055  72.956  1.00  0.00    -0.186 NA 
HETATM   29  S   UNL     1      -9.858   4.730  73.865  1.00  0.00    -0.162 SA 
HETATM   30  C   UNL     1      -9.429   3.705  72.560  1.00  0.00    -0.124 A  
HETATM   31  C   UNL     1      -9.051   2.352  72.581  1.00  0.00    -0.106 A  
HETATM   32  C   UNL     1      -8.757   1.725  71.368  1.00  0.00    -0.097 A  
HETATM   33  C   UNL     1      -8.839   2.425  70.172  1.00  0.00    -0.142 A  
HETATM   34  C   UNL     1      -9.228   3.770  70.163  1.00  0.00    -0.218 A  
HETATM   35  C   UNL     1      -9.527   4.441  71.377  1.00  0.00    -0.220 A  
ENDBRANCH  24  27
ENDBRANCH  20  21
ENDBRANCH  19  20
ENDBRANCH  13  14
ENDBRANCH  10  13
TORSDOF 5
ENDMDL
MODEL      167
REMARK 921   NORMALIZED FREE ENERGY PREDICTED BY IDOCK:   -4.26 KCAL/MOL
REMARK 922        TOTAL FREE ENERGY PREDICTED BY IDOCK:   -7.22 KCAL/MOL
REMARK 923 INTER-LIGAND FREE ENERGY PREDICTED BY IDOCK:   -6.04 KCAL/MOL
REMARK 924 INTRA-LIGAND FREE ENERGY PREDICTED BY IDOCK:   -1.19 KCAL/MOL
REMARK 927      BINDING AFFINITY PREDICTED BY RF-SCORE:    0.00 PKD
ROOT
HETATM    1  C   UNL     1      -8.337  16.033  67.424  1.00  0.00    -0.188 C  
HETATM    2  C   UNL     1      -8.809  16.662  68.747  1.00  0.00    -0.264 C  
HETATM    3  C   UNL     1      -9.849  17.749  68.411  1.00  0.00    -0.347 C  
HETATM    4  C   UNL     1     -11.068  16.931  67.939  1.00  0.00    -0.153 C  
HETATM    5  C   UNL     1     -10.583  15.474  68.079  1.00  0.00    -0.270 C  
HETATM    6  C   UNL     1      -9.719  15.584  69.339  1.00  0.00    -0.283 C  
HETATM    7  C   UNL     1      -9.553  15.223  66.965  1.00  0.00    -0.233 C  
HETATM    8  C   UNL     1      -9.062  13.804  66.914  1.00  0.00    -0.242 C  
HETATM    9  O   UNL     1      -9.770  12.837  66.679  1.00  0.00    -0.238 OA 
HETATM   10  N   UNL     1      -7.729  13.787  67.207  1.00  0.00    -0.129 N  
HETATM   11  O   UNL     1      -6.153  15.242  68.086  1.00  0.00    -0.111 OA 
HETATM   12  C   UNL     1      -7.255  15.006  67.612  1.00  0.00    -0.186 C  
ENDROOT
BRANCH  10  13
HETATM   13  C   UNL     1      -6.939  12.567  67.277  1.00  0.00    -0.112 C  
BRANCH  13  14
HETATM   14  C   UNL     1      -6.933  11.959  68.698  1.00  0.00    -0.095 C  
HETATM   15  C   UNL     1      -5.590  12.261  69.392  1.00  0.00    -0.078 C  
HETATM   16  C   UNL     1      -5.566  11.747  70.825  1.00  0.00    -0.115 C  
HETATM   17  C   UNL     1      -5.901  10.263  70.890  1.00  0.00    -0.074 C  
HETATM   18  C   UNL     1      -7.227   9.952  70.200  1.00  0.00    -0.159 C  
HETATM   19  C   UNL     1      -7.224  10.425  68.732  1.00  0.00    -0.085 C  
BRANCH  19  20
HETATM   20  C   UNL     1      -8.557  10.088  68.023  1.00  0.00    -0.121 C  
BRANCH  20  21
HETATM   21  N   UNL     1      -8.474   9.387  66.728  1.00  0.00    -0.126 NA 
HETATM   22  C   UNL     1      -7.522   8.246  66.832  1.00  0.00    -0.088 C  
HETATM   23  C   UNL     1      -7.978   7.140  67.808  1.00  0.00    -0.114 C  
HETATM   24  N   UNL     1      -9.317   6.629  67.469  1.00  0.00    -0.123 NA 
HETATM   25  C   UNL     1     -10.331   7.644  67.126  1.00  0.00    -0.315 C  
HETATM   26  C   UNL     1      -9.765   8.813  66.278  1.00  0.00    -0.272 C  
BRANCH  24  27
HETATM   27  C   UNL     1      -9.401   5.369  66.938  1.00  0.00    -0.127 A  
HETATM   28  N   UNL     1      -9.426   5.140  65.626  1.00  0.00    -0.146 NA 
HETATM   29  S   UNL     1      -9.381   3.519  65.345  1.00  0.00    -0.151 SA 
HETATM   30  C   UNL     1      -9.294   3.036  66.987  1.00  0.00    -0.128 A  
HETATM   31  C   UNL     1      -9.175   1.745  67.528  1.00  0.00    -0.157 A  
HETATM   32  C   UNL     1      -9.111   1.609  68.916  1.00  0.00    -0.173 A  
HETATM   33  C   UNL     1      -9.163   2.726  69.740  1.00  0.00    -0.206 A  
HETATM   34  C   UNL     1      -9.270   4.008  69.189  1.00  0.00    -0.217 A  
HETATM   35  C   UNL     1      -9.346   4.184  67.782  1.00  0.00    -0.211 A  
ENDBRANCH  24  27
ENDBRANCH  20  21
ENDBRANCH  19  20
ENDBRANCH  13  14
ENDBRANCH  10  13
TORSDOF 5
ENDMDL
MODEL      168
REMARK 921   NORMALIZED FREE ENERGY PREDICTED BY IDOCK:   -4.25 KCAL/MOL
REMARK 922        TOTAL FREE ENERGY PREDICTED BY IDOCK:   -7.22 KCAL/MOL
REMARK 923 INTER-LIGAND FREE ENERGY PREDICTED BY IDOCK:   -6.29 KCAL/MOL
REMARK 924 INTRA-LIGAND FREE ENERGY PREDICTED BY IDOCK:   -0.93 KCAL/MOL
REMARK 927      BINDING AFFINITY PREDICTED BY RF-SCORE:    0.00 PKD
ROOT
HETATM    1  C   UNL     1      -8.004   5.818  65.813  1.00  0.00    -0.110 C  
HETATM    2  C   UNL     1      -7.889   5.041  64.489  1.00  0.00    -0.093 C  
HETATM    3  C   UNL     1      -6.555   5.433  63.824  1.00  0.00    -0.033 C  
HETATM    4  C   UNL     1      -5.503   4.764  64.732  1.00  0.00    -0.013 C  
HETATM    5  C   UNL     1      -6.366   4.058  65.798  1.00  0.00    -0.032 C  
HETATM    6  C   UNL     1      -7.562   3.619  64.949  1.00  0.00    -0.077 C  
HETATM    7  C   UNL     1      -6.958   5.147  66.707  1.00  0.00    -0.064 C  
HETATM    8  C   UNL     1      -7.747   4.598  67.862  1.00  0.00    -0.082 C  
HETATM    9  O   UNL     1      -7.277   3.906  68.752  1.00  0.00    -0.053 OA 
HETATM   10  N   UNL     1      -9.052   4.971  67.722  1.00  0.00    -0.111 N  
HETATM   11  O   UNL     1     -10.405   5.871  66.068  1.00  0.00     0.022 OA 
HETATM   12  C   UNL     1      -9.307   5.583  66.524  1.00  0.00    -0.147 C  
ENDROOT
BRANCH  10  13
HETATM   13  C   UNL     1     -10.101   4.581  68.651  1.00  0.00     0.046 C  
BRANCH  13  14
HETATM   14  C   UNL     1      -9.930   5.245  70.036  1.00  0.00    -0.315 C  
HETATM   15  C   UNL     1      -9.936   4.167  71.138  1.00  0.00    -0.211 C  
HETATM   16  C   UNL     1      -9.693   4.768  72.516  1.00  0.00    -0.191 C  
HETATM   17  C   UNL     1     -10.687   5.879  72.823  1.00  0.00    -0.274 C  
HETATM   18  C   UNL     1     -10.693   6.949  71.734  1.00  0.00    -0.247 C  
HETATM   19  C   UNL     1     -10.996   6.341  70.349  1.00  0.00    -0.385 C  
BRANCH  19  20
HETATM   20  C   UNL     1     -11.029   7.427  69.247  1.00  0.00    -0.070 C  
BRANCH  20  21
HETATM   21  N   UNL     1     -10.110   8.571  69.398  1.00  0.00    -0.199 NA 
HETATM   22  C   UNL     1      -9.642   9.022  68.058  1.00  0.00    -0.148 C  
HETATM   23  C   UNL     1     -10.766   9.583  67.161  1.00  0.00    -0.182 C  
HETATM   24  N   UNL     1     -11.494  10.681  67.817  1.00  0.00    -0.484 NA 
HETATM   25  C   UNL     1     -11.846  10.470  69.234  1.00  0.00    -0.170 C  
HETATM   26  C   UNL     1     -10.732   9.753  70.042  1.00  0.00    -0.283 C  
BRANCH  24  27
HETATM   27  C   UNL     1     -11.294  11.951  67.342  1.00  0.00    -0.324 A  
HETATM   28  N   UNL     1     -12.258  12.665  66.766  1.00  0.00    -0.476 NA 
HETATM   29  S   UNL     1     -11.711  14.185  66.453  1.00  0.00    -0.406 SA 
HETATM   30  C   UNL     1     -10.143  13.970  67.108  1.00  0.00    -0.259 A  
HETATM   31  C   UNL     1      -9.098  14.900  67.236  1.00  0.00    -0.211 A  
HETATM   32  C   UNL     1      -7.902  14.481  67.823  1.00  0.00    -0.171 A  
HETATM   33  C   UNL     1      -7.753  13.174  68.269  1.00  0.00    -0.141 A  
HETATM   34  C   UNL     1      -8.805  12.259  68.146  1.00  0.00    -0.187 A  
HETATM   35  C   UNL     1     -10.032  12.648  67.548  1.00  0.00    -0.205 A  
ENDBRANCH  24  27
ENDBRANCH  20  21
ENDBRANCH  19  20
ENDBRANCH  13  14
ENDBRANCH  10  13
TORSDOF 5
ENDMDL
MODEL      169
REMARK 921   NORMALIZED FREE ENERGY PREDICTED BY IDOCK:   -4.24 KCAL/MOL
REMARK 922        TOTAL FREE ENERGY PREDICTED BY IDOCK:   -7.20 KCAL/MOL
REMARK 923 INTER-LIGAND FREE ENERGY PREDICTED BY IDOCK:   -6.84 KCAL/MOL
REMARK 924 INTRA-LIGAND FREE ENERGY PREDICTED BY IDOCK:   -0.36 KCAL/MOL
REMARK 927      BINDING AFFINITY PREDICTED BY RF-SCORE:    0.00 PKD
ROOT
HETATM    1  C   UNL     1      -9.444  17.918  68.396  1.00  0.00    -0.304 C  
HETATM    2  C   UNL     1     -10.616  18.600  67.667  1.00  0.00    -0.458 C  
HETATM    3  C   UNL     1     -10.530  20.113  67.947  1.00  0.00    -0.395 C  
HETATM    4  C   UNL     1      -9.292  20.548  67.136  1.00  0.00    -0.513 C  
HETATM    5  C   UNL     1      -8.830  19.232  66.478  1.00  0.00    -0.367 C  
HETATM    6  C   UNL     1     -10.181  18.565  66.201  1.00  0.00    -0.424 C  
HETATM    7  C   UNL     1      -8.222  18.354  67.583  1.00  0.00    -0.262 C  
HETATM    8  C   UNL     1      -7.633  17.070  67.070  1.00  0.00    -0.189 C  
HETATM    9  O   UNL     1      -6.691  17.004  66.296  1.00  0.00    -0.222 OA 
HETATM   10  N   UNL     1      -8.345  16.023  67.581  1.00  0.00    -0.149 N  
HETATM   11  O   UNL     1     -10.358  15.701  68.684  1.00  0.00    -0.208 OA 
HETATM   12  C   UNL     1      -9.461  16.420  68.266  1.00  0.00    -0.217 C  
ENDROOT
BRANCH  10  13
HETATM   13  C   UNL     1      -8.064  14.632  67.262  1.00  0.00    -0.206 C  
BRANCH  13  14
HETATM   14  C   UNL     1      -7.637  13.823  68.507  1.00  0.00    -0.134 C  
HETATM   15  C   UNL     1      -6.615  14.631  69.332  1.00  0.00    -0.138 C  
HETATM   16  C   UNL     1      -6.222  13.905  70.612  1.00  0.00    -0.065 C  
HETATM   17  C   UNL     1      -5.711  12.501  70.321  1.00  0.00    -0.165 C  
HETATM   18  C   UNL     1      -6.714  11.694  69.500  1.00  0.00    -0.089 C  
HETATM   19  C   UNL     1      -7.064  12.408  68.179  1.00  0.00    -0.097 C  
BRANCH  19  20
HETATM   20  C   UNL     1      -8.059  11.580  67.332  1.00  0.00    -0.146 C  
BRANCH  20  21
HETATM   21  N   UNL     1      -8.434  10.247  67.841  1.00  0.00    -0.117 NA 
HETATM   22  C   UNL     1      -9.569   9.703  67.043  1.00  0.00    -0.173 C  
HETATM   23  C   UNL     1      -9.219   9.435  65.564  1.00  0.00    -0.232 C  
HETATM   24  N   UNL     1      -8.056   8.541  65.430  1.00  0.00    -0.119 NA 
HETATM   25  C   UNL     1      -6.915   8.824  66.321  1.00  0.00    -0.081 C  
HETATM   26  C   UNL     1      -7.344   9.247  67.751  1.00  0.00    -0.084 C  
BRANCH  24  27
HETATM   27  C   UNL     1      -8.283   7.263  64.991  1.00  0.00    -0.098 A  
HETATM   28  N   UNL     1      -7.989   6.862  63.756  1.00  0.00    -0.101 NA 
HETATM   29  S   UNL     1      -8.253   5.244  63.621  1.00  0.00    -0.116 SA 
HETATM   30  C   UNL     1      -8.754   4.989  65.239  1.00  0.00    -0.149 A  
HETATM   31  C   UNL     1      -9.105   3.790  65.882  1.00  0.00    -0.150 A  
HETATM   32  C   UNL     1      -9.472   3.840  67.228  1.00  0.00    -0.238 A  
HETATM   33  C   UNL     1      -9.489   5.048  67.913  1.00  0.00    -0.164 A  
HETATM   34  C   UNL     1      -9.126   6.235  67.264  1.00  0.00    -0.116 A  
HETATM   35  C   UNL     1      -8.755   6.222  65.894  1.00  0.00    -0.154 A  
ENDBRANCH  24  27
ENDBRANCH  20  21
ENDBRANCH  19  20
ENDBRANCH  13  14
ENDBRANCH  10  13
TORSDOF 5
ENDMDL
MODEL      170
REMARK 921   NORMALIZED FREE ENERGY PREDICTED BY IDOCK:   -4.20 KCAL/MOL
REMARK 922        TOTAL FREE ENERGY PREDICTED BY IDOCK:   -7.15 KCAL/MOL
REMARK 923 INTER-LIGAND FREE ENERGY PREDICTED BY IDOCK:   -6.82 KCAL/MOL
REMARK 924 INTRA-LIGAND FREE ENERGY PREDICTED BY IDOCK:   -0.32 KCAL/MOL
REMARK 927      BINDING AFFINITY PREDICTED BY RF-SCORE:    0.00 PKD
ROOT
HETATM    1  C   UNL     1     -11.640  13.612  70.544  1.00  0.00    -0.043 C  
HETATM    2  C   UNL     1     -13.070  14.169  70.429  1.00  0.00    -0.033 C  
HETATM    3  C   UNL     1     -13.454  14.775  71.793  1.00  0.00    -0.470 C  
HETATM    4  C   UNL     1     -12.574  16.040  71.871  1.00  0.00    -0.433 C  
HETATM    5  C   UNL     1     -11.807  16.011  70.534  1.00  0.00    -0.314 C  
HETATM    6  C   UNL     1     -12.882  15.443  69.603  1.00  0.00     0.184 C  
HETATM    7  C   UNL     1     -10.776  14.874  70.620  1.00  0.00     0.031 C  
HETATM    8  C   UNL     1      -9.879  14.789  69.417  1.00  0.00    -0.062 C  
HETATM    9  O   UNL     1      -9.101  15.665  69.073  1.00  0.00    -0.204 OA 
HETATM   10  N   UNL     1     -10.111  13.605  68.777  1.00  0.00    -0.176 N  
HETATM   11  O   UNL     1     -11.703  11.921  68.820  1.00  0.00    -0.279 OA 
HETATM   12  C   UNL     1     -11.175  12.917  69.294  1.00  0.00    -0.190 C  
ENDROOT
BRANCH  10  13
HETATM   13  C   UNL     1      -9.433  13.212  67.550  1.00  0.00    -0.212 C  
BRANCH  13  14
HETATM   14  C   UNL     1     -10.354  13.324  66.315  1.00  0.00    -0.290 C  
HETATM   15  C   UNL     1     -11.552  14.241  66.635  1.00  0.00    -0.397 C  
HETATM   16  C   UNL     1     -12.448  14.444  65.421  1.00  0.00    -0.357 C  
HETATM   17  C   UNL     1     -12.909  13.114  64.840  1.00  0.00    -0.349 C  
HETATM   18  C   UNL     1     -11.730  12.196  64.525  1.00  0.00    -0.410 C  
HETATM   19  C   UNL     1     -10.859  11.949  65.773  1.00  0.00    -0.341 C  
BRANCH  19  20
HETATM   20  C   UNL     1      -9.678  10.998  65.463  1.00  0.00    -0.229 C  
BRANCH  20  21
HETATM   21  N   UNL     1      -9.952   9.549  65.495  1.00  0.00    -0.250 NA 
HETATM   22  C   UNL     1      -8.671   8.796  65.603  1.00  0.00    -0.184 C  
HETATM   23  C   UNL     1      -7.911   9.045  66.923  1.00  0.00    -0.105 C  
HETATM   24  N   UNL     1      -8.747   8.754  68.099  1.00  0.00    -0.134 NA 
HETATM   25  C   UNL     1     -10.133   9.257  68.050  1.00  0.00    -0.193 C  
HETATM   26  C   UNL     1     -10.783   9.125  66.647  1.00  0.00     0.021 C  
BRANCH  24  27
HETATM   27  C   UNL     1      -8.450   7.634  68.830  1.00  0.00    -0.129 A  
HETATM   28  N   UNL     1      -7.841   6.572  68.307  1.00  0.00    -0.105 NA 
HETATM   29  S   UNL     1      -7.510   5.482  69.493  1.00  0.00    -0.071 SA 
HETATM   30  C   UNL     1      -8.148   6.401  70.791  1.00  0.00    -0.120 A  
HETATM   31  C   UNL     1      -8.167   6.105  72.164  1.00  0.00    -0.110 A  
HETATM   32  C   UNL     1      -8.741   7.032  73.036  1.00  0.00    -0.142 A  
HETATM   33  C   UNL     1      -9.280   8.218  72.554  1.00  0.00    -0.339 A  
HETATM   34  C   UNL     1      -9.245   8.506  71.184  1.00  0.00    -0.248 A  
HETATM   35  C   UNL     1      -8.676   7.584  70.268  1.00  0.00    -0.145 A  
ENDBRANCH  24  27
ENDBRANCH  20  21
ENDBRANCH  19  20
ENDBRANCH  13  14
ENDBRANCH  10  13
TORSDOF 5
ENDMDL
MODEL      171
REMARK 921   NORMALIZED FREE ENERGY PREDICTED BY IDOCK:   -4.19 KCAL/MOL
REMARK 922        TOTAL FREE ENERGY PREDICTED BY IDOCK:   -7.13 KCAL/MOL
REMARK 923 INTER-LIGAND FREE ENERGY PREDICTED BY IDOCK:   -5.80 KCAL/MOL
REMARK 924 INTRA-LIGAND FREE ENERGY PREDICTED BY IDOCK:   -1.34 KCAL/MOL
REMARK 927      BINDING AFFINITY PREDICTED BY RF-SCORE:    0.00 PKD
ROOT
HETATM    1  C   UNL     1      -8.204   6.825  64.599  1.00  0.00    -0.032 C  
HETATM    2  C   UNL     1      -7.155   5.714  64.774  1.00  0.00    -0.060 C  
HETATM    3  C   UNL     1      -6.988   5.002  63.417  1.00  0.00    -0.046 C  
HETATM    4  C   UNL     1      -6.263   6.056  62.556  1.00  0.00    -0.026 C  
HETATM    5  C   UNL     1      -6.088   7.238  63.532  1.00  0.00    -0.045 C  
HETATM    6  C   UNL     1      -5.837   6.487  64.843  1.00  0.00    -0.030 C  
HETATM    7  C   UNL     1      -7.475   7.867  63.745  1.00  0.00    -0.114 C  
HETATM    8  C   UNL     1      -7.445   9.102  64.602  1.00  0.00    -0.104 C  
HETATM    9  O   UNL     1      -6.861  10.133  64.307  1.00  0.00    -0.128 OA 
HETATM   10  N   UNL     1      -8.138   8.857  65.753  1.00  0.00    -0.104 N  
HETATM   11  O   UNL     1      -9.001   7.019  66.871  1.00  0.00    -0.119 OA 
HETATM   12  C   UNL     1      -8.517   7.548  65.880  1.00  0.00    -0.147 C  
ENDROOT
BRANCH  10  13
HETATM   13  C   UNL     1      -8.281   9.831  66.824  1.00  0.00    -0.120 C  
BRANCH  13  14
HETATM   14  C   UNL     1      -9.710  10.415  66.893  1.00  0.00    -0.223 C  
HETATM   15  C   UNL     1      -9.929  11.404  65.731  1.00  0.00    -0.271 C  
HETATM   16  C   UNL     1     -11.350  11.949  65.712  1.00  0.00    -0.354 C  
HETATM   17  C   UNL     1     -11.725  12.574  67.049  1.00  0.00    -0.437 C  
HETATM   18  C   UNL     1     -11.506  11.604  68.208  1.00  0.00    -0.369 C  
HETATM   19  C   UNL     1     -10.049  11.101  68.254  1.00  0.00    -0.196 C  
BRANCH  19  20
HETATM   20  C   UNL     1      -9.818  10.138  69.443  1.00  0.00    -0.229 C  
BRANCH  20  21
HETATM   21  N   UNL     1     -10.991   9.404  69.955  1.00  0.00    -0.236 NA 
HETATM   22  C   UNL     1     -10.882   7.963  69.590  1.00  0.00    -0.176 C  
HETATM   23  C   UNL     1      -9.691   7.240  70.252  1.00  0.00    -0.175 C  
HETATM   24  N   UNL     1      -9.718   7.370  71.719  1.00  0.00    -0.153 NA 
HETATM   25  C   UNL     1     -10.030   8.712  72.245  1.00  0.00    -0.291 C  
HETATM   26  C   UNL     1     -11.125   9.450  71.431  1.00  0.00    -0.380 C  
BRANCH  24  27
HETATM   27  C   UNL     1     -10.035   6.256  72.450  1.00  0.00    -0.172 A  
HETATM   28  N   UNL     1     -11.282   5.803  72.571  1.00  0.00    -0.283 NA 
HETATM   29  S   UNL     1     -11.277   4.376  73.389  1.00  0.00    -0.247 SA 
HETATM   30  C   UNL     1      -9.580   4.275  73.602  1.00  0.00    -0.112 A  
HETATM   31  C   UNL     1      -8.818   3.256  74.197  1.00  0.00    -0.085 A  
HETATM   32  C   UNL     1      -7.430   3.402  74.240  1.00  0.00    -0.053 A  
HETATM   33  C   UNL     1      -6.820   4.529  73.705  1.00  0.00    -0.065 A  
HETATM   34  C   UNL     1      -7.589   5.533  73.104  1.00  0.00    -0.097 A  
HETATM   35  C   UNL     1      -9.003   5.421  73.049  1.00  0.00    -0.119 A  
ENDBRANCH  24  27
ENDBRANCH  20  21
ENDBRANCH  19  20
ENDBRANCH  13  14
ENDBRANCH  10  13
TORSDOF 5
ENDMDL
MODEL      172
REMARK 921   NORMALIZED FREE ENERGY PREDICTED BY IDOCK:   -4.19 KCAL/MOL
REMARK 922        TOTAL FREE ENERGY PREDICTED BY IDOCK:   -7.13 KCAL/MOL
REMARK 923 INTER-LIGAND FREE ENERGY PREDICTED BY IDOCK:   -6.84 KCAL/MOL
REMARK 924 INTRA-LIGAND FREE ENERGY PREDICTED BY IDOCK:   -0.30 KCAL/MOL
REMARK 927      BINDING AFFINITY PREDICTED BY RF-SCORE:    0.00 PKD
ROOT
HETATM    1  C   UNL     1      -9.371  17.140  68.101  1.00  0.00    -0.264 C  
HETATM    2  C   UNL     1      -8.787  17.841  66.862  1.00  0.00    -0.260 C  
HETATM    3  C   UNL     1      -7.792  18.912  67.348  1.00  0.00    -0.255 C  
HETATM    4  C   UNL     1      -6.613  18.075  67.884  1.00  0.00    -0.193 C  
HETATM    5  C   UNL     1      -7.071  16.626  67.623  1.00  0.00    -0.157 C  
HETATM    6  C   UNL     1      -7.819  16.799  66.298  1.00  0.00    -0.334 C  
HETATM    7  C   UNL     1      -8.194  16.311  68.625  1.00  0.00    -0.214 C  
HETATM    8  C   UNL     1      -8.675  14.889  68.556  1.00  0.00    -0.172 C  
HETATM    9  O   UNL     1      -7.982  13.914  68.803  1.00  0.00    -0.129 OA 
HETATM   10  N   UNL     1      -9.976  14.883  68.144  1.00  0.00    -0.219 N  
HETATM   11  O   UNL     1     -11.479  16.377  67.205  1.00  0.00     0.170 OA 
HETATM   12  C   UNL     1     -10.422  16.120  67.763  1.00  0.00    -0.295 C  
ENDROOT
BRANCH  10  13
HETATM   13  C   UNL     1     -10.745  13.665  67.938  1.00  0.00    -0.247 C  
BRANCH  13  14
HETATM   14  C   UNL     1     -10.399  12.977  66.598  1.00  0.00    -0.263 C  
HETATM   15  C   UNL     1     -11.043  13.750  65.430  1.00  0.00    -0.304 C  
HETATM   16  C   UNL     1     -10.666  13.152  64.081  1.00  0.00    -0.399 C  
HETATM   17  C   UNL     1     -11.001  11.668  64.016  1.00  0.00    -0.456 C  
HETATM   18  C   UNL     1     -10.372  10.895  65.172  1.00  0.00    -0.344 C  
HETATM   19  C   UNL     1     -10.804  11.471  66.536  1.00  0.00    -0.335 C  
BRANCH  19  20
HETATM   20  C   UNL     1     -10.189  10.673  67.710  1.00  0.00    -0.180 C  
BRANCH  20  21
HETATM   21  N   UNL     1      -9.341   9.515  67.369  1.00  0.00    -0.130 NA 
HETATM   22  C   UNL     1      -8.552   9.098  68.563  1.00  0.00    -0.129 C  
HETATM   23  C   UNL     1      -9.417   8.576  69.730  1.00  0.00    -0.166 C  
HETATM   24  N   UNL     1     -10.289   7.467  69.312  1.00  0.00    -0.200 NA 
HETATM   25  C   UNL     1     -10.985   7.640  68.023  1.00  0.00     0.107 C  
HETATM   26  C   UNL     1     -10.108   8.321  66.939  1.00  0.00    -0.296 C  
BRANCH  24  27
HETATM   27  C   UNL     1      -9.980   6.210  69.761  1.00  0.00    -0.170 A  
HETATM   28  N   UNL     1     -10.447   5.719  70.907  1.00  0.00    -0.239 NA 
HETATM   29  S   UNL     1      -9.999   4.143  71.059  1.00  0.00    -0.069 SA 
HETATM   30  C   UNL     1      -9.170   4.028  69.564  1.00  0.00    -0.151 A  
HETATM   31  C   UNL     1      -8.546   2.914  68.977  1.00  0.00    -0.115 A  
HETATM   32  C   UNL     1      -7.941   3.072  67.729  1.00  0.00    -0.074 A  
HETATM   33  C   UNL     1      -7.957   4.302  67.085  1.00  0.00    -0.097 A  
HETATM   34  C   UNL     1      -8.592   5.402  67.674  1.00  0.00    -0.104 A  
HETATM   35  C   UNL     1      -9.211   5.280  68.946  1.00  0.00    -0.150 A  
ENDBRANCH  24  27
ENDBRANCH  20  21
ENDBRANCH  19  20
ENDBRANCH  13  14
ENDBRANCH  10  13
TORSDOF 5
ENDMDL
MODEL      173
REMARK 921   NORMALIZED FREE ENERGY PREDICTED BY IDOCK:   -4.18 KCAL/MOL
REMARK 922        TOTAL FREE ENERGY PREDICTED BY IDOCK:   -7.12 KCAL/MOL
REMARK 923 INTER-LIGAND FREE ENERGY PREDICTED BY IDOCK:   -6.23 KCAL/MOL
REMARK 924 INTRA-LIGAND FREE ENERGY PREDICTED BY IDOCK:   -0.89 KCAL/MOL
REMARK 927      BINDING AFFINITY PREDICTED BY RF-SCORE:    0.00 PKD
ROOT
HETATM    1  C   UNL     1      -9.540  15.230  66.978  1.00  0.00    -0.233 C  
HETATM    2  C   UNL     1      -9.360  15.971  68.315  1.00  0.00    -0.199 C  
HETATM    3  C   UNL     1      -9.830  17.425  68.117  1.00  0.00    -0.301 C  
HETATM    4  C   UNL     1     -11.360  17.281  67.983  1.00  0.00     0.276 C  
HETATM    5  C   UNL     1     -11.579  15.762  68.137  1.00  0.00    -0.259 C  
HETATM    6  C   UNL     1     -10.503  15.424  69.172  1.00  0.00    -0.239 C  
HETATM    7  C   UNL     1     -11.060  15.090  66.855  1.00  0.00    -0.331 C  
HETATM    8  C   UNL     1     -11.301  13.608  66.818  1.00  0.00    -0.328 C  
HETATM    9  O   UNL     1     -12.405  13.087  66.818  1.00  0.00    -0.367 OA 
HETATM   10  N   UNL     1     -10.096  12.965  66.822  1.00  0.00    -0.234 N  
HETATM   11  O   UNL     1      -7.876  13.497  67.226  1.00  0.00    -0.156 OA 
HETATM   12  C   UNL     1      -9.039  13.813  67.017  1.00  0.00    -0.246 C  
ENDROOT
BRANCH  10  13
HETATM   13  C   UNL     1      -9.961  11.516  66.825  1.00  0.00    -0.208 C  
BRANCH  13  14
HETATM   14  C   UNL     1      -9.266  10.994  65.547  1.00  0.00    -0.235 C  
HETATM   15  C   UNL     1      -9.691  11.845  64.334  1.00  0.00    -0.134 C  
HETATM   16  C   UNL     1      -8.971  11.415  63.063  1.00  0.00    -0.150 C  
HETATM   17  C   UNL     1      -9.161   9.929  62.790  1.00  0.00    -0.292 C  
HETATM   18  C   UNL     1      -8.749   9.078  63.988  1.00  0.00    -0.115 C  
HETATM   19  C   UNL     1      -9.523   9.481  65.260  1.00  0.00    -0.326 C  
BRANCH  19  20
HETATM   20  C   UNL     1      -9.126   8.602  66.469  1.00  0.00    -0.165 C  
BRANCH  20  21
HETATM   21  N   UNL     1      -9.765   7.277  66.580  1.00  0.00    -0.195 NA 
HETATM   22  C   UNL     1      -8.729   6.238  66.840  1.00  0.00    -0.113 C  
HETATM   23  C   UNL     1      -8.008   6.401  68.194  1.00  0.00    -0.109 C  
HETATM   24  N   UNL     1      -8.957   6.434  69.320  1.00  0.00    -0.133 NA 
HETATM   25  C   UNL     1     -10.161   7.264  69.128  1.00  0.00    -0.197 C  
HETATM   26  C   UNL     1     -10.742   7.178  67.691  1.00  0.00    -0.244 C  
BRANCH  24  27
HETATM   27  C   UNL     1      -9.000   5.343  70.148  1.00  0.00    -0.134 A  
HETATM   28  N   UNL     1      -9.670   4.234  69.843  1.00  0.00    -0.213 NA 
HETATM   29  S   UNL     1      -9.386   3.084  70.985  1.00  0.00    -0.153 SA 
HETATM   30  C   UNL     1      -8.314   4.016  71.943  1.00  0.00    -0.095 A  
HETATM   31  C   UNL     1      -7.610   3.649  73.102  1.00  0.00    -0.065 A  
HETATM   32  C   UNL     1      -6.777   4.595  73.702  1.00  0.00    -0.064 A  
HETATM   33  C   UNL     1      -6.651   5.870  73.164  1.00  0.00    -0.069 A  
HETATM   34  C   UNL     1      -7.350   6.220  72.003  1.00  0.00    -0.093 A  
HETATM   35  C   UNL     1      -8.210   5.286  71.370  1.00  0.00    -0.116 A  
ENDBRANCH  24  27
ENDBRANCH  20  21
ENDBRANCH  19  20
ENDBRANCH  13  14
ENDBRANCH  10  13
TORSDOF 5
ENDMDL
MODEL      174
REMARK 921   NORMALIZED FREE ENERGY PREDICTED BY IDOCK:   -4.17 KCAL/MOL
REMARK 922        TOTAL FREE ENERGY PREDICTED BY IDOCK:   -7.12 KCAL/MOL
REMARK 923 INTER-LIGAND FREE ENERGY PREDICTED BY IDOCK:   -6.12 KCAL/MOL
REMARK 924 INTRA-LIGAND FREE ENERGY PREDICTED BY IDOCK:   -1.00 KCAL/MOL
REMARK 927      BINDING AFFINITY PREDICTED BY RF-SCORE:    0.00 PKD
ROOT
HETATM    1  C   UNL     1     -10.792  10.816  67.338  1.00  0.00    -0.345 C  
HETATM    2  C   UNL     1     -10.555  10.966  65.825  1.00  0.00    -0.230 C  
HETATM    3  C   UNL     1     -11.024  12.375  65.410  1.00  0.00    -0.335 C  
HETATM    4  C   UNL     1      -9.959  13.296  66.039  1.00  0.00    -0.297 C  
HETATM    5  C   UNL     1      -9.002  12.300  66.724  1.00  0.00    -0.209 C  
HETATM    6  C   UNL     1      -9.038  11.139  65.726  1.00  0.00    -0.222 C  
HETATM    7  C   UNL     1      -9.731  11.732  67.953  1.00  0.00    -0.185 C  
HETATM    8  C   UNL     1      -8.877  10.815  68.783  1.00  0.00    -0.163 C  
HETATM    9  O   UNL     1      -7.858  11.157  69.363  1.00  0.00    -0.063 OA 
HETATM   10  N   UNL     1      -9.410   9.559  68.743  1.00  0.00    -0.145 N  
HETATM   11  O   UNL     1     -10.997   8.415  67.499  1.00  0.00    -0.099 OA 
HETATM   12  C   UNL     1     -10.447   9.447  67.856  1.00  0.00    -0.243 C  
ENDROOT
BRANCH  10  13
HETATM   13  C   UNL     1      -8.814   8.414  69.413  1.00  0.00    -0.142 C  
BRANCH  13  14
HETATM   14  C   UNL     1      -9.791   7.749  70.409  1.00  0.00    -0.183 C  
HETATM   15  C   UNL     1     -10.210   8.764  71.491  1.00  0.00    -0.371 C  
HETATM   16  C   UNL     1     -11.233   8.176  72.452  1.00  0.00    -0.452 C  
HETATM   17  C   UNL     1     -10.732   6.879  73.075  1.00  0.00    -0.328 C  
HETATM   18  C   UNL     1     -10.310   5.868  72.011  1.00  0.00    -0.250 C  
HETATM   19  C   UNL     1      -9.232   6.452  71.076  1.00  0.00    -0.157 C  
BRANCH  19  20
HETATM   20  C   UNL     1      -8.783   5.421  70.013  1.00  0.00    -0.122 C  
BRANCH  20  21
HETATM   21  N   UNL     1      -9.834   4.601  69.381  1.00  0.00    -0.206 NA 
HETATM   22  C   UNL     1     -10.337   5.285  68.156  1.00  0.00    -0.114 C  
HETATM   23  C   UNL     1      -9.279   5.429  67.043  1.00  0.00    -0.113 C  
HETATM   24  N   UNL     1      -8.695   4.129  66.670  1.00  0.00    -0.112 NA 
HETATM   25  C   UNL     1      -8.336   3.236  67.787  1.00  0.00    -0.085 C  
HETATM   26  C   UNL     1      -9.366   3.263  68.948  1.00  0.00    -0.164 C  
BRANCH  24  27
HETATM   27  C   UNL     1      -9.041   3.602  65.454  1.00  0.00    -0.147 A  
HETATM   28  N   UNL     1     -10.245   3.768  64.912  1.00  0.00    -0.155 NA 
HETATM   29  S   UNL     1     -10.264   3.133  63.395  1.00  0.00    -0.205 SA 
HETATM   30  C   UNL     1      -8.629   2.621  63.374  1.00  0.00    -0.086 A  
HETATM   31  C   UNL     1      -7.901   2.015  62.337  1.00  0.00    -0.050 A  
HETATM   32  C   UNL     1      -6.560   1.699  62.563  1.00  0.00    -0.010 A  
HETATM   33  C   UNL     1      -5.963   1.978  63.785  1.00  0.00    -0.009 A  
HETATM   34  C   UNL     1      -6.696   2.593  64.808  1.00  0.00    -0.039 A  
HETATM   35  C   UNL     1      -8.063   2.922  64.616  1.00  0.00    -0.086 A  
ENDBRANCH  24  27
ENDBRANCH  20  21
ENDBRANCH  19  20
ENDBRANCH  13  14
ENDBRANCH  10  13
TORSDOF 5
ENDMDL
MODEL      175
REMARK 921   NORMALIZED FREE ENERGY PREDICTED BY IDOCK:   -4.17 KCAL/MOL
REMARK 922        TOTAL FREE ENERGY PREDICTED BY IDOCK:   -7.11 KCAL/MOL
REMARK 923 INTER-LIGAND FREE ENERGY PREDICTED BY IDOCK:   -6.69 KCAL/MOL
REMARK 924 INTRA-LIGAND FREE ENERGY PREDICTED BY IDOCK:   -0.42 KCAL/MOL
REMARK 927      BINDING AFFINITY PREDICTED BY RF-SCORE:    0.00 PKD
ROOT
HETATM    1  C   UNL     1     -10.881   8.302  70.150  1.00  0.00    -0.237 C  
HETATM    2  C   UNL     1     -10.696   8.013  71.650  1.00  0.00    -0.284 C  
HETATM    3  C   UNL     1     -11.723   6.938  72.055  1.00  0.00    -0.336 C  
HETATM    4  C   UNL     1     -11.184   5.666  71.370  1.00  0.00    -0.167 C  
HETATM    5  C   UNL     1      -9.905   6.166  70.668  1.00  0.00    -0.214 C  
HETATM    6  C   UNL     1      -9.406   7.193  71.689  1.00  0.00    -0.158 C  
HETATM    7  C   UNL     1     -10.343   7.035  69.478  1.00  0.00    -0.225 C  
HETATM    8  C   UNL     1      -9.195   7.515  68.635  1.00  0.00    -0.144 C  
HETATM    9  O   UNL     1      -8.444   6.782  68.011  1.00  0.00    -0.119 OA 
HETATM   10  N   UNL     1      -9.125   8.876  68.718  1.00  0.00    -0.134 N  
HETATM   11  O   UNL     1     -10.020  10.556  70.041  1.00  0.00    -0.082 OA 
HETATM   12  C   UNL     1      -9.986   9.399  69.645  1.00  0.00    -0.197 C  
ENDROOT
BRANCH  10  13
HETATM   13  C   UNL     1      -8.105   9.668  68.048  1.00  0.00    -0.105 C  
BRANCH  13  14
HETATM   14  C   UNL     1      -6.814   9.788  68.889  1.00  0.00    -0.054 C  
HETATM   15  C   UNL     1      -6.690   8.578  69.835  1.00  0.00    -0.042 C  
HETATM   16  C   UNL     1      -5.392   8.614  70.631  1.00  0.00    -0.027 C  
HETATM   17  C   UNL     1      -5.239   9.926  71.388  1.00  0.00    -0.075 C  
HETATM   18  C   UNL     1      -5.367  11.132  70.460  1.00  0.00    -0.112 C  
HETATM   19  C   UNL     1      -6.708  11.118  69.700  1.00  0.00    -0.134 C  
BRANCH  19  20
HETATM   20  C   UNL     1      -6.852  12.353  68.779  1.00  0.00    -0.092 C  
BRANCH  20  21
HETATM   21  N   UNL     1      -5.873  13.444  68.953  1.00  0.00    -0.073 NA 
HETATM   22  C   UNL     1      -5.852  14.301  67.735  1.00  0.00    -0.077 C  
HETATM   23  C   UNL     1      -7.176  15.049  67.475  1.00  0.00    -0.201 C  
HETATM   24  N   UNL     1      -7.585  15.860  68.634  1.00  0.00    -0.152 NA 
HETATM   25  C   UNL     1      -7.459  15.213  69.954  1.00  0.00    -0.032 C  
HETATM   26  C   UNL     1      -6.181  14.343  70.091  1.00  0.00    -0.166 C  
BRANCH  24  27
HETATM   27  C   UNL     1      -7.484  17.222  68.525  1.00  0.00    -0.241 A  
HETATM   28  N   UNL     1      -6.349  17.881  68.752  1.00  0.00    -0.208 NA 
HETATM   29  S   UNL     1      -6.550  19.472  68.387  1.00  0.00    -0.270 SA 
HETATM   30  C   UNL     1      -8.180  19.353  67.873  1.00  0.00    -0.306 A  
HETATM   31  C   UNL     1      -9.023  20.351  67.354  1.00  0.00    -0.449 A  
HETATM   32  C   UNL     1     -10.324  19.999  66.991  1.00  0.00    -0.555 A  
HETATM   33  C   UNL     1     -10.771  18.692  67.140  1.00  0.00    -0.433 A  
HETATM   34  C   UNL     1      -9.918  17.705  67.646  1.00  0.00    -0.323 A  
HETATM   35  C   UNL     1      -8.591  18.028  68.033  1.00  0.00    -0.267 A  
ENDBRANCH  24  27
ENDBRANCH  20  21
ENDBRANCH  19  20
ENDBRANCH  13  14
ENDBRANCH  10  13
TORSDOF 5
ENDMDL
MODEL      176
REMARK 921   NORMALIZED FREE ENERGY PREDICTED BY IDOCK:   -4.15 KCAL/MOL
REMARK 922        TOTAL FREE ENERGY PREDICTED BY IDOCK:   -7.08 KCAL/MOL
REMARK 923 INTER-LIGAND FREE ENERGY PREDICTED BY IDOCK:   -7.32 KCAL/MOL
REMARK 924 INTRA-LIGAND FREE ENERGY PREDICTED BY IDOCK:    0.24 KCAL/MOL
REMARK 927      BINDING AFFINITY PREDICTED BY RF-SCORE:    0.00 PKD
ROOT
HETATM    1  C   UNL     1      -9.819   5.495  66.553  1.00  0.00    -0.194 C  
HETATM    2  C   UNL     1      -9.751   4.619  67.816  1.00  0.00    -0.205 C  
HETATM    3  C   UNL     1      -9.368   3.191  67.382  1.00  0.00    -0.232 C  
HETATM    4  C   UNL     1      -7.892   3.339  66.960  1.00  0.00    -0.079 C  
HETATM    5  C   UNL     1      -7.606   4.832  67.220  1.00  0.00    -0.086 C  
HETATM    6  C   UNL     1      -8.446   5.066  68.479  1.00  0.00    -0.091 C  
HETATM    7  C   UNL     1      -8.351   5.638  66.143  1.00  0.00    -0.120 C  
HETATM    8  C   UNL     1      -8.082   7.115  66.209  1.00  0.00    -0.118 C  
HETATM    9  O   UNL     1      -6.986   7.626  66.041  1.00  0.00    -0.062 OA 
HETATM   10  N   UNL     1      -9.245   7.761  66.519  1.00  0.00    -0.175 N  
HETATM   11  O   UNL     1     -11.354   7.203  67.303  1.00  0.00    -0.142 OA 
HETATM   12  C   UNL     1     -10.265   6.904  66.835  1.00  0.00    -0.240 C  
ENDROOT
BRANCH  10  13
HETATM   13  C   UNL     1      -9.338   9.202  66.696  1.00  0.00    -0.177 C  
BRANCH  13  14
HETATM   14  C   UNL     1      -9.957   9.900  65.464  1.00  0.00    -0.363 C  
HETATM   15  C   UNL     1      -9.098   9.619  64.215  1.00  0.00    -0.267 C  
HETATM   16  C   UNL     1      -9.711  10.226  62.960  1.00  0.00    -0.212 C  
HETATM   17  C   UNL     1      -9.969  11.716  63.130  1.00  0.00    -0.400 C  
HETATM   18  C   UNL     1     -10.815  12.006  64.368  1.00  0.00    -0.378 C  
HETATM   19  C   UNL     1     -10.159  11.438  65.643  1.00  0.00    -0.293 C  
BRANCH  19  20
HETATM   20  C   UNL     1     -11.000  11.753  66.903  1.00  0.00    -0.285 C  
BRANCH  20  21
HETATM   21  N   UNL     1     -10.283  12.283  68.079  1.00  0.00    -0.201 NA 
HETATM   22  C   UNL     1      -8.975  12.856  67.655  1.00  0.00    -0.192 C  
HETATM   23  C   UNL     1      -9.102  14.085  66.731  1.00  0.00    -0.232 C  
HETATM   24  N   UNL     1      -9.923  15.145  67.340  1.00  0.00    -0.226 NA 
HETATM   25  C   UNL     1     -11.167  14.703  67.999  1.00  0.00    -0.293 C  
HETATM   26  C   UNL     1     -11.008  13.371  68.778  1.00  0.00    -0.257 C  
BRANCH  24  27
HETATM   27  C   UNL     1      -9.284  16.277  67.771  1.00  0.00    -0.203 A  
HETATM   28  N   UNL     1      -9.829  17.489  67.688  1.00  0.00    -0.282 NA 
HETATM   29  S   UNL     1      -8.855  18.589  68.428  1.00  0.00    -0.323 SA 
HETATM   30  C   UNL     1      -7.650  17.478  68.929  1.00  0.00    -0.225 A  
HETATM   31  C   UNL     1      -6.490  17.709  69.688  1.00  0.00    -0.136 A  
HETATM   32  C   UNL     1      -5.660  16.625  69.981  1.00  0.00    -0.211 A  
HETATM   33  C   UNL     1      -5.977  15.349  69.531  1.00  0.00    -0.126 A  
HETATM   34  C   UNL     1      -7.142  15.130  68.786  1.00  0.00    -0.117 A  
HETATM   35  C   UNL     1      -8.005  16.210  68.463  1.00  0.00    -0.175 A  
ENDBRANCH  24  27
ENDBRANCH  20  21
ENDBRANCH  19  20
ENDBRANCH  13  14
ENDBRANCH  10  13
TORSDOF 5
ENDMDL
MODEL      177
REMARK 921   NORMALIZED FREE ENERGY PREDICTED BY IDOCK:   -4.12 KCAL/MOL
REMARK 922        TOTAL FREE ENERGY PREDICTED BY IDOCK:   -7.04 KCAL/MOL
REMARK 923 INTER-LIGAND FREE ENERGY PREDICTED BY IDOCK:   -5.90 KCAL/MOL
REMARK 924 INTRA-LIGAND FREE ENERGY PREDICTED BY IDOCK:   -1.15 KCAL/MOL
REMARK 927      BINDING AFFINITY PREDICTED BY RF-SCORE:    0.00 PKD
ROOT
HETATM    1  C   UNL     1      -8.613  11.005  67.220  1.00  0.00    -0.130 C  
HETATM    2  C   UNL     1      -9.809  11.690  67.904  1.00  0.00    -0.189 C  
HETATM    3  C   UNL     1      -9.740  13.196  67.583  1.00  0.00    -0.213 C  
HETATM    4  C   UNL     1     -10.097  13.249  66.084  1.00  0.00    -0.293 C  
HETATM    5  C   UNL     1     -10.343  11.767  65.734  1.00  0.00    -0.293 C  
HETATM    6  C   UNL     1     -10.994  11.275  67.030  1.00  0.00    -0.352 C  
HETATM    7  C   UNL     1      -8.977  11.062  65.734  1.00  0.00    -0.208 C  
HETATM    8  C   UNL     1      -9.048   9.622  65.308  1.00  0.00    -0.218 C  
HETATM    9  O   UNL     1      -9.407   9.246  64.203  1.00  0.00    -0.023 OA 
HETATM   10  N   UNL     1      -8.686   8.832  66.361  1.00  0.00    -0.132 N  
HETATM   11  O   UNL     1      -8.359   9.071  68.644  1.00  0.00    -0.120 OA 
HETATM   12  C   UNL     1      -8.521   9.535  67.524  1.00  0.00    -0.126 C  
ENDROOT
BRANCH  10  13
HETATM   13  C   UNL     1      -8.675   7.379  66.306  1.00  0.00    -0.149 C  
BRANCH  13  14
HETATM   14  C   UNL     1      -7.250   6.814  66.119  1.00  0.00    -0.067 C  
HETATM   15  C   UNL     1      -6.986   6.538  64.625  1.00  0.00    -0.054 C  
HETATM   16  C   UNL     1      -5.564   6.051  64.382  1.00  0.00    -0.018 C  
HETATM   17  C   UNL     1      -5.239   4.832  65.235  1.00  0.00    -0.012 C  
HETATM   18  C   UNL     1      -5.503   5.093  66.717  1.00  0.00    -0.013 C  
HETATM   19  C   UNL     1      -6.961   5.531  66.961  1.00  0.00    -0.065 C  
BRANCH  19  20
HETATM   20  C   UNL     1      -7.237   5.770  68.465  1.00  0.00    -0.082 C  
BRANCH  20  21
HETATM   21  N   UNL     1      -8.285   4.947  69.098  1.00  0.00    -0.078 NA 
HETATM   22  C   UNL     1      -8.431   5.331  70.530  1.00  0.00    -0.120 C  
HETATM   23  C   UNL     1      -8.935   6.774  70.741  1.00  0.00    -0.151 C  
HETATM   24  N   UNL     1     -10.206   7.018  70.039  1.00  0.00    -0.191 NA 
HETATM   25  C   UNL     1     -10.296   6.500  68.661  1.00  0.00    -0.191 C  
HETATM   26  C   UNL     1      -9.625   5.112  68.484  1.00  0.00    -0.140 C  
BRANCH  24  27
HETATM   27  C   UNL     1     -11.339   7.145  70.800  1.00  0.00    -0.289 A  
HETATM   28  N   UNL     1     -11.871   6.127  71.474  1.00  0.00    -0.224 NA 
HETATM   29  S   UNL     1     -13.127   6.665  72.390  1.00  0.00     0.514 SA 
HETATM   30  C   UNL     1     -13.003   8.316  71.945  1.00  0.00    -0.347 A  
HETATM   31  C   UNL     1     -13.753   9.416  72.395  1.00  0.00    -0.469 A  
HETATM   32  C   UNL     1     -13.450  10.680  71.886  1.00  0.00    -0.341 A  
HETATM   33  C   UNL     1     -12.431  10.843  70.957  1.00  0.00    -0.514 A  
HETATM   34  C   UNL     1     -11.683   9.741  70.525  1.00  0.00    -0.343 A  
HETATM   35  C   UNL     1     -11.968   8.440  71.016  1.00  0.00    -0.255 A  
ENDBRANCH  24  27
ENDBRANCH  20  21
ENDBRANCH  19  20
ENDBRANCH  13  14
ENDBRANCH  10  13
TORSDOF 5
ENDMDL
MODEL      178
REMARK 921   NORMALIZED FREE ENERGY PREDICTED BY IDOCK:   -4.12 KCAL/MOL
REMARK 922        TOTAL FREE ENERGY PREDICTED BY IDOCK:   -7.04 KCAL/MOL
REMARK 923 INTER-LIGAND FREE ENERGY PREDICTED BY IDOCK:   -7.74 KCAL/MOL
REMARK 924 INTRA-LIGAND FREE ENERGY PREDICTED BY IDOCK:    0.70 KCAL/MOL
REMARK 927      BINDING AFFINITY PREDICTED BY RF-SCORE:    0.00 PKD
ROOT
HETATM    1  C   UNL     1      -8.652   6.031  67.830  1.00  0.00    -0.106 C  
HETATM    2  C   UNL     1      -9.389   5.079  68.788  1.00  0.00    -0.175 C  
HETATM    3  C   UNL     1      -8.353   4.101  69.375  1.00  0.00    -0.080 C  
HETATM    4  C   UNL     1      -7.522   4.997  70.316  1.00  0.00    -0.059 C  
HETATM    5  C   UNL     1      -8.196   6.376  70.165  1.00  0.00    -0.129 C  
HETATM    6  C   UNL     1      -9.661   5.959  70.010  1.00  0.00    -0.209 C  
HETATM    7  C   UNL     1      -7.832   6.916  68.773  1.00  0.00    -0.118 C  
HETATM    8  C   UNL     1      -8.340   8.307  68.520  1.00  0.00    -0.129 C  
HETATM    9  O   UNL     1      -7.996   9.293  69.153  1.00  0.00    -0.092 OA 
HETATM   10  N   UNL     1      -9.256   8.266  67.509  1.00  0.00    -0.136 N  
HETATM   11  O   UNL     1     -10.470   6.654  66.368  1.00  0.00    -0.076 OA 
HETATM   12  C   UNL     1      -9.572   6.990  67.126  1.00  0.00    -0.149 C  
ENDROOT
BRANCH  10  13
HETATM   13  C   UNL     1      -9.973   9.437  67.029  1.00  0.00    -0.221 C  
BRANCH  13  14
HETATM   14  C   UNL     1      -9.797   9.645  65.508  1.00  0.00    -0.352 C  
HETATM   15  C   UNL     1      -8.362   9.269  65.090  1.00  0.00    -0.155 C  
HETATM   16  C   UNL     1      -8.163   9.385  63.585  1.00  0.00    -0.169 C  
HETATM   17  C   UNL     1      -8.541  10.770  63.078  1.00  0.00    -0.165 C  
HETATM   18  C   UNL     1      -9.960  11.155  63.492  1.00  0.00    -0.425 C  
HETATM   19  C   UNL     1     -10.138  11.089  65.022  1.00  0.00    -0.354 C  
BRANCH  19  20
HETATM   20  C   UNL     1     -11.567  11.504  65.446  1.00  0.00     0.082 C  
BRANCH  20  21
HETATM   21  N   UNL     1     -11.689  12.460  66.564  1.00  0.00    -0.487 NA 
HETATM   22  C   UNL     1     -10.368  13.097  66.829  1.00  0.00    -0.252 C  
HETATM   23  C   UNL     1      -9.853  13.971  65.666  1.00  0.00    -0.228 C  
HETATM   24  N   UNL     1     -10.827  15.009  65.288  1.00  0.00    -0.359 NA 
HETATM   25  C   UNL     1     -12.233  14.573  65.192  1.00  0.00    -0.346 C  
HETATM   26  C   UNL     1     -12.640  13.566  66.300  1.00  0.00    -0.239 C  
BRANCH  24  27
HETATM   27  C   UNL     1     -10.531  16.307  65.610  1.00  0.00    -0.368 A  
HETATM   28  N   UNL     1     -11.111  17.347  65.014  1.00  0.00    -0.670 NA 
HETATM   29  S   UNL     1     -10.633  18.742  65.745  1.00  0.00    -0.063 SA 
HETATM   30  C   UNL     1      -9.635  18.012  66.931  1.00  0.00    -0.295 A  
HETATM   31  C   UNL     1      -8.912  18.612  67.976  1.00  0.00    -0.324 A  
HETATM   32  C   UNL     1      -8.172  17.791  68.830  1.00  0.00    -0.229 A  
HETATM   33  C   UNL     1      -8.154  16.415  68.648  1.00  0.00    -0.218 A  
HETATM   34  C   UNL     1      -8.887  15.827  67.610  1.00  0.00    -0.180 A  
HETATM   35  C   UNL     1      -9.644  16.631  66.718  1.00  0.00    -0.270 A  
ENDBRANCH  24  27
ENDBRANCH  20  21
ENDBRANCH  19  20
ENDBRANCH  13  14
ENDBRANCH  10  13
TORSDOF 5
ENDMDL
MODEL      179
REMARK 921   NORMALIZED FREE ENERGY PREDICTED BY IDOCK:   -4.09 KCAL/MOL
REMARK 922        TOTAL FREE ENERGY PREDICTED BY IDOCK:   -7.01 KCAL/MOL
REMARK 923 INTER-LIGAND FREE ENERGY PREDICTED BY IDOCK:   -6.15 KCAL/MOL
REMARK 924 INTRA-LIGAND FREE ENERGY PREDICTED BY IDOCK:   -0.86 KCAL/MOL
REMARK 927      BINDING AFFINITY PREDICTED BY RF-SCORE:    0.00 PKD
ROOT
HETATM    1  C   UNL     1      -6.840   4.293  65.527  1.00  0.00    -0.057 C  
HETATM    2  C   UNL     1      -6.831   4.236  63.989  1.00  0.00    -0.045 C  
HETATM    3  C   UNL     1      -5.559   3.484  63.550  1.00  0.00    -0.013 C  
HETATM    4  C   UNL     1      -5.852   2.029  63.968  1.00  0.00    -0.009 C  
HETATM    5  C   UNL     1      -7.264   2.123  64.581  1.00  0.00    -0.054 C  
HETATM    6  C   UNL     1      -7.896   3.184  63.674  1.00  0.00    -0.080 C  
HETATM    7  C   UNL     1      -7.132   2.846  65.932  1.00  0.00    -0.061 C  
HETATM    8  C   UNL     1      -8.424   2.922  66.696  1.00  0.00    -0.101 C  
HETATM    9  O   UNL     1      -9.040   1.952  67.110  1.00  0.00    -0.130 OA 
HETATM   10  N   UNL     1      -8.792   4.232  66.811  1.00  0.00    -0.113 N  
HETATM   11  O   UNL     1      -8.192   6.264  65.871  1.00  0.00    -0.116 OA 
HETATM   12  C   UNL     1      -7.997   5.076  66.082  1.00  0.00    -0.107 C  
ENDROOT
BRANCH  10  13
HETATM   13  C   UNL     1     -10.015   4.666  67.468  1.00  0.00    -0.121 C  
BRANCH  13  14
HETATM   14  C   UNL     1      -9.759   5.158  68.910  1.00  0.00    -0.220 C  
HETATM   15  C   UNL     1      -9.659   3.952  69.865  1.00  0.00    -0.270 C  
HETATM   16  C   UNL     1      -9.331   4.383  71.288  1.00  0.00    -0.210 C  
HETATM   17  C   UNL     1     -10.325   5.415  71.801  1.00  0.00    -0.271 C  
HETATM   18  C   UNL     1     -10.435   6.612  70.859  1.00  0.00    -0.249 C  
HETATM   19  C   UNL     1     -10.824   6.172  69.433  1.00  0.00    -0.420 C  
BRANCH  19  20
HETATM   20  C   UNL     1     -10.962   7.385  68.482  1.00  0.00     0.072 C  
BRANCH  20  21
HETATM   21  N   UNL     1      -9.733   8.137  68.163  1.00  0.00    -0.157 NA 
HETATM   22  C   UNL     1      -9.972   9.016  66.984  1.00  0.00    -0.230 C  
HETATM   23  C   UNL     1     -11.014  10.126  67.235  1.00  0.00    -0.183 C  
HETATM   24  N   UNL     1     -10.661  10.956  68.398  1.00  0.00    -0.188 NA 
HETATM   25  C   UNL     1     -10.193  10.231  69.595  1.00  0.00    -0.235 C  
HETATM   26  C   UNL     1      -9.277   9.024  69.260  1.00  0.00    -0.145 C  
BRANCH  24  27
HETATM   27  C   UNL     1     -10.232  12.235  68.160  1.00  0.00    -0.212 A  
HETATM   28  N   UNL     1      -9.253  12.519  67.304  1.00  0.00    -0.183 NA 
HETATM   29  S   UNL     1      -9.101  14.151  67.156  1.00  0.00    -0.241 SA 
HETATM   30  C   UNL     1     -10.375  14.566  68.224  1.00  0.00    -0.236 A  
HETATM   31  C   UNL     1     -10.873  15.835  68.562  1.00  0.00    -0.290 A  
HETATM   32  C   UNL     1     -11.940  15.914  69.458  1.00  0.00    -0.274 A  
HETATM   33  C   UNL     1     -12.495  14.762  70.001  1.00  0.00    -0.327 A  
HETATM   34  C   UNL     1     -11.998  13.502  69.648  1.00  0.00    -0.397 A  
HETATM   35  C   UNL     1     -10.908  13.385  68.745  1.00  0.00    -0.275 A  
ENDBRANCH  24  27
ENDBRANCH  20  21
ENDBRANCH  19  20
ENDBRANCH  13  14
ENDBRANCH  10  13
TORSDOF 5
ENDMDL
MODEL      180
REMARK 921   NORMALIZED FREE ENERGY PREDICTED BY IDOCK:   -4.07 KCAL/MOL
REMARK 922        TOTAL FREE ENERGY PREDICTED BY IDOCK:   -6.98 KCAL/MOL
REMARK 923 INTER-LIGAND FREE ENERGY PREDICTED BY IDOCK:   -6.41 KCAL/MOL
REMARK 924 INTRA-LIGAND FREE ENERGY PREDICTED BY IDOCK:   -0.57 KCAL/MOL
REMARK 927      BINDING AFFINITY PREDICTED BY RF-SCORE:    0.00 PKD
ROOT
HETATM    1  C   UNL     1     -10.072   4.087  67.924  1.00  0.00     0.162 C  
HETATM    2  C   UNL     1      -9.002   3.482  68.849  1.00  0.00    -0.181 C  
HETATM    3  C   UNL     1      -8.984   1.957  68.620  1.00  0.00    -0.162 C  
HETATM    4  C   UNL     1      -8.368   1.824  67.212  1.00  0.00    -0.084 C  
HETATM    5  C   UNL     1      -8.093   3.288  66.814  1.00  0.00    -0.080 C  
HETATM    6  C   UNL     1      -7.690   3.878  68.169  1.00  0.00    -0.066 C  
HETATM    7  C   UNL     1      -9.451   3.951  66.530  1.00  0.00    -0.211 C  
HETATM    8  C   UNL     1      -9.334   5.363  66.031  1.00  0.00    -0.156 C  
HETATM    9  O   UNL     1      -8.795   5.682  64.983  1.00  0.00    -0.119 OA 
HETATM   10  N   UNL     1      -9.891   6.204  66.951  1.00  0.00    -0.150 N  
HETATM   11  O   UNL     1     -10.609   6.095  69.152  1.00  0.00    -0.219 OA 
HETATM   12  C   UNL     1     -10.244   5.569  68.111  1.00  0.00    -0.177 C  
ENDROOT
BRANCH  10  13
HETATM   13  C   UNL     1      -9.920   7.651  66.800  1.00  0.00    -0.247 C  
BRANCH  13  14
HETATM   14  C   UNL     1      -8.501   8.258  66.735  1.00  0.00    -0.122 C  
HETATM   15  C   UNL     1      -7.650   7.730  67.908  1.00  0.00    -0.116 C  
HETATM   16  C   UNL     1      -6.218   8.243  67.843  1.00  0.00    -0.052 C  
HETATM   17  C   UNL     1      -6.173   9.763  67.767  1.00  0.00    -0.052 C  
HETATM   18  C   UNL     1      -7.017  10.296  66.612  1.00  0.00    -0.103 C  
HETATM   19  C   UNL     1      -8.480   9.819  66.715  1.00  0.00    -0.125 C  
BRANCH  19  20
HETATM   20  C   UNL     1      -9.344  10.380  65.561  1.00  0.00    -0.197 C  
BRANCH  20  21
HETATM   21  N   UNL     1     -10.660  10.944  65.914  1.00  0.00    -0.216 NA 
HETATM   22  C   UNL     1     -10.694  11.273  67.367  1.00  0.00    -0.242 C  
HETATM   23  C   UNL     1      -9.707  12.386  67.777  1.00  0.00    -0.201 C  
HETATM   24  N   UNL     1      -9.912  13.616  66.995  1.00  0.00    -0.243 NA 
HETATM   25  C   UNL     1     -10.112  13.436  65.544  1.00  0.00    -0.266 C  
HETATM   26  C   UNL     1     -10.983  12.200  65.195  1.00  0.00    -0.310 C  
BRANCH  24  27
HETATM   27  C   UNL     1     -10.467  14.693  67.635  1.00  0.00    -0.243 A  
HETATM   28  N   UNL     1     -11.556  14.596  68.395  1.00  0.00    -0.308 NA 
HETATM   29  S   UNL     1     -11.855  16.042  69.122  1.00  0.00    -0.149 SA 
HETATM   30  C   UNL     1     -10.507  16.874  68.469  1.00  0.00    -0.361 A  
HETATM   31  C   UNL     1     -10.079  18.192  68.701  1.00  0.00    -0.406 A  
HETATM   32  C   UNL     1      -8.928  18.642  68.052  1.00  0.00    -0.324 A  
HETATM   33  C   UNL     1      -8.225  17.803  67.196  1.00  0.00    -0.233 A  
HETATM   34  C   UNL     1      -8.655  16.488  66.982  1.00  0.00    -0.219 A  
HETATM   35  C   UNL     1      -9.825  16.000  67.620  1.00  0.00    -0.235 A  
ENDBRANCH  24  27
ENDBRANCH  20  21
ENDBRANCH  19  20
ENDBRANCH  13  14
ENDBRANCH  10  13
TORSDOF 5
ENDMDL
MODEL      181
REMARK 921   NORMALIZED FREE ENERGY PREDICTED BY IDOCK:   -4.05 KCAL/MOL
REMARK 922        TOTAL FREE ENERGY PREDICTED BY IDOCK:   -6.95 KCAL/MOL
REMARK 923 INTER-LIGAND FREE ENERGY PREDICTED BY IDOCK:   -6.48 KCAL/MOL
REMARK 924 INTRA-LIGAND FREE ENERGY PREDICTED BY IDOCK:   -0.47 KCAL/MOL
REMARK 927      BINDING AFFINITY PREDICTED BY RF-SCORE:    0.00 PKD
ROOT
HETATM    1  C   UNL     1     -10.309   5.407  70.790  1.00  0.00    -0.322 C  
HETATM    2  C   UNL     1     -10.589   5.113  72.274  1.00  0.00    -0.278 C  
HETATM    3  C   UNL     1      -9.952   3.752  72.616  1.00  0.00    -0.220 C  
HETATM    4  C   UNL     1      -8.441   4.056  72.583  1.00  0.00    -0.100 C  
HETATM    5  C   UNL     1      -8.398   5.560  72.242  1.00  0.00    -0.119 C  
HETATM    6  C   UNL     1      -9.631   6.057  73.002  1.00  0.00    -0.155 C  
HETATM    7  C   UNL     1      -8.808   5.709  70.768  1.00  0.00    -0.146 C  
HETATM    8  C   UNL     1      -8.715   7.121  70.262  1.00  0.00    -0.144 C  
HETATM    9  O   UNL     1      -7.679   7.762  70.191  1.00  0.00    -0.086 OA 
HETATM   10  N   UNL     1      -9.969   7.558  69.941  1.00  0.00    -0.187 N  
HETATM   11  O   UNL     1     -12.157   6.880  70.293  1.00  0.00    -0.278 OA 
HETATM   12  C   UNL     1     -10.951   6.679  70.309  1.00  0.00    -0.303 C  
ENDROOT
BRANCH  10  13
HETATM   13  C   UNL     1     -10.248   8.898  69.449  1.00  0.00    -0.209 C  
BRANCH  13  14
HETATM   14  C   UNL     1     -10.430   8.929  67.915  1.00  0.00    -0.281 C  
HETATM   15  C   UNL     1      -9.470   7.920  67.253  1.00  0.00    -0.188 C  
HETATM   16  C   UNL     1      -9.667   7.860  65.744  1.00  0.00     0.348 C  
HETATM   17  C   UNL     1      -9.543   9.239  65.111  1.00  0.00    -0.103 C  
HETATM   18  C   UNL     1     -10.485  10.248  65.763  1.00  0.00    -0.159 C  
HETATM   19  C   UNL     1     -10.241  10.345  67.283  1.00  0.00    -0.258 C  
BRANCH  19  20
HETATM   20  C   UNL     1     -11.177  11.386  67.943  1.00  0.00    -0.288 C  
BRANCH  20  21
HETATM   21  N   UNL     1     -10.676  12.077  69.147  1.00  0.00    -0.135 NA 
HETATM   22  C   UNL     1      -9.220  12.355  68.998  1.00  0.00     0.455 C  
HETATM   23  C   UNL     1      -8.886  13.339  67.857  1.00  0.00    -0.192 C  
HETATM   24  N   UNL     1      -9.614  14.611  68.001  1.00  0.00    -0.207 NA 
HETATM   25  C   UNL     1     -11.040  14.505  68.363  1.00  0.00    -0.256 C  
HETATM   26  C   UNL     1     -11.327  13.385  69.397  1.00  0.00    -0.226 C  
BRANCH  24  27
HETATM   27  C   UNL     1      -8.894  15.718  68.366  1.00  0.00    -0.185 A  
HETATM   28  N   UNL     1      -7.879  15.667  69.226  1.00  0.00    -0.218 NA 
HETATM   29  S   UNL     1      -7.154  17.141  69.318  1.00  0.00    -0.091 SA 
HETATM   30  C   UNL     1      -8.158  17.927  68.174  1.00  0.00    -0.267 A  
HETATM   31  C   UNL     1      -8.091  19.244  67.689  1.00  0.00    -0.311 A  
HETATM   32  C   UNL     1      -9.028  19.651  66.738  1.00  0.00    -0.415 A  
HETATM   33  C   UNL     1     -10.002  18.772  66.283  1.00  0.00    -0.418 A  
HETATM   34  C   UNL     1     -10.052  17.458  66.764  1.00  0.00    -0.313 A  
HETATM   35  C   UNL     1      -9.120  17.012  67.737  1.00  0.00    -0.228 A  
ENDBRANCH  24  27
ENDBRANCH  20  21
ENDBRANCH  19  20
ENDBRANCH  13  14
ENDBRANCH  10  13
TORSDOF 5
ENDMDL
MODEL      182
REMARK 921   NORMALIZED FREE ENERGY PREDICTED BY IDOCK:   -4.04 KCAL/MOL
REMARK 922        TOTAL FREE ENERGY PREDICTED BY IDOCK:   -6.94 KCAL/MOL
REMARK 923 INTER-LIGAND FREE ENERGY PREDICTED BY IDOCK:   -6.23 KCAL/MOL
REMARK 924 INTRA-LIGAND FREE ENERGY PREDICTED BY IDOCK:   -0.71 KCAL/MOL
REMARK 927      BINDING AFFINITY PREDICTED BY RF-SCORE:    0.00 PKD
ROOT
HETATM    1  C   UNL     1     -10.888  13.608  69.586  1.00  0.00     0.117 C  
HETATM    2  C   UNL     1     -12.402  13.870  69.660  1.00  0.00    -0.301 C  
HETATM    3  C   UNL     1     -12.721  14.418  71.065  1.00  0.00    -0.416 C  
HETATM    4  C   UNL     1     -12.106  15.832  71.035  1.00  0.00    -0.464 C  
HETATM    5  C   UNL     1     -11.525  15.927  69.610  1.00  0.00    -0.346 C  
HETATM    6  C   UNL     1     -12.576  15.139  68.823  1.00  0.00     0.383 C  
HETATM    7  C   UNL     1     -10.287  15.016  69.556  1.00  0.00    -0.230 C  
HETATM    8  C   UNL     1      -9.552  15.084  68.247  1.00  0.00    -0.210 C  
HETATM    9  O   UNL     1      -9.013  16.088  67.810  1.00  0.00    -0.186 OA 
HETATM   10  N   UNL     1      -9.625  13.865  67.636  1.00  0.00    -0.210 N  
HETATM   11  O   UNL     1     -10.835  11.902  67.877  1.00  0.00    -0.196 OA 
HETATM   12  C   UNL     1     -10.458  12.992  68.283  1.00  0.00    -0.250 C  
ENDROOT
BRANCH  10  13
HETATM   13  C   UNL     1      -9.046  13.587  66.331  1.00  0.00    -0.044 C  
BRANCH  13  14
HETATM   14  C   UNL     1     -10.079  13.738  65.191  1.00  0.00    -0.314 C  
HETATM   15  C   UNL     1     -11.231  14.655  65.646  1.00  0.00    -0.342 C  
HETATM   16  C   UNL     1     -12.237  14.896  64.528  1.00  0.00    -0.396 C  
HETATM   17  C   UNL     1     -12.764  13.585  63.961  1.00  0.00    -0.003 C  
HETATM   18  C   UNL     1     -11.629  12.666  63.512  1.00  0.00    -0.584 C  
HETATM   19  C   UNL     1     -10.646  12.381  64.666  1.00  0.00    -0.339 C  
BRANCH  19  20
HETATM   20  C   UNL     1      -9.510  11.430  64.222  1.00  0.00    -0.133 C  
BRANCH  20  21
HETATM   21  N   UNL     1      -9.755   9.980  64.346  1.00  0.00    -0.276 NA 
HETATM   22  C   UNL     1      -8.596   9.224  63.794  1.00  0.00    -0.192 C  
HETATM   23  C   UNL     1      -7.284   9.432  64.579  1.00  0.00    -0.105 C  
HETATM   24  N   UNL     1      -7.442   9.108  66.007  1.00  0.00    -0.094 NA 
HETATM   25  C   UNL     1      -8.668   9.613  66.655  1.00  0.00    -0.134 C  
HETATM   26  C   UNL     1      -9.923   9.523  65.746  1.00  0.00    -0.245 C  
BRANCH  24  27
HETATM   27  C   UNL     1      -6.843   7.966  66.470  1.00  0.00    -0.070 A  
HETATM   28  N   UNL     1      -5.693   7.978  67.142  1.00  0.00    -0.037 NA 
HETATM   29  S   UNL     1      -5.343   6.460  67.670  1.00  0.00    -0.005 SA 
HETATM   30  C   UNL     1      -6.747   5.704  67.042  1.00  0.00    -0.062 A  
HETATM   31  C   UNL     1      -7.163   4.367  67.158  1.00  0.00    -0.069 A  
HETATM   32  C   UNL     1      -8.369   3.992  66.561  1.00  0.00    -0.104 A  
HETATM   33  C   UNL     1      -9.135   4.921  65.870  1.00  0.00    -0.147 A  
HETATM   34  C   UNL     1      -8.716   6.253  65.772  1.00  0.00    -0.145 A  
HETATM   35  C   UNL     1      -7.493   6.668  66.360  1.00  0.00    -0.085 A  
ENDBRANCH  24  27
ENDBRANCH  20  21
ENDBRANCH  19  20
ENDBRANCH  13  14
ENDBRANCH  10  13
TORSDOF 5
ENDMDL
MODEL      183
REMARK 921   NORMALIZED FREE ENERGY PREDICTED BY IDOCK:   -4.01 KCAL/MOL
REMARK 922        TOTAL FREE ENERGY PREDICTED BY IDOCK:   -6.91 KCAL/MOL
REMARK 923 INTER-LIGAND FREE ENERGY PREDICTED BY IDOCK:   -6.15 KCAL/MOL
REMARK 924 INTRA-LIGAND FREE ENERGY PREDICTED BY IDOCK:   -0.76 KCAL/MOL
REMARK 927      BINDING AFFINITY PREDICTED BY RF-SCORE:    0.00 PKD
ROOT
HETATM    1  C   UNL     1      -7.919   4.825  65.741  1.00  0.00    -0.102 C  
HETATM    2  C   UNL     1      -8.734   4.626  64.451  1.00  0.00    -0.148 C  
HETATM    3  C   UNL     1      -8.166   3.395  63.718  1.00  0.00    -0.089 C  
HETATM    4  C   UNL     1      -8.608   2.221  64.615  1.00  0.00    -0.094 C  
HETATM    5  C   UNL     1      -9.390   2.923  65.744  1.00  0.00    -0.062 C  
HETATM    6  C   UNL     1     -10.059   4.057  64.962  1.00  0.00    -0.203 C  
HETATM    7  C   UNL     1      -8.365   3.657  66.624  1.00  0.00    -0.104 C  
HETATM    8  C   UNL     1      -8.975   4.310  67.833  1.00  0.00    -0.122 C  
HETATM    9  O   UNL     1      -9.536   3.706  68.734  1.00  0.00    -0.161 OA 
HETATM   10  N   UNL     1      -8.826   5.663  67.726  1.00  0.00    -0.107 N  
HETATM   11  O   UNL     1      -8.242   7.194  66.086  1.00  0.00    -0.114 OA 
HETATM   12  C   UNL     1      -8.325   6.051  66.512  1.00  0.00    -0.113 C  
ENDROOT
BRANCH  10  13
HETATM   13  C   UNL     1      -9.332   6.605  68.712  1.00  0.00    -0.131 C  
BRANCH  13  14
HETATM   14  C   UNL     1      -8.201   7.430  69.364  1.00  0.00    -0.131 C  
HETATM   15  C   UNL     1      -7.253   6.496  70.144  1.00  0.00    -0.080 C  
HETATM   16  C   UNL     1      -6.078   7.256  70.742  1.00  0.00    -0.035 C  
HETATM   17  C   UNL     1      -6.547   8.417  71.609  1.00  0.00    -0.067 C  
HETATM   18  C   UNL     1      -7.491   9.345  70.847  1.00  0.00    -0.097 C  
HETATM   19  C   UNL     1      -8.708   8.579  70.293  1.00  0.00    -0.144 C  
BRANCH  19  20
HETATM   20  C   UNL     1      -9.680   9.521  69.543  1.00  0.00    -0.190 C  
BRANCH  20  21
HETATM   21  N   UNL     1      -9.568   9.576  68.073  1.00  0.00    -0.136 NA 
HETATM   22  C   UNL     1     -10.908   9.837  67.476  1.00  0.00    -0.220 C  
HETATM   23  C   UNL     1     -11.497  11.215  67.841  1.00  0.00    -0.284 C  
HETATM   24  N   UNL     1     -10.583  12.313  67.484  1.00  0.00    -0.215 NA 
HETATM   25  C   UNL     1      -9.162  12.110  67.823  1.00  0.00    -0.189 C  
HETATM   26  C   UNL     1      -8.677  10.655  67.584  1.00  0.00    -0.121 C  
BRANCH  24  27
HETATM   27  C   UNL     1     -10.928  13.109  66.423  1.00  0.00    -0.288 A  
HETATM   28  N   UNL     1     -11.679  12.677  65.412  1.00  0.00    -0.366 NA 
HETATM   29  S   UNL     1     -12.017  13.927  64.398  1.00  0.00    -0.444 SA 
HETATM   30  C   UNL     1     -11.188  15.133  65.288  1.00  0.00    -0.358 A  
HETATM   31  C   UNL     1     -11.085  16.512  65.035  1.00  0.00    -0.174 A  
HETATM   32  C   UNL     1     -10.353  17.299  65.926  1.00  0.00    -0.287 A  
HETATM   33  C   UNL     1      -9.742  16.730  67.035  1.00  0.00    -0.254 A  
HETATM   34  C   UNL     1      -9.860  15.357  67.283  1.00  0.00    -0.217 A  
HETATM   35  C   UNL     1     -10.591  14.525  66.395  1.00  0.00    -0.302 A  
ENDBRANCH  24  27
ENDBRANCH  20  21
ENDBRANCH  19  20
ENDBRANCH  13  14
ENDBRANCH  10  13
TORSDOF 5
ENDMDL
MODEL      184
REMARK 921   NORMALIZED FREE ENERGY PREDICTED BY IDOCK:   -4.01 KCAL/MOL
REMARK 922        TOTAL FREE ENERGY PREDICTED BY IDOCK:   -6.91 KCAL/MOL
REMARK 923 INTER-LIGAND FREE ENERGY PREDICTED BY IDOCK:   -6.44 KCAL/MOL
REMARK 924 INTRA-LIGAND FREE ENERGY PREDICTED BY IDOCK:   -0.47 KCAL/MOL
REMARK 927      BINDING AFFINITY PREDICTED BY RF-SCORE:    0.00 PKD
ROOT
HETATM    1  C   UNL     1     -10.771  12.198  68.954  1.00  0.00    -0.212 C  
HETATM    2  C   UNL     1     -12.076  13.009  69.039  1.00  0.00    -0.220 C  
HETATM    3  C   UNL     1     -11.941  14.002  70.209  1.00  0.00    -0.409 C  
HETATM    4  C   UNL     1     -10.911  15.023  69.684  1.00  0.00    -0.283 C  
HETATM    5  C   UNL     1     -10.594  14.497  68.269  1.00  0.00    -0.241 C  
HETATM    6  C   UNL     1     -11.968  13.966  67.850  1.00  0.00    -0.393 C  
HETATM    7  C   UNL     1      -9.756  13.218  68.431  1.00  0.00    -0.198 C  
HETATM    8  C   UNL     1      -9.284  12.644  67.124  1.00  0.00    -0.214 C  
HETATM    9  O   UNL     1      -8.531  13.215  66.351  1.00  0.00     0.150 OA 
HETATM   10  N   UNL     1      -9.862  11.420  66.946  1.00  0.00    -0.191 N  
HETATM   11  O   UNL     1     -11.587  10.191  67.888  1.00  0.00    -0.256 OA 
HETATM   12  C   UNL     1     -10.807  11.132  67.894  1.00  0.00    -0.235 C  
ENDROOT
BRANCH  10  13
HETATM   13  C   UNL     1      -9.648  10.597  65.765  1.00  0.00    -0.210 C  
BRANCH  13  14
HETATM   14  C   UNL     1      -8.356   9.756  65.868  1.00  0.00    -0.128 C  
HETATM   15  C   UNL     1      -7.277  10.336  64.933  1.00  0.00    -0.100 C  
HETATM   16  C   UNL     1      -5.958   9.584  65.057  1.00  0.00    -0.068 C  
HETATM   17  C   UNL     1      -6.145   8.091  64.826  1.00  0.00    -0.048 C  
HETATM   18  C   UNL     1      -7.217   7.507  65.744  1.00  0.00    -0.066 C  
HETATM   19  C   UNL     1      -8.565   8.237  65.572  1.00  0.00    -0.183 C  
BRANCH  19  20
HETATM   20  C   UNL     1      -9.660   7.630  66.481  1.00  0.00    -0.186 C  
BRANCH  20  21
HETATM   21  N   UNL     1      -9.321   6.396  67.215  1.00  0.00    -0.118 NA 
HETATM   22  C   UNL     1      -8.419   6.721  68.356  1.00  0.00    -0.122 C  
HETATM   23  C   UNL     1      -9.074   7.609  69.435  1.00  0.00    -0.142 C  
HETATM   24  N   UNL     1     -10.319   7.017  69.951  1.00  0.00    -0.205 NA 
HETATM   25  C   UNL     1     -11.234   6.450  68.942  1.00  0.00    -0.307 C  
HETATM   26  C   UNL     1     -10.497   5.707  67.796  1.00  0.00    -0.211 C  
BRANCH  24  27
HETATM   27  C   UNL     1     -10.303   6.511  71.224  1.00  0.00    -0.204 A  
HETATM   28  N   UNL     1     -10.959   5.404  71.567  1.00  0.00    -0.155 NA 
HETATM   29  S   UNL     1     -10.601   5.008  73.124  1.00  0.00    -0.250 SA 
HETATM   30  C   UNL     1      -9.514   6.301  73.412  1.00  0.00    -0.139 A  
HETATM   31  C   UNL     1      -8.755   6.584  74.560  1.00  0.00    -0.172 A  
HETATM   32  C   UNL     1      -7.922   7.705  74.546  1.00  0.00    -0.246 A  
HETATM   33  C   UNL     1      -7.848   8.518  73.423  1.00  0.00    -0.062 A  
HETATM   34  C   UNL     1      -8.601   8.219  72.281  1.00  0.00    -0.257 A  
HETATM   35  C   UNL     1      -9.464   7.092  72.262  1.00  0.00    -0.157 A  
ENDBRANCH  24  27
ENDBRANCH  20  21
ENDBRANCH  19  20
ENDBRANCH  13  14
ENDBRANCH  10  13
TORSDOF 5
ENDMDL
MODEL      185
REMARK 921   NORMALIZED FREE ENERGY PREDICTED BY IDOCK:   -3.98 KCAL/MOL
REMARK 922        TOTAL FREE ENERGY PREDICTED BY IDOCK:   -6.86 KCAL/MOL
REMARK 923 INTER-LIGAND FREE ENERGY PREDICTED BY IDOCK:   -7.22 KCAL/MOL
REMARK 924 INTRA-LIGAND FREE ENERGY PREDICTED BY IDOCK:    0.36 KCAL/MOL
REMARK 927      BINDING AFFINITY PREDICTED BY RF-SCORE:    0.00 PKD
ROOT
HETATM    1  C   UNL     1     -11.431   8.858  70.606  1.00  0.00    -0.280 C  
HETATM    2  C   UNL     1     -10.588   8.691  71.883  1.00  0.00    -0.411 C  
HETATM    3  C   UNL     1     -11.153   7.491  72.669  1.00  0.00    -0.398 C  
HETATM    4  C   UNL     1     -10.745   6.283  71.801  1.00  0.00    -0.279 C  
HETATM    5  C   UNL     1      -9.982   6.939  70.632  1.00  0.00    -0.198 C  
HETATM    6  C   UNL     1      -9.282   8.089  71.361  1.00  0.00    -0.180 C  
HETATM    7  C   UNL     1     -11.018   7.657  69.751  1.00  0.00    -0.178 C  
HETATM    8  C   UNL     1     -10.428   8.263  68.509  1.00  0.00    -0.162 C  
HETATM    9  O   UNL     1      -9.895   7.624  67.615  1.00  0.00    -0.149 OA 
HETATM   10  N   UNL     1     -10.560   9.620  68.575  1.00  0.00    -0.219 N  
HETATM   11  O   UNL     1     -11.088  11.210  70.178  1.00  0.00    -0.205 OA 
HETATM   12  C   UNL     1     -11.028  10.053  69.787  1.00  0.00    -0.276 C  
ENDROOT
BRANCH  10  13
HETATM   13  C   UNL     1     -10.065  10.525  67.549  1.00  0.00    -0.189 C  
BRANCH  13  14
HETATM   14  C   UNL     1      -8.613  10.977  67.822  1.00  0.00    -0.130 C  
HETATM   15  C   UNL     1      -7.845   9.861  68.559  1.00  0.00    -0.081 C  
HETATM   16  C   UNL     1      -6.386  10.232  68.782  1.00  0.00    -0.047 C  
HETATM   17  C   UNL     1      -6.254  11.565  69.506  1.00  0.00    -0.110 C  
HETATM   18  C   UNL     1      -7.015  12.677  68.787  1.00  0.00    -0.096 C  
HETATM   19  C   UNL     1      -8.505  12.318  68.614  1.00  0.00     0.007 C  
BRANCH  19  20
HETATM   20  C   UNL     1      -9.285  13.453  67.910  1.00  0.00    -0.216 C  
BRANCH  20  21
HETATM   21  N   UNL     1      -8.538  14.294  66.954  1.00  0.00    -0.187 NA 
HETATM   22  C   UNL     1      -9.480  15.197  66.234  1.00  0.00    -0.309 C  
HETATM   23  C   UNL     1     -10.176  16.228  67.147  1.00  0.00    -0.276 C  
HETATM   24  N   UNL     1      -9.204  17.038  67.900  1.00  0.00    -0.236 NA 
HETATM   25  C   UNL     1      -8.076  16.302  68.503  1.00  0.00    -0.193 C  
HETATM   26  C   UNL     1      -7.528  15.170  67.594  1.00  0.00    -0.181 C  
BRANCH  24  27
HETATM   27  C   UNL     1      -9.051  18.349  67.536  1.00  0.00    -0.271 A  
HETATM   28  N   UNL     1      -9.741  19.339  68.099  1.00  0.00    -0.340 NA 
HETATM   29  S   UNL     1      -9.202  20.785  67.529  1.00  0.00    -0.068 SA 
HETATM   30  C   UNL     1      -7.981  20.153  66.507  1.00  0.00    -0.278 A  
HETATM   31  C   UNL     1      -7.046  20.836  65.711  1.00  0.00    -0.011 A  
HETATM   32  C   UNL     1      -6.133  20.087  64.966  1.00  0.00    -0.289 A  
HETATM   33  C   UNL     1      -6.151  18.699  65.013  1.00  0.00    -0.266 A  
HETATM   34  C   UNL     1      -7.079  18.030  65.820  1.00  0.00    -0.242 A  
HETATM   35  C   UNL     1      -8.027  18.759  66.584  1.00  0.00    -0.278 A  
ENDBRANCH  24  27
ENDBRANCH  20  21
ENDBRANCH  19  20
ENDBRANCH  13  14
ENDBRANCH  10  13
TORSDOF 5
ENDMDL
MODEL      186
REMARK 921   NORMALIZED FREE ENERGY PREDICTED BY IDOCK:   -3.96 KCAL/MOL
REMARK 922        TOTAL FREE ENERGY PREDICTED BY IDOCK:   -6.84 KCAL/MOL
REMARK 923 INTER-LIGAND FREE ENERGY PREDICTED BY IDOCK:   -6.56 KCAL/MOL
REMARK 924 INTRA-LIGAND FREE ENERGY PREDICTED BY IDOCK:   -0.28 KCAL/MOL
REMARK 927      BINDING AFFINITY PREDICTED BY RF-SCORE:    0.00 PKD
ROOT
HETATM    1  C   UNL     1     -11.999   7.586  71.416  1.00  0.00    -0.336 C  
HETATM    2  C   UNL     1     -12.977   8.543  70.711  1.00  0.00     0.341 C  
HETATM    3  C   UNL     1     -13.903   9.149  71.783  1.00  0.00    -0.425 C  
HETATM    4  C   UNL     1     -12.964  10.094  72.560  1.00  0.00     0.084 C  
HETATM    5  C   UNL     1     -11.618   9.925  71.827  1.00  0.00    -0.094 C  
HETATM    6  C   UNL     1     -12.101   9.754  70.384  1.00  0.00    -0.176 C  
HETATM    7  C   UNL     1     -11.072   8.532  72.183  1.00  0.00    -0.436 C  
HETATM    8  C   UNL     1      -9.706   8.263  71.616  1.00  0.00    -0.197 C  
HETATM    9  O   UNL     1      -8.701   8.892  71.908  1.00  0.00    -0.343 OA 
HETATM   10  N   UNL     1      -9.797   7.241  70.715  1.00  0.00    -0.179 N  
HETATM   11  O   UNL     1     -11.470   6.097  69.590  1.00  0.00    -0.429 OA 
HETATM   12  C   UNL     1     -11.088   6.864  70.462  1.00  0.00    -0.288 C  
ENDROOT
BRANCH  10  13
HETATM   13  C   UNL     1      -8.662   6.743  69.952  1.00  0.00    -0.141 C  
BRANCH  13  14
HETATM   14  C   UNL     1      -8.992   6.593  68.450  1.00  0.00    -0.123 C  
HETATM   15  C   UNL     1      -9.242   5.110  68.113  1.00  0.00    -0.136 C  
HETATM   16  C   UNL     1      -9.645   4.921  66.657  1.00  0.00    -0.171 C  
HETATM   17  C   UNL     1      -8.625   5.539  65.711  1.00  0.00    -0.145 C  
HETATM   18  C   UNL     1      -8.366   7.008  66.040  1.00  0.00    -0.134 C  
HETATM   19  C   UNL     1      -7.903   7.185  67.500  1.00  0.00    -0.112 C  
BRANCH  19  20
HETATM   20  C   UNL     1      -7.615   8.669  67.828  1.00  0.00    -0.098 C  
BRANCH  20  21
HETATM   21  N   UNL     1      -8.767   9.518  68.187  1.00  0.00    -0.120 NA 
HETATM   22  C   UNL     1      -8.370  10.484  69.249  1.00  0.00    -0.137 C  
HETATM   23  C   UNL     1      -7.303  11.504  68.797  1.00  0.00    -0.115 C  
HETATM   24  N   UNL     1      -7.726  12.245  67.598  1.00  0.00    -0.133 NA 
HETATM   25  C   UNL     1      -8.346  11.443  66.525  1.00  0.00    -0.164 C  
HETATM   26  C   UNL     1      -9.284  10.328  67.058  1.00  0.00    -0.150 C  
BRANCH  24  27
HETATM   27  C   UNL     1      -8.065  13.563  67.751  1.00  0.00    -0.177 A  
HETATM   28  N   UNL     1      -7.217  14.559  67.503  1.00  0.00    -0.187 NA 
HETATM   29  S   UNL     1      -7.997  16.001  67.648  1.00  0.00    -0.151 SA 
HETATM   30  C   UNL     1      -9.538  15.355  68.028  1.00  0.00    -0.206 A  
HETATM   31  C   UNL     1     -10.753  16.026  68.244  1.00  0.00    -0.298 A  
HETATM   32  C   UNL     1     -11.890  15.267  68.531  1.00  0.00    -0.305 A  
HETATM   33  C   UNL     1     -11.817  13.882  68.600  1.00  0.00    -0.407 A  
HETATM   34  C   UNL     1     -10.602  13.224  68.371  1.00  0.00    -0.263 A  
HETATM   35  C   UNL     1      -9.425  13.964  68.084  1.00  0.00    -0.207 A  
ENDBRANCH  24  27
ENDBRANCH  20  21
ENDBRANCH  19  20
ENDBRANCH  13  14
ENDBRANCH  10  13
TORSDOF 5
ENDMDL
MODEL      187
REMARK 921   NORMALIZED FREE ENERGY PREDICTED BY IDOCK:   -3.94 KCAL/MOL
REMARK 922        TOTAL FREE ENERGY PREDICTED BY IDOCK:   -6.82 KCAL/MOL
REMARK 923 INTER-LIGAND FREE ENERGY PREDICTED BY IDOCK:   -5.76 KCAL/MOL
REMARK 924 INTRA-LIGAND FREE ENERGY PREDICTED BY IDOCK:   -1.06 KCAL/MOL
REMARK 927      BINDING AFFINITY PREDICTED BY RF-SCORE:    0.00 PKD
ROOT
HETATM    1  C   UNL     1      -8.257   5.678  65.958  1.00  0.00    -0.113 C  
HETATM    2  C   UNL     1      -7.827   4.542  66.902  1.00  0.00    -0.098 C  
HETATM    3  C   UNL     1      -6.483   3.985  66.391  1.00  0.00    -0.037 C  
HETATM    4  C   UNL     1      -5.491   5.121  66.712  1.00  0.00    -0.013 C  
HETATM    5  C   UNL     1      -6.386   6.184  67.382  1.00  0.00    -0.037 C  
HETATM    6  C   UNL     1      -7.360   5.287  68.153  1.00  0.00    -0.072 C  
HETATM    7  C   UNL     1      -7.268   6.801  66.284  1.00  0.00    -0.072 C  
HETATM    8  C   UNL     1      -8.129   7.931  66.775  1.00  0.00    -0.108 C  
HETATM    9  O   UNL     1      -7.699   8.981  67.224  1.00  0.00    -0.094 OA 
HETATM   10  N   UNL     1      -9.441   7.566  66.664  1.00  0.00    -0.183 N  
HETATM   11  O   UNL     1     -10.649   5.624  66.290  1.00  0.00    -0.202 OA 
HETATM   12  C   UNL     1      -9.602   6.255  66.304  1.00  0.00    -0.075 C  
ENDROOT
BRANCH  10  13
HETATM   13  C   UNL     1     -10.546   8.415  67.082  1.00  0.00    -0.256 C  
BRANCH  13  14
HETATM   14  C   UNL     1     -10.514   8.708  68.599  1.00  0.00    -0.208 C  
HETATM   15  C   UNL     1     -10.655   7.393  69.391  1.00  0.00    -0.231 C  
HETATM   16  C   UNL     1     -10.553   7.624  70.892  1.00  0.00    -0.219 C  
HETATM   17  C   UNL     1     -11.557   8.665  71.366  1.00  0.00    -0.354 C  
HETATM   18  C   UNL     1     -11.430   9.971  70.584  1.00  0.00    -0.425 C  
HETATM   19  C   UNL     1     -11.591   9.737  69.068  1.00  0.00     0.184 C  
BRANCH  19  20
HETATM   20  C   UNL     1     -11.489  11.061  68.275  1.00  0.00    -0.304 C  
BRANCH  20  21
HETATM   21  N   UNL     1     -10.549  12.080  68.780  1.00  0.00    -0.227 NA 
HETATM   22  C   UNL     1      -9.539  12.398  67.732  1.00  0.00    -0.202 C  
HETATM   23  C   UNL     1     -10.134  13.056  66.470  1.00  0.00    -0.270 C  
HETATM   24  N   UNL     1     -10.897  14.273  66.796  1.00  0.00    -0.295 NA 
HETATM   25  C   UNL     1     -11.798  14.181  67.961  1.00  0.00    -0.365 C  
HETATM   26  C   UNL     1     -11.198  13.365  69.136  1.00  0.00    -0.248 C  
BRANCH  24  27
HETATM   27  C   UNL     1     -10.351  15.479  66.444  1.00  0.00    -0.296 A  
HETATM   28  N   UNL     1     -10.744  16.164  65.372  1.00  0.00    -0.406 NA 
HETATM   29  S   UNL     1      -9.987  17.624  65.337  1.00  0.00     0.820 SA 
HETATM   30  C   UNL     1      -9.103  17.423  66.791  1.00  0.00    -0.260 A  
HETATM   31  C   UNL     1      -8.244  18.326  67.440  1.00  0.00    -0.237 A  
HETATM   32  C   UNL     1      -7.643  17.928  68.636  1.00  0.00    -0.285 A  
HETATM   33  C   UNL     1      -7.890  16.670  69.168  1.00  0.00    -0.170 A  
HETATM   34  C   UNL     1      -8.757  15.783  68.518  1.00  0.00    -0.184 A  
HETATM   35  C   UNL     1      -9.380  16.151  67.297  1.00  0.00    -0.220 A  
ENDBRANCH  24  27
ENDBRANCH  20  21
ENDBRANCH  19  20
ENDBRANCH  13  14
ENDBRANCH  10  13
TORSDOF 5
ENDMDL
MODEL      188
REMARK 921   NORMALIZED FREE ENERGY PREDICTED BY IDOCK:   -3.90 KCAL/MOL
REMARK 922        TOTAL FREE ENERGY PREDICTED BY IDOCK:   -6.77 KCAL/MOL
REMARK 923 INTER-LIGAND FREE ENERGY PREDICTED BY IDOCK:   -7.22 KCAL/MOL
REMARK 924 INTRA-LIGAND FREE ENERGY PREDICTED BY IDOCK:    0.45 KCAL/MOL
REMARK 927      BINDING AFFINITY PREDICTED BY RF-SCORE:    0.00 PKD
ROOT
HETATM    1  C   UNL     1     -10.596   7.076  72.149  1.00  0.00    -0.240 C  
HETATM    2  C   UNL     1      -9.315   7.815  72.573  1.00  0.00    -0.234 C  
HETATM    3  C   UNL     1      -9.067   7.515  74.064  1.00  0.00    -0.295 C  
HETATM    4  C   UNL     1      -8.647   6.031  74.056  1.00  0.00    -0.119 C  
HETATM    5  C   UNL     1      -8.691   5.667  72.558  1.00  0.00    -0.124 C  
HETATM    6  C   UNL     1      -8.204   6.979  71.934  1.00  0.00    -0.102 C  
HETATM    7  C   UNL     1     -10.170   5.605  72.142  1.00  0.00    -0.247 C  
HETATM    8  C   UNL     1     -10.373   5.160  70.722  1.00  0.00    -0.224 C  
HETATM    9  O   UNL     1     -10.054   4.063  70.290  1.00  0.00    -0.120 OA 
HETATM   10  N   UNL     1     -10.928   6.186  70.013  1.00  0.00    -0.339 N  
HETATM   11  O   UNL     1     -11.291   8.459  70.294  1.00  0.00    -0.234 OA 
HETATM   12  C   UNL     1     -10.995   7.353  70.725  1.00  0.00    -0.255 C  
ENDROOT
BRANCH  10  13
HETATM   13  C   UNL     1     -11.229   6.108  68.591  1.00  0.00    -0.185 C  
BRANCH  13  14
HETATM   14  C   UNL     1      -9.956   5.917  67.736  1.00  0.00    -0.156 C  
HETATM   15  C   UNL     1      -9.442   4.470  67.877  1.00  0.00    -0.200 C  
HETATM   16  C   UNL     1      -8.230   4.213  66.992  1.00  0.00    -0.100 C  
HETATM   17  C   UNL     1      -7.122   5.223  67.256  1.00  0.00    -0.070 C  
HETATM   18  C   UNL     1      -7.623   6.659  67.124  1.00  0.00    -0.096 C  
HETATM   19  C   UNL     1      -8.814   6.929  68.066  1.00  0.00    -0.123 C  
BRANCH  19  20
HETATM   20  C   UNL     1      -9.307   8.391  67.954  1.00  0.00    -0.135 C  
BRANCH  20  21
HETATM   21  N   UNL     1      -8.290   9.456  68.051  1.00  0.00    -0.119 NA 
HETATM   22  C   UNL     1      -8.153  10.143  66.736  1.00  0.00    -0.119 C  
HETATM   23  C   UNL     1      -9.421  10.900  66.291  1.00  0.00    -0.194 C  
HETATM   24  N   UNL     1      -9.861  11.873  67.305  1.00  0.00    -0.186 NA 
HETATM   25  C   UNL     1      -9.848  11.404  68.703  1.00  0.00    -0.193 C  
HETATM   26  C   UNL     1      -8.624  10.510  69.038  1.00  0.00    -0.157 C  
BRANCH  24  27
HETATM   27  C   UNL     1      -9.689  13.204  67.027  1.00  0.00    -0.241 A  
HETATM   28  N   UNL     1      -8.659  13.909  67.489  1.00  0.00    -0.181 NA 
HETATM   29  S   UNL     1      -8.688  15.422  66.843  1.00  0.00    -0.274 SA 
HETATM   30  C   UNL     1     -10.085  15.197  65.876  1.00  0.00    -0.325 A  
HETATM   31  C   UNL     1     -10.696  16.088  64.978  1.00  0.00    -0.400 A  
HETATM   32  C   UNL     1     -11.834  15.662  64.290  1.00  0.00    -0.151 A  
HETATM   33  C   UNL     1     -12.346  14.387  64.490  1.00  0.00    -0.440 A  
HETATM   34  C   UNL     1     -11.721  13.504  65.379  1.00  0.00    -0.351 A  
HETATM   35  C   UNL     1     -10.567  13.906  66.101  1.00  0.00    -0.291 A  
ENDBRANCH  24  27
ENDBRANCH  20  21
ENDBRANCH  19  20
ENDBRANCH  13  14
ENDBRANCH  10  13
TORSDOF 5
ENDMDL
MODEL      189
REMARK 921   NORMALIZED FREE ENERGY PREDICTED BY IDOCK:   -3.88 KCAL/MOL
REMARK 922        TOTAL FREE ENERGY PREDICTED BY IDOCK:   -6.74 KCAL/MOL
REMARK 923 INTER-LIGAND FREE ENERGY PREDICTED BY IDOCK:   -5.89 KCAL/MOL
REMARK 924 INTRA-LIGAND FREE ENERGY PREDICTED BY IDOCK:   -0.85 KCAL/MOL
REMARK 927      BINDING AFFINITY PREDICTED BY RF-SCORE:    0.00 PKD
ROOT
HETATM    1  C   UNL     1     -10.557  10.979  69.236  1.00  0.00    -0.236 C  
HETATM    2  C   UNL     1     -11.933  11.599  68.932  1.00  0.00    -0.355 C  
HETATM    3  C   UNL     1     -12.161  12.755  69.925  1.00  0.00    -0.329 C  
HETATM    4  C   UNL     1     -11.163  13.829  69.444  1.00  0.00    -0.259 C  
HETATM    5  C   UNL     1     -10.497  13.161  68.224  1.00  0.00    -0.258 C  
HETATM    6  C   UNL     1     -11.683  12.385  67.644  1.00  0.00    -0.412 C  
HETATM    7  C   UNL     1      -9.574  12.051  68.754  1.00  0.00     0.004 C  
HETATM    8  C   UNL     1      -8.776  11.372  67.677  1.00  0.00    -0.136 C  
HETATM    9  O   UNL     1      -7.945  11.931  66.978  1.00  0.00    -0.158 OA 
HETATM   10  N   UNL     1      -9.162  10.065  67.598  1.00  0.00    -0.137 N  
HETATM   11  O   UNL     1     -10.899   8.746  68.383  1.00  0.00    -0.110 OA 
HETATM   12  C   UNL     1     -10.248   9.781  68.382  1.00  0.00    -0.185 C  
ENDROOT
BRANCH  10  13
HETATM   13  C   UNL     1      -8.613   9.124  66.634  1.00  0.00    -0.127 C  
BRANCH  13  14
HETATM   14  C   UNL     1      -8.567   9.713  65.206  1.00  0.00    -0.169 C  
HETATM   15  C   UNL     1      -9.948  10.288  64.831  1.00  0.00    -0.393 C  
HETATM   16  C   UNL     1      -9.932  10.948  63.459  1.00  0.00    -0.419 C  
HETATM   17  C   UNL     1      -9.419   9.996  62.388  1.00  0.00    -0.224 C  
HETATM   18  C   UNL     1      -8.054   9.417  62.753  1.00  0.00    -0.142 C  
HETATM   19  C   UNL     1      -8.092   8.700  64.117  1.00  0.00    -0.162 C  
BRANCH  19  20
HETATM   20  C   UNL     1      -6.717   8.089  64.477  1.00  0.00    -0.060 C  
BRANCH  20  21
HETATM   21  N   UNL     1      -6.483   6.682  64.100  1.00  0.00    -0.037 NA 
HETATM   22  C   UNL     1      -5.723   5.991  65.179  1.00  0.00    -0.024 C  
HETATM   23  C   UNL     1      -6.492   5.879  66.512  1.00  0.00    -0.047 C  
HETATM   24  N   UNL     1      -7.798   5.220  66.337  1.00  0.00    -0.103 NA 
HETATM   25  C   UNL     1      -8.590   5.651  65.170  1.00  0.00    -0.130 C  
HETATM   26  C   UNL     1      -7.729   5.903  63.903  1.00  0.00    -0.096 C  
BRANCH  24  27
HETATM   27  C   UNL     1      -7.941   3.951  66.833  1.00  0.00    -0.096 A  
HETATM   28  N   UNL     1      -7.436   2.879  66.226  1.00  0.00    -0.074 NA 
HETATM   29  S   UNL     1      -7.667   1.549  67.166  1.00  0.00    -0.061 SA 
HETATM   30  C   UNL     1      -8.440   2.357  68.465  1.00  0.00    -0.068 A  
HETATM   31  C   UNL     1      -8.892   1.839  69.690  1.00  0.00    -0.122 A  
HETATM   32  C   UNL     1      -9.487   2.713  70.603  1.00  0.00    -0.206 A  
HETATM   33  C   UNL     1      -9.626   4.062  70.303  1.00  0.00    -0.271 A  
HETATM   34  C   UNL     1      -9.160   4.569  69.084  1.00  0.00    -0.173 A  
HETATM   35  C   UNL     1      -8.558   3.708  68.129  1.00  0.00    -0.117 A  
ENDBRANCH  24  27
ENDBRANCH  20  21
ENDBRANCH  19  20
ENDBRANCH  13  14
ENDBRANCH  10  13
TORSDOF 5
ENDMDL
MODEL      190
REMARK 921   NORMALIZED FREE ENERGY PREDICTED BY IDOCK:   -3.87 KCAL/MOL
REMARK 922        TOTAL FREE ENERGY PREDICTED BY IDOCK:   -6.73 KCAL/MOL
REMARK 923 INTER-LIGAND FREE ENERGY PREDICTED BY IDOCK:   -5.90 KCAL/MOL
REMARK 924 INTRA-LIGAND FREE ENERGY PREDICTED BY IDOCK:   -0.82 KCAL/MOL
REMARK 927      BINDING AFFINITY PREDICTED BY RF-SCORE:    0.00 PKD
ROOT
HETATM    1  C   UNL     1      -7.133   9.595  63.970  1.00  0.00    -0.116 C  
HETATM    2  C   UNL     1      -7.737   8.242  63.554  1.00  0.00    -0.142 C  
HETATM    3  C   UNL     1      -6.713   7.521  62.656  1.00  0.00    -0.070 C  
HETATM    4  C   UNL     1      -5.595   7.133  63.646  1.00  0.00    -0.037 C  
HETATM    5  C   UNL     1      -6.125   7.665  64.993  1.00  0.00    -0.038 C  
HETATM    6  C   UNL     1      -7.625   7.405  64.829  1.00  0.00    -0.103 C  
HETATM    7  C   UNL     1      -6.026   9.199  64.952  1.00  0.00    -0.064 C  
HETATM    8  C   UNL     1      -6.418   9.858  66.245  1.00  0.00    -0.077 C  
HETATM    9  O   UNL     1      -5.830   9.702  67.304  1.00  0.00    -0.050 OA 
HETATM   10  N   UNL     1      -7.537  10.610  66.036  1.00  0.00    -0.144 N  
HETATM   11  O   UNL     1      -9.152  10.851  64.390  1.00  0.00    -0.198 OA 
HETATM   12  C   UNL     1      -8.074  10.435  64.788  1.00  0.00    -0.124 C  
ENDROOT
BRANCH  10  13
HETATM   13  C   UNL     1      -8.207  11.360  67.087  1.00  0.00    -0.157 C  
BRANCH  13  14
HETATM   14  C   UNL     1      -7.854  12.863  67.047  1.00  0.00    -0.006 C  
HETATM   15  C   UNL     1      -6.617  13.135  67.925  1.00  0.00    -0.137 C  
HETATM   16  C   UNL     1      -6.184  14.594  67.856  1.00  0.00    -0.171 C  
HETATM   17  C   UNL     1      -7.330  15.532  68.208  1.00  0.00    -0.117 C  
HETATM   18  C   UNL     1      -8.563  15.267  67.347  1.00  0.00    -0.197 C  
HETATM   19  C   UNL     1      -9.029  13.802  67.466  1.00  0.00    -0.201 C  
BRANCH  19  20
HETATM   20  C   UNL     1     -10.294  13.537  66.615  1.00  0.00    -0.271 C  
BRANCH  20  21
HETATM   21  N   UNL     1     -11.585  13.471  67.326  1.00  0.00    -0.341 NA 
HETATM   22  C   UNL     1     -12.146  12.095  67.225  1.00  0.00     0.116 C  
HETATM   23  C   UNL     1     -11.294  11.020  67.932  1.00  0.00    -0.311 C  
HETATM   24  N   UNL     1     -11.063  11.349  69.349  1.00  0.00    -0.250 NA 
HETATM   25  C   UNL     1     -10.703  12.750  69.639  1.00  0.00     0.471 C  
HETATM   26  C   UNL     1     -11.484  13.774  68.774  1.00  0.00    -0.303 C  
BRANCH  24  27
HETATM   27  C   UNL     1     -11.718  10.600  70.290  1.00  0.00    -0.344 A  
HETATM   28  N   UNL     1     -12.766  11.057  70.974  1.00  0.00    -0.380 NA 
HETATM   29  S   UNL     1     -13.390   9.852  71.904  1.00  0.00    -0.400 SA 
HETATM   30  C   UNL     1     -12.292   8.632  71.411  1.00  0.00    -0.304 A  
HETATM   31  C   UNL     1     -12.250   7.275  71.773  1.00  0.00    -0.368 A  
HETATM   32  C   UNL     1     -11.253   6.470  71.220  1.00  0.00    -0.338 A  
HETATM   33  C   UNL     1     -10.325   7.001  70.333  1.00  0.00    -0.219 A  
HETATM   34  C   UNL     1     -10.384   8.352  69.971  1.00  0.00    -0.211 A  
HETATM   35  C   UNL     1     -11.380   9.202  70.519  1.00  0.00    -0.300 A  
ENDBRANCH  24  27
ENDBRANCH  20  21
ENDBRANCH  19  20
ENDBRANCH  13  14
ENDBRANCH  10  13
TORSDOF 5
ENDMDL
MODEL      191
REMARK 921   NORMALIZED FREE ENERGY PREDICTED BY IDOCK:   -3.87 KCAL/MOL
REMARK 922        TOTAL FREE ENERGY PREDICTED BY IDOCK:   -6.72 KCAL/MOL
REMARK 923 INTER-LIGAND FREE ENERGY PREDICTED BY IDOCK:   -6.50 KCAL/MOL
REMARK 924 INTRA-LIGAND FREE ENERGY PREDICTED BY IDOCK:   -0.22 KCAL/MOL
REMARK 927      BINDING AFFINITY PREDICTED BY RF-SCORE:    0.00 PKD
ROOT
HETATM    1  C   UNL     1      -9.514   6.538  70.098  1.00  0.00    -0.164 C  
HETATM    2  C   UNL     1      -8.200   5.746  69.994  1.00  0.00    -0.115 C  
HETATM    3  C   UNL     1      -8.389   4.414  70.746  1.00  0.00    -0.089 C  
HETATM    4  C   UNL     1      -9.359   3.634  69.835  1.00  0.00    -0.246 C  
HETATM    5  C   UNL     1      -9.593   4.610  68.664  1.00  0.00    -0.226 C  
HETATM    6  C   UNL     1      -8.206   5.250  68.547  1.00  0.00    -0.090 C  
HETATM    7  C   UNL     1     -10.469   5.758  69.190  1.00  0.00    -0.346 C  
HETATM    8  C   UNL     1     -10.866   6.743  68.126  1.00  0.00    -0.228 C  
HETATM    9  O   UNL     1     -11.552   6.469  67.154  1.00  0.00    -0.032 OA 
HETATM   10  N   UNL     1     -10.305   7.954  68.415  1.00  0.00    -0.206 N  
HETATM   11  O   UNL     1      -8.675   8.788  69.837  1.00  0.00    -0.126 OA 
HETATM   12  C   UNL     1      -9.433   7.902  69.468  1.00  0.00    -0.160 C  
ENDROOT
BRANCH  10  13
HETATM   13  C   UNL     1     -10.459   9.129  67.571  1.00  0.00    -0.270 C  
BRANCH  13  14
HETATM   14  C   UNL     1      -9.425   9.161  66.423  1.00  0.00    -0.288 C  
HETATM   15  C   UNL     1      -8.798   7.764  66.243  1.00  0.00    -0.187 C  
HETATM   16  C   UNL     1      -7.827   7.728  65.071  1.00  0.00    -0.125 C  
HETATM   17  C   UNL     1      -6.756   8.803  65.200  1.00  0.00    -0.064 C  
HETATM   18  C   UNL     1      -7.368  10.190  65.384  1.00  0.00    -0.144 C  
HETATM   19  C   UNL     1      -8.306  10.234  66.607  1.00  0.00    -0.125 C  
BRANCH  19  20
HETATM   20  C   UNL     1      -8.907  11.645  66.812  1.00  0.00    -0.184 C  
BRANCH  20  21
HETATM   21  N   UNL     1      -8.931  12.176  68.188  1.00  0.00    -0.190 NA 
HETATM   22  C   UNL     1      -7.539  12.429  68.656  1.00  0.00    -0.082 C  
HETATM   23  C   UNL     1      -6.805  13.529  67.862  1.00  0.00    -0.151 C  
HETATM   24  N   UNL     1      -7.555  14.796  67.860  1.00  0.00    -0.125 NA 
HETATM   25  C   UNL     1      -9.007  14.689  67.620  1.00  0.00    -0.187 C  
HETATM   26  C   UNL     1      -9.655  13.464  68.317  1.00  0.00    -0.220 C  
BRANCH  24  27
HETATM   27  C   UNL     1      -7.058  15.832  68.606  1.00  0.00    -0.129 A  
HETATM   28  N   UNL     1      -6.056  15.681  69.470  1.00  0.00    -0.131 NA 
HETATM   29  S   UNL     1      -5.621  17.148  70.076  1.00  0.00    -0.238 SA 
HETATM   30  C   UNL     1      -6.749  18.075  69.179  1.00  0.00    -0.247 A  
HETATM   31  C   UNL     1      -6.928  19.468  69.147  1.00  0.00    -0.392 A  
HETATM   32  C   UNL     1      -7.919  19.992  68.316  1.00  0.00    -0.214 A  
HETATM   33  C   UNL     1      -8.709  19.153  67.540  1.00  0.00    -0.322 A  
HETATM   34  C   UNL     1      -8.513  17.767  67.572  1.00  0.00    -0.227 A  
HETATM   35  C   UNL     1      -7.520  17.199  68.411  1.00  0.00    -0.227 A  
ENDBRANCH  24  27
ENDBRANCH  20  21
ENDBRANCH  19  20
ENDBRANCH  13  14
ENDBRANCH  10  13
TORSDOF 5
ENDMDL
MODEL      192
REMARK 921   NORMALIZED FREE ENERGY PREDICTED BY IDOCK:   -3.86 KCAL/MOL
REMARK 922        TOTAL FREE ENERGY PREDICTED BY IDOCK:   -6.72 KCAL/MOL
REMARK 923 INTER-LIGAND FREE ENERGY PREDICTED BY IDOCK:   -6.34 KCAL/MOL
REMARK 924 INTRA-LIGAND FREE ENERGY PREDICTED BY IDOCK:   -0.37 KCAL/MOL
REMARK 927      BINDING AFFINITY PREDICTED BY RF-SCORE:    0.00 PKD
ROOT
HETATM    1  C   UNL     1      -7.912   5.935  64.210  1.00  0.00    -0.122 C  
HETATM    2  C   UNL     1      -6.886   4.863  64.615  1.00  0.00    -0.049 C  
HETATM    3  C   UNL     1      -6.820   3.819  63.483  1.00  0.00    -0.044 C  
HETATM    4  C   UNL     1      -6.117   4.585  62.344  1.00  0.00    -0.017 C  
HETATM    5  C   UNL     1      -5.852   5.969  62.969  1.00  0.00    -0.022 C  
HETATM    6  C   UNL     1      -5.545   5.572  64.416  1.00  0.00    -0.017 C  
HETATM    7  C   UNL     1      -7.205   6.690  63.081  1.00  0.00    -0.060 C  
HETATM    8  C   UNL     1      -7.090   8.101  63.585  1.00  0.00    -0.082 C  
HETATM    9  O   UNL     1      -6.496   8.996  63.004  1.00  0.00    -0.091 OA 
HETATM   10  N   UNL     1      -7.721   8.191  64.793  1.00  0.00    -0.115 N  
HETATM   11  O   UNL     1      -8.568   6.741  66.391  1.00  0.00    -0.119 OA 
HETATM   12  C   UNL     1      -8.129   6.976  65.274  1.00  0.00    -0.134 C  
ENDROOT
BRANCH  10  13
HETATM   13  C   UNL     1      -7.773   9.413  65.581  1.00  0.00    -0.099 C  
BRANCH  13  14
HETATM   14  C   UNL     1      -9.173  10.067  65.549  1.00  0.00    -0.247 C  
HETATM   15  C   UNL     1      -9.489  10.560  64.123  1.00  0.00    -0.342 C  
HETATM   16  C   UNL     1     -10.892  11.144  64.026  1.00  0.00    -0.351 C  
HETATM   17  C   UNL     1     -11.110  12.246  65.054  1.00  0.00    -0.359 C  
HETATM   18  C   UNL     1     -10.793  11.769  66.470  1.00  0.00    -0.323 C  
HETATM   19  C   UNL     1      -9.352  11.231  66.574  1.00  0.00    -0.201 C  
BRANCH  19  20
HETATM   20  C   UNL     1      -9.020  10.771  68.013  1.00  0.00    -0.139 C  
BRANCH  20  21
HETATM   21  N   UNL     1      -9.241   9.348  68.336  1.00  0.00    -0.128 NA 
HETATM   22  C   UNL     1      -8.051   8.803  69.049  1.00  0.00    -0.116 C  
HETATM   23  C   UNL     1      -7.801   9.447  70.428  1.00  0.00    -0.164 C  
HETATM   24  N   UNL     1      -8.982   9.345  71.302  1.00  0.00    -0.258 NA 
HETATM   25  C   UNL     1     -10.281   9.651  70.675  1.00  0.00    -0.278 C  
HETATM   26  C   UNL     1     -10.403   9.113  69.224  1.00  0.00    -0.216 C  
BRANCH  24  27
HETATM   27  C   UNL     1      -8.919   8.475  72.358  1.00  0.00    -0.214 A  
HETATM   28  N   UNL     1      -8.173   8.704  73.438  1.00  0.00    -0.394 NA 
HETATM   29  S   UNL     1      -8.449   7.534  74.561  1.00  0.00    -0.151 SA 
HETATM   30  C   UNL     1      -9.618   6.665  73.659  1.00  0.00    -0.185 A  
HETATM   31  C   UNL     1     -10.357   5.528  74.025  1.00  0.00    -0.297 A  
HETATM   32  C   UNL     1     -11.270   5.004  73.108  1.00  0.00    -0.408 A  
HETATM   33  C   UNL     1     -11.441   5.596  71.863  1.00  0.00    -0.163 A  
HETATM   34  C   UNL     1     -10.706   6.736  71.514  1.00  0.00    -0.254 A  
HETATM   35  C   UNL     1      -9.764   7.291  72.419  1.00  0.00    -0.186 A  
ENDBRANCH  24  27
ENDBRANCH  20  21
ENDBRANCH  19  20
ENDBRANCH  13  14
ENDBRANCH  10  13
TORSDOF 5
ENDMDL
MODEL      193
REMARK 921   NORMALIZED FREE ENERGY PREDICTED BY IDOCK:   -3.86 KCAL/MOL
REMARK 922        TOTAL FREE ENERGY PREDICTED BY IDOCK:   -6.71 KCAL/MOL
REMARK 923 INTER-LIGAND FREE ENERGY PREDICTED BY IDOCK:   -6.08 KCAL/MOL
REMARK 924 INTRA-LIGAND FREE ENERGY PREDICTED BY IDOCK:   -0.63 KCAL/MOL
REMARK 927      BINDING AFFINITY PREDICTED BY RF-SCORE:    0.00 PKD
ROOT
HETATM    1  C   UNL     1     -11.504  11.811  66.926  1.00  0.00    -0.364 C  
HETATM    2  C   UNL     1     -10.510  12.848  66.372  1.00  0.00    -0.278 C  
HETATM    3  C   UNL     1     -11.308  14.108  65.983  1.00  0.00    -0.330 C  
HETATM    4  C   UNL     1     -11.724  14.693  67.348  1.00  0.00    -0.413 C  
HETATM    5  C   UNL     1     -11.099  13.704  68.353  1.00  0.00    -0.289 C  
HETATM    6  C   UNL     1      -9.796  13.350  67.629  1.00  0.00    -0.226 C  
HETATM    7  C   UNL     1     -11.909  12.399  68.280  1.00  0.00    -0.364 C  
HETATM    8  C   UNL     1     -11.474  11.369  69.284  1.00  0.00    -0.303 C  
HETATM    9  O   UNL     1     -11.540  11.513  70.494  1.00  0.00    -0.245 OA 
HETATM   10  N   UNL     1     -10.973  10.288  68.617  1.00  0.00    -0.238 N  
HETATM   11  O   UNL     1     -10.293   9.774  66.461  1.00  0.00    -0.234 OA 
HETATM   12  C   UNL     1     -10.856  10.498  67.269  1.00  0.00    -0.279 C  
ENDROOT
BRANCH  10  13
HETATM   13  C   UNL     1     -10.430   9.115  69.286  1.00  0.00    -0.221 C  
BRANCH  13  14
HETATM   14  C   UNL     1      -8.905   9.228  69.512  1.00  0.00    -0.151 C  
HETATM   15  C   UNL     1      -8.456  10.692  69.336  1.00  0.00    -0.058 C  
HETATM   16  C   UNL     1      -6.971  10.866  69.625  1.00  0.00    -0.128 C  
HETATM   17  C   UNL     1      -6.124   9.921  68.782  1.00  0.00    -0.041 C  
HETATM   18  C   UNL     1      -6.566   8.469  68.946  1.00  0.00    -0.053 C  
HETATM   19  C   UNL     1      -8.057   8.290  68.596  1.00  0.00    -0.120 C  
BRANCH  19  20
HETATM   20  C   UNL     1      -8.501   6.815  68.735  1.00  0.00    -0.124 C  
BRANCH  20  21
HETATM   21  N   UNL     1      -9.374   6.269  67.678  1.00  0.00    -0.117 NA 
HETATM   22  C   UNL     1      -8.751   6.496  66.344  1.00  0.00    -0.140 C  
HETATM   23  C   UNL     1      -7.424   5.736  66.138  1.00  0.00    -0.082 C  
HETATM   24  N   UNL     1      -7.580   4.289  66.363  1.00  0.00    -0.088 NA 
HETATM   25  C   UNL     1      -8.368   3.899  67.548  1.00  0.00    -0.094 C  
HETATM   26  C   UNL     1      -9.602   4.808  67.789  1.00  0.00    -0.154 C  
BRANCH  24  27
HETATM   27  C   UNL     1      -7.533   3.466  65.269  1.00  0.00    -0.076 A  
HETATM   28  N   UNL     1      -6.500   2.666  65.013  1.00  0.00    -0.030 NA 
HETATM   29  S   UNL     1      -6.841   1.719  63.712  1.00  0.00    -0.031 SA 
HETATM   30  C   UNL     1      -8.423   2.319  63.440  1.00  0.00    -0.085 A  
HETATM   31  C   UNL     1      -9.372   1.920  62.483  1.00  0.00    -0.089 A  
HETATM   32  C   UNL     1     -10.612   2.563  62.469  1.00  0.00    -0.143 A  
HETATM   33  C   UNL     1     -10.897   3.572  63.380  1.00  0.00    -0.193 A  
HETATM   34  C   UNL     1      -9.947   3.952  64.336  1.00  0.00    -0.199 A  
HETATM   35  C   UNL     1      -8.673   3.326  64.375  1.00  0.00    -0.094 A  
ENDBRANCH  24  27
ENDBRANCH  20  21
ENDBRANCH  19  20
ENDBRANCH  13  14
ENDBRANCH  10  13
TORSDOF 5
ENDMDL
MODEL      194
REMARK 921   NORMALIZED FREE ENERGY PREDICTED BY IDOCK:   -3.85 KCAL/MOL
REMARK 922        TOTAL FREE ENERGY PREDICTED BY IDOCK:   -6.70 KCAL/MOL
REMARK 923 INTER-LIGAND FREE ENERGY PREDICTED BY IDOCK:   -8.68 KCAL/MOL
REMARK 924 INTRA-LIGAND FREE ENERGY PREDICTED BY IDOCK:    1.98 KCAL/MOL
REMARK 927      BINDING AFFINITY PREDICTED BY RF-SCORE:    0.00 PKD
ROOT
HETATM    1  C   UNL     1     -10.666  15.855  70.088  1.00  0.00    -0.338 C  
HETATM    2  C   UNL     1     -11.058  14.849  71.184  1.00  0.00    -0.107 C  
HETATM    3  C   UNL     1     -12.115  15.518  72.085  1.00  0.00    -0.509 C  
HETATM    4  C   UNL     1     -13.361  15.574  71.178  1.00  0.00    -0.553 C  
HETATM    5  C   UNL     1     -12.869  14.915  69.874  1.00  0.00    -0.035 C  
HETATM    6  C   UNL     1     -11.931  13.841  70.435  1.00  0.00    -0.385 C  
HETATM    7  C   UNL     1     -11.907  15.903  69.193  1.00  0.00    -0.340 C  
HETATM    8  C   UNL     1     -11.422  15.435  67.850  1.00  0.00    -0.299 C  
HETATM    9  O   UNL     1     -12.143  15.244  66.883  1.00  0.00     0.076 OA 
HETATM   10  N   UNL     1     -10.073  15.232  67.915  1.00  0.00    -0.231 N  
HETATM   11  O   UNL     1      -8.447  15.063  69.558  1.00  0.00    -0.182 OA 
HETATM   12  C   UNL     1      -9.575  15.349  69.185  1.00  0.00    -0.253 C  
ENDROOT
BRANCH  10  13
HETATM   13  C   UNL     1      -9.282  14.744  66.796  1.00  0.00    -0.260 C  
BRANCH  13  14
HETATM   14  C   UNL     1     -10.068  13.746  65.917  1.00  0.00    -0.325 C  
HETATM   15  C   UNL     1     -10.946  14.514  64.908  1.00  0.00    -0.421 C  
HETATM   16  C   UNL     1     -11.683  13.570  63.968  1.00  0.00    -0.440 C  
HETATM   17  C   UNL     1     -12.498  12.540  64.739  1.00  0.00    -0.532 C  
HETATM   18  C   UNL     1     -11.639  11.778  65.745  1.00  0.00    -0.194 C  
HETATM   19  C   UNL     1     -10.940  12.737  66.730  1.00  0.00    -0.301 C  
BRANCH  19  20
HETATM   20  C   UNL     1     -10.090  11.966  67.767  1.00  0.00    -0.191 C  
BRANCH  20  21
HETATM   21  N   UNL     1     -10.143  10.492  67.723  1.00  0.00    -0.170 NA 
HETATM   22  C   UNL     1      -8.887   9.925  68.289  1.00  0.00    -0.119 C  
HETATM   23  C   UNL     1      -8.684  10.230  69.788  1.00  0.00    -0.044 C  
HETATM   24  N   UNL     1      -9.829   9.781  70.598  1.00  0.00    -0.192 NA 
HETATM   25  C   UNL     1     -11.166  10.085  70.054  1.00  0.00    -0.288 C  
HETATM   26  C   UNL     1     -11.255   9.913  68.515  1.00  0.00    -0.072 C  
BRANCH  24  27
HETATM   27  C   UNL     1      -9.648   8.689  71.405  1.00  0.00    -0.243 A  
HETATM   28  N   UNL     1      -9.385   8.790  72.706  1.00  0.00    -0.232 NA 
HETATM   29  S   UNL     1      -9.376   7.293  73.388  1.00  0.00    -0.221 SA 
HETATM   30  C   UNL     1      -9.758   6.423  71.961  1.00  0.00    -0.150 A  
HETATM   31  C   UNL     1      -9.971   5.045  71.791  1.00  0.00    -0.250 A  
HETATM   32  C   UNL     1     -10.286   4.573  70.515  1.00  0.00    -0.152 A  
HETATM   33  C   UNL     1     -10.385   5.449  69.442  1.00  0.00    -0.339 A  
HETATM   34  C   UNL     1     -10.182   6.822  69.626  1.00  0.00    -0.207 A  
HETATM   35  C   UNL     1      -9.853   7.336  70.908  1.00  0.00    -0.184 A  
ENDBRANCH  24  27
ENDBRANCH  20  21
ENDBRANCH  19  20
ENDBRANCH  13  14
ENDBRANCH  10  13
TORSDOF 5
ENDMDL
MODEL      195
REMARK 921   NORMALIZED FREE ENERGY PREDICTED BY IDOCK:   -3.82 KCAL/MOL
REMARK 922        TOTAL FREE ENERGY PREDICTED BY IDOCK:   -6.66 KCAL/MOL
REMARK 923 INTER-LIGAND FREE ENERGY PREDICTED BY IDOCK:   -6.40 KCAL/MOL
REMARK 924 INTRA-LIGAND FREE ENERGY PREDICTED BY IDOCK:   -0.26 KCAL/MOL
REMARK 927      BINDING AFFINITY PREDICTED BY RF-SCORE:    0.00 PKD
ROOT
HETATM    1  C   UNL     1      -8.969   7.311  70.648  1.00  0.00    -0.156 C  
HETATM    2  C   UNL     1      -7.773   6.396  70.331  1.00  0.00    -0.098 C  
HETATM    3  C   UNL     1      -8.150   4.962  70.750  1.00  0.00    -0.087 C  
HETATM    4  C   UNL     1      -9.206   4.559  69.701  1.00  0.00    -0.195 C  
HETATM    5  C   UNL     1      -9.292   5.807  68.799  1.00  0.00    -0.135 C  
HETATM    6  C   UNL     1      -7.830   6.263  68.808  1.00  0.00    -0.101 C  
HETATM    7  C   UNL     1     -10.010   6.905  69.601  1.00  0.00    -0.179 C  
HETATM    8  C   UNL     1     -10.257   8.158  68.809  1.00  0.00    -0.207 C  
HETATM    9  O   UNL     1     -10.963   8.218  67.815  1.00  0.00    -0.057 OA 
HETATM   10  N   UNL     1      -9.540   9.179  69.364  1.00  0.00    -0.161 N  
HETATM   11  O   UNL     1      -7.829   9.425  70.908  1.00  0.00    -0.243 OA 
HETATM   12  C   UNL     1      -8.695   8.761  70.357  1.00  0.00    -0.166 C  
ENDROOT
BRANCH  10  13
HETATM   13  C   UNL     1      -9.523  10.531  68.826  1.00  0.00    -0.180 C  
BRANCH  13  14
HETATM   14  C   UNL     1      -8.485  10.694  67.694  1.00  0.00    -0.118 C  
HETATM   15  C   UNL     1      -8.107   9.311  67.125  1.00  0.00    -0.109 C  
HETATM   16  C   UNL     1      -7.142   9.427  65.954  1.00  0.00    -0.091 C  
HETATM   17  C   UNL     1      -5.903  10.227  66.329  1.00  0.00    -0.070 C  
HETATM   18  C   UNL     1      -6.266  11.597  66.899  1.00  0.00    -0.149 C  
HETATM   19  C   UNL     1      -7.198  11.470  68.120  1.00  0.00    -0.080 C  
BRANCH  19  20
HETATM   20  C   UNL     1      -7.547  12.854  68.716  1.00  0.00    -0.025 C  
BRANCH  20  21
HETATM   21  N   UNL     1      -8.362  13.761  67.885  1.00  0.00    -0.159 NA 
HETATM   22  C   UNL     1      -9.132  14.690  68.760  1.00  0.00    -0.178 C  
HETATM   23  C   UNL     1      -8.248  15.654  69.578  1.00  0.00    -0.175 C  
HETATM   24  N   UNL     1      -7.345  16.434  68.715  1.00  0.00    -0.190 NA 
HETATM   25  C   UNL     1      -6.660  15.682  67.645  1.00  0.00    -0.172 C  
HETATM   26  C   UNL     1      -7.563  14.614  66.973  1.00  0.00     0.105 C  
BRANCH  24  27
HETATM   27  C   UNL     1      -7.615  17.767  68.551  1.00  0.00    -0.276 A  
HETATM   28  N   UNL     1      -6.866  18.726  69.092  1.00  0.00    -0.286 NA 
HETATM   29  S   UNL     1      -7.388  20.197  68.573  1.00  0.00    -0.095 SA 
HETATM   30  C   UNL     1      -8.642  19.616  67.561  1.00  0.00    -0.311 A  
HETATM   31  C   UNL     1      -9.516  20.334  66.727  1.00  0.00    -0.518 A  
HETATM   32  C   UNL     1     -10.458  19.623  65.981  1.00  0.00    -0.622 A  
HETATM   33  C   UNL     1     -10.528  18.238  66.065  1.00  0.00    -0.380 A  
HETATM   34  C   UNL     1      -9.645  17.533  66.890  1.00  0.00    -0.279 A  
HETATM   35  C   UNL     1      -8.679  18.224  67.668  1.00  0.00    -0.261 A  
ENDBRANCH  24  27
ENDBRANCH  20  21
ENDBRANCH  19  20
ENDBRANCH  13  14
ENDBRANCH  10  13
TORSDOF 5
ENDMDL
MODEL      196
REMARK 921   NORMALIZED FREE ENERGY PREDICTED BY IDOCK:   -3.81 KCAL/MOL
REMARK 922        TOTAL FREE ENERGY PREDICTED BY IDOCK:   -6.65 KCAL/MOL
REMARK 923 INTER-LIGAND FREE ENERGY PREDICTED BY IDOCK:   -6.36 KCAL/MOL
REMARK 924 INTRA-LIGAND FREE ENERGY PREDICTED BY IDOCK:   -0.29 KCAL/MOL
REMARK 927      BINDING AFFINITY PREDICTED BY RF-SCORE:    0.00 PKD
ROOT
HETATM    1  C   UNL     1     -10.802  14.612  67.078  1.00  0.00    -0.304 C  
HETATM    2  C   UNL     1     -11.306  13.498  66.144  1.00  0.00    -0.325 C  
HETATM    3  C   UNL     1     -12.712  13.892  65.651  1.00  0.00    -0.534 C  
HETATM    4  C   UNL     1     -12.429  15.069  64.696  1.00  0.00    -0.129 C  
HETATM    5  C   UNL     1     -10.893  15.194  64.746  1.00  0.00    -0.378 C  
HETATM    6  C   UNL     1     -10.493  13.721  64.867  1.00  0.00    -0.437 C  
HETATM    7  C   UNL     1     -10.523  15.775  66.121  1.00  0.00    -0.326 C  
HETATM    8  C   UNL     1      -9.054  16.048  66.279  1.00  0.00    -0.344 C  
HETATM    9  O   UNL     1      -8.425  16.852  65.608  1.00  0.00    -0.414 OA 
HETATM   10  N   UNL     1      -8.556  15.233  67.254  1.00  0.00    -0.176 N  
HETATM   11  O   UNL     1      -9.244  13.359  68.432  1.00  0.00    -0.195 OA 
HETATM   12  C   UNL     1      -9.464  14.307  67.693  1.00  0.00    -0.211 C  
ENDROOT
BRANCH  10  13
HETATM   13  C   UNL     1      -7.154  15.213  67.643  1.00  0.00    -0.186 C  
BRANCH  13  14
HETATM   14  C   UNL     1      -6.900  14.296  68.860  1.00  0.00    -0.104 C  
HETATM   15  C   UNL     1      -6.348  15.126  70.036  1.00  0.00    -0.153 C  
HETATM   16  C   UNL     1      -6.154  14.277  71.285  1.00  0.00    -0.043 C  
HETATM   17  C   UNL     1      -5.277  13.065  71.004  1.00  0.00    -0.169 C  
HETATM   18  C   UNL     1      -5.812  12.238  69.837  1.00  0.00    -0.140 C  
HETATM   19  C   UNL     1      -5.952  13.092  68.560  1.00  0.00    -0.075 C  
BRANCH  19  20
HETATM   20  C   UNL     1      -6.469  12.251  67.369  1.00  0.00    -0.157 C  
BRANCH  20  21
HETATM   21  N   UNL     1      -6.719  10.817  67.612  1.00  0.00    -0.068 NA 
HETATM   22  C   UNL     1      -8.048  10.437  67.056  1.00  0.00    -0.116 C  
HETATM   23  C   UNL     1      -8.142  10.560  65.521  1.00  0.00    -0.155 C  
HETATM   24  N   UNL     1      -7.090   9.782  64.844  1.00  0.00    -0.118 NA 
HETATM   25  C   UNL     1      -5.735   9.888  65.418  1.00  0.00    -0.069 C  
HETATM   26  C   UNL     1      -5.727   9.922  66.969  1.00  0.00    -0.050 C  
BRANCH  24  27
HETATM   27  C   UNL     1      -7.468   8.644  64.182  1.00  0.00    -0.110 A  
HETATM   28  N   UNL     1      -7.497   8.560  62.853  1.00  0.00    -0.102 NA 
HETATM   29  S   UNL     1      -7.851   7.018  62.403  1.00  0.00    -0.129 SA 
HETATM   30  C   UNL     1      -7.956   6.368  63.985  1.00  0.00    -0.090 A  
HETATM   31  C   UNL     1      -8.188   5.042  64.387  1.00  0.00    -0.128 A  
HETATM   32  C   UNL     1      -8.217   4.758  65.754  1.00  0.00    -0.112 A  
HETATM   33  C   UNL     1      -8.019   5.764  66.691  1.00  0.00    -0.102 A  
HETATM   34  C   UNL     1      -7.777   7.079  66.277  1.00  0.00    -0.094 A  
HETATM   35  C   UNL     1      -7.748   7.407  64.896  1.00  0.00    -0.113 A  
ENDBRANCH  24  27
ENDBRANCH  20  21
ENDBRANCH  19  20
ENDBRANCH  13  14
ENDBRANCH  10  13
TORSDOF 5
ENDMDL
MODEL      197
REMARK 921   NORMALIZED FREE ENERGY PREDICTED BY IDOCK:   -3.78 KCAL/MOL
REMARK 922        TOTAL FREE ENERGY PREDICTED BY IDOCK:   -6.61 KCAL/MOL
REMARK 923 INTER-LIGAND FREE ENERGY PREDICTED BY IDOCK:   -5.51 KCAL/MOL
REMARK 924 INTRA-LIGAND FREE ENERGY PREDICTED BY IDOCK:   -1.09 KCAL/MOL
REMARK 927      BINDING AFFINITY PREDICTED BY RF-SCORE:    0.00 PKD
ROOT
HETATM    1  C   UNL     1      -8.350  15.887  67.244  1.00  0.00    -0.211 C  
HETATM    2  C   UNL     1      -8.502  16.697  68.543  1.00  0.00    -0.233 C  
HETATM    3  C   UNL     1      -9.552  17.798  68.295  1.00  0.00    -0.312 C  
HETATM    4  C   UNL     1     -10.872  17.005  68.203  1.00  0.00    -0.338 C  
HETATM    5  C   UNL     1     -10.417  15.548  68.426  1.00  0.00    -0.240 C  
HETATM    6  C   UNL     1      -9.296  15.755  69.449  1.00  0.00    -0.269 C  
HETATM    7  C   UNL     1      -9.663  15.103  67.162  1.00  0.00    -0.230 C  
HETATM    8  C   UNL     1      -9.244  13.660  67.194  1.00  0.00    -0.244 C  
HETATM    9  O   UNL     1     -10.018  12.717  67.242  1.00  0.00    -0.215 OA 
HETATM   10  N   UNL     1      -7.880  13.597  67.197  1.00  0.00    -0.082 N  
HETATM   11  O   UNL     1      -6.103  15.049  67.525  1.00  0.00    -0.295 OA 
HETATM   12  C   UNL     1      -7.289  14.825  67.331  1.00  0.00    -0.185 C  
ENDROOT
BRANCH  10  13
HETATM   13  C   UNL     1      -7.136  12.349  67.257  1.00  0.00    -0.128 C  
BRANCH  13  14
HETATM   14  C   UNL     1      -7.073  11.777  68.691  1.00  0.00    -0.101 C  
HETATM   15  C   UNL     1      -5.754  12.200  69.368  1.00  0.00    -0.083 C  
HETATM   16  C   UNL     1      -5.681  11.723  70.812  1.00  0.00    -0.074 C  
HETATM   17  C   UNL     1      -5.898  10.219  70.914  1.00  0.00    -0.074 C  
HETATM   18  C   UNL     1      -7.200   9.789  70.241  1.00  0.00    -0.154 C  
HETATM   19  C   UNL     1      -7.242  10.226  68.763  1.00  0.00    -0.083 C  
BRANCH  19  20
HETATM   20  C   UNL     1      -8.549   9.769  68.072  1.00  0.00    -0.122 C  
BRANCH  20  21
HETATM   21  N   UNL     1      -8.422   9.100  66.764  1.00  0.00    -0.122 NA 
HETATM   22  C   UNL     1      -7.341   8.076  66.824  1.00  0.00    -0.089 C  
HETATM   23  C   UNL     1      -7.638   6.912  67.793  1.00  0.00    -0.107 C  
HETATM   24  N   UNL     1      -8.917   6.252  67.482  1.00  0.00    -0.110 NA 
HETATM   25  C   UNL     1     -10.051   7.146  67.183  1.00  0.00    -0.225 C  
HETATM   26  C   UNL     1      -9.650   8.385  66.339  1.00  0.00    -0.237 C  
BRANCH  24  27
HETATM   27  C   UNL     1      -8.868   4.998  66.932  1.00  0.00    -0.106 A  
HETATM   28  N   UNL     1      -9.149   3.897  67.625  1.00  0.00    -0.138 NA 
HETATM   29  S   UNL     1      -9.136   2.592  66.623  1.00  0.00    -0.081 SA 
HETATM   30  C   UNL     1      -8.777   3.452  65.185  1.00  0.00    -0.119 A  
HETATM   31  C   UNL     1      -8.658   2.972  63.869  1.00  0.00    -0.089 A  
HETATM   32  C   UNL     1      -8.367   3.884  62.853  1.00  0.00    -0.082 A  
HETATM   33  C   UNL     1      -8.200   5.233  63.139  1.00  0.00    -0.110 A  
HETATM   34  C   UNL     1      -8.333   5.701  64.452  1.00  0.00    -0.093 A  
HETATM   35  C   UNL     1      -8.621   4.801  65.511  1.00  0.00    -0.131 A  
ENDBRANCH  24  27
ENDBRANCH  20  21
ENDBRANCH  19  20
ENDBRANCH  13  14
ENDBRANCH  10  13
TORSDOF 5
ENDMDL
MODEL      198
REMARK 921   NORMALIZED FREE ENERGY PREDICTED BY IDOCK:   -3.77 KCAL/MOL
REMARK 922        TOTAL FREE ENERGY PREDICTED BY IDOCK:   -6.59 KCAL/MOL
REMARK 923 INTER-LIGAND FREE ENERGY PREDICTED BY IDOCK:   -7.16 KCAL/MOL
REMARK 924 INTRA-LIGAND FREE ENERGY PREDICTED BY IDOCK:    0.57 KCAL/MOL
REMARK 927      BINDING AFFINITY PREDICTED BY RF-SCORE:    0.00 PKD
ROOT
HETATM    1  C   UNL     1      -6.630   9.295  65.431  1.00  0.00    -0.069 C  
HETATM    2  C   UNL     1      -7.738   9.507  64.384  1.00  0.00    -0.123 C  
HETATM    3  C   UNL     1      -7.630   8.375  63.344  1.00  0.00    -0.129 C  
HETATM    4  C   UNL     1      -8.102   7.134  64.129  1.00  0.00    -0.026 C  
HETATM    5  C   UNL     1      -8.439   7.712  65.519  1.00  0.00    -0.132 C  
HETATM    6  C   UNL     1      -9.005   9.080  65.127  1.00  0.00    -0.216 C  
HETATM    7  C   UNL     1      -7.108   8.063  66.205  1.00  0.00    -0.066 C  
HETATM    8  C   UNL     1      -7.275   8.548  67.618  1.00  0.00    -0.084 C  
HETATM    9  O   UNL     1      -7.735   7.877  68.528  1.00  0.00    -0.109 OA 
HETATM   10  N   UNL     1      -6.864   9.848  67.689  1.00  0.00    -0.083 N  
HETATM   11  O   UNL     1      -6.347  11.561  66.215  1.00  0.00    -0.064 OA 
HETATM   12  C   UNL     1      -6.577  10.386  66.464  1.00  0.00    -0.094 C  
ENDROOT
BRANCH  10  13
HETATM   13  C   UNL     1      -6.920  10.640  68.909  1.00  0.00    -0.073 C  
BRANCH  13  14
HETATM   14  C   UNL     1      -8.360  10.773  69.452  1.00  0.00    -0.018 C  
HETATM   15  C   UNL     1      -8.776   9.468  70.159  1.00  0.00    -0.258 C  
HETATM   16  C   UNL     1     -10.163   9.578  70.778  1.00  0.00    -0.363 C  
HETATM   17  C   UNL     1     -11.200  10.004  69.749  1.00  0.00    -0.307 C  
HETATM   18  C   UNL     1     -10.795  11.293  69.038  1.00  0.00    -0.268 C  
HETATM   19  C   UNL     1      -9.414  11.155  68.365  1.00  0.00    -0.189 C  
BRANCH  19  20
HETATM   20  C   UNL     1      -9.013  12.451  67.621  1.00  0.00    -0.183 C  
BRANCH  20  21
HETATM   21  N   UNL     1      -9.528  13.725  68.158  1.00  0.00    -0.207 NA 
HETATM   22  C   UNL     1      -8.397  14.552  68.665  1.00  0.00    -0.164 C  
HETATM   23  C   UNL     1      -7.411  15.001  67.565  1.00  0.00    -0.202 C  
HETATM   24  N   UNL     1      -8.094  15.722  66.478  1.00  0.00    -0.249 NA 
HETATM   25  C   UNL     1      -9.361  15.134  66.006  1.00  0.00    -0.291 C  
HETATM   26  C   UNL     1     -10.233  14.554  67.152  1.00  0.00    -0.260 C  
BRANCH  24  27
HETATM   27  C   UNL     1      -7.888  17.073  66.384  1.00  0.00    -0.308 A  
HETATM   28  N   UNL     1      -6.942  17.606  65.614  1.00  0.00    -0.364 NA 
HETATM   29  S   UNL     1      -7.074  19.246  65.626  1.00  0.00    -0.189 SA 
HETATM   30  C   UNL     1      -8.441  19.326  66.656  1.00  0.00    -0.316 A  
HETATM   31  C   UNL     1      -9.167  20.451  67.082  1.00  0.00    -0.511 A  
HETATM   32  C   UNL     1     -10.266  20.254  67.921  1.00  0.00    -0.444 A  
HETATM   33  C   UNL     1     -10.629  18.975  68.324  1.00  0.00    -0.239 A  
HETATM   34  C   UNL     1      -9.904  17.861  67.883  1.00  0.00    -0.309 A  
HETATM   35  C   UNL     1      -8.778  18.024  67.035  1.00  0.00    -0.253 A  
ENDBRANCH  24  27
ENDBRANCH  20  21
ENDBRANCH  19  20
ENDBRANCH  13  14
ENDBRANCH  10  13
TORSDOF 5
ENDMDL
MODEL      199
REMARK 921   NORMALIZED FREE ENERGY PREDICTED BY IDOCK:   -3.70 KCAL/MOL
REMARK 922        TOTAL FREE ENERGY PREDICTED BY IDOCK:   -6.51 KCAL/MOL
REMARK 923 INTER-LIGAND FREE ENERGY PREDICTED BY IDOCK:   -6.57 KCAL/MOL
REMARK 924 INTRA-LIGAND FREE ENERGY PREDICTED BY IDOCK:    0.06 KCAL/MOL
REMARK 927      BINDING AFFINITY PREDICTED BY RF-SCORE:    0.00 PKD
ROOT
HETATM    1  C   UNL     1      -7.829  15.646  68.371  1.00  0.00    -0.127 C  
HETATM    2  C   UNL     1      -6.681  16.626  68.068  1.00  0.00    -0.152 C  
HETATM    3  C   UNL     1      -6.417  17.454  69.341  1.00  0.00    -0.233 C  
HETATM    4  C   UNL     1      -5.779  16.427  70.299  1.00  0.00    -0.155 C  
HETATM    5  C   UNL     1      -5.740  15.140  69.450  1.00  0.00    -0.098 C  
HETATM    6  C   UNL     1      -5.446  15.723  68.065  1.00  0.00    -0.136 C  
HETATM    7  C   UNL     1      -7.185  14.631  69.319  1.00  0.00    -0.156 C  
HETATM    8  C   UNL     1      -7.293  13.319  68.596  1.00  0.00    -0.101 C  
HETATM    9  O   UNL     1      -6.805  12.271  68.991  1.00  0.00    -0.097 OA 
HETATM   10  N   UNL     1      -7.984  13.510  67.435  1.00  0.00    -0.168 N  
HETATM   11  O   UNL     1      -8.690  15.300  66.141  1.00  0.00    -0.245 OA 
HETATM   12  C   UNL     1      -8.238  14.830  67.176  1.00  0.00    -0.211 C  
ENDROOT
BRANCH  10  13
HETATM   13  C   UNL     1      -8.244  12.450  66.473  1.00  0.00     0.169 C  
BRANCH  13  14
HETATM   14  C   UNL     1      -9.750  12.307  66.157  1.00  0.00    -0.256 C  
HETATM   15  C   UNL     1     -10.121  13.194  64.953  1.00  0.00    -0.236 C  
HETATM   16  C   UNL     1     -11.582  13.028  64.556  1.00  0.00    -0.406 C  
HETATM   17  C   UNL     1     -12.511  13.278  65.736  1.00  0.00    -0.480 C  
HETATM   18  C   UNL     1     -12.149  12.407  66.937  1.00  0.00    -0.097 C  
HETATM   19  C   UNL     1     -10.684  12.624  67.368  1.00  0.00    -0.251 C  
BRANCH  19  20
HETATM   20  C   UNL     1     -10.321  11.762  68.601  1.00  0.00    -0.214 C  
BRANCH  20  21
HETATM   21  N   UNL     1     -10.554  10.309  68.501  1.00  0.00    -0.200 NA 
HETATM   22  C   UNL     1      -9.263   9.580  68.653  1.00  0.00    -0.135 C  
HETATM   23  C   UNL     1      -8.615   9.743  70.043  1.00  0.00    -0.204 C  
HETATM   24  N   UNL     1      -9.530   9.343  71.125  1.00  0.00    -0.225 NA 
HETATM   25  C   UNL     1     -10.922   9.816  71.004  1.00  0.00    -0.332 C  
HETATM   26  C   UNL     1     -11.458   9.777  69.549  1.00  0.00    -0.009 C  
BRANCH  24  27
HETATM   27  C   UNL     1      -9.257   8.177  71.790  1.00  0.00    -0.174 A  
HETATM   28  N   UNL     1      -8.932   8.143  73.081  1.00  0.00    -0.256 NA 
HETATM   29  S   UNL     1      -8.818   6.581  73.584  1.00  0.00    -0.128 SA 
HETATM   30  C   UNL     1      -9.232   5.860  72.085  1.00  0.00    -0.146 A  
HETATM   31  C   UNL     1      -9.389   4.501  71.766  1.00  0.00    -0.194 A  
HETATM   32  C   UNL     1      -9.747   4.161  70.460  1.00  0.00    -0.270 A  
HETATM   33  C   UNL     1      -9.942   5.147  69.501  1.00  0.00    -0.301 A  
HETATM   34  C   UNL     1      -9.794   6.498  69.834  1.00  0.00    -0.185 A  
HETATM   35  C   UNL     1      -9.424   6.880  71.150  1.00  0.00    -0.166 A  
ENDBRANCH  24  27
ENDBRANCH  20  21
ENDBRANCH  19  20
ENDBRANCH  13  14
ENDBRANCH  10  13
TORSDOF 5
ENDMDL
MODEL      200
REMARK 921   NORMALIZED FREE ENERGY PREDICTED BY IDOCK:   -3.70 KCAL/MOL
REMARK 922        TOTAL FREE ENERGY PREDICTED BY IDOCK:   -6.51 KCAL/MOL
REMARK 923 INTER-LIGAND FREE ENERGY PREDICTED BY IDOCK:   -6.79 KCAL/MOL
REMARK 924 INTRA-LIGAND FREE ENERGY PREDICTED BY IDOCK:    0.28 KCAL/MOL
REMARK 927      BINDING AFFINITY PREDICTED BY RF-SCORE:    0.00 PKD
ROOT
HETATM    1  C   UNL     1      -8.025  10.840  65.265  1.00  0.00     0.009 C  
HETATM    2  C   UNL     1      -7.226   9.848  64.401  1.00  0.00    -0.134 C  
HETATM    3  C   UNL     1      -5.844  10.470  64.122  1.00  0.00    -0.071 C  
HETATM    4  C   UNL     1      -5.147  10.402  65.496  1.00  0.00    -0.083 C  
HETATM    5  C   UNL     1      -6.211   9.734  66.391  1.00  0.00    -0.068 C  
HETATM    6  C   UNL     1      -6.840   8.753  65.397  1.00  0.00    -0.072 C  
HETATM    7  C   UNL     1      -7.327  10.764  66.626  1.00  0.00    -0.134 C  
HETATM    8  C   UNL     1      -8.394  10.284  67.570  1.00  0.00    -0.114 C  
HETATM    9  O   UNL     1      -8.203  10.006  68.743  1.00  0.00    -0.104 OA 
HETATM   10  N   UNL     1      -9.573  10.183  66.889  1.00  0.00    -0.172 N  
HETATM   11  O   UNL     1     -10.278  10.193  64.681  1.00  0.00    -0.279 OA 
HETATM   12  C   UNL     1      -9.431  10.382  65.542  1.00  0.00    -0.215 C  
ENDROOT
BRANCH  10  13
HETATM   13  C   UNL     1     -10.810   9.714  67.494  1.00  0.00    -0.198 C  
BRANCH  13  14
HETATM   14  C   UNL     1     -11.537  10.832  68.274  1.00  0.00    -0.297 C  
HETATM   15  C   UNL     1     -11.141  12.210  67.707  1.00  0.00    -0.302 C  
HETATM   16  C   UNL     1     -11.893  13.341  68.396  1.00  0.00    -0.395 C  
HETATM   17  C   UNL     1     -11.713  13.292  69.907  1.00  0.00    -0.330 C  
HETATM   18  C   UNL     1     -12.098  11.929  70.477  1.00  0.00    -0.422 C  
HETATM   19  C   UNL     1     -11.292  10.793  69.815  1.00  0.00    -0.372 C  
BRANCH  19  20
HETATM   20  C   UNL     1     -11.661   9.413  70.410  1.00  0.00    -0.192 C  
BRANCH  20  21
HETATM   21  N   UNL     1     -10.690   8.317  70.226  1.00  0.00    -0.232 NA 
HETATM   22  C   UNL     1      -9.743   8.284  71.376  1.00  0.00    -0.183 C  
HETATM   23  C   UNL     1     -10.411   7.946  72.725  1.00  0.00    -0.346 C  
HETATM   24  N   UNL     1     -11.151   6.674  72.667  1.00  0.00    -0.252 NA 
HETATM   25  C   UNL     1     -11.981   6.461  71.466  1.00  0.00    -0.273 C  
HETATM   26  C   UNL     1     -11.314   6.974  70.161  1.00  0.00    -0.277 C  
BRANCH  24  27
HETATM   27  C   UNL     1     -10.624   5.601  73.335  1.00  0.00    -0.258 A  
HETATM   28  N   UNL     1     -11.341   4.522  73.646  1.00  0.00    -0.265 NA 
HETATM   29  S   UNL     1     -10.363   3.377  74.308  1.00  0.00    -0.201 SA 
HETATM   30  C   UNL     1      -8.904   4.268  74.184  1.00  0.00    -0.095 A  
HETATM   31  C   UNL     1      -7.596   3.883  74.524  1.00  0.00    -0.074 A  
HETATM   32  C   UNL     1      -6.559   4.794  74.317  1.00  0.00    -0.065 A  
HETATM   33  C   UNL     1      -6.818   6.052  73.786  1.00  0.00    -0.080 A  
HETATM   34  C   UNL     1      -8.124   6.420  73.440  1.00  0.00    -0.109 A  
HETATM   35  C   UNL     1      -9.203   5.521  73.645  1.00  0.00    -0.133 A  
ENDBRANCH  24  27
ENDBRANCH  20  21
ENDBRANCH  19  20
ENDBRANCH  13  14
ENDBRANCH  10  13
TORSDOF 5
ENDMDL
MODEL      201
REMARK 921   NORMALIZED FREE ENERGY PREDICTED BY IDOCK:   -3.69 KCAL/MOL
REMARK 922        TOTAL FREE ENERGY PREDICTED BY IDOCK:   -6.49 KCAL/MOL
REMARK 923 INTER-LIGAND FREE ENERGY PREDICTED BY IDOCK:   -6.50 KCAL/MOL
REMARK 924 INTRA-LIGAND FREE ENERGY PREDICTED BY IDOCK:    0.02 KCAL/MOL
REMARK 927      BINDING AFFINITY PREDICTED BY RF-SCORE:    0.00 PKD
ROOT
HETATM    1  C   UNL     1     -10.408  18.713  68.005  1.00  0.00    -0.421 C  
HETATM    2  C   UNL     1     -10.365  18.998  66.494  1.00  0.00    -0.512 C  
HETATM    3  C   UNL     1     -10.042  20.493  66.303  1.00  0.00    -0.184 C  
HETATM    4  C   UNL     1      -8.564  20.588  66.735  1.00  0.00    -0.214 C  
HETATM    5  C   UNL     1      -8.218  19.131  67.105  1.00  0.00    -0.290 C  
HETATM    6  C   UNL     1      -9.039  18.371  66.060  1.00  0.00     0.018 C  
HETATM    7  C   UNL     1      -8.939  18.808  68.424  1.00  0.00    -0.367 C  
HETATM    8  C   UNL     1      -8.612  17.444  68.965  1.00  0.00    -0.053 C  
HETATM    9  O   UNL     1      -7.498  17.090  69.317  1.00  0.00    -0.213 OA 
HETATM   10  N   UNL     1      -9.745  16.683  68.957  1.00  0.00    -0.267 N  
HETATM   11  O   UNL     1     -11.869  16.789  68.033  1.00  0.00     0.301 OA 
HETATM   12  C   UNL     1     -10.796  17.296  68.328  1.00  0.00    -0.287 C  
ENDROOT
BRANCH  10  13
HETATM   13  C   UNL     1      -9.781  15.293  69.385  1.00  0.00    -0.247 C  
BRANCH  13  14
HETATM   14  C   UNL     1     -11.196  14.855  69.824  1.00  0.00    -0.308 C  
HETATM   15  C   UNL     1     -11.681  15.737  70.991  1.00  0.00    -0.462 C  
HETATM   16  C   UNL     1     -13.104  15.391  71.407  1.00  0.00    -0.563 C  
HETATM   17  C   UNL     1     -13.244  13.912  71.737  1.00  0.00    -0.455 C  
HETATM   18  C   UNL     1     -12.761  13.028  70.589  1.00  0.00    -0.175 C  
HETATM   19  C   UNL     1     -11.300  13.346  70.211  1.00  0.00     0.180 C  
BRANCH  19  20
HETATM   20  C   UNL     1     -10.799  12.434  69.065  1.00  0.00    -0.148 C  
BRANCH  20  21
HETATM   21  N   UNL     1      -9.587  11.632  69.321  1.00  0.00     0.259 NA 
HETATM   22  C   UNL     1      -9.944  10.186  69.382  1.00  0.00    -0.228 C  
HETATM   23  C   UNL     1     -10.473   9.618  68.049  1.00  0.00    -0.229 C  
HETATM   24  N   UNL     1      -9.525   9.839  66.944  1.00  0.00    -0.155 NA 
HETATM   25  C   UNL     1      -8.913  11.180  66.875  1.00  0.00    -0.161 C  
HETATM   26  C   UNL     1      -8.553  11.762  68.267  1.00  0.00    -0.162 C  
BRANCH  24  27
HETATM   27  C   UNL     1      -8.851   8.751  66.456  1.00  0.00    -0.131 A  
HETATM   28  N   UNL     1      -8.451   7.744  67.230  1.00  0.00    -0.117 NA 
HETATM   29  S   UNL     1      -7.811   6.549  66.299  1.00  0.00    -0.108 SA 
HETATM   30  C   UNL     1      -8.066   7.317  64.788  1.00  0.00    -0.097 A  
HETATM   31  C   UNL     1      -7.799   6.841  63.494  1.00  0.00    -0.110 A  
HETATM   32  C   UNL     1      -8.112   7.660  62.407  1.00  0.00    -0.130 A  
HETATM   33  C   UNL     1      -8.673   8.915  62.605  1.00  0.00    -0.140 A  
HETATM   34  C   UNL     1      -8.946   9.373  63.899  1.00  0.00    -0.166 A  
HETATM   35  C   UNL     1      -8.634   8.570  65.028  1.00  0.00    -0.162 A  
ENDBRANCH  24  27
ENDBRANCH  20  21
ENDBRANCH  19  20
ENDBRANCH  13  14
ENDBRANCH  10  13
TORSDOF 5
ENDMDL
MODEL      202
REMARK 921   NORMALIZED FREE ENERGY PREDICTED BY IDOCK:   -3.67 KCAL/MOL
REMARK 922        TOTAL FREE ENERGY PREDICTED BY IDOCK:   -6.47 KCAL/MOL
REMARK 923 INTER-LIGAND FREE ENERGY PREDICTED BY IDOCK:   -5.78 KCAL/MOL
REMARK 924 INTRA-LIGAND FREE ENERGY PREDICTED BY IDOCK:   -0.69 KCAL/MOL
REMARK 927      BINDING AFFINITY PREDICTED BY RF-SCORE:    0.00 PKD
ROOT
HETATM    1  C   UNL     1     -10.866  13.247  66.779  1.00  0.00    -0.289 C  
HETATM    2  C   UNL     1     -11.542  12.648  65.533  1.00  0.00    -0.409 C  
HETATM    3  C   UNL     1     -12.909  13.338  65.358  1.00  0.00    -0.340 C  
HETATM    4  C   UNL     1     -12.524  14.765  64.915  1.00  0.00    -0.189 C  
HETATM    5  C   UNL     1     -10.984  14.711  64.875  1.00  0.00    -0.419 C  
HETATM    6  C   UNL     1     -10.763  13.280  64.378  1.00  0.00    -0.432 C  
HETATM    7  C   UNL     1     -10.488  14.661  66.330  1.00  0.00    -0.302 C  
HETATM    8  C   UNL     1      -8.990  14.706  66.452  1.00  0.00    -0.156 C  
HETATM    9  O   UNL     1      -8.297  15.646  66.095  1.00  0.00    -0.196 OA 
HETATM   10  N   UNL     1      -8.555  13.528  66.986  1.00  0.00    -0.192 N  
HETATM   11  O   UNL     1      -9.418  11.416  67.398  1.00  0.00    -0.165 OA 
HETATM   12  C   UNL     1      -9.551  12.596  67.107  1.00  0.00    -0.207 C  
ENDROOT
BRANCH  10  13
HETATM   13  C   UNL     1      -7.151  13.220  67.212  1.00  0.00    -0.001 C  
BRANCH  13  14
HETATM   14  C   UNL     1      -6.861  12.876  68.690  1.00  0.00    -0.099 C  
HETATM   15  C   UNL     1      -6.275  14.107  69.410  1.00  0.00    -0.109 C  
HETATM   16  C   UNL     1      -6.044  13.838  70.891  1.00  0.00    -0.064 C  
HETATM   17  C   UNL     1      -5.174  12.606  71.104  1.00  0.00    -0.161 C  
HETATM   18  C   UNL     1      -5.742  11.382  70.390  1.00  0.00    -0.151 C  
HETATM   19  C   UNL     1      -5.921  11.643  68.880  1.00  0.00    -0.050 C  
BRANCH  19  20
HETATM   20  C   UNL     1      -6.472  10.396  68.149  1.00  0.00    -0.056 C  
BRANCH  20  21
HETATM   21  N   UNL     1      -6.653   9.170  68.949  1.00  0.00    -0.048 NA 
HETATM   22  C   UNL     1      -8.089   8.771  68.941  1.00  0.00    -0.114 C  
HETATM   23  C   UNL     1      -8.617   8.370  67.547  1.00  0.00    -0.129 C  
HETATM   24  N   UNL     1      -7.810   7.296  66.944  1.00  0.00    -0.109 NA 
HETATM   25  C   UNL     1      -6.347   7.442  67.060  1.00  0.00    -0.052 C  
HETATM   26  C   UNL     1      -5.894   8.005  68.434  1.00  0.00    -0.036 C  
BRANCH  24  27
HETATM   27  C   UNL     1      -8.370   6.049  66.860  1.00  0.00    -0.105 A  
HETATM   28  N   UNL     1      -8.616   5.445  65.699  1.00  0.00    -0.140 NA 
HETATM   29  S   UNL     1      -9.149   3.913  65.972  1.00  0.00    -0.157 SA 
HETATM   30  C   UNL     1      -9.050   3.971  67.682  1.00  0.00    -0.145 A  
HETATM   31  C   UNL     1      -9.313   2.960  68.622  1.00  0.00    -0.239 A  
HETATM   32  C   UNL     1      -9.146   3.252  69.977  1.00  0.00    -0.197 A  
HETATM   33  C   UNL     1      -8.729   4.513  70.383  1.00  0.00    -0.116 A  
HETATM   34  C   UNL     1      -8.458   5.509  69.436  1.00  0.00    -0.105 A  
HETATM   35  C   UNL     1      -8.625   5.249  68.050  1.00  0.00    -0.103 A  
ENDBRANCH  24  27
ENDBRANCH  20  21
ENDBRANCH  19  20
ENDBRANCH  13  14
ENDBRANCH  10  13
TORSDOF 5
ENDMDL
MODEL      203
REMARK 921   NORMALIZED FREE ENERGY PREDICTED BY IDOCK:   -3.65 KCAL/MOL
REMARK 922        TOTAL FREE ENERGY PREDICTED BY IDOCK:   -6.43 KCAL/MOL
REMARK 923 INTER-LIGAND FREE ENERGY PREDICTED BY IDOCK:   -6.81 KCAL/MOL
REMARK 924 INTRA-LIGAND FREE ENERGY PREDICTED BY IDOCK:    0.37 KCAL/MOL
REMARK 927      BINDING AFFINITY PREDICTED BY RF-SCORE:    0.00 PKD
ROOT
HETATM    1  C   UNL     1     -11.286  16.000  66.886  1.00  0.00     0.065 C  
HETATM    2  C   UNL     1     -10.247  16.364  65.810  1.00  0.00    -0.370 C  
HETATM    3  C   UNL     1     -10.443  17.849  65.447  1.00  0.00     0.164 C  
HETATM    4  C   UNL     1      -9.939  18.585  66.704  1.00  0.00    -0.394 C  
HETATM    5  C   UNL     1      -9.501  17.431  67.629  1.00  0.00    -0.251 C  
HETATM    6  C   UNL     1      -8.940  16.443  66.601  1.00  0.00    -0.289 C  
HETATM    7  C   UNL     1     -10.776  16.733  68.130  1.00  0.00    -0.361 C  
HETATM    8  C   UNL     1     -10.507  15.642  69.128  1.00  0.00    -0.236 C  
HETATM    9  O   UNL     1      -9.998  15.819  70.223  1.00  0.00    -0.147 OA 
HETATM   10  N   UNL     1     -10.891  14.448  68.589  1.00  0.00    -0.243 N  
HETATM   11  O   UNL     1     -11.478  13.623  66.504  1.00  0.00    -0.314 OA 
HETATM   12  C   UNL     1     -11.251  14.547  67.272  1.00  0.00    -0.332 C  
ENDROOT
BRANCH  10  13
HETATM   13  C   UNL     1     -10.741  13.174  69.276  1.00  0.00     0.067 C  
BRANCH  13  14
HETATM   14  C   UNL     1     -12.022  12.768  70.037  1.00  0.00    -0.371 C  
HETATM   15  C   UNL     1     -12.413  13.876  71.035  1.00  0.00    -0.452 C  
HETATM   16  C   UNL     1     -13.715  13.554  71.755  1.00  0.00    -0.379 C  
HETATM   17  C   UNL     1     -13.654  12.193  72.436  1.00  0.00    -0.087 C  
HETATM   18  C   UNL     1     -13.261  11.089  71.457  1.00  0.00    -0.400 C  
HETATM   19  C   UNL     1     -11.913  11.395  70.773  1.00  0.00    -0.355 C  
BRANCH  19  20
HETATM   20  C   UNL     1     -11.501  10.265  69.801  1.00  0.00    -0.256 C  
BRANCH  20  21
HETATM   21  N   UNL     1     -10.583  10.621  68.701  1.00  0.00    -0.190 NA 
HETATM   22  C   UNL     1      -9.193  10.222  69.056  1.00  0.00    -0.183 C  
HETATM   23  C   UNL     1      -8.999   8.698  69.202  1.00  0.00    -0.142 C  
HETATM   24  N   UNL     1      -9.420   7.974  67.990  1.00  0.00    -0.145 NA 
HETATM   25  C   UNL     1     -10.695   8.406  67.387  1.00  0.00    -0.155 C  
HETATM   26  C   UNL     1     -10.898   9.945  67.420  1.00  0.00    -0.227 C  
BRANCH  24  27
HETATM   27  C   UNL     1      -8.441   7.424  67.205  1.00  0.00    -0.118 A  
HETATM   28  N   UNL     1      -8.004   6.177  67.367  1.00  0.00    -0.105 NA 
HETATM   29  S   UNL     1      -6.942   5.802  66.167  1.00  0.00    -0.060 SA 
HETATM   30  C   UNL     1      -7.036   7.302  65.343  1.00  0.00    -0.061 A  
HETATM   31  C   UNL     1      -6.410   7.701  64.151  1.00  0.00    -0.049 A  
HETATM   32  C   UNL     1      -6.658   8.988  63.668  1.00  0.00    -0.089 A  
HETATM   33  C   UNL     1      -7.505   9.849  64.353  1.00  0.00    -0.137 A  
HETATM   34  C   UNL     1      -8.133   9.436  65.534  1.00  0.00    -0.116 A  
HETATM   35  C   UNL     1      -7.898   8.137  66.058  1.00  0.00    -0.093 A  
ENDBRANCH  24  27
ENDBRANCH  20  21
ENDBRANCH  19  20
ENDBRANCH  13  14
ENDBRANCH  10  13
TORSDOF 5
ENDMDL
MODEL      204
REMARK 921   NORMALIZED FREE ENERGY PREDICTED BY IDOCK:   -3.63 KCAL/MOL
REMARK 922        TOTAL FREE ENERGY PREDICTED BY IDOCK:   -6.41 KCAL/MOL
REMARK 923 INTER-LIGAND FREE ENERGY PREDICTED BY IDOCK:   -6.81 KCAL/MOL
REMARK 924 INTRA-LIGAND FREE ENERGY PREDICTED BY IDOCK:    0.39 KCAL/MOL
REMARK 927      BINDING AFFINITY PREDICTED BY RF-SCORE:    0.00 PKD
ROOT
HETATM    1  C   UNL     1     -10.700  13.739  65.488  1.00  0.00    -0.304 C  
HETATM    2  C   UNL     1     -11.954  14.555  65.131  1.00  0.00    -0.369 C  
HETATM    3  C   UNL     1     -12.081  14.581  63.595  1.00  0.00     0.237 C  
HETATM    4  C   UNL     1     -12.479  13.131  63.253  1.00  0.00    -0.252 C  
HETATM    5  C   UNL     1     -12.548  12.456  64.638  1.00  0.00    -0.459 C  
HETATM    6  C   UNL     1     -13.100  13.605  65.486  1.00  0.00    -0.162 C  
HETATM    7  C   UNL     1     -11.105  12.302  65.147  1.00  0.00    -0.361 C  
HETATM    8  C   UNL     1     -11.008  11.563  66.452  1.00  0.00    -0.284 C  
HETATM    9  O   UNL     1     -11.344  10.401  66.614  1.00  0.00    -0.024 OA 
HETATM   10  N   UNL     1     -10.524  12.413  67.405  1.00  0.00    -0.214 N  
HETATM   11  O   UNL     1     -10.173  14.692  67.644  1.00  0.00    -0.231 OA 
HETATM   12  C   UNL     1     -10.419  13.705  66.965  1.00  0.00    -0.270 C  
ENDROOT
BRANCH  10  13
HETATM   13  C   UNL     1     -10.335  12.032  68.797  1.00  0.00    -0.160 C  
BRANCH  13  14
HETATM   14  C   UNL     1     -11.648  12.115  69.607  1.00  0.00    -0.361 C  
HETATM   15  C   UNL     1     -11.708  13.452  70.372  1.00  0.00    -0.184 C  
HETATM   16  C   UNL     1     -13.021  13.612  71.127  1.00  0.00    -0.353 C  
HETATM   17  C   UNL     1     -13.279  12.432  72.053  1.00  0.00    -0.514 C  
HETATM   18  C   UNL     1     -13.216  11.102  71.306  1.00  0.00    -0.216 C  
HETATM   19  C   UNL     1     -11.861  10.921  70.591  1.00  0.00    -0.453 C  
BRANCH  19  20
HETATM   20  C   UNL     1     -11.784   9.563  69.854  1.00  0.00     0.098 C  
BRANCH  20  21
HETATM   21  N   UNL     1     -10.692   8.648  70.237  1.00  0.00    -0.223 NA 
HETATM   22  C   UNL     1     -10.846   7.351  69.521  1.00  0.00    -0.189 C  
HETATM   23  C   UNL     1     -10.698   7.463  67.989  1.00  0.00    -0.127 C  
HETATM   24  N   UNL     1      -9.417   8.081  67.607  1.00  0.00    -0.143 NA 
HETATM   25  C   UNL     1      -9.014   9.270  68.381  1.00  0.00    -0.129 C  
HETATM   26  C   UNL     1      -9.342   9.156  69.894  1.00  0.00    -0.186 C  
BRANCH  24  27
HETATM   27  C   UNL     1      -8.463   7.274  67.044  1.00  0.00    -0.118 A  
HETATM   28  N   UNL     1      -7.290   7.735  66.616  1.00  0.00    -0.086 NA 
HETATM   29  S   UNL     1      -6.341   6.478  66.139  1.00  0.00    -0.043 SA 
HETATM   30  C   UNL     1      -7.457   5.234  66.515  1.00  0.00    -0.087 A  
HETATM   31  C   UNL     1      -7.303   3.841  66.411  1.00  0.00    -0.072 A  
HETATM   32  C   UNL     1      -8.368   3.024  66.795  1.00  0.00    -0.093 A  
HETATM   33  C   UNL     1      -9.550   3.578  67.268  1.00  0.00    -0.166 A  
HETATM   34  C   UNL     1      -9.688   4.967  67.378  1.00  0.00    -0.195 A  
HETATM   35  C   UNL     1      -8.629   5.828  66.990  1.00  0.00    -0.110 A  
ENDBRANCH  24  27
ENDBRANCH  20  21
ENDBRANCH  19  20
ENDBRANCH  13  14
ENDBRANCH  10  13
TORSDOF 5
ENDMDL
MODEL      205
REMARK 921   NORMALIZED FREE ENERGY PREDICTED BY IDOCK:   -3.61 KCAL/MOL
REMARK 922        TOTAL FREE ENERGY PREDICTED BY IDOCK:   -6.39 KCAL/MOL
REMARK 923 INTER-LIGAND FREE ENERGY PREDICTED BY IDOCK:   -6.80 KCAL/MOL
REMARK 924 INTRA-LIGAND FREE ENERGY PREDICTED BY IDOCK:    0.41 KCAL/MOL
REMARK 927      BINDING AFFINITY PREDICTED BY RF-SCORE:    0.00 PKD
ROOT
HETATM    1  C   UNL     1     -12.342  12.589  65.915  1.00  0.00    -0.155 C  
HETATM    2  C   UNL     1     -11.578  11.688  64.929  1.00  0.00    -0.155 C  
HETATM    3  C   UNL     1     -12.292  11.766  63.565  1.00  0.00    -0.495 C  
HETATM    4  C   UNL     1     -11.967  13.195  63.083  1.00  0.00    -0.246 C  
HETATM    5  C   UNL     1     -11.092  13.754  64.223  1.00  0.00    -0.300 C  
HETATM    6  C   UNL     1     -10.315  12.497  64.626  1.00  0.00    -0.341 C  
HETATM    7  C   UNL     1     -12.012  14.003  65.430  1.00  0.00    -0.386 C  
HETATM    8  C   UNL     1     -11.311  14.647  66.593  1.00  0.00    -0.356 C  
HETATM    9  O   UNL     1     -10.804  15.758  66.564  1.00  0.00    -0.304 OA 
HETATM   10  N   UNL     1     -11.311  13.777  67.645  1.00  0.00    -0.290 N  
HETATM   11  O   UNL     1     -11.751  11.529  68.004  1.00  0.00    -0.465 OA 
HETATM   12  C   UNL     1     -11.788  12.537  67.313  1.00  0.00    -0.311 C  
ENDROOT
BRANCH  10  13
HETATM   13  C   UNL     1     -10.684  14.068  68.925  1.00  0.00    -0.248 C  
BRANCH  13  14
HETATM   14  C   UNL     1      -9.154  14.240  68.799  1.00  0.00    -0.103 C  
HETATM   15  C   UNL     1      -8.811  15.725  68.567  1.00  0.00    -0.193 C  
HETATM   16  C   UNL     1      -7.307  15.956  68.513  1.00  0.00    -0.127 C  
HETATM   17  C   UNL     1      -6.644  15.066  67.470  1.00  0.00    -0.153 C  
HETATM   18  C   UNL     1      -6.983  13.593  67.687  1.00  0.00    -0.183 C  
HETATM   19  C   UNL     1      -8.507  13.359  67.684  1.00  0.00    -0.187 C  
BRANCH  19  20
HETATM   20  C   UNL     1      -8.852  11.863  67.878  1.00  0.00    -0.172 C  
BRANCH  20  21
HETATM   21  N   UNL     1      -7.792  10.881  67.579  1.00  0.00    -0.112 NA 
HETATM   22  C   UNL     1      -7.774   9.824  68.629  1.00  0.00    -0.080 C  
HETATM   23  C   UNL     1      -9.055   8.964  68.670  1.00  0.00    -0.137 C  
HETATM   24  N   UNL     1      -9.344   8.349  67.364  1.00  0.00    -0.145 NA 
HETATM   25  C   UNL     1      -9.194   9.226  66.187  1.00  0.00    -0.196 C  
HETATM   26  C   UNL     1      -7.975  10.181  66.286  1.00  0.00    -0.118 C  
BRANCH  24  27
HETATM   27  C   UNL     1      -9.154   6.998  67.241  1.00  0.00    -0.125 A  
HETATM   28  N   UNL     1     -10.162   6.129  67.196  1.00  0.00    -0.173 NA 
HETATM   29  S   UNL     1      -9.581   4.619  66.898  1.00  0.00    -0.197 SA 
HETATM   30  C   UNL     1      -7.929   5.062  66.784  1.00  0.00    -0.104 A  
HETATM   31  C   UNL     1      -6.814   4.262  66.485  1.00  0.00    -0.055 A  
HETATM   32  C   UNL     1      -5.556   4.866  66.439  1.00  0.00    -0.017 A  
HETATM   33  C   UNL     1      -5.414   6.226  66.683  1.00  0.00    -0.013 A  
HETATM   34  C   UNL     1      -6.535   7.015  66.968  1.00  0.00    -0.050 A  
HETATM   35  C   UNL     1      -7.828   6.433  67.030  1.00  0.00    -0.104 A  
ENDBRANCH  24  27
ENDBRANCH  20  21
ENDBRANCH  19  20
ENDBRANCH  13  14
ENDBRANCH  10  13
TORSDOF 5
ENDMDL
MODEL      206
REMARK 921   NORMALIZED FREE ENERGY PREDICTED BY IDOCK:   -3.60 KCAL/MOL
REMARK 922        TOTAL FREE ENERGY PREDICTED BY IDOCK:   -6.37 KCAL/MOL
REMARK 923 INTER-LIGAND FREE ENERGY PREDICTED BY IDOCK:   -8.00 KCAL/MOL
REMARK 924 INTRA-LIGAND FREE ENERGY PREDICTED BY IDOCK:    1.63 KCAL/MOL
REMARK 927      BINDING AFFINITY PREDICTED BY RF-SCORE:    0.00 PKD
ROOT
HETATM    1  C   UNL     1      -7.654   7.250  69.691  1.00  0.00    -0.099 C  
HETATM    2  C   UNL     1      -7.246   6.268  68.579  1.00  0.00    -0.085 C  
HETATM    3  C   UNL     1      -6.968   4.900  69.233  1.00  0.00    -0.051 C  
HETATM    4  C   UNL     1      -8.373   4.420  69.647  1.00  0.00    -0.074 C  
HETATM    5  C   UNL     1      -9.287   5.565  69.164  1.00  0.00    -0.158 C  
HETATM    6  C   UNL     1      -8.571   5.972  67.873  1.00  0.00    -0.113 C  
HETATM    7  C   UNL     1      -9.050   6.766  70.094  1.00  0.00    -0.155 C  
HETATM    8  C   UNL     1      -9.951   7.933  69.805  1.00  0.00    -0.186 C  
HETATM    9  O   UNL     1     -11.168   7.907  69.907  1.00  0.00    -0.181 OA 
HETATM   10  N   UNL     1      -9.190   8.985  69.383  1.00  0.00    -0.147 N  
HETATM   11  O   UNL     1      -7.014   9.341  68.666  1.00  0.00    -0.061 OA 
HETATM   12  C   UNL     1      -7.877   8.650  69.189  1.00  0.00    -0.099 C  
ENDROOT
BRANCH  10  13
HETATM   13  C   UNL     1      -9.747  10.269  68.985  1.00  0.00    -0.205 C  
BRANCH  13  14
HETATM   14  C   UNL     1     -10.105  10.308  67.483  1.00  0.00    -0.239 C  
HETATM   15  C   UNL     1      -8.962   9.689  66.655  1.00  0.00    -0.166 C  
HETATM   16  C   UNL     1      -9.303   9.637  65.172  1.00  0.00    -0.322 C  
HETATM   17  C   UNL     1      -9.692  11.009  64.640  1.00  0.00    -0.315 C  
HETATM   18  C   UNL     1     -10.821  11.633  65.457  1.00  0.00    -0.334 C  
HETATM   19  C   UNL     1     -10.445  11.736  66.950  1.00  0.00    -0.256 C  
BRANCH  19  20
HETATM   20  C   UNL     1     -11.577  12.392  67.776  1.00  0.00    -0.352 C  
BRANCH  20  21
HETATM   21  N   UNL     1     -11.200  13.494  68.682  1.00  0.00    -0.262 NA 
HETATM   22  C   UNL     1      -9.716  13.559  68.806  1.00  0.00    -0.009 C  
HETATM   23  C   UNL     1      -8.995  13.916  67.489  1.00  0.00    -0.197 C  
HETATM   24  N   UNL     1      -9.492  15.179  66.917  1.00  0.00    -0.227 NA 
HETATM   25  C   UNL     1     -10.956  15.360  66.919  1.00  0.00    -0.294 C  
HETATM   26  C   UNL     1     -11.637  14.829  68.208  1.00  0.00    -0.323 C  
BRANCH  24  27
HETATM   27  C   UNL     1      -8.666  16.271  66.972  1.00  0.00    -0.195 A  
HETATM   28  N   UNL     1      -7.343  16.181  66.848  1.00  0.00    -0.227 NA 
HETATM   29  S   UNL     1      -6.686  17.688  66.814  1.00  0.00    -0.213 SA 
HETATM   30  C   UNL     1      -8.161  18.551  66.938  1.00  0.00    -0.258 A  
HETATM   31  C   UNL     1      -8.383  19.938  66.920  1.00  0.00    -0.366 A  
HETATM   32  C   UNL     1      -9.696  20.402  67.026  1.00  0.00    -0.588 A  
HETATM   33  C   UNL     1     -10.755  19.511  67.145  1.00  0.00    -0.599 A  
HETATM   34  C   UNL     1     -10.521  18.131  67.150  1.00  0.00    -0.392 A  
HETATM   35  C   UNL     1      -9.199  17.623  67.052  1.00  0.00    -0.254 A  
ENDBRANCH  24  27
ENDBRANCH  20  21
ENDBRANCH  19  20
ENDBRANCH  13  14
ENDBRANCH  10  13
TORSDOF 5
ENDMDL
MODEL      207
REMARK 921   NORMALIZED FREE ENERGY PREDICTED BY IDOCK:   -3.55 KCAL/MOL
REMARK 922        TOTAL FREE ENERGY PREDICTED BY IDOCK:   -6.31 KCAL/MOL
REMARK 923 INTER-LIGAND FREE ENERGY PREDICTED BY IDOCK:   -6.93 KCAL/MOL
REMARK 924 INTRA-LIGAND FREE ENERGY PREDICTED BY IDOCK:    0.62 KCAL/MOL
REMARK 927      BINDING AFFINITY PREDICTED BY RF-SCORE:    0.00 PKD
ROOT
HETATM    1  C   UNL     1     -10.007  12.112  69.302  1.00  0.00     0.444 C  
HETATM    2  C   UNL     1     -10.147  10.584  69.195  1.00  0.00    -0.240 C  
HETATM    3  C   UNL     1     -10.834  10.080  70.480  1.00  0.00    -0.380 C  
HETATM    4  C   UNL     1     -12.281  10.592  70.325  1.00  0.00    -0.417 C  
HETATM    5  C   UNL     1     -12.249  11.312  68.961  1.00  0.00    -0.211 C  
HETATM    6  C   UNL     1     -11.285  10.409  68.187  1.00  0.00    -0.333 C  
HETATM    7  C   UNL     1     -11.446  12.611  69.146  1.00  0.00    -0.359 C  
HETATM    8  C   UNL     1     -11.414  13.473  67.916  1.00  0.00    -0.318 C  
HETATM    9  O   UNL     1     -12.399  13.983  67.404  1.00  0.00    -0.322 OA 
HETATM   10  N   UNL     1     -10.128  13.552  67.465  1.00  0.00    -0.231 N  
HETATM   11  O   UNL     1      -8.115  12.468  67.843  1.00  0.00    -0.139 OA 
HETATM   12  C   UNL     1      -9.274  12.720  68.138  1.00  0.00    -0.212 C  
ENDROOT
BRANCH  10  13
HETATM   13  C   UNL     1      -9.742  14.285  66.269  1.00  0.00    -0.302 C  
BRANCH  13  14
HETATM   14  C   UNL     1     -10.287  13.627  64.981  1.00  0.00    -0.393 C  
HETATM   15  C   UNL     1     -11.731  14.100  64.722  1.00  0.00    -0.416 C  
HETATM   16  C   UNL     1     -12.285  13.537  63.420  1.00  0.00    -0.338 C  
HETATM   17  C   UNL     1     -12.186  12.018  63.383  1.00  0.00    -0.627 C  
HETATM   18  C   UNL     1     -10.760  11.538  63.645  1.00  0.00    -0.491 C  
HETATM   19  C   UNL     1     -10.226  12.067  64.992  1.00  0.00    -0.308 C  
BRANCH  19  20
HETATM   20  C   UNL     1      -8.791  11.561  65.273  1.00  0.00     0.144 C  
BRANCH  20  21
HETATM   21  N   UNL     1      -8.358  10.336  64.574  1.00  0.00    -0.166 NA 
HETATM   22  C   UNL     1      -7.019   9.916  65.074  1.00  0.00    -0.130 C  
HETATM   23  C   UNL     1      -7.010   9.501  66.560  1.00  0.00    -0.085 C  
HETATM   24  N   UNL     1      -7.989   8.436  66.837  1.00  0.00    -0.098 NA 
HETATM   25  C   UNL     1      -9.320   8.603  66.223  1.00  0.00    -0.220 C  
HETATM   26  C   UNL     1      -9.262   9.179  64.783  1.00  0.00    -0.018 C  
BRANCH  24  27
HETATM   27  C   UNL     1      -7.506   7.181  67.098  1.00  0.00    -0.098 A  
HETATM   28  N   UNL     1      -6.549   6.611  66.369  1.00  0.00    -0.043 NA 
HETATM   29  S   UNL     1      -6.114   5.177  67.048  1.00  0.00    -0.032 SA 
HETATM   30  C   UNL     1      -7.180   5.261  68.387  1.00  0.00    -0.067 A  
HETATM   31  C   UNL     1      -7.330   4.367  69.460  1.00  0.00    -0.051 A  
HETATM   32  C   UNL     1      -8.271   4.665  70.448  1.00  0.00    -0.075 A  
HETATM   33  C   UNL     1      -9.040   5.819  70.367  1.00  0.00    -0.160 A  
HETATM   34  C   UNL     1      -8.874   6.707  69.298  1.00  0.00    -0.133 A  
HETATM   35  C   UNL     1      -7.931   6.433  68.272  1.00  0.00    -0.106 A  
ENDBRANCH  24  27
ENDBRANCH  20  21
ENDBRANCH  19  20
ENDBRANCH  13  14
ENDBRANCH  10  13
TORSDOF 5
ENDMDL
MODEL      208
REMARK 921   NORMALIZED FREE ENERGY PREDICTED BY IDOCK:   -3.53 KCAL/MOL
REMARK 922        TOTAL FREE ENERGY PREDICTED BY IDOCK:   -6.28 KCAL/MOL
REMARK 923 INTER-LIGAND FREE ENERGY PREDICTED BY IDOCK:   -5.40 KCAL/MOL
REMARK 924 INTRA-LIGAND FREE ENERGY PREDICTED BY IDOCK:   -0.88 KCAL/MOL
REMARK 927      BINDING AFFINITY PREDICTED BY RF-SCORE:    0.00 PKD
ROOT
HETATM    1  C   UNL     1      -8.552   6.772  67.559  1.00  0.00    -0.120 C  
HETATM    2  C   UNL     1      -7.201   6.587  66.846  1.00  0.00    -0.078 C  
HETATM    3  C   UNL     1      -7.429   5.667  65.631  1.00  0.00    -0.074 C  
HETATM    4  C   UNL     1      -8.234   6.559  64.664  1.00  0.00    -0.052 C  
HETATM    5  C   UNL     1      -8.355   7.887  65.438  1.00  0.00    -0.146 C  
HETATM    6  C   UNL     1      -6.995   7.929  66.141  1.00  0.00    -0.062 C  
HETATM    7  C   UNL     1      -9.343   7.659  66.593  1.00  0.00    -0.239 C  
HETATM    8  C   UNL     1      -9.639   8.904  67.381  1.00  0.00    -0.157 C  
HETATM    9  O   UNL     1     -10.178   9.899  66.923  1.00  0.00    -0.218 OA 
HETATM   10  N   UNL     1      -9.176   8.740  68.655  1.00  0.00    -0.141 N  
HETATM   11  O   UNL     1      -7.787   7.275  69.794  1.00  0.00    -0.111 OA 
HETATM   12  C   UNL     1      -8.449   7.591  68.816  1.00  0.00    -0.129 C  
ENDROOT
BRANCH  10  13
HETATM   13  C   UNL     1      -9.269   9.769  69.680  1.00  0.00    -0.223 C  
BRANCH  13  14
HETATM   14  C   UNL     1     -10.525   9.599  70.563  1.00  0.00    -0.367 C  
HETATM   15  C   UNL     1     -10.989   8.129  70.538  1.00  0.00    -0.248 C  
HETATM   16  C   UNL     1     -12.182   7.897  71.457  1.00  0.00    -0.338 C  
HETATM   17  C   UNL     1     -13.328   8.845  71.132  1.00  0.00    -0.116 C  
HETATM   18  C   UNL     1     -12.877  10.304  71.149  1.00  0.00    -0.504 C  
HETATM   19  C   UNL     1     -11.706  10.543  70.174  1.00  0.00    -0.410 C  
BRANCH  19  20
HETATM   20  C   UNL     1     -11.264  12.026  70.169  1.00  0.00     0.325 C  
BRANCH  20  21
HETATM   21  N   UNL     1     -11.237  12.718  68.867  1.00  0.00    -0.270 NA 
HETATM   22  C   UNL     1     -12.213  13.844  68.874  1.00  0.00    -0.222 C  
HETATM   23  C   UNL     1     -11.868  14.962  69.880  1.00  0.00    -0.311 C  
HETATM   24  N   UNL     1     -10.512  15.494  69.663  1.00  0.00    -0.266 NA 
HETATM   25  C   UNL     1      -9.454  14.495  69.424  1.00  0.00     0.174 C  
HETATM   26  C   UNL     1      -9.919  13.311  68.535  1.00  0.00    -0.188 C  
BRANCH  24  27
HETATM   27  C   UNL     1     -10.399  16.753  69.133  1.00  0.00    -0.326 A  
HETATM   28  N   UNL     1     -10.051  17.812  69.860  1.00  0.00     0.452 NA 
HETATM   29  S   UNL     1      -9.870  19.122  68.881  1.00  0.00    -0.383 SA 
HETATM   30  C   UNL     1     -10.227  18.319  67.409  1.00  0.00    -0.371 A  
HETATM   31  C   UNL     1     -10.217  18.823  66.098  1.00  0.00    -0.462 A  
HETATM   32  C   UNL     1     -10.536  17.956  65.050  1.00  0.00     0.863 A  
HETATM   33  C   UNL     1     -10.856  16.628  65.303  1.00  0.00    -0.194 A  
HETATM   34  C   UNL     1     -10.851  16.135  66.614  1.00  0.00    -0.149 A  
HETATM   35  C   UNL     1     -10.539  16.990  67.703  1.00  0.00    -0.333 A  
ENDBRANCH  24  27
ENDBRANCH  20  21
ENDBRANCH  19  20
ENDBRANCH  13  14
ENDBRANCH  10  13
TORSDOF 5
ENDMDL
MODEL      209
REMARK 921   NORMALIZED FREE ENERGY PREDICTED BY IDOCK:   -3.51 KCAL/MOL
REMARK 922        TOTAL FREE ENERGY PREDICTED BY IDOCK:   -6.26 KCAL/MOL
REMARK 923 INTER-LIGAND FREE ENERGY PREDICTED BY IDOCK:   -6.49 KCAL/MOL
REMARK 924 INTRA-LIGAND FREE ENERGY PREDICTED BY IDOCK:    0.24 KCAL/MOL
REMARK 927      BINDING AFFINITY PREDICTED BY RF-SCORE:    0.00 PKD
ROOT
HETATM    1  C   UNL     1      -7.216   4.682  72.995  1.00  0.00    -0.080 C  
HETATM    2  C   UNL     1      -6.324   3.528  72.505  1.00  0.00    -0.014 C  
HETATM    3  C   UNL     1      -5.750   2.814  73.745  1.00  0.00     0.000 C  
HETATM    4  C   UNL     1      -6.982   2.098  74.335  1.00  0.00    -0.027 C  
HETATM    5  C   UNL     1      -8.107   2.477  73.351  1.00  0.00    -0.059 C  
HETATM    6  C   UNL     1      -7.335   2.484  72.028  1.00  0.00    -0.040 C  
HETATM    7  C   UNL     1      -8.436   3.961  73.577  1.00  0.00    -0.088 C  
HETATM    8  C   UNL     1      -9.592   4.450  72.751  1.00  0.00    -0.134 C  
HETATM    9  O   UNL     1     -10.735   4.031  72.848  1.00  0.00    -0.173 OA 
HETATM   10  N   UNL     1      -9.140   5.392  71.873  1.00  0.00    -0.138 N  
HETATM   11  O   UNL     1      -7.098   6.152  71.082  1.00  0.00    -0.070 OA 
HETATM   12  C   UNL     1      -7.776   5.512  71.872  1.00  0.00    -0.104 C  
ENDROOT
BRANCH  10  13
HETATM   13  C   UNL     1      -9.993   6.053  70.897  1.00  0.00    -0.187 C  
BRANCH  13  14
HETATM   14  C   UNL     1      -9.974   5.338  69.527  1.00  0.00    -0.297 C  
HETATM   15  C   UNL     1      -9.427   3.905  69.691  1.00  0.00    -0.263 C  
HETATM   16  C   UNL     1      -9.460   3.134  68.378  1.00  0.00    -0.211 C  
HETATM   17  C   UNL     1      -8.728   3.883  67.274  1.00  0.00    -0.120 C  
HETATM   18  C   UNL     1      -9.258   5.305  67.107  1.00  0.00    -0.113 C  
HETATM   19  C   UNL     1      -9.168   6.098  68.427  1.00  0.00    -0.111 C  
BRANCH  19  20
HETATM   20  C   UNL     1      -9.681   7.548  68.254  1.00  0.00    -0.155 C  
BRANCH  20  21
HETATM   21  N   UNL     1      -8.957   8.411  67.302  1.00  0.00    -0.129 NA 
HETATM   22  C   UNL     1      -9.931   9.197  66.493  1.00  0.00    -0.288 C  
HETATM   23  C   UNL     1     -10.764  10.198  67.320  1.00  0.00    -0.254 C  
HETATM   24  N   UNL     1      -9.909  11.122  68.085  1.00  0.00    -0.174 NA 
HETATM   25  C   UNL     1      -8.758  10.515  68.779  1.00  0.00    -0.154 C  
HETATM   26  C   UNL     1      -8.064   9.399  67.953  1.00  0.00    -0.103 C  
BRANCH  24  27
HETATM   27  C   UNL     1      -9.850  12.426  67.669  1.00  0.00    -0.198 A  
HETATM   28  N   UNL     1      -8.928  13.281  68.107  1.00  0.00    -0.192 NA 
HETATM   29  S   UNL     1      -9.062  14.705  67.294  1.00  0.00    -0.217 SA 
HETATM   30  C   UNL     1     -10.359  14.233  66.280  1.00  0.00    -0.294 A  
HETATM   31  C   UNL     1     -10.992  14.955  65.254  1.00  0.00    -0.389 A  
HETATM   32  C   UNL     1     -12.032  14.340  64.553  1.00  0.00    -0.478 A  
HETATM   33  C   UNL     1     -12.429  13.047  64.866  1.00  0.00    -0.512 A  
HETATM   34  C   UNL     1     -11.783  12.334  65.883  1.00  0.00    -0.451 A  
HETATM   35  C   UNL     1     -10.727  12.929  66.621  1.00  0.00    -0.280 A  
ENDBRANCH  24  27
ENDBRANCH  20  21
ENDBRANCH  19  20
ENDBRANCH  13  14
ENDBRANCH  10  13
TORSDOF 5
ENDMDL
MODEL      210
REMARK 921   NORMALIZED FREE ENERGY PREDICTED BY IDOCK:   -3.49 KCAL/MOL
REMARK 922        TOTAL FREE ENERGY PREDICTED BY IDOCK:   -6.23 KCAL/MOL
REMARK 923 INTER-LIGAND FREE ENERGY PREDICTED BY IDOCK:   -7.11 KCAL/MOL
REMARK 924 INTRA-LIGAND FREE ENERGY PREDICTED BY IDOCK:    0.88 KCAL/MOL
REMARK 927      BINDING AFFINITY PREDICTED BY RF-SCORE:    0.00 PKD
ROOT
HETATM    1  C   UNL     1      -7.937  10.313  65.124  1.00  0.00    -0.147 C  
HETATM    2  C   UNL     1      -8.454  11.572  64.406  1.00  0.00     0.792 C  
HETATM    3  C   UNL     1      -8.747  11.194  62.941  1.00  0.00    -0.170 C  
HETATM    4  C   UNL     1      -9.999  10.299  63.056  1.00  0.00     0.076 C  
HETATM    5  C   UNL     1     -10.278  10.289  64.572  1.00  0.00    -0.161 C  
HETATM    6  C   UNL     1      -9.878  11.720  64.944  1.00  0.00    -0.251 C  
HETATM    7  C   UNL     1      -9.186   9.433  65.235  1.00  0.00    -0.299 C  
HETATM    8  C   UNL     1      -9.386   9.248  66.713  1.00  0.00    -0.156 C  
HETATM    9  O   UNL     1     -10.343   8.677  67.213  1.00  0.00    -0.251 OA 
HETATM   10  N   UNL     1      -8.356   9.848  67.377  1.00  0.00    -0.118 N  
HETATM   11  O   UNL     1      -6.643  11.333  66.890  1.00  0.00    -0.106 OA 
HETATM   12  C   UNL     1      -7.536  10.570  66.551  1.00  0.00    -0.128 C  
ENDROOT
BRANCH  10  13
HETATM   13  C   UNL     1      -8.252   9.888  68.827  1.00  0.00    -0.114 C  
BRANCH  13  14
HETATM   14  C   UNL     1      -9.531  10.451  69.487  1.00  0.00    -0.164 C  
HETATM   15  C   UNL     1     -10.535   9.310  69.742  1.00  0.00    -0.235 C  
HETATM   16  C   UNL     1     -11.782   9.805  70.462  1.00  0.00    -0.343 C  
HETATM   17  C   UNL     1     -12.435  10.960  69.716  1.00  0.00    -0.250 C  
HETATM   18  C   UNL     1     -11.447  12.094  69.453  1.00  0.00    -0.355 C  
HETATM   19  C   UNL     1     -10.212  11.596  68.674  1.00  0.00    -0.215 C  
BRANCH  19  20
HETATM   20  C   UNL     1      -9.221  12.748  68.383  1.00  0.00    -0.136 C  
BRANCH  20  21
HETATM   21  N   UNL     1      -9.748  13.928  67.671  1.00  0.00    -0.221 NA 
HETATM   22  C   UNL     1     -10.178  14.961  68.655  1.00  0.00    -0.236 C  
HETATM   23  C   UNL     1      -9.022  15.539  69.498  1.00  0.00    -0.244 C  
HETATM   24  N   UNL     1      -7.949  16.089  68.653  1.00  0.00    -0.162 NA 
HETATM   25  C   UNL     1      -7.553  15.268  67.493  1.00  0.00    -0.187 C  
HETATM   26  C   UNL     1      -8.753  14.583  66.788  1.00  0.00    -0.185 C  
BRANCH  24  27
HETATM   27  C   UNL     1      -7.809  17.451  68.609  1.00  0.00    -0.274 A  
HETATM   28  N   UNL     1      -6.785  18.089  69.173  1.00  0.00    -0.260 NA 
HETATM   29  S   UNL     1      -6.857  19.690  68.802  1.00  0.00    -0.338 SA 
HETATM   30  C   UNL     1      -8.266  19.605  67.830  1.00  0.00    -0.309 A  
HETATM   31  C   UNL     1      -8.911  20.625  67.111  1.00  0.00    -0.358 A  
HETATM   32  C   UNL     1     -10.052  20.300  66.375  1.00  0.00    -0.491 A  
HETATM   33  C   UNL     1     -10.535  18.997  66.356  1.00  0.00    -0.524 A  
HETATM   34  C   UNL     1      -9.876  17.987  67.068  1.00  0.00    -0.318 A  
HETATM   35  C   UNL     1      -8.718  18.284  67.833  1.00  0.00    -0.274 A  
ENDBRANCH  24  27
ENDBRANCH  20  21
ENDBRANCH  19  20
ENDBRANCH  13  14
ENDBRANCH  10  13
TORSDOF 5
ENDMDL
MODEL      211
REMARK 921   NORMALIZED FREE ENERGY PREDICTED BY IDOCK:   -3.44 KCAL/MOL
REMARK 922        TOTAL FREE ENERGY PREDICTED BY IDOCK:   -6.16 KCAL/MOL
REMARK 923 INTER-LIGAND FREE ENERGY PREDICTED BY IDOCK:   -5.76 KCAL/MOL
REMARK 924 INTRA-LIGAND FREE ENERGY PREDICTED BY IDOCK:   -0.40 KCAL/MOL
REMARK 927      BINDING AFFINITY PREDICTED BY RF-SCORE:    0.00 PKD
ROOT
HETATM    1  C   UNL     1      -7.964   1.910  65.105  1.00  0.00    -0.074 C  
HETATM    2  C   UNL     1      -6.671   2.462  64.479  1.00  0.00    -0.038 C  
HETATM    3  C   UNL     1      -6.718   2.174  62.965  1.00  0.00    -0.026 C  
HETATM    4  C   UNL     1      -7.810   3.140  62.461  1.00  0.00    -0.063 C  
HETATM    5  C   UNL     1      -8.243   3.874  63.746  1.00  0.00    -0.091 C  
HETATM    6  C   UNL     1      -6.902   3.974  64.480  1.00  0.00    -0.045 C  
HETATM    7  C   UNL     1      -9.040   2.875  64.600  1.00  0.00    -0.133 C  
HETATM    8  C   UNL     1      -9.617   3.483  65.848  1.00  0.00    -0.098 C  
HETATM    9  O   UNL     1     -10.446   4.379  65.860  1.00  0.00    -0.250 OA 
HETATM   10  N   UNL     1      -9.036   2.894  66.934  1.00  0.00    -0.148 N  
HETATM   11  O   UNL     1      -7.212   1.531  67.368  1.00  0.00    -0.041 OA 
HETATM   12  C   UNL     1      -8.005   2.057  66.601  1.00  0.00    -0.076 C  
ENDROOT
BRANCH  10  13
HETATM   13  C   UNL     1      -9.340   3.269  68.307  1.00  0.00    -0.184 C  
BRANCH  13  14
HETATM   14  C   UNL     1      -8.153   3.981  68.993  1.00  0.00    -0.075 C  
HETATM   15  C   UNL     1      -7.663   3.148  70.193  1.00  0.00    -0.043 C  
HETATM   16  C   UNL     1      -6.443   3.774  70.856  1.00  0.00    -0.030 C  
HETATM   17  C   UNL     1      -6.706   5.219  71.256  1.00  0.00    -0.044 C  
HETATM   18  C   UNL     1      -7.197   6.052  70.074  1.00  0.00    -0.073 C  
HETATM   19  C   UNL     1      -8.466   5.443  69.444  1.00  0.00    -0.099 C  
BRANCH  19  20
HETATM   20  C   UNL     1      -8.981   6.300  68.263  1.00  0.00    -0.115 C  
BRANCH  20  21
HETATM   21  N   UNL     1     -10.419   6.631  68.245  1.00  0.00    -0.189 NA 
HETATM   22  C   UNL     1     -10.904   6.846  69.637  1.00  0.00    -0.259 C  
HETATM   23  C   UNL     1     -10.266   8.064  70.338  1.00  0.00    -0.201 C  
HETATM   24  N   UNL     1     -10.450   9.302  69.561  1.00  0.00    -0.214 NA 
HETATM   25  C   UNL     1     -10.211   9.197  68.109  1.00  0.00    -0.207 C  
HETATM   26  C   UNL     1     -10.735   7.871  67.497  1.00  0.00    -0.181 C  
BRANCH  24  27
HETATM   27  C   UNL     1     -11.330  10.233  70.046  1.00  0.00    -0.301 A  
HETATM   28  N   UNL     1     -12.057  10.034  71.144  1.00  0.00    -0.350 NA 
HETATM   29  S   UNL     1     -12.886  11.405  71.515  1.00  0.00    -0.333 SA 
HETATM   30  C   UNL     1     -12.284  12.357  70.224  1.00  0.00    -0.267 A  
HETATM   31  C   UNL     1     -12.530  13.708  69.926  1.00  0.00    -0.226 A  
HETATM   32  C   UNL     1     -11.903  14.268  68.811  1.00  0.00    -0.377 A  
HETATM   33  C   UNL     1     -11.057  13.504  68.017  1.00  0.00    -0.283 A  
HETATM   34  C   UNL     1     -10.811  12.162  68.331  1.00  0.00    -0.255 A  
HETATM   35  C   UNL     1     -11.437  11.558  69.453  1.00  0.00    -0.376 A  
ENDBRANCH  24  27
ENDBRANCH  20  21
ENDBRANCH  19  20
ENDBRANCH  13  14
ENDBRANCH  10  13
TORSDOF 5
ENDMDL
MODEL      212
REMARK 921   NORMALIZED FREE ENERGY PREDICTED BY IDOCK:   -3.41 KCAL/MOL
REMARK 922        TOTAL FREE ENERGY PREDICTED BY IDOCK:   -6.13 KCAL/MOL
REMARK 923 INTER-LIGAND FREE ENERGY PREDICTED BY IDOCK:   -6.31 KCAL/MOL
REMARK 924 INTRA-LIGAND FREE ENERGY PREDICTED BY IDOCK:    0.18 KCAL/MOL
REMARK 927      BINDING AFFINITY PREDICTED BY RF-SCORE:    0.00 PKD
ROOT
HETATM    1  C   UNL     1      -9.781   8.224  66.444  1.00  0.00    -0.300 C  
HETATM    2  C   UNL     1     -10.201   7.446  67.703  1.00  0.00    -0.261 C  
HETATM    3  C   UNL     1     -11.054   6.243  67.254  1.00  0.00    -0.387 C  
HETATM    4  C   UNL     1     -10.023   5.316  66.579  1.00  0.00    -0.228 C  
HETATM    5  C   UNL     1      -8.701   6.095  66.739  1.00  0.00    -0.116 C  
HETATM    6  C   UNL     1      -8.913   6.731  68.116  1.00  0.00    -0.118 C  
HETATM    7  C   UNL     1      -8.757   7.297  65.782  1.00  0.00    -0.129 C  
HETATM    8  C   UNL     1      -7.486   8.099  65.755  1.00  0.00    -0.080 C  
HETATM    9  O   UNL     1      -6.406   7.667  65.384  1.00  0.00    -0.038 OA 
HETATM   10  N   UNL     1      -7.742   9.349  66.241  1.00  0.00    -0.096 N  
HETATM   11  O   UNL     1      -9.445  10.419  67.394  1.00  0.00    -0.148 OA 
HETATM   12  C   UNL     1      -9.005   9.474  66.754  1.00  0.00    -0.138 C  
ENDROOT
BRANCH  10  13
HETATM   13  C   UNL     1      -6.723  10.377  66.386  1.00  0.00    -0.107 C  
BRANCH  13  14
HETATM   14  C   UNL     1      -6.086  10.371  67.793  1.00  0.00    -0.052 C  
HETATM   15  C   UNL     1      -6.044   8.932  68.344  1.00  0.00    -0.046 C  
HETATM   16  C   UNL     1      -5.354   8.866  69.700  1.00  0.00    -0.030 C  
HETATM   17  C   UNL     1      -5.993   9.822  70.698  1.00  0.00    -0.078 C  
HETATM   18  C   UNL     1      -6.044  11.250  70.159  1.00  0.00    -0.149 C  
HETATM   19  C   UNL     1      -6.794  11.318  68.813  1.00  0.00    -0.082 C  
BRANCH  19  20
HETATM   20  C   UNL     1      -6.871  12.767  68.278  1.00  0.00    -0.090 C  
BRANCH  20  21
HETATM   21  N   UNL     1      -7.530  13.770  69.135  1.00  0.00    -0.006 NA 
HETATM   22  C   UNL     1      -6.532  14.780  69.589  1.00  0.00    -0.150 C  
HETATM   23  C   UNL     1      -5.936  15.625  68.444  1.00  0.00    -0.105 C  
HETATM   24  N   UNL     1      -6.984  16.296  67.656  1.00  0.00    -0.132 NA 
HETATM   25  C   UNL     1      -8.158  15.475  67.306  1.00  0.00    -0.198 C  
HETATM   26  C   UNL     1      -8.605  14.526  68.450  1.00  0.00    -0.172 C  
BRANCH  24  27
HETATM   27  C   UNL     1      -7.113  17.653  67.794  1.00  0.00    -0.185 A  
HETATM   28  N   UNL     1      -6.117  18.434  68.209  1.00  0.00    -0.188 NA 
HETATM   29  S   UNL     1      -6.573  20.012  68.116  1.00  0.00    -0.291 SA 
HETATM   30  C   UNL     1      -8.138  19.728  67.480  1.00  0.00    -0.302 A  
HETATM   31  C   UNL     1      -9.120  20.654  67.089  1.00  0.00    -0.401 A  
HETATM   32  C   UNL     1     -10.327  20.170  66.583  1.00  0.00    -0.508 A  
HETATM   33  C   UNL     1     -10.550  18.804  66.470  1.00  0.00    -0.436 A  
HETATM   34  C   UNL     1      -9.560  17.890  66.852  1.00  0.00    -0.300 A  
HETATM   35  C   UNL     1      -8.323  18.347  67.378  1.00  0.00    -0.256 A  
ENDBRANCH  24  27
ENDBRANCH  20  21
ENDBRANCH  19  20
ENDBRANCH  13  14
ENDBRANCH  10  13
TORSDOF 5
ENDMDL
MODEL      213
REMARK 921   NORMALIZED FREE ENERGY PREDICTED BY IDOCK:   -3.38 KCAL/MOL
REMARK 922        TOTAL FREE ENERGY PREDICTED BY IDOCK:   -6.10 KCAL/MOL
REMARK 923 INTER-LIGAND FREE ENERGY PREDICTED BY IDOCK:   -6.14 KCAL/MOL
REMARK 924 INTRA-LIGAND FREE ENERGY PREDICTED BY IDOCK:    0.05 KCAL/MOL
REMARK 927      BINDING AFFINITY PREDICTED BY RF-SCORE:    0.00 PKD
ROOT
HETATM    1  C   UNL     1      -7.451   7.150  64.086  1.00  0.00    -0.099 C  
HETATM    2  C   UNL     1      -6.543   7.832  63.049  1.00  0.00    -0.075 C  
HETATM    3  C   UNL     1      -7.363   8.937  62.354  1.00  0.00    -0.099 C  
HETATM    4  C   UNL     1      -7.519  10.001  63.459  1.00  0.00    -0.140 C  
HETATM    5  C   UNL     1      -6.754   9.382  64.647  1.00  0.00    -0.088 C  
HETATM    6  C   UNL     1      -5.608   8.682  63.911  1.00  0.00    -0.065 C  
HETATM    7  C   UNL     1      -7.599   8.213  65.179  1.00  0.00    -0.097 C  
HETATM    8  C   UNL     1      -7.023   7.571  66.409  1.00  0.00    -0.070 C  
HETATM    9  O   UNL     1      -6.873   8.140  67.479  1.00  0.00    -0.067 OA 
HETATM   10  N   UNL     1      -6.674   6.284  66.114  1.00  0.00    -0.054 N  
HETATM   11  O   UNL     1      -6.395   4.982  64.217  1.00  0.00    -0.031 OA 
HETATM   12  C   UNL     1      -6.789   5.992  64.781  1.00  0.00    -0.047 C  
ENDROOT
BRANCH  10  13
HETATM   13  C   UNL     1      -6.054   5.382  67.072  1.00  0.00    -0.030 C  
BRANCH  13  14
HETATM   14  C   UNL     1      -6.968   4.187  67.423  1.00  0.00    -0.059 C  
HETATM   15  C   UNL     1      -6.554   2.950  66.601  1.00  0.00    -0.036 C  
HETATM   16  C   UNL     1      -7.380   1.725  66.969  1.00  0.00    -0.055 C  
HETATM   17  C   UNL     1      -8.872   2.000  66.842  1.00  0.00    -0.143 C  
HETATM   18  C   UNL     1      -9.292   3.227  67.649  1.00  0.00    -0.245 C  
HETATM   19  C   UNL     1      -8.491   4.476  67.231  1.00  0.00    -0.104 C  
BRANCH  19  20
HETATM   20  C   UNL     1      -8.932   5.727  68.028  1.00  0.00    -0.111 C  
BRANCH  20  21
HETATM   21  N   UNL     1     -10.376   6.026  68.071  1.00  0.00    -0.179 NA 
HETATM   22  C   UNL     1     -10.834   6.100  69.487  1.00  0.00    -0.361 C  
HETATM   23  C   UNL     1     -10.205   7.261  70.285  1.00  0.00    -0.199 C  
HETATM   24  N   UNL     1     -10.431   8.561  69.631  1.00  0.00    -0.219 NA 
HETATM   25  C   UNL     1     -10.224   8.597  68.171  1.00  0.00    -0.205 C  
HETATM   26  C   UNL     1     -10.734   7.323  67.448  1.00  0.00    -0.288 C  
BRANCH  24  27
HETATM   27  C   UNL     1     -11.319   9.423  70.220  1.00  0.00    -0.220 A  
HETATM   28  N   UNL     1     -12.113   9.064  71.227  1.00  0.00    -0.304 NA 
HETATM   29  S   UNL     1     -12.934  10.377  71.781  1.00  0.00    -0.455 SA 
HETATM   30  C   UNL     1     -12.238  11.515  70.704  1.00  0.00    -0.378 A  
HETATM   31  C   UNL     1     -12.439  12.903  70.628  1.00  0.00    -0.333 A  
HETATM   32  C   UNL     1     -11.737  13.624  69.659  1.00  0.00    -0.383 A  
HETATM   33  C   UNL     1     -10.863  12.980  68.794  1.00  0.00    -0.277 A  
HETATM   34  C   UNL     1     -10.662  11.598  68.888  1.00  0.00    -0.244 A  
HETATM   35  C   UNL     1     -11.364  10.832  69.855  1.00  0.00    -0.385 A  
ENDBRANCH  24  27
ENDBRANCH  20  21
ENDBRANCH  19  20
ENDBRANCH  13  14
ENDBRANCH  10  13
TORSDOF 5
ENDMDL
MODEL      214
REMARK 921   NORMALIZED FREE ENERGY PREDICTED BY IDOCK:   -3.32 KCAL/MOL
REMARK 922        TOTAL FREE ENERGY PREDICTED BY IDOCK:   -6.01 KCAL/MOL
REMARK 923 INTER-LIGAND FREE ENERGY PREDICTED BY IDOCK:   -6.36 KCAL/MOL
REMARK 924 INTRA-LIGAND FREE ENERGY PREDICTED BY IDOCK:    0.35 KCAL/MOL
REMARK 927      BINDING AFFINITY PREDICTED BY RF-SCORE:    0.00 PKD
ROOT
HETATM    1  C   UNL     1      -9.807   6.443  73.048  1.00  0.00    -0.174 C  
HETATM    2  C   UNL     1      -9.473   4.981  72.702  1.00  0.00    -0.161 C  
HETATM    3  C   UNL     1     -10.045   4.087  73.820  1.00  0.00    -0.185 C  
HETATM    4  C   UNL     1     -11.568   4.178  73.594  1.00  0.00    -0.104 C  
HETATM    5  C   UNL     1     -11.680   5.100  72.363  1.00  0.00     0.066 C  
HETATM    6  C   UNL     1     -10.448   4.662  71.567  1.00  0.00    -0.102 C  
HETATM    7  C   UNL     1     -11.319   6.523  72.820  1.00  0.00    -0.221 C  
HETATM    8  C   UNL     1     -11.483   7.556  71.741  1.00  0.00    -0.260 C  
HETATM    9  O   UNL     1     -12.546   7.839  71.212  1.00  0.00    -0.311 OA 
HETATM   10  N   UNL     1     -10.258   8.080  71.442  1.00  0.00    -0.192 N  
HETATM   11  O   UNL     1      -8.035   7.576  71.862  1.00  0.00    -0.090 OA 
HETATM   12  C   UNL     1      -9.230   7.428  72.069  1.00  0.00    -0.132 C  
ENDROOT
BRANCH  10  13
HETATM   13  C   UNL     1     -10.047   9.088  70.414  1.00  0.00    -0.207 C  
BRANCH  13  14
HETATM   14  C   UNL     1     -10.306   8.535  68.995  1.00  0.00    -0.229 C  
HETATM   15  C   UNL     1      -9.356   7.356  68.709  1.00  0.00    -0.144 C  
HETATM   16  C   UNL     1      -9.627   6.729  67.348  1.00  0.00    -0.158 C  
HETATM   17  C   UNL     1      -9.572   7.766  66.235  1.00  0.00    -0.179 C  
HETATM   18  C   UNL     1     -10.507   8.942  66.512  1.00  0.00    -0.175 C  
HETATM   19  C   UNL     1     -10.189   9.608  67.866  1.00  0.00    -0.242 C  
BRANCH  19  20
HETATM   20  C   UNL     1     -11.116  10.816  68.137  1.00  0.00    -0.280 C  
BRANCH  20  21
HETATM   21  N   UNL     1     -10.658  11.811  69.125  1.00  0.00    -0.129 NA 
HETATM   22  C   UNL     1      -9.176  11.942  69.058  1.00  0.00     0.293 C  
HETATM   23  C   UNL     1      -8.659  12.506  67.717  1.00  0.00    -0.178 C  
HETATM   24  N   UNL     1      -9.278  13.802  67.393  1.00  0.00    -0.212 NA 
HETATM   25  C   UNL     1     -10.733  13.899  67.615  1.00  0.00    -0.249 C  
HETATM   26  C   UNL     1     -11.207  13.170  68.900  1.00  0.00    -0.277 C  
BRANCH  24  27
HETATM   27  C   UNL     1      -8.494  14.922  67.485  1.00  0.00    -0.185 A  
HETATM   28  N   UNL     1      -7.174  14.866  67.653  1.00  0.00    -0.170 NA 
HETATM   29  S   UNL     1      -6.540  16.382  67.572  1.00  0.00    -0.172 SA 
HETATM   30  C   UNL     1      -8.016  17.199  67.276  1.00  0.00    -0.179 A  
HETATM   31  C   UNL     1      -8.244  18.565  67.041  1.00  0.00    -0.252 A  
HETATM   32  C   UNL     1      -9.554  18.991  66.810  1.00  0.00    -0.374 A  
HETATM   33  C   UNL     1     -10.604  18.082  66.814  1.00  0.00    -0.281 A  
HETATM   34  C   UNL     1     -10.363  16.721  67.038  1.00  0.00    -0.300 A  
HETATM   35  C   UNL     1      -9.046  16.254  67.283  1.00  0.00    -0.214 A  
ENDBRANCH  24  27
ENDBRANCH  20  21
ENDBRANCH  19  20
ENDBRANCH  13  14
ENDBRANCH  10  13
TORSDOF 5
ENDMDL
MODEL      215
REMARK 921   NORMALIZED FREE ENERGY PREDICTED BY IDOCK:   -3.30 KCAL/MOL
REMARK 922        TOTAL FREE ENERGY PREDICTED BY IDOCK:   -5.98 KCAL/MOL
REMARK 923 INTER-LIGAND FREE ENERGY PREDICTED BY IDOCK:   -5.79 KCAL/MOL
REMARK 924 INTRA-LIGAND FREE ENERGY PREDICTED BY IDOCK:   -0.19 KCAL/MOL
REMARK 927      BINDING AFFINITY PREDICTED BY RF-SCORE:    0.00 PKD
ROOT
HETATM    1  C   UNL     1     -11.077  14.022  67.788  1.00  0.00    -0.284 C  
HETATM    2  C   UNL     1     -11.107  14.925  66.542  1.00  0.00    -0.341 C  
HETATM    3  C   UNL     1     -10.991  16.388  67.014  1.00  0.00    -0.048 C  
HETATM    4  C   UNL     1      -9.530  16.482  67.499  1.00  0.00    -0.224 C  
HETATM    5  C   UNL     1      -8.983  15.065  67.229  1.00  0.00    -0.212 C  
HETATM    6  C   UNL     1      -9.719  14.721  65.931  1.00  0.00    -0.355 C  
HETATM    7  C   UNL     1      -9.624  14.121  68.260  1.00  0.00    -0.226 C  
HETATM    8  C   UNL     1      -9.106  12.713  68.183  1.00  0.00    -0.204 C  
HETATM    9  O   UNL     1      -7.946  12.392  68.392  1.00  0.00    -0.151 OA 
HETATM   10  N   UNL     1     -10.127  11.887  67.812  1.00  0.00    -0.187 N  
HETATM   11  O   UNL     1     -12.267  12.097  66.945  1.00  0.00    -0.537 OA 
HETATM   12  C   UNL     1     -11.264  12.565  67.465  1.00  0.00    -0.291 C  
ENDROOT
BRANCH  10  13
HETATM   13  C   UNL     1      -9.967  10.455  67.610  1.00  0.00    -0.174 C  
BRANCH  13  14
HETATM   14  C   UNL     1     -10.224   9.651  68.905  1.00  0.00    -0.214 C  
HETATM   15  C   UNL     1     -11.484  10.187  69.613  1.00  0.00    -0.256 C  
HETATM   16  C   UNL     1     -11.822   9.375  70.856  1.00  0.00    -0.365 C  
HETATM   17  C   UNL     1     -10.639   9.302  71.812  1.00  0.00    -0.286 C  
HETATM   18  C   UNL     1      -9.383   8.778  71.119  1.00  0.00    -0.297 C  
HETATM   19  C   UNL     1      -9.015   9.639  69.893  1.00  0.00    -0.243 C  
BRANCH  19  20
HETATM   20  C   UNL     1      -7.728   9.126  69.204  1.00  0.00    -0.081 C  
BRANCH  20  21
HETATM   21  N   UNL     1      -7.237   7.792  69.598  1.00  0.00    -0.073 NA 
HETATM   22  C   UNL     1      -8.263   6.761  69.273  1.00  0.00    -0.124 C  
HETATM   23  C   UNL     1      -8.538   6.609  67.762  1.00  0.00    -0.121 C  
HETATM   24  N   UNL     1      -7.306   6.324  67.008  1.00  0.00    -0.081 NA 
HETATM   25  C   UNL     1      -6.124   7.129  67.369  1.00  0.00    -0.037 C  
HETATM   26  C   UNL     1      -5.998   7.382  68.895  1.00  0.00    -0.026 C  
BRANCH  24  27
HETATM   27  C   UNL     1      -7.148   5.061  66.502  1.00  0.00    -0.069 A  
HETATM   28  N   UNL     1      -7.281   4.781  65.207  1.00  0.00    -0.067 NA 
HETATM   29  S   UNL     1      -6.879   3.209  64.935  1.00  0.00    -0.042 SA 
HETATM   30  C   UNL     1      -6.472   2.826  66.555  1.00  0.00    -0.032 A  
HETATM   31  C   UNL     1      -5.975   1.623  67.085  1.00  0.00    -0.020 A  
HETATM   32  C   UNL     1      -5.706   1.561  68.454  1.00  0.00    -0.019 A  
HETATM   33  C   UNL     1      -5.924   2.665  69.269  1.00  0.00    -0.024 A  
HETATM   34  C   UNL     1      -6.408   3.861  68.726  1.00  0.00    -0.033 A  
HETATM   35  C   UNL     1      -6.700   3.958  67.341  1.00  0.00    -0.047 A  
ENDBRANCH  24  27
ENDBRANCH  20  21
ENDBRANCH  19  20
ENDBRANCH  13  14
ENDBRANCH  10  13
TORSDOF 5
ENDMDL
MODEL      216
REMARK 921   NORMALIZED FREE ENERGY PREDICTED BY IDOCK:   -3.27 KCAL/MOL
REMARK 922        TOTAL FREE ENERGY PREDICTED BY IDOCK:   -5.95 KCAL/MOL
REMARK 923 INTER-LIGAND FREE ENERGY PREDICTED BY IDOCK:   -6.70 KCAL/MOL
REMARK 924 INTRA-LIGAND FREE ENERGY PREDICTED BY IDOCK:    0.76 KCAL/MOL
REMARK 927      BINDING AFFINITY PREDICTED BY RF-SCORE:    0.00 PKD
ROOT
HETATM    1  C   UNL     1      -6.117   9.924  70.088  1.00  0.00    -0.063 C  
HETATM    2  C   UNL     1      -6.630  11.335  69.748  1.00  0.00    -0.130 C  
HETATM    3  C   UNL     1      -5.439  12.158  69.221  1.00  0.00    -0.066 C  
HETATM    4  C   UNL     1      -5.163  11.528  67.841  1.00  0.00    -0.046 C  
HETATM    5  C   UNL     1      -6.242  10.431  67.740  1.00  0.00    -0.056 C  
HETATM    6  C   UNL     1      -7.411  11.117  68.451  1.00  0.00    -0.102 C  
HETATM    7  C   UNL     1      -5.847   9.307  68.712  1.00  0.00    -0.040 C  
HETATM    8  C   UNL     1      -6.760   8.115  68.649  1.00  0.00    -0.058 C  
HETATM    9  O   UNL     1      -6.907   7.409  67.664  1.00  0.00    -0.072 OA 
HETATM   10  N   UNL     1      -7.404   7.988  69.846  1.00  0.00    -0.065 N  
HETATM   11  O   UNL     1      -7.743   9.269  71.749  1.00  0.00    -0.320 OA 
HETATM   12  C   UNL     1      -7.174   9.041  70.691  1.00  0.00    -0.093 C  
ENDROOT
BRANCH  10  13
HETATM   13  C   UNL     1      -8.390   6.954  70.121  1.00  0.00    -0.135 C  
BRANCH  13  14
HETATM   14  C   UNL     1      -9.578   7.487  70.951  1.00  0.00    -0.165 C  
HETATM   15  C   UNL     1      -9.655   6.741  72.298  1.00  0.00    -0.153 C  
HETATM   16  C   UNL     1     -10.767   7.287  73.183  1.00  0.00    -0.411 C  
HETATM   17  C   UNL     1     -12.109   7.271  72.466  1.00  0.00    -0.078 C  
HETATM   18  C   UNL     1     -12.043   8.004  71.127  1.00  0.00    -0.284 C  
HETATM   19  C   UNL     1     -10.952   7.409  70.213  1.00  0.00    -0.272 C  
BRANCH  19  20
HETATM   20  C   UNL     1     -10.901   8.131  68.846  1.00  0.00     0.035 C  
BRANCH  20  21
HETATM   21  N   UNL     1     -10.034   9.321  68.743  1.00  0.00    -0.175 NA 
HETATM   22  C   UNL     1      -9.844   9.684  67.311  1.00  0.00    -0.175 C  
HETATM   23  C   UNL     1     -11.142  10.125  66.602  1.00  0.00     0.209 C  
HETATM   24  N   UNL     1     -11.797  11.241  67.304  1.00  0.00    -0.511 NA 
HETATM   25  C   UNL     1     -11.873  11.128  68.773  1.00  0.00    -0.320 C  
HETATM   26  C   UNL     1     -10.592  10.523  69.407  1.00  0.00    -0.240 C  
BRANCH  24  27
HETATM   27  C   UNL     1     -11.757  12.476  66.712  1.00  0.00    -0.384 A  
HETATM   28  N   UNL     1     -12.305  12.724  65.524  1.00  0.00    -0.582 NA 
HETATM   29  S   UNL     1     -12.201  14.332  65.190  1.00  0.00    -0.413 SA 
HETATM   30  C   UNL     1     -11.432  14.788  66.652  1.00  0.00    -0.335 A  
HETATM   31  C   UNL     1     -11.065  16.068  67.101  1.00  0.00    -0.104 A  
HETATM   32  C   UNL     1     -10.453  16.184  68.351  1.00  0.00    -0.274 A  
HETATM   33  C   UNL     1     -10.214  15.059  69.129  1.00  0.00    -0.241 A  
HETATM   34  C   UNL     1     -10.595  13.790  68.676  1.00  0.00    -0.263 A  
HETATM   35  C   UNL     1     -11.212  13.634  67.407  1.00  0.00    -0.323 A  
ENDBRANCH  24  27
ENDBRANCH  20  21
ENDBRANCH  19  20
ENDBRANCH  13  14
ENDBRANCH  10  13
TORSDOF 5
ENDMDL
MODEL      217
REMARK 921   NORMALIZED FREE ENERGY PREDICTED BY IDOCK:   -3.19 KCAL/MOL
REMARK 922        TOTAL FREE ENERGY PREDICTED BY IDOCK:   -5.84 KCAL/MOL
REMARK 923 INTER-LIGAND FREE ENERGY PREDICTED BY IDOCK:   -6.14 KCAL/MOL
REMARK 924 INTRA-LIGAND FREE ENERGY PREDICTED BY IDOCK:    0.30 KCAL/MOL
REMARK 927      BINDING AFFINITY PREDICTED BY RF-SCORE:    0.00 PKD
ROOT
HETATM    1  C   UNL     1      -7.766  10.688  65.285  1.00  0.00    -0.021 C  
HETATM    2  C   UNL     1      -9.267  10.584  65.610  1.00  0.00    -0.221 C  
HETATM    3  C   UNL     1      -9.966  11.824  65.019  1.00  0.00    -0.287 C  
HETATM    4  C   UNL     1      -9.902  11.568  63.499  1.00  0.00    -0.407 C  
HETATM    5  C   UNL     1      -9.188  10.204  63.407  1.00  0.00    -0.324 C  
HETATM    6  C   UNL     1      -9.757   9.503  64.645  1.00  0.00     0.102 C  
HETATM    7  C   UNL     1      -7.713  10.431  63.776  1.00  0.00    -0.042 C  
HETATM    8  C   UNL     1      -6.865   9.199  63.633  1.00  0.00    -0.090 C  
HETATM    9  O   UNL     1      -6.664   8.619  62.578  1.00  0.00    -0.095 OA 
HETATM   10  N   UNL     1      -6.404   8.835  64.865  1.00  0.00    -0.065 N  
HETATM   11  O   UNL     1      -6.850   9.356  67.080  1.00  0.00    -0.081 OA 
HETATM   12  C   UNL     1      -6.955   9.570  65.881  1.00  0.00    -0.091 C  
ENDROOT
BRANCH  10  13
HETATM   13  C   UNL     1      -5.576   7.661  65.097  1.00  0.00    -0.033 C  
BRANCH  13  14
HETATM   14  C   UNL     1      -6.241   6.368  64.575  1.00  0.00    -0.030 C  
HETATM   15  C   UNL     1      -5.937   6.190  63.074  1.00  0.00    -0.026 C  
HETATM   16  C   UNL     1      -6.509   4.887  62.532  1.00  0.00    -0.026 C  
HETATM   17  C   UNL     1      -8.001   4.774  62.812  1.00  0.00    -0.074 C  
HETATM   18  C   UNL     1      -8.313   4.954  64.296  1.00  0.00    -0.130 C  
HETATM   19  C   UNL     1      -7.781   6.302  64.824  1.00  0.00    -0.101 C  
BRANCH  19  20
HETATM   20  C   UNL     1      -8.119   6.499  66.321  1.00  0.00    -0.115 C  
BRANCH  20  21
HETATM   21  N   UNL     1      -9.239   5.710  66.870  1.00  0.00    -0.118 NA 
HETATM   22  C   UNL     1      -9.024   5.477  68.326  1.00  0.00    -0.108 C  
HETATM   23  C   UNL     1      -9.045   6.765  69.175  1.00  0.00    -0.138 C  
HETATM   24  N   UNL     1     -10.290   7.528  68.982  1.00  0.00    -0.209 NA 
HETATM   25  C   UNL     1     -10.756   7.666  67.590  1.00  0.00    -0.175 C  
HETATM   26  C   UNL     1     -10.555   6.380  66.745  1.00  0.00    -0.258 C  
BRANCH  24  27
HETATM   27  C   UNL     1     -11.192   7.543  70.013  1.00  0.00    -0.157 A  
HETATM   28  N   UNL     1     -11.514   6.452  70.705  1.00  0.00    -0.346 NA 
HETATM   29  S   UNL     1     -12.505   6.859  71.953  1.00  0.00    -0.268 SA 
HETATM   30  C   UNL     1     -12.532   8.544  71.643  1.00  0.00    -0.330 A  
HETATM   31  C   UNL     1     -13.164   9.571  72.365  1.00  0.00    -0.451 A  
HETATM   32  C   UNL     1     -13.026  10.884  71.912  1.00  0.00    -0.502 A  
HETATM   33  C   UNL     1     -12.282  11.166  70.774  1.00  0.00    -0.484 A  
HETATM   34  C   UNL     1     -11.647  10.136  70.069  1.00  0.00    -0.323 A  
HETATM   35  C   UNL     1     -11.772   8.788  70.497  1.00  0.00    -0.115 A  
ENDBRANCH  24  27
ENDBRANCH  20  21
ENDBRANCH  19  20
ENDBRANCH  13  14
ENDBRANCH  10  13
TORSDOF 5
ENDMDL
MODEL      218
REMARK 921   NORMALIZED FREE ENERGY PREDICTED BY IDOCK:   -3.16 KCAL/MOL
REMARK 922        TOTAL FREE ENERGY PREDICTED BY IDOCK:   -5.81 KCAL/MOL
REMARK 923 INTER-LIGAND FREE ENERGY PREDICTED BY IDOCK:   -5.84 KCAL/MOL
REMARK 924 INTRA-LIGAND FREE ENERGY PREDICTED BY IDOCK:    0.03 KCAL/MOL
REMARK 927      BINDING AFFINITY PREDICTED BY RF-SCORE:    0.00 PKD
ROOT
HETATM    1  C   UNL     1     -12.167  13.696  68.273  1.00  0.00    -0.165 C  
HETATM    2  C   UNL     1     -11.156  14.854  68.203  1.00  0.00    -0.290 C  
HETATM    3  C   UNL     1     -11.848  16.120  68.747  1.00  0.00    -0.130 C  
HETATM    4  C   UNL     1     -11.966  15.830  70.257  1.00  0.00    -0.383 C  
HETATM    5  C   UNL     1     -11.313  14.439  70.395  1.00  0.00    -0.148 C  
HETATM    6  C   UNL     1     -10.196  14.547  69.353  1.00  0.00    -0.051 C  
HETATM    7  C   UNL     1     -12.277  13.415  69.774  1.00  0.00    -0.307 C  
HETATM    8  C   UNL     1     -11.816  11.993  69.926  1.00  0.00    -0.331 C  
HETATM    9  O   UNL     1     -11.670  11.425  70.997  1.00  0.00    -0.050 OA 
HETATM   10  N   UNL     1     -11.562  11.477  68.688  1.00  0.00    -0.285 N  
HETATM   11  O   UNL     1     -11.303  12.271  66.525  1.00  0.00    -0.311 OA 
HETATM   12  C   UNL     1     -11.637  12.414  67.693  1.00  0.00    -0.357 C  
ENDROOT
BRANCH  10  13
HETATM   13  C   UNL     1     -11.066  10.127  68.468  1.00  0.00    -0.214 C  
BRANCH  13  14
HETATM   14  C   UNL     1      -9.531  10.040  68.618  1.00  0.00    -0.156 C  
HETATM   15  C   UNL     1      -8.894  11.406  68.297  1.00  0.00    -0.167 C  
HETATM   16  C   UNL     1      -7.385  11.390  68.505  1.00  0.00    -0.105 C  
HETATM   17  C   UNL     1      -6.725  10.272  67.709  1.00  0.00    -0.073 C  
HETATM   18  C   UNL     1      -7.353   8.914  68.015  1.00  0.00    -0.084 C  
HETATM   19  C   UNL     1      -8.872   8.922  67.748  1.00  0.00    -0.136 C  
BRANCH  19  20
HETATM   20  C   UNL     1      -9.506   7.540  68.032  1.00  0.00    -0.142 C  
BRANCH  20  21
HETATM   21  N   UNL     1      -8.650   6.522  68.671  1.00  0.00    -0.124 NA 
HETATM   22  C   UNL     1      -8.274   6.969  70.042  1.00  0.00    -0.133 C  
HETATM   23  C   UNL     1      -9.471   7.087  71.010  1.00  0.00    -0.159 C  
HETATM   24  N   UNL     1     -10.230   5.828  71.098  1.00  0.00    -0.209 NA 
HETATM   25  C   UNL     1     -10.500   5.143  69.820  1.00  0.00    -0.204 C  
HETATM   26  C   UNL     1      -9.308   5.203  68.828  1.00  0.00    -0.125 C  
BRANCH  24  27
HETATM   27  C   UNL     1     -10.128   5.104  72.257  1.00  0.00    -0.192 A  
HETATM   28  N   UNL     1     -11.122   5.008  73.137  1.00  0.00    -0.303 NA 
HETATM   29  S   UNL     1     -10.710   3.949  74.326  1.00  0.00    -0.104 SA 
HETATM   30  C   UNL     1      -9.169   3.538  73.700  1.00  0.00    -0.093 A  
HETATM   31  C   UNL     1      -8.230   2.612  74.187  1.00  0.00    -0.067 A  
HETATM   32  C   UNL     1      -7.036   2.445  73.483  1.00  0.00    -0.027 A  
HETATM   33  C   UNL     1      -6.785   3.177  72.330  1.00  0.00    -0.015 A  
HETATM   34  C   UNL     1      -7.733   4.087  71.848  1.00  0.00    -0.067 A  
HETATM   35  C   UNL     1      -8.955   4.289  72.542  1.00  0.00    -0.126 A  
ENDBRANCH  24  27
ENDBRANCH  20  21
ENDBRANCH  19  20
ENDBRANCH  13  14
ENDBRANCH  10  13
TORSDOF 5
ENDMDL
MODEL      219
REMARK 921   NORMALIZED FREE ENERGY PREDICTED BY IDOCK:   -3.15 KCAL/MOL
REMARK 922        TOTAL FREE ENERGY PREDICTED BY IDOCK:   -5.80 KCAL/MOL
REMARK 923 INTER-LIGAND FREE ENERGY PREDICTED BY IDOCK:   -5.28 KCAL/MOL
REMARK 924 INTRA-LIGAND FREE ENERGY PREDICTED BY IDOCK:   -0.51 KCAL/MOL
REMARK 927      BINDING AFFINITY PREDICTED BY RF-SCORE:    0.00 PKD
ROOT
HETATM    1  C   UNL     1      -8.069  10.857  68.518  1.00  0.00    -0.137 C  
HETATM    2  C   UNL     1      -7.566  10.336  67.160  1.00  0.00    -0.092 C  
HETATM    3  C   UNL     1      -6.717  11.447  66.511  1.00  0.00    -0.070 C  
HETATM    4  C   UNL     1      -5.447  11.471  67.386  1.00  0.00    -0.067 C  
HETATM    5  C   UNL     1      -5.718  10.359  68.419  1.00  0.00    -0.037 C  
HETATM    6  C   UNL     1      -6.470   9.344  67.552  1.00  0.00    -0.063 C  
HETATM    7  C   UNL     1      -6.803  10.876  69.379  1.00  0.00    -0.114 C  
HETATM    8  C   UNL     1      -7.101   9.930  70.508  1.00  0.00    -0.101 C  
HETATM    9  O   UNL     1      -6.295   9.601  71.364  1.00  0.00    -0.245 OA 
HETATM   10  N   UNL     1      -8.388   9.491  70.387  1.00  0.00    -0.192 N  
HETATM   11  O   UNL     1     -10.057   9.511  68.779  1.00  0.00    -0.175 OA 
HETATM   12  C   UNL     1      -8.982   9.890  69.219  1.00  0.00    -0.178 C  
ENDROOT
BRANCH  10  13
HETATM   13  C   UNL     1      -8.997   8.534  71.299  1.00  0.00    -0.192 C  
BRANCH  13  14
HETATM   14  C   UNL     1     -10.486   8.283  70.970  1.00  0.00    -0.241 C  
HETATM   15  C   UNL     1     -11.378   9.134  71.896  1.00  0.00    -0.416 C  
HETATM   16  C   UNL     1     -12.855   8.977  71.557  1.00  0.00    -0.394 C  
HETATM   17  C   UNL     1     -13.278   7.515  71.572  1.00  0.00    -0.404 C  
HETATM   18  C   UNL     1     -12.396   6.662  70.663  1.00  0.00    -0.161 C  
HETATM   19  C   UNL     1     -10.908   6.782  71.047  1.00  0.00    -0.280 C  
BRANCH  19  20
HETATM   20  C   UNL     1     -10.014   5.898  70.144  1.00  0.00    -0.191 C  
BRANCH  20  21
HETATM   21  N   UNL     1     -10.576   5.474  68.847  1.00  0.00    -0.217 NA 
HETATM   22  C   UNL     1     -10.225   6.470  67.797  1.00  0.00    -0.167 C  
HETATM   23  C   UNL     1      -8.712   6.573  67.514  1.00  0.00    -0.114 C  
HETATM   24  N   UNL     1      -8.131   5.267  67.160  1.00  0.00    -0.101 NA 
HETATM   25  C   UNL     1      -8.555   4.123  67.989  1.00  0.00    -0.096 C  
HETATM   26  C   UNL     1     -10.058   4.168  68.373  1.00  0.00     0.229 C  
BRANCH  24  27
HETATM   27  C   UNL     1      -7.758   5.069  65.857  1.00  0.00    -0.091 A  
HETATM   28  N   UNL     1      -6.506   5.232  65.432  1.00  0.00    -0.039 NA 
HETATM   29  S   UNL     1      -6.390   4.770  63.858  1.00  0.00    -0.026 SA 
HETATM   30  C   UNL     1      -8.025   4.294  63.670  1.00  0.00    -0.089 A  
HETATM   31  C   UNL     1      -8.662   3.728  62.553  1.00  0.00    -0.087 A  
HETATM   32  C   UNL     1     -10.019   3.412  62.651  1.00  0.00    -0.115 A  
HETATM   33  C   UNL     1     -10.718   3.652  63.826  1.00  0.00    -0.271 A  
HETATM   34  C   UNL     1     -10.069   4.206  64.936  1.00  0.00    -0.213 A  
HETATM   35  C   UNL     1      -8.693   4.546  64.870  1.00  0.00    -0.140 A  
ENDBRANCH  24  27
ENDBRANCH  20  21
ENDBRANCH  19  20
ENDBRANCH  13  14
ENDBRANCH  10  13
TORSDOF 5
ENDMDL
MODEL      220
REMARK 921   NORMALIZED FREE ENERGY PREDICTED BY IDOCK:   -3.14 KCAL/MOL
REMARK 922        TOTAL FREE ENERGY PREDICTED BY IDOCK:   -5.78 KCAL/MOL
REMARK 923 INTER-LIGAND FREE ENERGY PREDICTED BY IDOCK:   -6.21 KCAL/MOL
REMARK 924 INTRA-LIGAND FREE ENERGY PREDICTED BY IDOCK:    0.43 KCAL/MOL
REMARK 927      BINDING AFFINITY PREDICTED BY RF-SCORE:    0.00 PKD
ROOT
HETATM    1  C   UNL     1      -9.985  12.002  69.289  1.00  0.00     0.394 C  
HETATM    2  C   UNL     1     -10.291  10.496  69.217  1.00  0.00    -0.248 C  
HETATM    3  C   UNL     1     -10.984  10.090  70.532  1.00  0.00    -0.392 C  
HETATM    4  C   UNL     1     -12.372  10.752  70.414  1.00  0.00    -0.438 C  
HETATM    5  C   UNL     1     -12.310  11.442  69.036  1.00  0.00    -0.033 C  
HETATM    6  C   UNL     1     -11.475  10.428  68.249  1.00  0.00    -0.218 C  
HETATM    7  C   UNL     1     -11.367  12.650  69.169  1.00  0.00    -0.339 C  
HETATM    8  C   UNL     1     -11.286  13.484  67.922  1.00  0.00    -0.274 C  
HETATM    9  O   UNL     1     -12.228  14.087  67.432  1.00  0.00    -0.384 OA 
HETATM   10  N   UNL     1     -10.014  13.417  67.428  1.00  0.00    -0.227 N  
HETATM   11  O   UNL     1      -8.117  12.128  67.763  1.00  0.00    -0.132 OA 
HETATM   12  C   UNL     1      -9.232  12.509  68.090  1.00  0.00    -0.209 C  
ENDROOT
BRANCH  10  13
HETATM   13  C   UNL     1      -9.593  14.084  66.206  1.00  0.00    -0.265 C  
BRANCH  13  14
HETATM   14  C   UNL     1     -10.251  13.469  64.951  1.00  0.00    -0.351 C  
HETATM   15  C   UNL     1     -11.670  14.042  64.768  1.00  0.00    -0.403 C  
HETATM   16  C   UNL     1     -12.331  13.522  63.499  1.00  0.00    -0.343 C  
HETATM   17  C   UNL     1     -12.339  12.000  63.458  1.00  0.00    -0.661 C  
HETATM   18  C   UNL     1     -10.938  11.422  63.644  1.00  0.00    -0.443 C  
HETATM   19  C   UNL     1     -10.298  11.908  64.960  1.00  0.00    -0.330 C  
BRANCH  19  20
HETATM   20  C   UNL     1      -8.888  11.303  65.163  1.00  0.00     0.029 C  
BRANCH  20  21
HETATM   21  N   UNL     1      -8.620   9.992  64.543  1.00  0.00    -0.173 NA 
HETATM   22  C   UNL     1      -7.156   9.716  64.560  1.00  0.00    -0.121 C  
HETATM   23  C   UNL     1      -6.566   9.567  65.979  1.00  0.00    -0.077 C  
HETATM   24  N   UNL     1      -7.266   8.532  66.757  1.00  0.00    -0.074 NA 
HETATM   25  C   UNL     1      -8.739   8.540  66.670  1.00  0.00    -0.125 C  
HETATM   26  C   UNL     1      -9.266   8.857  65.245  1.00  0.00    -0.091 C  
BRANCH  24  27
HETATM   27  C   UNL     1      -6.600   7.360  67.001  1.00  0.00    -0.061 A  
HETATM   28  N   UNL     1      -6.152   7.023  68.209  1.00  0.00    -0.032 NA 
HETATM   29  S   UNL     1      -5.538   5.497  68.167  1.00  0.00    -0.012 SA 
HETATM   30  C   UNL     1      -5.871   5.195  66.513  1.00  0.00    -0.022 A  
HETATM   31  C   UNL     1      -5.655   4.027  65.763  1.00  0.00    -0.017 A  
HETATM   32  C   UNL     1      -6.027   4.023  64.417  1.00  0.00    -0.018 A  
HETATM   33  C   UNL     1      -6.596   5.150  63.837  1.00  0.00    -0.034 A  
HETATM   34  C   UNL     1      -6.816   6.304  64.598  1.00  0.00    -0.047 A  
HETATM   35  C   UNL     1      -6.444   6.346  65.967  1.00  0.00    -0.043 A  
ENDBRANCH  24  27
ENDBRANCH  20  21
ENDBRANCH  19  20
ENDBRANCH  13  14
ENDBRANCH  10  13
TORSDOF 5
ENDMDL
MODEL      221
REMARK 921   NORMALIZED FREE ENERGY PREDICTED BY IDOCK:   -3.12 KCAL/MOL
REMARK 922        TOTAL FREE ENERGY PREDICTED BY IDOCK:   -5.76 KCAL/MOL
REMARK 923 INTER-LIGAND FREE ENERGY PREDICTED BY IDOCK:   -5.22 KCAL/MOL
REMARK 924 INTRA-LIGAND FREE ENERGY PREDICTED BY IDOCK:   -0.54 KCAL/MOL
REMARK 927      BINDING AFFINITY PREDICTED BY RF-SCORE:    0.00 PKD
ROOT
HETATM    1  C   UNL     1      -8.477   4.068  64.257  1.00  0.00    -0.098 C  
HETATM    2  C   UNL     1      -9.595   3.924  63.209  1.00  0.00    -0.148 C  
HETATM    3  C   UNL     1      -9.301   2.662  62.374  1.00  0.00    -0.086 C  
HETATM    4  C   UNL     1      -9.580   1.514  63.366  1.00  0.00    -0.105 C  
HETATM    5  C   UNL     1     -10.016   2.260  64.643  1.00  0.00     0.182 C  
HETATM    6  C   UNL     1     -10.786   3.436  64.036  1.00  0.00    -0.180 C  
HETATM    7  C   UNL     1      -8.763   2.926  65.237  1.00  0.00    -0.122 C  
HETATM    8  C   UNL     1      -9.017   3.612  66.550  1.00  0.00    -0.147 C  
HETATM    9  O   UNL     1      -9.375   3.041  67.569  1.00  0.00    -0.191 OA 
HETATM   10  N   UNL     1      -8.816   4.953  66.394  1.00  0.00    -0.113 N  
HETATM   11  O   UNL     1      -8.561   6.450  64.642  1.00  0.00     0.011 OA 
HETATM   12  C   UNL     1      -8.606   5.313  65.090  1.00  0.00    -0.151 C  
ENDROOT
BRANCH  10  13
HETATM   13  C   UNL     1      -9.007   5.922  67.462  1.00  0.00    -0.107 C  
BRANCH  13  14
HETATM   14  C   UNL     1      -7.713   6.707  67.775  1.00  0.00    -0.107 C  
HETATM   15  C   UNL     1      -6.505   5.749  67.771  1.00  0.00    -0.047 C  
HETATM   16  C   UNL     1      -5.195   6.492  67.999  1.00  0.00    -0.008 C  
HETATM   17  C   UNL     1      -5.240   7.321  69.275  1.00  0.00    -0.015 C  
HETATM   18  C   UNL     1      -6.437   8.270  69.291  1.00  0.00    -0.039 C  
HETATM   19  C   UNL     1      -7.764   7.504  69.116  1.00  0.00    -0.113 C  
BRANCH  19  20
HETATM   20  C   UNL     1      -8.981   8.459  69.158  1.00  0.00    -0.147 C  
BRANCH  20  21
HETATM   21  N   UNL     1      -9.411   9.061  67.882  1.00  0.00    -0.140 NA 
HETATM   22  C   UNL     1     -10.849   9.443  67.965  1.00  0.00    -0.139 C  
HETATM   23  C   UNL     1     -11.143  10.550  68.999  1.00  0.00    -0.249 C  
HETATM   24  N   UNL     1     -10.332  11.755  68.756  1.00  0.00    -0.205 NA 
HETATM   25  C   UNL     1      -8.909  11.527  68.443  1.00  0.00    -0.163 C  
HETATM   26  C   UNL     1      -8.672  10.296  67.527  1.00  0.00    -0.125 C  
BRANCH  24  27
HETATM   27  C   UNL     1     -10.972  12.865  68.269  1.00  0.00    -0.256 A  
HETATM   28  N   UNL     1     -11.468  13.815  69.058  1.00  0.00    -0.284 NA 
HETATM   29  S   UNL     1     -12.031  15.060  68.142  1.00  0.00    -0.051 SA 
HETATM   30  C   UNL     1     -11.607  14.394  66.621  1.00  0.00    -0.384 A  
HETATM   31  C   UNL     1     -11.748  14.948  65.338  1.00  0.00    -0.238 A  
HETATM   32  C   UNL     1     -11.310  14.204  64.241  1.00  0.00    -0.241 A  
HETATM   33  C   UNL     1     -10.749  12.946  64.417  1.00  0.00    -0.407 A  
HETATM   34  C   UNL     1     -10.603  12.409  65.702  1.00  0.00    -0.297 A  
HETATM   35  C   UNL     1     -11.044  13.134  66.840  1.00  0.00    -0.308 A  
ENDBRANCH  24  27
ENDBRANCH  20  21
ENDBRANCH  19  20
ENDBRANCH  13  14
ENDBRANCH  10  13
TORSDOF 5
ENDMDL
MODEL      222
REMARK 921   NORMALIZED FREE ENERGY PREDICTED BY IDOCK:   -3.10 KCAL/MOL
REMARK 922        TOTAL FREE ENERGY PREDICTED BY IDOCK:   -5.72 KCAL/MOL
REMARK 923 INTER-LIGAND FREE ENERGY PREDICTED BY IDOCK:   -6.19 KCAL/MOL
REMARK 924 INTRA-LIGAND FREE ENERGY PREDICTED BY IDOCK:    0.47 KCAL/MOL
REMARK 927      BINDING AFFINITY PREDICTED BY RF-SCORE:    0.00 PKD
ROOT
HETATM    1  C   UNL     1      -8.169  15.186  66.348  1.00  0.00     0.200 C  
HETATM    2  C   UNL     1      -7.523  16.315  67.170  1.00  0.00    -0.238 C  
HETATM    3  C   UNL     1      -7.321  17.524  66.237  1.00  0.00    -0.355 C  
HETATM    4  C   UNL     1      -8.760  18.025  65.998  1.00  0.00    -0.009 C  
HETATM    5  C   UNL     1      -9.609  17.049  66.838  1.00  0.00    -0.263 C  
HETATM    6  C   UNL     1      -8.679  16.822  68.034  1.00  0.00    -0.212 C  
HETATM    7  C   UNL     1      -9.597  15.691  66.118  1.00  0.00    -0.362 C  
HETATM    8  C   UNL     1     -10.471  14.659  66.772  1.00  0.00    -0.277 C  
HETATM    9  O   UNL     1     -11.684  14.753  66.885  1.00  0.00    -0.364 OA 
HETATM   10  N   UNL     1      -9.685  13.645  67.238  1.00  0.00    -0.237 N  
HETATM   11  O   UNL     1      -7.429  13.264  67.609  1.00  0.00    -0.142 OA 
HETATM   12  C   UNL     1      -8.347  13.913  67.130  1.00  0.00    -0.154 C  
ENDROOT
BRANCH  10  13
HETATM   13  C   UNL     1     -10.206  12.492  67.957  1.00  0.00    -0.225 C  
BRANCH  13  14
HETATM   14  C   UNL     1     -11.324  12.882  68.949  1.00  0.00    -0.335 C  
HETATM   15  C   UNL     1     -11.037  14.275  69.543  1.00  0.00    -0.244 C  
HETATM   16  C   UNL     1     -12.153  14.735  70.471  1.00  0.00    -0.378 C  
HETATM   17  C   UNL     1     -12.425  13.713  71.565  1.00  0.00    -0.330 C  
HETATM   18  C   UNL     1     -12.705  12.327  70.988  1.00  0.00    -0.319 C  
HETATM   19  C   UNL     1     -11.545  11.844  70.095  1.00  0.00    -0.252 C  
BRANCH  19  20
HETATM   20  C   UNL     1     -11.814  10.429  69.529  1.00  0.00    -0.147 C  
BRANCH  20  21
HETATM   21  N   UNL     1     -11.325   9.282  70.318  1.00  0.00    -0.235 NA 
HETATM   22  C   UNL     1     -11.262   8.068  69.456  1.00  0.00     0.152 C  
HETATM   23  C   UNL     1     -10.239   8.172  68.305  1.00  0.00    -0.206 C  
HETATM   24  N   UNL     1      -8.889   8.489  68.799  1.00  0.00    -0.139 NA 
HETATM   25  C   UNL     1      -8.806   9.540  69.831  1.00  0.00    -0.211 C  
HETATM   26  C   UNL     1      -9.961   9.475  70.866  1.00  0.00    -0.238 C  
BRANCH  24  27
HETATM   27  C   UNL     1      -7.946   7.496  68.754  1.00  0.00    -0.126 A  
HETATM   28  N   UNL     1      -7.126   7.327  67.719  1.00  0.00    -0.086 NA 
HETATM   29  S   UNL     1      -6.034   6.146  68.063  1.00  0.00    -0.017 SA 
HETATM   30  C   UNL     1      -6.593   5.816  69.649  1.00  0.00    -0.050 A  
HETATM   31  C   UNL     1      -6.083   4.917  70.601  1.00  0.00    -0.018 A  
HETATM   32  C   UNL     1      -6.714   4.837  71.844  1.00  0.00    -0.043 A  
HETATM   33  C   UNL     1      -7.820   5.627  72.128  1.00  0.00    -0.103 A  
HETATM   34  C   UNL     1      -8.312   6.527  71.175  1.00  0.00    -0.122 A  
HETATM   35  C   UNL     1      -7.699   6.630  69.899  1.00  0.00    -0.109 A  
ENDBRANCH  24  27
ENDBRANCH  20  21
ENDBRANCH  19  20
ENDBRANCH  13  14
ENDBRANCH  10  13
TORSDOF 5
ENDMDL
MODEL      223
REMARK 921   NORMALIZED FREE ENERGY PREDICTED BY IDOCK:   -3.08 KCAL/MOL
REMARK 922        TOTAL FREE ENERGY PREDICTED BY IDOCK:   -5.70 KCAL/MOL
REMARK 923 INTER-LIGAND FREE ENERGY PREDICTED BY IDOCK:   -5.32 KCAL/MOL
REMARK 924 INTRA-LIGAND FREE ENERGY PREDICTED BY IDOCK:   -0.38 KCAL/MOL
REMARK 927      BINDING AFFINITY PREDICTED BY RF-SCORE:    0.00 PKD
ROOT
HETATM    1  C   UNL     1      -9.630   3.491  67.618  1.00  0.00    -0.180 C  
HETATM    2  C   UNL     1      -8.454   2.522  67.404  1.00  0.00    -0.108 C  
HETATM    3  C   UNL     1      -8.793   1.624  66.199  1.00  0.00    -0.117 C  
HETATM    4  C   UNL     1      -8.691   2.593  65.003  1.00  0.00    -0.110 C  
HETATM    5  C   UNL     1      -8.289   3.924  65.670  1.00  0.00    -0.109 C  
HETATM    6  C   UNL     1      -7.376   3.415  66.789  1.00  0.00    -0.075 C  
HETATM    7  C   UNL     1      -9.519   4.448  66.428  1.00  0.00    -0.182 C  
HETATM    8  C   UNL     1      -9.306   5.799  67.051  1.00  0.00    -0.119 C  
HETATM    9  O   UNL     1      -9.077   6.821  66.422  1.00  0.00    -0.148 OA 
HETATM   10  N   UNL     1      -9.377   5.676  68.409  1.00  0.00    -0.117 N  
HETATM   11  O   UNL     1      -9.368   3.964  69.972  1.00  0.00    -0.140 OA 
HETATM   12  C   UNL     1      -9.456   4.373  68.823  1.00  0.00    -0.162 C  
ENDROOT
BRANCH  10  13
HETATM   13  C   UNL     1      -9.183   6.789  69.326  1.00  0.00    -0.141 C  
BRANCH  13  14
HETATM   14  C   UNL     1      -7.693   7.173  69.468  1.00  0.00    -0.113 C  
HETATM   15  C   UNL     1      -7.125   6.593  70.779  1.00  0.00    -0.069 C  
HETATM   16  C   UNL     1      -5.637   6.882  70.926  1.00  0.00    -0.027 C  
HETATM   17  C   UNL     1      -5.344   8.371  70.807  1.00  0.00    -0.028 C  
HETATM   18  C   UNL     1      -5.908   8.957  69.514  1.00  0.00    -0.033 C  
HETATM   19  C   UNL     1      -7.426   8.710  69.399  1.00  0.00    -0.080 C  
BRANCH  19  20
HETATM   20  C   UNL     1      -8.005   9.325  68.103  1.00  0.00    -0.099 C  
BRANCH  20  21
HETATM   21  N   UNL     1      -9.313  10.001  68.201  1.00  0.00    -0.131 NA 
HETATM   22  C   UNL     1      -9.158  11.295  68.922  1.00  0.00    -0.053 C  
HETATM   23  C   UNL     1      -8.280  12.323  68.178  1.00  0.00    -0.168 C  
HETATM   24  N   UNL     1      -8.775  12.581  66.815  1.00  0.00    -0.183 NA 
HETATM   25  C   UNL     1      -9.178  11.394  66.037  1.00  0.00    -0.214 C  
HETATM   26  C   UNL     1      -9.916  10.325  66.887  1.00  0.00    -0.208 C  
BRANCH  24  27
HETATM   27  C   UNL     1      -9.363  13.794  66.570  1.00  0.00    -0.233 A  
HETATM   28  N   UNL     1      -8.849  14.944  67.001  1.00  0.00    -0.219 NA 
HETATM   29  S   UNL     1      -9.726  16.201  66.405  1.00  0.00    -0.309 SA 
HETATM   30  C   UNL     1     -10.838  15.258  65.505  1.00  0.00    -0.372 A  
HETATM   31  C   UNL     1     -11.886  15.678  64.668  1.00  0.00    -0.127 A  
HETATM   32  C   UNL     1     -12.655  14.705  64.026  1.00  0.00     0.105 A  
HETATM   33  C   UNL     1     -12.387  13.355  64.213  1.00  0.00    -0.396 A  
HETATM   34  C   UNL     1     -11.332  12.949  65.040  1.00  0.00    -0.338 A  
HETATM   35  C   UNL     1     -10.535  13.911  65.714  1.00  0.00    -0.313 A  
ENDBRANCH  24  27
ENDBRANCH  20  21
ENDBRANCH  19  20
ENDBRANCH  13  14
ENDBRANCH  10  13
TORSDOF 5
ENDMDL
MODEL      224
REMARK 921   NORMALIZED FREE ENERGY PREDICTED BY IDOCK:   -3.00 KCAL/MOL
REMARK 922        TOTAL FREE ENERGY PREDICTED BY IDOCK:   -5.60 KCAL/MOL
REMARK 923 INTER-LIGAND FREE ENERGY PREDICTED BY IDOCK:   -6.07 KCAL/MOL
REMARK 924 INTRA-LIGAND FREE ENERGY PREDICTED BY IDOCK:    0.47 KCAL/MOL
REMARK 927      BINDING AFFINITY PREDICTED BY RF-SCORE:    0.00 PKD
ROOT
HETATM    1  C   UNL     1      -9.498   9.218  65.119  1.00  0.00    -0.184 C  
HETATM    2  C   UNL     1      -8.212   8.753  64.415  1.00  0.00    -0.169 C  
HETATM    3  C   UNL     1      -8.564   8.425  62.951  1.00  0.00     0.022 C  
HETATM    4  C   UNL     1      -8.834   9.814  62.338  1.00  0.00    -0.263 C  
HETATM    5  C   UNL     1      -8.586  10.769  63.523  1.00  0.00    -0.063 C  
HETATM    6  C   UNL     1      -7.429  10.054  64.226  1.00  0.00    -0.137 C  
HETATM    7  C   UNL     1      -9.757  10.597  64.505  1.00  0.00    -0.367 C  
HETATM    8  C   UNL     1      -9.703  11.544  65.671  1.00  0.00    -0.232 C  
HETATM    9  O   UNL     1      -9.770  12.760  65.576  1.00  0.00    -0.196 OA 
HETATM   10  N   UNL     1      -9.533  10.823  66.818  1.00  0.00    -0.171 N  
HETATM   11  O   UNL     1      -8.960   8.655  67.405  1.00  0.00    -0.132 OA 
HETATM   12  C   UNL     1      -9.303   9.494  66.584  1.00  0.00    -0.161 C  
ENDROOT
BRANCH  10  13
HETATM   13  C   UNL     1      -9.407  11.429  68.134  1.00  0.00    -0.181 C  
BRANCH  13  14
HETATM   14  C   UNL     1      -7.933  11.696  68.513  1.00  0.00    -0.144 C  
HETATM   15  C   UNL     1      -7.419  10.577  69.441  1.00  0.00    -0.141 C  
HETATM   16  C   UNL     1      -5.946  10.756  69.780  1.00  0.00    -0.071 C  
HETATM   17  C   UNL     1      -5.674  12.133  70.371  1.00  0.00    -0.169 C  
HETATM   18  C   UNL     1      -6.184  13.249  69.463  1.00  0.00    -0.115 C  
HETATM   19  C   UNL     1      -7.690  13.092  69.169  1.00  0.00     0.303 C  
BRANCH  19  20
HETATM   20  C   UNL     1      -8.216  14.236  68.270  1.00  0.00    -0.148 C  
BRANCH  20  21
HETATM   21  N   UNL     1      -7.245  14.888  67.370  1.00  0.00    -0.200 NA 
HETATM   22  C   UNL     1      -7.918  15.979  66.609  1.00  0.00    -0.256 C  
HETATM   23  C   UNL     1      -8.420  17.139  67.494  1.00  0.00    -0.198 C  
HETATM   24  N   UNL     1      -7.337  17.712  68.312  1.00  0.00    -0.225 NA 
HETATM   25  C   UNL     1      -6.439  16.743  68.969  1.00  0.00    -0.195 C  
HETATM   26  C   UNL     1      -6.105  15.517  68.079  1.00  0.00    -0.138 C  
BRANCH  24  27
HETATM   27  C   UNL     1      -6.875  18.956  67.974  1.00  0.00    -0.233 A  
HETATM   28  N   UNL     1      -6.741  19.941  68.860  1.00  0.00    -0.319 NA 
HETATM   29  S   UNL     1      -6.026  21.238  68.144  1.00  0.00    -0.158 SA 
HETATM   30  C   UNL     1      -5.829  20.527  66.597  1.00  0.00    -0.180 A  
HETATM   31  C   UNL     1      -5.221  21.057  65.447  1.00  0.00    -0.241 A  
HETATM   32  C   UNL     1      -5.173  20.268  64.296  1.00  0.00    -0.212 A  
HETATM   33  C   UNL     1      -5.716  18.989  64.292  1.00  0.00    -0.301 A  
HETATM   34  C   UNL     1      -6.310  18.468  65.448  1.00  0.00    -0.306 A  
HETATM   35  C   UNL     1      -6.382  19.245  66.634  1.00  0.00    -0.193 A  
ENDBRANCH  24  27
ENDBRANCH  20  21
ENDBRANCH  19  20
ENDBRANCH  13  14
ENDBRANCH  10  13
TORSDOF 5
ENDMDL
MODEL      225
REMARK 921   NORMALIZED FREE ENERGY PREDICTED BY IDOCK:   -2.86 KCAL/MOL
REMARK 922        TOTAL FREE ENERGY PREDICTED BY IDOCK:   -5.42 KCAL/MOL
REMARK 923 INTER-LIGAND FREE ENERGY PREDICTED BY IDOCK:   -5.54 KCAL/MOL
REMARK 924 INTRA-LIGAND FREE ENERGY PREDICTED BY IDOCK:    0.12 KCAL/MOL
REMARK 927      BINDING AFFINITY PREDICTED BY RF-SCORE:    0.00 PKD
ROOT
HETATM    1  C   UNL     1      -8.905   6.407  69.193  1.00  0.00    -0.126 C  
HETATM    2  C   UNL     1      -8.140   5.705  70.329  1.00  0.00    -0.104 C  
HETATM    3  C   UNL     1      -9.089   4.677  70.975  1.00  0.00    -0.181 C  
HETATM    4  C   UNL     1      -9.213   3.588  69.890  1.00  0.00    -0.217 C  
HETATM    5  C   UNL     1      -8.305   4.118  68.762  1.00  0.00    -0.093 C  
HETATM    6  C   UNL     1      -7.188   4.771  69.581  1.00  0.00    -0.055 C  
HETATM    7  C   UNL     1      -9.022   5.319  68.122  1.00  0.00    -0.115 C  
HETATM    8  C   UNL     1      -8.297   5.883  66.932  1.00  0.00    -0.108 C  
HETATM    9  O   UNL     1      -8.087   5.269  65.897  1.00  0.00    -0.106 OA 
HETATM   10  N   UNL     1      -7.894   7.154  67.223  1.00  0.00    -0.109 N  
HETATM   11  O   UNL     1      -7.704   8.500  69.101  1.00  0.00    -0.088 OA 
HETATM   12  C   UNL     1      -8.109   7.497  68.531  1.00  0.00    -0.125 C  
ENDROOT
BRANCH  10  13
HETATM   13  C   UNL     1      -7.132   7.984  66.302  1.00  0.00    -0.066 C  
BRANCH  13  14
HETATM   14  C   UNL     1      -7.894   8.238  64.982  1.00  0.00    -0.126 C  
HETATM   15  C   UNL     1      -6.913   8.191  63.793  1.00  0.00    -0.076 C  
HETATM   16  C   UNL     1      -7.631   8.361  62.461  1.00  0.00    -0.114 C  
HETATM   17  C   UNL     1      -8.469   9.632  62.437  1.00  0.00    -0.182 C  
HETATM   18  C   UNL     1      -9.440   9.690  63.614  1.00  0.00     0.117 C  
HETATM   19  C   UNL     1      -8.700   9.575  64.962  1.00  0.00    -0.205 C  
BRANCH  19  20
HETATM   20  C   UNL     1      -9.678   9.661  66.157  1.00  0.00    -0.252 C  
BRANCH  20  21
HETATM   21  N   UNL     1      -9.316  10.568  67.263  1.00  0.00    -0.146 NA 
HETATM   22  C   UNL     1      -8.403  11.634  66.763  1.00  0.00    -0.171 C  
HETATM   23  C   UNL     1      -9.053  12.576  65.728  1.00  0.00     0.230 C  
HETATM   24  N   UNL     1     -10.285  13.193  66.247  1.00  0.00    -0.287 NA 
HETATM   25  C   UNL     1     -11.207  12.295  66.968  1.00  0.00    -0.310 C  
HETATM   26  C   UNL     1     -10.477  11.263  67.869  1.00  0.00    -0.188 C  
BRANCH  24  27
HETATM   27  C   UNL     1     -10.247  14.528  66.556  1.00  0.00    -0.279 A  
HETATM   28  N   UNL     1     -10.022  15.472  65.644  1.00  0.00    -0.351 NA 
HETATM   29  S   UNL     1     -10.192  16.957  66.331  1.00  0.00    -0.313 SA 
HETATM   30  C   UNL     1     -10.609  16.404  67.898  1.00  0.00    -0.320 A  
HETATM   31  C   UNL     1     -10.956  17.147  69.040  1.00  0.00    -0.006 A  
HETATM   32  C   UNL     1     -11.271  16.457  70.212  1.00  0.00    -0.259 A  
HETATM   33  C   UNL     1     -11.240  15.068  70.245  1.00  0.00    -0.286 A  
HETATM   34  C   UNL     1     -10.905  14.339  69.099  1.00  0.00    -0.264 A  
HETATM   35  C   UNL     1     -10.572  15.008  67.891  1.00  0.00    -0.259 A  
ENDBRANCH  24  27
ENDBRANCH  20  21
ENDBRANCH  19  20
ENDBRANCH  13  14
ENDBRANCH  10  13
TORSDOF 5
ENDMDL
MODEL      226
REMARK 921   NORMALIZED FREE ENERGY PREDICTED BY IDOCK:   -2.85 KCAL/MOL
REMARK 922        TOTAL FREE ENERGY PREDICTED BY IDOCK:   -5.41 KCAL/MOL
REMARK 923 INTER-LIGAND FREE ENERGY PREDICTED BY IDOCK:   -5.87 KCAL/MOL
REMARK 924 INTRA-LIGAND FREE ENERGY PREDICTED BY IDOCK:    0.46 KCAL/MOL
REMARK 927      BINDING AFFINITY PREDICTED BY RF-SCORE:    0.00 PKD
ROOT
HETATM    1  C   UNL     1     -10.309   3.991  67.947  1.00  0.00     0.656 C  
HETATM    2  C   UNL     1      -9.262   3.230  68.779  1.00  0.00    -0.228 C  
HETATM    3  C   UNL     1      -9.356   1.737  68.409  1.00  0.00    -0.245 C  
HETATM    4  C   UNL     1      -8.785   1.697  66.977  1.00  0.00    -0.122 C  
HETATM    5  C   UNL     1      -8.417   3.170  66.709  1.00  0.00    -0.104 C  
HETATM    6  C   UNL     1      -7.942   3.601  68.100  1.00  0.00    -0.071 C  
HETATM    7  C   UNL     1      -9.732   3.947  66.529  1.00  0.00    -0.186 C  
HETATM    8  C   UNL     1      -9.528   5.389  66.160  1.00  0.00    -0.157 C  
HETATM    9  O   UNL     1      -8.992   5.769  65.131  1.00  0.00    -0.080 OA 
HETATM   10  N   UNL     1     -10.003   6.175  67.171  1.00  0.00    -0.141 N  
HETATM   11  O   UNL     1     -10.675   5.906  69.373  1.00  0.00    -0.272 OA 
HETATM   12  C   UNL     1     -10.373   5.457  68.277  1.00  0.00    -0.146 C  
ENDROOT
BRANCH  10  13
HETATM   13  C   UNL     1      -9.934   7.628  67.156  1.00  0.00    -0.229 C  
BRANCH  13  14
HETATM   14  C   UNL     1      -8.479   8.143  67.229  1.00  0.00    -0.125 C  
HETATM   15  C   UNL     1      -7.735   7.449  68.387  1.00  0.00    -0.120 C  
HETATM   16  C   UNL     1      -6.272   7.869  68.451  1.00  0.00    -0.048 C  
HETATM   17  C   UNL     1      -6.130   9.382  68.530  1.00  0.00    -0.044 C  
HETATM   18  C   UNL     1      -6.869  10.080  67.391  1.00  0.00    -0.082 C  
HETATM   19  C   UNL     1      -8.362   9.694  67.367  1.00  0.00    -0.114 C  
BRANCH  19  20
HETATM   20  C   UNL     1      -9.119  10.420  66.230  1.00  0.00    -0.158 C  
BRANCH  20  21
HETATM   21  N   UNL     1     -10.498  10.863  66.512  1.00  0.00    -0.251 NA 
HETATM   22  C   UNL     1     -10.691  11.004  67.983  1.00  0.00    -0.217 C  
HETATM   23  C   UNL     1      -9.824  12.109  68.622  1.00  0.00    -0.101 C  
HETATM   24  N   UNL     1     -10.035  13.415  67.975  1.00  0.00    -0.232 NA 
HETATM   25  C   UNL     1     -10.084  13.407  66.501  1.00  0.00    -0.280 C  
HETATM   26  C   UNL     1     -10.833  12.180  65.919  1.00  0.00    -0.278 C  
BRANCH  24  27
HETATM   27  C   UNL     1     -10.719  14.370  68.680  1.00  0.00    -0.253 A  
HETATM   28  N   UNL     1     -10.666  15.665  68.375  1.00  0.00    -0.261 NA 
HETATM   29  S   UNL     1     -11.716  16.502  69.326  1.00  0.00     0.365 SA 
HETATM   30  C   UNL     1     -12.324  15.150  70.187  1.00  0.00    -0.341 A  
HETATM   31  C   UNL     1     -13.328  15.100  71.168  1.00  0.00    -0.535 A  
HETATM   32  C   UNL     1     -13.658  13.860  71.719  1.00  0.00    -0.466 A  
HETATM   33  C   UNL     1     -13.006  12.706  71.304  1.00  0.00    -0.306 A  
HETATM   34  C   UNL     1     -12.015  12.767  70.318  1.00  0.00    -0.358 A  
HETATM   35  C   UNL     1     -11.649  14.011  69.741  1.00  0.00    -0.344 A  
ENDBRANCH  24  27
ENDBRANCH  20  21
ENDBRANCH  19  20
ENDBRANCH  13  14
ENDBRANCH  10  13
TORSDOF 5
ENDMDL
MODEL      227
REMARK 921   NORMALIZED FREE ENERGY PREDICTED BY IDOCK:   -2.83 KCAL/MOL
REMARK 922        TOTAL FREE ENERGY PREDICTED BY IDOCK:   -5.38 KCAL/MOL
REMARK 923 INTER-LIGAND FREE ENERGY PREDICTED BY IDOCK:   -4.89 KCAL/MOL
REMARK 924 INTRA-LIGAND FREE ENERGY PREDICTED BY IDOCK:   -0.49 KCAL/MOL
REMARK 927      BINDING AFFINITY PREDICTED BY RF-SCORE:    0.00 PKD
ROOT
HETATM    1  C   UNL     1      -9.866   9.381  65.143  1.00  0.00     0.021 C  
HETATM    2  C   UNL     1      -8.493   9.147  64.489  1.00  0.00    -0.195 C  
HETATM    3  C   UNL     1      -8.710   9.005  62.970  1.00  0.00    -0.126 C  
HETATM    4  C   UNL     1      -9.082  10.438  62.536  1.00  0.00    -0.312 C  
HETATM    5  C   UNL     1      -9.016  11.228  63.858  1.00  0.00     0.081 C  
HETATM    6  C   UNL     1      -7.841  10.530  64.547  1.00  0.00     0.007 C  
HETATM    7  C   UNL     1     -10.226  10.805  64.707  1.00  0.00    -0.403 C  
HETATM    8  C   UNL     1     -10.351  11.572  65.994  1.00  0.00    -0.246 C  
HETATM    9  O   UNL     1     -10.539  12.777  66.063  1.00  0.00    -0.262 OA 
HETATM   10  N   UNL     1     -10.185  10.710  67.039  1.00  0.00    -0.211 N  
HETATM   11  O   UNL     1      -9.427   8.544  67.365  1.00  0.00    -0.143 OA 
HETATM   12  C   UNL     1      -9.801   9.457  66.643  1.00  0.00    -0.245 C  
ENDROOT
BRANCH  10  13
HETATM   13  C   UNL     1     -10.212  11.127  68.433  1.00  0.00    -0.188 C  
BRANCH  13  14
HETATM   14  C   UNL     1      -8.816  11.550  68.942  1.00  0.00     0.030 C  
HETATM   15  C   UNL     1      -8.082  12.355  67.851  1.00  0.00    -0.161 C  
HETATM   16  C   UNL     1      -6.729  12.859  68.336  1.00  0.00    -0.092 C  
HETATM   17  C   UNL     1      -5.865  11.721  68.859  1.00  0.00    -0.052 C  
HETATM   18  C   UNL     1      -6.585  10.913  69.937  1.00  0.00    -0.148 C  
HETATM   19  C   UNL     1      -7.928  10.358  69.420  1.00  0.00    -0.161 C  
BRANCH  19  20
HETATM   20  C   UNL     1      -8.648   9.517  70.501  1.00  0.00    -0.184 C  
BRANCH  20  21
HETATM   21  N   UNL     1      -7.855   8.480  71.189  1.00  0.00    -0.104 NA 
HETATM   22  C   UNL     1      -8.353   8.307  72.583  1.00  0.00    -0.173 C  
HETATM   23  C   UNL     1      -9.797   7.768  72.668  1.00  0.00    -0.225 C  
HETATM   24  N   UNL     1      -9.952   6.500  71.935  1.00  0.00    -0.178 NA 
HETATM   25  C   UNL     1      -9.319   6.440  70.604  1.00  0.00    -0.162 C  
HETATM   26  C   UNL     1      -7.938   7.145  70.549  1.00  0.00    -0.105 C  
BRANCH  24  27
HETATM   27  C   UNL     1     -10.113   5.356  72.670  1.00  0.00    -0.176 A  
HETATM   28  N   UNL     1     -11.292   4.756  72.820  1.00  0.00    -0.144 NA 
HETATM   29  S   UNL     1     -11.095   3.339  73.633  1.00  0.00    -0.175 SA 
HETATM   30  C   UNL     1      -9.393   3.445  73.803  1.00  0.00    -0.095 A  
HETATM   31  C   UNL     1      -8.499   2.525  74.376  1.00  0.00    -0.067 A  
HETATM   32  C   UNL     1      -7.138   2.837  74.385  1.00  0.00    -0.041 A  
HETATM   33  C   UNL     1      -6.682   4.030  73.839  1.00  0.00    -0.053 A  
HETATM   34  C   UNL     1      -7.582   4.934  73.260  1.00  0.00    -0.092 A  
HETATM   35  C   UNL     1      -8.973   4.652  73.240  1.00  0.00    -0.112 A  
ENDBRANCH  24  27
ENDBRANCH  20  21
ENDBRANCH  19  20
ENDBRANCH  13  14
ENDBRANCH  10  13
TORSDOF 5
ENDMDL
MODEL      228
REMARK 921   NORMALIZED FREE ENERGY PREDICTED BY IDOCK:   -2.82 KCAL/MOL
REMARK 922        TOTAL FREE ENERGY PREDICTED BY IDOCK:   -5.36 KCAL/MOL
REMARK 923 INTER-LIGAND FREE ENERGY PREDICTED BY IDOCK:   -4.96 KCAL/MOL
REMARK 924 INTRA-LIGAND FREE ENERGY PREDICTED BY IDOCK:   -0.41 KCAL/MOL
REMARK 927      BINDING AFFINITY PREDICTED BY RF-SCORE:    0.00 PKD
ROOT
HETATM    1  C   UNL     1      -9.332  10.325  69.022  1.00  0.00    -0.195 C  
HETATM    2  C   UNL     1      -9.429  10.058  67.510  1.00  0.00    -0.169 C  
HETATM    3  C   UNL     1      -9.587  11.415  66.798  1.00  0.00    -0.207 C  
HETATM    4  C   UNL     1      -8.196  12.061  66.967  1.00  0.00    -0.169 C  
HETATM    5  C   UNL     1      -7.407  10.986  67.741  1.00  0.00    -0.093 C  
HETATM    6  C   UNL     1      -7.989   9.710  67.126  1.00  0.00    -0.106 C  
HETATM    7  C   UNL     1      -7.950  10.964  69.180  1.00  0.00    -0.114 C  
HETATM    8  C   UNL     1      -7.202  10.026  70.086  1.00  0.00    -0.161 C  
HETATM    9  O   UNL     1      -6.022  10.142  70.377  1.00  0.00    -0.070 OA 
HETATM   10  N   UNL     1      -8.047   9.030  70.483  1.00  0.00    -0.135 N  
HETATM   11  O   UNL     1     -10.130   8.212  69.878  1.00  0.00    -0.188 OA 
HETATM   12  C   UNL     1      -9.255   9.065  69.840  1.00  0.00    -0.173 C  
ENDROOT
BRANCH  10  13
HETATM   13  C   UNL     1      -7.639   7.930  71.343  1.00  0.00    -0.083 C  
BRANCH  13  14
HETATM   14  C   UNL     1      -8.850   7.163  71.921  1.00  0.00    -0.131 C  
HETATM   15  C   UNL     1      -9.297   7.811  73.247  1.00  0.00    -0.331 C  
HETATM   16  C   UNL     1     -10.536   7.135  73.816  1.00  0.00    -0.303 C  
HETATM   17  C   UNL     1     -10.330   5.635  73.976  1.00  0.00    -0.298 C  
HETATM   18  C   UNL     1      -9.881   4.984  72.669  1.00  0.00    -0.195 C  
HETATM   19  C   UNL     1      -8.593   5.637  72.128  1.00  0.00    -0.126 C  
BRANCH  19  20
HETATM   20  C   UNL     1      -8.121   4.962  70.818  1.00  0.00    -0.087 C  
BRANCH  20  21
HETATM   21  N   UNL     1      -9.130   4.763  69.760  1.00  0.00    -0.102 NA 
HETATM   22  C   UNL     1      -8.658   5.383  68.490  1.00  0.00    -0.098 C  
HETATM   23  C   UNL     1      -7.392   4.722  67.906  1.00  0.00    -0.070 C  
HETATM   24  N   UNL     1      -7.574   3.275  67.702  1.00  0.00    -0.062 NA 
HETATM   25  C   UNL     1      -8.234   2.544  68.800  1.00  0.00    -0.055 C  
HETATM   26  C   UNL     1      -9.397   3.337  69.452  1.00  0.00    -0.161 C  
BRANCH  24  27
HETATM   27  C   UNL     1      -7.684   2.823  66.414  1.00  0.00    -0.076 A  
HETATM   28  N   UNL     1      -6.868   1.905  65.900  1.00  0.00    -0.037 NA 
HETATM   29  S   UNL     1      -7.376   1.494  64.390  1.00  0.00    -0.054 SA 
HETATM   30  C   UNL     1      -8.751   2.516  64.359  1.00  0.00    -0.099 A  
HETATM   31  C   UNL     1      -9.729   2.660  63.359  1.00  0.00    -0.104 A  
HETATM   32  C   UNL     1     -10.772   3.562  63.576  1.00  0.00    -0.254 A  
HETATM   33  C   UNL     1     -10.840   4.298  64.752  1.00  0.00    -0.108 A  
HETATM   34  C   UNL     1      -9.866   4.137  65.745  1.00  0.00    -0.207 A  
HETATM   35  C   UNL     1      -8.787   3.235  65.556  1.00  0.00    -0.136 A  
ENDBRANCH  24  27
ENDBRANCH  20  21
ENDBRANCH  19  20
ENDBRANCH  13  14
ENDBRANCH  10  13
TORSDOF 5
ENDMDL
MODEL      229
REMARK 921   NORMALIZED FREE ENERGY PREDICTED BY IDOCK:   -2.76 KCAL/MOL
REMARK 922        TOTAL FREE ENERGY PREDICTED BY IDOCK:   -5.29 KCAL/MOL
REMARK 923 INTER-LIGAND FREE ENERGY PREDICTED BY IDOCK:   -6.01 KCAL/MOL
REMARK 924 INTRA-LIGAND FREE ENERGY PREDICTED BY IDOCK:    0.73 KCAL/MOL
REMARK 927      BINDING AFFINITY PREDICTED BY RF-SCORE:    0.00 PKD
ROOT
HETATM    1  C   UNL     1      -8.861  17.237  68.362  1.00  0.00    -0.269 C  
HETATM    2  C   UNL     1      -8.945  18.594  67.640  1.00  0.00    -0.291 C  
HETATM    3  C   UNL     1      -9.163  19.685  68.706  1.00  0.00    -0.339 C  
HETATM    4  C   UNL     1      -7.803  19.741  69.431  1.00  0.00     0.039 C  
HETATM    5  C   UNL     1      -6.967  18.685  68.680  1.00  0.00    -0.297 C  
HETATM    6  C   UNL     1      -7.491  18.871  67.253  1.00  0.00    -0.237 C  
HETATM    7  C   UNL     1      -7.509  17.302  69.077  1.00  0.00    -0.196 C  
HETATM    8  C   UNL     1      -6.721  16.162  68.496  1.00  0.00    -0.126 C  
HETATM    9  O   UNL     1      -5.547  15.936  68.746  1.00  0.00    -0.102 OA 
HETATM   10  N   UNL     1      -7.520  15.467  67.635  1.00  0.00    -0.156 N  
HETATM   11  O   UNL     1      -9.564  15.764  66.582  1.00  0.00    -0.224 OA 
HETATM   12  C   UNL     1      -8.728  16.074  67.419  1.00  0.00    -0.180 C  
ENDROOT
BRANCH  10  13
HETATM   13  C   UNL     1      -7.064  14.316  66.870  1.00  0.00     0.911 C  
BRANCH  13  14
HETATM   14  C   UNL     1      -6.878  13.064  67.756  1.00  0.00    -0.144 C  
HETATM   15  C   UNL     1      -5.431  13.008  68.287  1.00  0.00    -0.078 C  
HETATM   16  C   UNL     1      -5.221  11.830  69.229  1.00  0.00    -0.051 C  
HETATM   17  C   UNL     1      -5.622  10.515  68.575  1.00  0.00    -0.040 C  
HETATM   18  C   UNL     1      -7.052  10.562  68.041  1.00  0.00    -0.086 C  
HETATM   19  C   UNL     1      -7.243  11.724  67.044  1.00  0.00    -0.134 C  
BRANCH  19  20
HETATM   20  C   UNL     1      -8.684  11.758  66.481  1.00  0.00    -0.173 C  
BRANCH  20  21
HETATM   21  N   UNL     1      -9.676  10.865  67.109  1.00  0.00    -0.172 NA 
HETATM   22  C   UNL     1      -9.453  10.821  68.582  1.00  0.00    -0.188 C  
HETATM   23  C   UNL     1      -9.690  12.172  69.289  1.00  0.00     0.619 C  
HETATM   24  N   UNL     1     -11.036  12.705  69.016  1.00  0.00    -0.223 NA 
HETATM   25  C   UNL     1     -11.493  12.622  67.616  1.00  0.00    -0.334 C  
HETATM   26  C   UNL     1     -11.079  11.302  66.913  1.00  0.00    -0.275 C  
BRANCH  24  27
HETATM   27  C   UNL     1     -11.948  12.685  70.038  1.00  0.00    -0.306 A  
HETATM   28  N   UNL     1     -12.581  11.577  70.417  1.00  0.00    -0.202 NA 
HETATM   29  S   UNL     1     -13.484  11.885  71.758  1.00  0.00     0.094 SA 
HETATM   30  C   UNL     1     -13.043  13.533  71.918  1.00  0.00    -0.384 A  
HETATM   31  C   UNL     1     -13.409  14.458  72.911  1.00  0.00    -0.575 A  
HETATM   32  C   UNL     1     -12.903  15.757  72.828  1.00  0.00    -0.569 A  
HETATM   33  C   UNL     1     -12.059  16.123  71.788  1.00  0.00    -0.517 A  
HETATM   34  C   UNL     1     -11.692  15.189  70.811  1.00  0.00    -0.370 A  
HETATM   35  C   UNL     1     -12.193  13.862  70.860  1.00  0.00    -0.436 A  
ENDBRANCH  24  27
ENDBRANCH  20  21
ENDBRANCH  19  20
ENDBRANCH  13  14
ENDBRANCH  10  13
TORSDOF 5
ENDMDL
MODEL      230
REMARK 921   NORMALIZED FREE ENERGY PREDICTED BY IDOCK:   -2.75 KCAL/MOL
REMARK 922        TOTAL FREE ENERGY PREDICTED BY IDOCK:   -5.27 KCAL/MOL
REMARK 923 INTER-LIGAND FREE ENERGY PREDICTED BY IDOCK:   -4.91 KCAL/MOL
REMARK 924 INTRA-LIGAND FREE ENERGY PREDICTED BY IDOCK:   -0.37 KCAL/MOL
REMARK 927      BINDING AFFINITY PREDICTED BY RF-SCORE:    0.00 PKD
ROOT
HETATM    1  C   UNL     1      -6.257  14.608  69.304  1.00  0.00    -0.111 C  
HETATM    2  C   UNL     1      -7.712  15.050  69.537  1.00  0.00    -0.168 C  
HETATM    3  C   UNL     1      -7.909  16.415  68.848  1.00  0.00    -0.234 C  
HETATM    4  C   UNL     1      -7.872  16.056  67.348  1.00  0.00    -0.188 C  
HETATM    5  C   UNL     1      -7.675  14.527  67.363  1.00  0.00    -0.215 C  
HETATM    6  C   UNL     1      -8.506  14.146  68.592  1.00  0.00    -0.120 C  
HETATM    7  C   UNL     1      -6.230  14.253  67.814  1.00  0.00    -0.152 C  
HETATM    8  C   UNL     1      -5.860  12.797  67.780  1.00  0.00    -0.134 C  
HETATM    9  O   UNL     1      -5.827  12.117  66.767  1.00  0.00    -0.265 OA 
HETATM   10  N   UNL     1      -5.609  12.376  69.054  1.00  0.00    -0.063 N  
HETATM   11  O   UNL     1      -5.942  13.159  71.211  1.00  0.00    -0.283 OA 
HETATM   12  C   UNL     1      -5.913  13.319  69.999  1.00  0.00    -0.134 C  
ENDROOT
BRANCH  10  13
HETATM   13  C   UNL     1      -5.253  11.006  69.390  1.00  0.00    -0.041 C  
BRANCH  13  14
HETATM   14  C   UNL     1      -6.233  10.382  70.408  1.00  0.00    -0.126 C  
HETATM   15  C   UNL     1      -5.447   9.640  71.507  1.00  0.00    -0.074 C  
HETATM   16  C   UNL     1      -6.369   9.072  72.577  1.00  0.00     0.083 C  
HETATM   17  C   UNL     1      -7.445   8.182  71.970  1.00  0.00    -0.115 C  
HETATM   18  C   UNL     1      -8.227   8.906  70.876  1.00  0.00    -0.207 C  
HETATM   19  C   UNL     1      -7.291   9.428  69.767  1.00  0.00    -0.083 C  
BRANCH  19  20
HETATM   20  C   UNL     1      -8.083  10.139  68.644  1.00  0.00    -0.109 C  
BRANCH  20  21
HETATM   21  N   UNL     1      -7.825   9.706  67.257  1.00  0.00    -0.095 NA 
HETATM   22  C   UNL     1      -6.948   8.501  67.261  1.00  0.00    -0.075 C  
HETATM   23  C   UNL     1      -7.597   7.260  67.908  1.00  0.00    -0.111 C  
HETATM   24  N   UNL     1      -8.884   6.923  67.277  1.00  0.00    -0.118 NA 
HETATM   25  C   UNL     1      -9.790   8.056  67.008  1.00  0.00    -0.227 C  
HETATM   26  C   UNL     1      -9.050   9.327  66.514  1.00  0.00    -0.154 C  
BRANCH  24  27
HETATM   27  C   UNL     1      -8.933   5.803  66.489  1.00  0.00    -0.128 A  
HETATM   28  N   UNL     1      -8.733   5.839  65.173  1.00  0.00    -0.113 NA 
HETATM   29  S   UNL     1      -8.718   4.307  64.573  1.00  0.00    -0.144 SA 
HETATM   30  C   UNL     1      -8.953   3.506  66.070  1.00  0.00    -0.140 A  
HETATM   31  C   UNL     1      -8.998   2.128  66.342  1.00  0.00    -0.109 A  
HETATM   32  C   UNL     1      -9.191   1.718  67.663  1.00  0.00    -0.173 A  
HETATM   33  C   UNL     1      -9.336   2.652  68.680  1.00  0.00    -0.244 A  
HETATM   34  C   UNL     1      -9.278   4.022  68.398  1.00  0.00    -0.204 A  
HETATM   35  C   UNL     1      -9.090   4.475  67.066  1.00  0.00    -0.133 A  
ENDBRANCH  24  27
ENDBRANCH  20  21
ENDBRANCH  19  20
ENDBRANCH  13  14
ENDBRANCH  10  13
TORSDOF 5
ENDMDL
MODEL      231
REMARK 921   NORMALIZED FREE ENERGY PREDICTED BY IDOCK:   -2.71 KCAL/MOL
REMARK 922        TOTAL FREE ENERGY PREDICTED BY IDOCK:   -5.23 KCAL/MOL
REMARK 923 INTER-LIGAND FREE ENERGY PREDICTED BY IDOCK:   -5.16 KCAL/MOL
REMARK 924 INTRA-LIGAND FREE ENERGY PREDICTED BY IDOCK:   -0.08 KCAL/MOL
REMARK 927      BINDING AFFINITY PREDICTED BY RF-SCORE:    0.00 PKD
ROOT
HETATM    1  C   UNL     1      -9.599   4.110  66.296  1.00  0.00    -0.209 C  
HETATM    2  C   UNL     1      -9.155   2.911  67.153  1.00  0.00    -0.194 C  
HETATM    3  C   UNL     1      -8.724   1.780  66.198  1.00  0.00    -0.116 C  
HETATM    4  C   UNL     1      -7.404   2.312  65.602  1.00  0.00    -0.066 C  
HETATM    5  C   UNL     1      -7.233   3.675  66.302  1.00  0.00    -0.064 C  
HETATM    6  C   UNL     1      -7.793   3.353  67.691  1.00  0.00    -0.077 C  
HETATM    7  C   UNL     1      -8.283   4.631  65.711  1.00  0.00    -0.111 C  
HETATM    8  C   UNL     1      -8.171   6.037  66.230  1.00  0.00    -0.118 C  
HETATM    9  O   UNL     1      -7.202   6.760  66.059  1.00  0.00    -0.064 OA 
HETATM   10  N   UNL     1      -9.298   6.337  66.938  1.00  0.00    -0.131 N  
HETATM   11  O   UNL     1     -11.106   5.198  67.838  1.00  0.00     0.395 OA 
HETATM   12  C   UNL     1     -10.122   5.258  67.114  1.00  0.00    -0.203 C  
ENDROOT
BRANCH  10  13
HETATM   13  C   UNL     1      -9.508   7.611  67.609  1.00  0.00    -0.142 C  
BRANCH  13  14
HETATM   14  C   UNL     1      -8.768   7.685  68.964  1.00  0.00    -0.136 C  
HETATM   15  C   UNL     1      -9.742   7.357  70.112  1.00  0.00    -0.175 C  
HETATM   16  C   UNL     1      -9.039   7.343  71.463  1.00  0.00    -0.148 C  
HETATM   17  C   UNL     1      -8.299   8.648  71.720  1.00  0.00    -0.203 C  
HETATM   18  C   UNL     1      -7.334   8.985  70.585  1.00  0.00    -0.099 C  
HETATM   19  C   UNL     1      -8.064   9.054  69.228  1.00  0.00    -0.105 C  
BRANCH  19  20
HETATM   20  C   UNL     1      -7.095   9.420  68.079  1.00  0.00    -0.081 C  
BRANCH  20  21
HETATM   21  N   UNL     1      -7.637  10.226  66.969  1.00  0.00    -0.098 NA 
HETATM   22  C   UNL     1      -8.644  11.192  67.492  1.00  0.00    -0.129 C  
HETATM   23  C   UNL     1      -8.055  12.251  68.448  1.00  0.00    -0.151 C  
HETATM   24  N   UNL     1      -6.946  12.993  67.826  1.00  0.00    -0.127 NA 
HETATM   25  C   UNL     1      -5.965  12.186  67.077  1.00  0.00    -0.095 C  
HETATM   26  C   UNL     1      -6.613  11.034  66.264  1.00  0.00    -0.105 C  
BRANCH  24  27
HETATM   27  C   UNL     1      -7.172  14.298  67.475  1.00  0.00    -0.176 A  
HETATM   28  N   UNL     1      -6.217  15.226  67.496  1.00  0.00    -0.298 NA 
HETATM   29  S   UNL     1      -6.799  16.634  66.876  1.00  0.00    -0.214 SA 
HETATM   30  C   UNL     1      -8.372  16.058  66.517  1.00  0.00    -0.313 A  
HETATM   31  C   UNL     1      -9.443  16.725  65.899  1.00  0.00    -0.185 A  
HETATM   32  C   UNL     1     -10.637  16.028  65.704  1.00  0.00    -0.392 A  
HETATM   33  C   UNL     1     -10.759  14.706  66.112  1.00  0.00    -0.314 A  
HETATM   34  C   UNL     1      -9.681  14.048  66.715  1.00  0.00    -0.283 A  
HETATM   35  C   UNL     1      -8.455  14.728  66.937  1.00  0.00    -0.230 A  
ENDBRANCH  24  27
ENDBRANCH  20  21
ENDBRANCH  19  20
ENDBRANCH  13  14
ENDBRANCH  10  13
TORSDOF 5
ENDMDL
MODEL      232
REMARK 921   NORMALIZED FREE ENERGY PREDICTED BY IDOCK:   -2.67 KCAL/MOL
REMARK 922        TOTAL FREE ENERGY PREDICTED BY IDOCK:   -5.17 KCAL/MOL
REMARK 923 INTER-LIGAND FREE ENERGY PREDICTED BY IDOCK:   -5.57 KCAL/MOL
REMARK 924 INTRA-LIGAND FREE ENERGY PREDICTED BY IDOCK:    0.40 KCAL/MOL
REMARK 927      BINDING AFFINITY PREDICTED BY RF-SCORE:    0.00 PKD
ROOT
HETATM    1  C   UNL     1      -8.013   6.386  64.436  1.00  0.00    -0.108 C  
HETATM    2  C   UNL     1      -7.583   5.578  65.673  1.00  0.00    -0.083 C  
HETATM    3  C   UNL     1      -7.334   4.124  65.225  1.00  0.00    -0.072 C  
HETATM    4  C   UNL     1      -6.040   4.233  64.393  1.00  0.00    -0.025 C  
HETATM    5  C   UNL     1      -5.699   5.734  64.479  1.00  0.00    -0.024 C  
HETATM    6  C   UNL     1      -6.146   6.045  65.910  1.00  0.00    -0.029 C  
HETATM    7  C   UNL     1      -6.723   6.490  63.617  1.00  0.00    -0.048 C  
HETATM    8  C   UNL     1      -6.454   7.965  63.524  1.00  0.00    -0.067 C  
HETATM    9  O   UNL     1      -5.453   8.454  63.023  1.00  0.00    -0.066 OA 
HETATM   10  N   UNL     1      -7.482   8.640  64.117  1.00  0.00    -0.105 N  
HETATM   11  O   UNL     1      -9.277   8.148  65.498  1.00  0.00    -0.054 OA 
HETATM   12  C   UNL     1      -8.366   7.813  64.756  1.00  0.00    -0.043 C  
ENDROOT
BRANCH  10  13
HETATM   13  C   UNL     1      -7.527  10.089  64.234  1.00  0.00    -0.137 C  
BRANCH  13  14
HETATM   14  C   UNL     1      -8.975  10.622  64.319  1.00  0.00    -0.214 C  
HETATM   15  C   UNL     1      -9.418  11.160  62.945  1.00  0.00    -0.382 C  
HETATM   16  C   UNL     1     -10.867  11.627  62.961  1.00  0.00    -0.134 C  
HETATM   17  C   UNL     1     -11.111  12.651  64.061  1.00  0.00    -0.453 C  
HETATM   18  C   UNL     1     -10.670  12.129  65.427  1.00  0.00    -0.323 C  
HETATM   19  C   UNL     1      -9.186  11.712  65.418  1.00  0.00    -0.077 C  
BRANCH  19  20
HETATM   20  C   UNL     1      -8.729  11.207  66.807  1.00  0.00    -0.157 C  
BRANCH  20  21
HETATM   21  N   UNL     1      -9.518  11.641  67.976  1.00  0.00    -0.178 NA 
HETATM   22  C   UNL     1     -10.782  10.857  68.051  1.00  0.00    -0.220 C  
HETATM   23  C   UNL     1     -10.567   9.350  68.305  1.00  0.00    -0.210 C  
HETATM   24  N   UNL     1      -9.772   9.108  69.520  1.00  0.00    -0.168 NA 
HETATM   25  C   UNL     1      -8.586   9.967  69.701  1.00  0.00    -0.184 C  
HETATM   26  C   UNL     1      -8.825  11.439  69.271  1.00  0.00     0.355 C  
BRANCH  24  27
HETATM   27  C   UNL     1     -10.419   8.594  70.613  1.00  0.00    -0.204 A  
HETATM   28  N   UNL     1     -11.715   8.287  70.605  1.00  0.00    -0.209 NA 
HETATM   29  S   UNL     1     -12.122   7.562  72.024  1.00  0.00    -0.276 SA 
HETATM   30  C   UNL     1     -10.556   7.597  72.721  1.00  0.00    -0.325 A  
HETATM   31  C   UNL     1     -10.122   7.085  73.955  1.00  0.00    -0.386 A  
HETATM   32  C   UNL     1      -8.775   7.228  74.297  1.00  0.00    -0.250 A  
HETATM   33  C   UNL     1      -7.890   7.863  73.435  1.00  0.00    -0.209 A  
HETATM   34  C   UNL     1      -8.333   8.359  72.203  1.00  0.00    -0.225 A  
HETATM   35  C   UNL     1      -9.696   8.237  71.826  1.00  0.00    -0.278 A  
ENDBRANCH  24  27
ENDBRANCH  20  21
ENDBRANCH  19  20
ENDBRANCH  13  14
ENDBRANCH  10  13
TORSDOF 5
ENDMDL
MODEL      233
REMARK 921   NORMALIZED FREE ENERGY PREDICTED BY IDOCK:   -2.63 KCAL/MOL
REMARK 922        TOTAL FREE ENERGY PREDICTED BY IDOCK:   -5.12 KCAL/MOL
REMARK 923 INTER-LIGAND FREE ENERGY PREDICTED BY IDOCK:   -5.86 KCAL/MOL
REMARK 924 INTRA-LIGAND FREE ENERGY PREDICTED BY IDOCK:    0.74 KCAL/MOL
REMARK 927      BINDING AFFINITY PREDICTED BY RF-SCORE:    0.00 PKD
ROOT
HETATM    1  C   UNL     1      -9.406   8.879  64.729  1.00  0.00     0.253 C  
HETATM    2  C   UNL     1      -7.945   8.419  64.874  1.00  0.00    -0.136 C  
HETATM    3  C   UNL     1      -7.520   7.764  63.545  1.00  0.00    -0.115 C  
HETATM    4  C   UNL     1      -7.432   8.963  62.578  1.00  0.00    -0.100 C  
HETATM    5  C   UNL     1      -7.801  10.160  63.478  1.00  0.00    -0.158 C  
HETATM    6  C   UNL     1      -7.159   9.729  64.800  1.00  0.00    -0.126 C  
HETATM    7  C   UNL     1      -9.308  10.069  63.770  1.00  0.00    -0.307 C  
HETATM    8  C   UNL     1      -9.835  11.233  64.559  1.00  0.00    -0.270 C  
HETATM    9  O   UNL     1      -9.832  12.390  64.168  1.00  0.00    -0.230 OA 
HETATM   10  N   UNL     1     -10.271  10.783  65.772  1.00  0.00    -0.257 N  
HETATM   11  O   UNL     1     -10.091   8.854  67.045  1.00  0.00    -0.213 OA 
HETATM   12  C   UNL     1      -9.968   9.466  65.994  1.00  0.00    -0.281 C  
ENDROOT
BRANCH  10  13
HETATM   13  C   UNL     1     -10.814  11.655  66.803  1.00  0.00    -0.277 C  
BRANCH  13  14
HETATM   14  C   UNL     1      -9.720  12.510  67.479  1.00  0.00    -0.196 C  
HETATM   15  C   UNL     1      -9.431  13.762  66.628  1.00  0.00    -0.289 C  
HETATM   16  C   UNL     1      -8.411  14.675  67.294  1.00  0.00    -0.234 C  
HETATM   17  C   UNL     1      -7.128  13.927  67.631  1.00  0.00    -0.190 C  
HETATM   18  C   UNL     1      -7.404  12.682  68.470  1.00  0.00    -0.115 C  
HETATM   19  C   UNL     1      -8.395  11.734  67.763  1.00  0.00    -0.146 C  
BRANCH  19  20
HETATM   20  C   UNL     1      -8.656  10.459  68.599  1.00  0.00    -0.133 C  
BRANCH  20  21
HETATM   21  N   UNL     1      -7.490   9.821  69.240  1.00  0.00    -0.083 NA 
HETATM   22  C   UNL     1      -7.782   9.572  70.680  1.00  0.00    -0.124 C  
HETATM   23  C   UNL     1      -8.920   8.558  70.920  1.00  0.00    -0.172 C  
HETATM   24  N   UNL     1      -8.661   7.274  70.246  1.00  0.00    -0.146 NA 
HETATM   25  C   UNL     1      -8.155   7.359  68.863  1.00  0.00    -0.127 C  
HETATM   26  C   UNL     1      -7.132   8.507  68.654  1.00  0.00    -0.072 C  
BRANCH  24  27
HETATM   27  C   UNL     1      -8.339   6.198  71.030  1.00  0.00    -0.124 A  
HETATM   28  N   UNL     1      -7.094   5.744  71.155  1.00  0.00    -0.067 NA 
HETATM   29  S   UNL     1      -7.051   4.544  72.279  1.00  0.00    -0.064 SA 
HETATM   30  C   UNL     1      -8.715   4.591  72.682  1.00  0.00    -0.113 A  
HETATM   31  C   UNL     1      -9.417   3.847  73.645  1.00  0.00    -0.122 A  
HETATM   32  C   UNL     1     -10.786   4.077  73.796  1.00  0.00    -0.333 A  
HETATM   33  C   UNL     1     -11.435   5.021  73.010  1.00  0.00    -0.344 A  
HETATM   34  C   UNL     1     -10.723   5.764  72.062  1.00  0.00    -0.285 A  
HETATM   35  C   UNL     1      -9.332   5.551  71.877  1.00  0.00    -0.163 A  
ENDBRANCH  24  27
ENDBRANCH  20  21
ENDBRANCH  19  20
ENDBRANCH  13  14
ENDBRANCH  10  13
TORSDOF 5
ENDMDL
MODEL      234
REMARK 921   NORMALIZED FREE ENERGY PREDICTED BY IDOCK:   -2.61 KCAL/MOL
REMARK 922        TOTAL FREE ENERGY PREDICTED BY IDOCK:   -5.10 KCAL/MOL
REMARK 923 INTER-LIGAND FREE ENERGY PREDICTED BY IDOCK:   -6.72 KCAL/MOL
REMARK 924 INTRA-LIGAND FREE ENERGY PREDICTED BY IDOCK:    1.62 KCAL/MOL
REMARK 927      BINDING AFFINITY PREDICTED BY RF-SCORE:    0.00 PKD
ROOT
HETATM    1  C   UNL     1      -6.642   9.922  65.243  1.00  0.00    -0.105 C  
HETATM    2  C   UNL     1      -7.442  10.713  64.193  1.00  0.00     0.216 C  
HETATM    3  C   UNL     1      -7.371   9.940  62.862  1.00  0.00    -0.125 C  
HETATM    4  C   UNL     1      -8.248   8.701  63.132  1.00  0.00    -0.170 C  
HETATM    5  C   UNL     1      -8.727   8.924  64.580  1.00  0.00    -0.138 C  
HETATM    6  C   UNL     1      -8.895  10.447  64.591  1.00  0.00    -0.216 C  
HETATM    7  C   UNL     1      -7.520   8.695  65.505  1.00  0.00    -0.085 C  
HETATM    8  C   UNL     1      -7.862   8.782  66.966  1.00  0.00    -0.095 C  
HETATM    9  O   UNL     1      -8.631   8.027  67.540  1.00  0.00    -0.125 OA 
HETATM   10  N   UNL     1      -7.205   9.848  67.510  1.00  0.00    -0.088 N  
HETATM   11  O   UNL     1      -6.045  11.707  66.756  1.00  0.00    -0.144 OA 
HETATM   12  C   UNL     1      -6.567  10.617  66.575  1.00  0.00    -0.108 C  
ENDROOT
BRANCH  10  13
HETATM   13  C   UNL     1      -7.336  10.242  68.904  1.00  0.00    -0.090 C  
BRANCH  13  14
HETATM   14  C   UNL     1      -8.763  10.732  69.239  1.00  0.00    -0.044 C  
HETATM   15  C   UNL     1      -9.687   9.523  69.491  1.00  0.00    -0.201 C  
HETATM   16  C   UNL     1     -11.087   9.958  69.900  1.00  0.00    -0.318 C  
HETATM   17  C   UNL     1     -11.693  10.915  68.883  1.00  0.00    -0.376 C  
HETATM   18  C   UNL     1     -10.783  12.114  68.622  1.00  0.00    -0.261 C  
HETATM   19  C   UNL     1      -9.384  11.667  68.153  1.00  0.00    -0.188 C  
BRANCH  19  20
HETATM   20  C   UNL     1      -8.468  12.879  67.863  1.00  0.00    -0.181 C  
BRANCH  20  21
HETATM   21  N   UNL     1      -8.825  14.163  68.497  1.00  0.00    -0.188 NA 
HETATM   22  C   UNL     1      -7.587  14.915  68.844  1.00  0.00    -0.144 C  
HETATM   23  C   UNL     1      -6.753  15.343  67.618  1.00  0.00    -0.173 C  
HETATM   24  N   UNL     1      -7.549  16.129  66.661  1.00  0.00    -0.233 NA 
HETATM   25  C   UNL     1      -8.904  15.621  66.373  1.00  0.00    -0.330 C  
HETATM   26  C   UNL     1      -9.625  15.055  67.625  1.00  0.00    -0.203 C  
BRANCH  24  27
HETATM   27  C   UNL     1      -7.285  17.470  66.564  1.00  0.00    -0.263 A  
HETATM   28  N   UNL     1      -7.604  18.192  65.491  1.00  0.00    -0.449 NA 
HETATM   29  S   UNL     1      -7.278  19.779  65.774  1.00  0.00    -0.306 SA 
HETATM   30  C   UNL     1      -6.714  19.583  67.380  1.00  0.00    -0.200 A  
HETATM   31  C   UNL     1      -6.293  20.558  68.299  1.00  0.00    -0.352 A  
HETATM   32  C   UNL     1      -5.883  20.143  69.568  1.00  0.00    -0.354 A  
HETATM   33  C   UNL     1      -5.893  18.797  69.910  1.00  0.00    -0.255 A  
HETATM   34  C   UNL     1      -6.326  17.835  68.989  1.00  0.00    -0.224 A  
HETATM   35  C   UNL     1      -6.742  18.220  67.687  1.00  0.00    -0.199 A  
ENDBRANCH  24  27
ENDBRANCH  20  21
ENDBRANCH  19  20
ENDBRANCH  13  14
ENDBRANCH  10  13
TORSDOF 5
ENDMDL
MODEL      235
REMARK 921   NORMALIZED FREE ENERGY PREDICTED BY IDOCK:   -2.53 KCAL/MOL
REMARK 922        TOTAL FREE ENERGY PREDICTED BY IDOCK:   -4.99 KCAL/MOL
REMARK 923 INTER-LIGAND FREE ENERGY PREDICTED BY IDOCK:   -5.02 KCAL/MOL
REMARK 924 INTRA-LIGAND FREE ENERGY PREDICTED BY IDOCK:    0.03 KCAL/MOL
REMARK 927      BINDING AFFINITY PREDICTED BY RF-SCORE:    0.00 PKD
ROOT
HETATM    1  C   UNL     1      -9.516   9.864  64.146  1.00  0.00    -0.254 C  
HETATM    2  C   UNL     1      -9.466  11.294  63.578  1.00  0.00    -0.271 C  
HETATM    3  C   UNL     1     -10.913  11.813  63.474  1.00  0.00    -0.499 C  
HETATM    4  C   UNL     1     -11.317  12.019  64.949  1.00  0.00    -0.366 C  
HETATM    5  C   UNL     1     -10.044  11.608  65.716  1.00  0.00    -0.278 C  
HETATM    6  C   UNL     1      -8.960  12.120  64.763  1.00  0.00     0.770 C  
HETATM    7  C   UNL     1      -9.916  10.079  65.608  1.00  0.00    -0.355 C  
HETATM    8  C   UNL     1      -8.767   9.519  66.399  1.00  0.00    -0.135 C  
HETATM    9  O   UNL     1      -8.666   9.588  67.614  1.00  0.00    -0.122 OA 
HETATM   10  N   UNL     1      -7.865   8.967  65.535  1.00  0.00    -0.094 N  
HETATM   11  O   UNL     1      -7.453   8.981  63.254  1.00  0.00    -0.097 OA 
HETATM   12  C   UNL     1      -8.164   9.212  64.222  1.00  0.00    -0.161 C  
ENDROOT
BRANCH  10  13
HETATM   13  C   UNL     1      -6.613   8.361  65.963  1.00  0.00    -0.053 C  
BRANCH  13  14
HETATM   14  C   UNL     1      -6.579   6.841  65.690  1.00  0.00    -0.051 C  
HETATM   15  C   UNL     1      -5.909   6.567  64.329  1.00  0.00    -0.030 C  
HETATM   16  C   UNL     1      -5.784   5.075  64.050  1.00  0.00    -0.017 C  
HETATM   17  C   UNL     1      -7.131   4.373  64.156  1.00  0.00    -0.046 C  
HETATM   18  C   UNL     1      -7.806   4.643  65.499  1.00  0.00    -0.094 C  
HETATM   19  C   UNL     1      -7.980   6.155  65.748  1.00  0.00    -0.115 C  
BRANCH  19  20
HETATM   20  C   UNL     1      -8.687   6.430  67.096  1.00  0.00    -0.110 C  
BRANCH  20  21
HETATM   21  N   UNL     1      -8.903   5.279  67.994  1.00  0.00    -0.105 NA 
HETATM   22  C   UNL     1      -7.871   5.278  69.069  1.00  0.00    -0.082 C  
HETATM   23  C   UNL     1      -7.959   6.492  70.018  1.00  0.00    -0.116 C  
HETATM   24  N   UNL     1      -9.295   6.617  70.625  1.00  0.00    -0.162 NA 
HETATM   25  C   UNL     1     -10.440   6.428  69.715  1.00  0.00    -0.215 C  
HETATM   26  C   UNL     1     -10.218   5.295  68.678  1.00  0.00    -0.153 C  
BRANCH  24  27
HETATM   27  C   UNL     1      -9.420   6.319  71.956  1.00  0.00    -0.151 A  
HETATM   28  N   UNL     1      -9.313   7.238  72.914  1.00  0.00    -0.146 NA 
HETATM   29  S   UNL     1      -9.662   6.563  74.372  1.00  0.00    -0.323 SA 
HETATM   30  C   UNL     1     -10.007   4.990  73.785  1.00  0.00    -0.171 A  
HETATM   31  C   UNL     1     -10.441   3.854  74.489  1.00  0.00    -0.254 A  
HETATM   32  C   UNL     1     -10.668   2.676  73.774  1.00  0.00    -0.269 A  
HETATM   33  C   UNL     1     -10.468   2.632  72.401  1.00  0.00    -0.109 A  
HETATM   34  C   UNL     1     -10.047   3.774  71.709  1.00  0.00    -0.174 A  
HETATM   35  C   UNL     1      -9.799   4.987  72.403  1.00  0.00    -0.214 A  
ENDBRANCH  24  27
ENDBRANCH  20  21
ENDBRANCH  19  20
ENDBRANCH  13  14
ENDBRANCH  10  13
TORSDOF 5
ENDMDL
MODEL      236
REMARK 921   NORMALIZED FREE ENERGY PREDICTED BY IDOCK:   -2.45 KCAL/MOL
REMARK 922        TOTAL FREE ENERGY PREDICTED BY IDOCK:   -4.89 KCAL/MOL
REMARK 923 INTER-LIGAND FREE ENERGY PREDICTED BY IDOCK:   -4.52 KCAL/MOL
REMARK 924 INTRA-LIGAND FREE ENERGY PREDICTED BY IDOCK:   -0.37 KCAL/MOL
REMARK 927      BINDING AFFINITY PREDICTED BY RF-SCORE:    0.00 PKD
ROOT
HETATM    1  C   UNL     1      -6.402  14.604  69.209  1.00  0.00    -0.116 C  
HETATM    2  C   UNL     1      -7.860  15.013  69.484  1.00  0.00    -0.149 C  
HETATM    3  C   UNL     1      -8.102  16.381  68.818  1.00  0.00    -0.234 C  
HETATM    4  C   UNL     1      -8.096  16.042  67.313  1.00  0.00    -0.205 C  
HETATM    5  C   UNL     1      -7.867  14.517  67.304  1.00  0.00    -0.199 C  
HETATM    6  C   UNL     1      -8.659  14.104  68.548  1.00  0.00    -0.163 C  
HETATM    7  C   UNL     1      -6.407  14.268  67.715  1.00  0.00    -0.168 C  
HETATM    8  C   UNL     1      -6.007  12.820  67.653  1.00  0.00    -0.150 C  
HETATM    9  O   UNL     1      -5.987  12.153  66.631  1.00  0.00    -0.226 OA 
HETATM   10  N   UNL     1      -5.716  12.389  68.915  1.00  0.00    -0.062 N  
HETATM   11  O   UNL     1      -6.010  13.139  71.089  1.00  0.00    -0.273 OA 
HETATM   12  C   UNL     1      -6.015  13.314  69.879  1.00  0.00    -0.136 C  
ENDROOT
BRANCH  10  13
HETATM   13  C   UNL     1      -5.324  11.022  69.224  1.00  0.00    -0.040 C  
BRANCH  13  14
HETATM   14  C   UNL     1      -6.222  10.390  70.311  1.00  0.00    -0.122 C  
HETATM   15  C   UNL     1      -5.347   9.756  71.411  1.00  0.00    -0.072 C  
HETATM   16  C   UNL     1      -6.190   9.186  72.544  1.00  0.00     0.116 C  
HETATM   17  C   UNL     1      -7.227   8.200  72.025  1.00  0.00    -0.099 C  
HETATM   18  C   UNL     1      -8.095   8.816  70.931  1.00  0.00    -0.174 C  
HETATM   19  C   UNL     1      -7.239   9.340  69.760  1.00  0.00    -0.066 C  
BRANCH  19  20
HETATM   20  C   UNL     1      -8.117   9.941  68.638  1.00  0.00    -0.099 C  
BRANCH  20  21
HETATM   21  N   UNL     1      -7.786   9.569  67.249  1.00  0.00    -0.098 NA 
HETATM   22  C   UNL     1      -7.063   8.267  67.235  1.00  0.00    -0.079 C  
HETATM   23  C   UNL     1      -7.911   7.077  67.730  1.00  0.00    -0.114 C  
HETATM   24  N   UNL     1      -9.166   6.945  66.971  1.00  0.00    -0.137 NA 
HETATM   25  C   UNL     1      -9.902   8.198  66.714  1.00  0.00    -0.259 C  
HETATM   26  C   UNL     1      -8.975   9.396  66.380  1.00  0.00    -0.152 C  
BRANCH  24  27
HETATM   27  C   UNL     1      -9.276   5.894  66.100  1.00  0.00    -0.150 A  
HETATM   28  N   UNL     1     -10.212   4.955  66.218  1.00  0.00    -0.255 NA 
HETATM   29  S   UNL     1     -10.143   3.937  64.927  1.00  0.00    -0.150 SA 
HETATM   30  C   UNL     1      -8.856   4.729  64.119  1.00  0.00    -0.122 A  
HETATM   31  C   UNL     1      -8.271   4.433  62.877  1.00  0.00    -0.087 A  
HETATM   32  C   UNL     1      -7.230   5.245  62.422  1.00  0.00    -0.044 A  
HETATM   33  C   UNL     1      -6.786   6.319  63.182  1.00  0.00    -0.041 A  
HETATM   34  C   UNL     1      -7.385   6.611  64.413  1.00  0.00    -0.087 A  
HETATM   35  C   UNL     1      -8.441   5.803  64.911  1.00  0.00    -0.103 A  
ENDBRANCH  24  27
ENDBRANCH  20  21
ENDBRANCH  19  20
ENDBRANCH  13  14
ENDBRANCH  10  13
TORSDOF 5
ENDMDL
MODEL      237
REMARK 921   NORMALIZED FREE ENERGY PREDICTED BY IDOCK:   -2.34 KCAL/MOL
REMARK 922        TOTAL FREE ENERGY PREDICTED BY IDOCK:   -4.75 KCAL/MOL
REMARK 923 INTER-LIGAND FREE ENERGY PREDICTED BY IDOCK:   -4.86 KCAL/MOL
REMARK 924 INTRA-LIGAND FREE ENERGY PREDICTED BY IDOCK:    0.10 KCAL/MOL
REMARK 927      BINDING AFFINITY PREDICTED BY RF-SCORE:    0.00 PKD
ROOT
HETATM    1  C   UNL     1     -12.114  13.404  68.335  1.00  0.00    -0.270 C  
HETATM    2  C   UNL     1     -11.073  14.532  68.238  1.00  0.00    -0.275 C  
HETATM    3  C   UNL     1     -11.777  15.858  68.586  1.00  0.00    -0.328 C  
HETATM    4  C   UNL     1     -12.036  15.728  70.101  1.00  0.00    -0.364 C  
HETATM    5  C   UNL     1     -11.432  14.350  70.438  1.00  0.00    -0.228 C  
HETATM    6  C   UNL     1     -10.225  14.332  69.495  1.00  0.00     0.152 C  
HETATM    7  C   UNL     1     -12.363  13.281  69.841  1.00  0.00    -0.228 C  
HETATM    8  C   UNL     1     -11.952  11.876  70.178  1.00  0.00    -0.332 C  
HETATM    9  O   UNL     1     -11.914  11.420  71.310  1.00  0.00    -0.117 OA 
HETATM   10  N   UNL     1     -11.603  11.230  69.026  1.00  0.00    -0.289 N  
HETATM   11  O   UNL     1     -11.135  11.791  66.827  1.00  0.00    -0.277 OA 
HETATM   12  C   UNL     1     -11.567  12.060  67.938  1.00  0.00    -0.337 C  
ENDROOT
BRANCH  10  13
HETATM   13  C   UNL     1     -11.122   9.857  68.992  1.00  0.00    -0.146 C  
BRANCH  13  14
HETATM   14  C   UNL     1      -9.617   9.758  69.327  1.00  0.00    -0.204 C  
HETATM   15  C   UNL     1      -8.956  11.143  69.183  1.00  0.00     0.057 C  
HETATM   16  C   UNL     1      -7.485  11.110  69.578  1.00  0.00     0.018 C  
HETATM   17  C   UNL     1      -6.722  10.049  68.797  1.00  0.00    -0.049 C  
HETATM   18  C   UNL     1      -7.373   8.674  68.928  1.00  0.00    -0.082 C  
HETATM   19  C   UNL     1      -8.846   8.702  68.473  1.00  0.00    -0.142 C  
BRANCH  19  20
HETATM   20  C   UNL     1      -9.501   7.305  68.579  1.00  0.00    -0.140 C  
BRANCH  20  21
HETATM   21  N   UNL     1     -10.129   6.758  67.361  1.00  0.00    -0.159 NA 
HETATM   22  C   UNL     1      -9.134   6.726  66.252  1.00  0.00    -0.139 C  
HETATM   23  C   UNL     1      -7.950   5.769  66.504  1.00  0.00    -0.102 C  
HETATM   24  N   UNL     1      -8.406   4.398  66.789  1.00  0.00    -0.105 NA 
HETATM   25  C   UNL     1      -9.544   4.273  67.720  1.00  0.00    -0.158 C  
HETATM   26  C   UNL     1     -10.623   5.369  67.518  1.00  0.00    -0.129 C  
BRANCH  24  27
HETATM   27  C   UNL     1      -8.200   3.445  65.826  1.00  0.00    -0.094 A  
HETATM   28  N   UNL     1      -8.973   2.369  65.700  1.00  0.00    -0.128 NA 
HETATM   29  S   UNL     1      -8.534   1.524  64.359  1.00  0.00    -0.078 SA 
HETATM   30  C   UNL     1      -7.288   2.586  63.855  1.00  0.00    -0.057 A  
HETATM   31  C   UNL     1      -6.474   2.522  62.711  1.00  0.00    -0.018 A  
HETATM   32  C   UNL     1      -5.526   3.528  62.513  1.00  0.00    -0.005 A  
HETATM   33  C   UNL     1      -5.392   4.565  63.427  1.00  0.00    -0.009 A  
HETATM   34  C   UNL     1      -6.216   4.624  64.557  1.00  0.00    -0.030 A  
HETATM   35  C   UNL     1      -7.186   3.615  64.795  1.00  0.00    -0.067 A  
ENDBRANCH  24  27
ENDBRANCH  20  21
ENDBRANCH  19  20
ENDBRANCH  13  14
ENDBRANCH  10  13
TORSDOF 5
ENDMDL
MODEL      238
REMARK 921   NORMALIZED FREE ENERGY PREDICTED BY IDOCK:   -2.34 KCAL/MOL
REMARK 922        TOTAL FREE ENERGY PREDICTED BY IDOCK:   -4.75 KCAL/MOL
REMARK 923 INTER-LIGAND FREE ENERGY PREDICTED BY IDOCK:   -6.24 KCAL/MOL
REMARK 924 INTRA-LIGAND FREE ENERGY PREDICTED BY IDOCK:    1.49 KCAL/MOL
REMARK 927      BINDING AFFINITY PREDICTED BY RF-SCORE:    0.00 PKD
ROOT
HETATM    1  C   UNL     1      -7.470  10.962  65.290  1.00  0.00     0.204 C  
HETATM    2  C   UNL     1      -7.128   9.479  65.063  1.00  0.00    -0.109 C  
HETATM    3  C   UNL     1      -5.596   9.330  65.133  1.00  0.00    -0.053 C  
HETATM    4  C   UNL     1      -5.292   9.551  66.629  1.00  0.00    -0.045 C  
HETATM    5  C   UNL     1      -6.690   9.783  67.235  1.00  0.00    -0.074 C  
HETATM    6  C   UNL     1      -7.530   8.824  66.386  1.00  0.00    -0.087 C  
HETATM    7  C   UNL     1      -7.167  11.171  66.776  1.00  0.00    -0.146 C  
HETATM    8  C   UNL     1      -8.483  11.579  67.375  1.00  0.00    -0.147 C  
HETATM    9  O   UNL     1      -8.675  11.747  68.570  1.00  0.00    -0.163 OA 
HETATM   10  N   UNL     1      -9.407  11.689  66.377  1.00  0.00    -0.208 N  
HETATM   11  O   UNL     1      -9.594  11.088  64.146  1.00  0.00    -0.232 OA 
HETATM   12  C   UNL     1      -8.940  11.254  65.166  1.00  0.00    -0.036 C  
ENDROOT
BRANCH  10  13
HETATM   13  C   UNL     1     -10.801  12.038  66.610  1.00  0.00    -0.272 C  
BRANCH  13  14
HETATM   14  C   UNL     1     -11.027  13.566  66.606  1.00  0.00    -0.293 C  
HETATM   15  C   UNL     1     -10.429  14.182  65.326  1.00  0.00    -0.402 C  
HETATM   16  C   UNL     1     -10.695  15.679  65.242  1.00  0.00    -0.444 C  
HETATM   17  C   UNL     1     -10.203  16.404  66.487  1.00  0.00    -0.310 C  
HETATM   18  C   UNL     1     -10.786  15.797  67.762  1.00  0.00    -0.307 C  
HETATM   19  C   UNL     1     -10.463  14.293  67.868  1.00  0.00    -0.240 C  
BRANCH  19  20
HETATM   20  C   UNL     1     -11.030  13.681  69.171  1.00  0.00    -0.194 C  
BRANCH  20  21
HETATM   21  N   UNL     1     -12.339  13.005  69.087  1.00  0.00    -0.035 NA 
HETATM   22  C   UNL     1     -12.147  11.586  68.675  1.00  0.00    -0.129 C  
HETATM   23  C   UNL     1     -11.372  10.737  69.704  1.00  0.00    -0.294 C  
HETATM   24  N   UNL     1     -12.004  10.777  71.034  1.00  0.00    -0.328 NA 
HETATM   25  C   UNL     1     -12.451  12.103  71.499  1.00  0.00    -0.039 C  
HETATM   26  C   UNL     1     -13.075  12.970  70.373  1.00  0.00     0.471 C  
BRANCH  24  27
HETATM   27  C   UNL     1     -12.644   9.646  71.468  1.00  0.00    -0.391 A  
HETATM   28  N   UNL     1     -13.968   9.511  71.441  1.00  0.00    -0.171 NA 
HETATM   29  S   UNL     1     -14.380   7.984  71.894  1.00  0.00    -0.453 SA 
HETATM   30  C   UNL     1     -12.783   7.409  72.125  1.00  0.00    -0.113 A  
HETATM   31  C   UNL     1     -12.345   6.122  72.481  1.00  0.00     0.025 A  
HETATM   32  C   UNL     1     -10.972   5.895  72.597  1.00  0.00    -0.305 A  
HETATM   33  C   UNL     1     -10.063   6.920  72.365  1.00  0.00    -0.189 A  
HETATM   34  C   UNL     1     -10.511   8.195  71.999  1.00  0.00    -0.329 A  
HETATM   35  C   UNL     1     -11.900   8.463  71.879  1.00  0.00    -0.398 A  
ENDBRANCH  24  27
ENDBRANCH  20  21
ENDBRANCH  19  20
ENDBRANCH  13  14
ENDBRANCH  10  13
TORSDOF 5
ENDMDL
MODEL      239
REMARK 921   NORMALIZED FREE ENERGY PREDICTED BY IDOCK:   -2.12 KCAL/MOL
REMARK 922        TOTAL FREE ENERGY PREDICTED BY IDOCK:   -4.46 KCAL/MOL
REMARK 923 INTER-LIGAND FREE ENERGY PREDICTED BY IDOCK:   -4.42 KCAL/MOL
REMARK 924 INTRA-LIGAND FREE ENERGY PREDICTED BY IDOCK:   -0.03 KCAL/MOL
REMARK 927      BINDING AFFINITY PREDICTED BY RF-SCORE:    0.00 PKD
ROOT
HETATM    1  C   UNL     1      -9.373  15.525  69.237  1.00  0.00    -0.266 C  
HETATM    2  C   UNL     1     -10.841  15.809  69.597  1.00  0.00    -0.300 C  
HETATM    3  C   UNL     1     -10.890  17.144  70.366  1.00  0.00     0.640 C  
HETATM    4  C   UNL     1     -10.573  18.187  69.274  1.00  0.00     0.405 C  
HETATM    5  C   UNL     1     -10.398  17.321  68.010  1.00  0.00    -0.353 C  
HETATM    6  C   UNL     1     -11.450  16.237  68.261  1.00  0.00    -0.207 C  
HETATM    7  C   UNL     1      -9.068  16.563  68.153  1.00  0.00    -0.207 C  
HETATM    8  C   UNL     1      -8.712  15.748  66.941  1.00  0.00    -0.244 C  
HETATM    9  O   UNL     1      -8.494  16.217  65.834  1.00  0.00    -0.261 OA 
HETATM   10  N   UNL     1      -8.711  14.426  67.282  1.00  0.00    -0.203 N  
HETATM   11  O   UNL     1      -9.439  13.117  69.051  1.00  0.00     0.167 OA 
HETATM   12  C   UNL     1      -9.179  14.201  68.549  1.00  0.00    -0.187 C  
ENDROOT
BRANCH  10  13
HETATM   13  C   UNL     1      -8.439  13.355  66.336  1.00  0.00     0.496 C  
BRANCH  13  14
HETATM   14  C   UNL     1      -9.701  12.939  65.548  1.00  0.00    -0.076 C  
HETATM   15  C   UNL     1     -10.383  14.188  64.954  1.00  0.00    -0.435 C  
HETATM   16  C   UNL     1     -11.591  13.820  64.102  1.00  0.00    -0.360 C  
HETATM   17  C   UNL     1     -12.582  12.965  64.880  1.00  0.00    -0.525 C  
HETATM   18  C   UNL     1     -11.914  11.729  65.478  1.00  0.00     0.135 C  
HETATM   19  C   UNL     1     -10.727  12.112  66.384  1.00  0.00    -0.292 C  
BRANCH  19  20
HETATM   20  C   UNL     1     -10.065  10.862  67.012  1.00  0.00    -0.205 C  
BRANCH  20  21
HETATM   21  N   UNL     1     -10.961   9.841  67.588  1.00  0.00    -0.240 NA 
HETATM   22  C   UNL     1     -10.281   8.515  67.586  1.00  0.00    -0.236 C  
HETATM   23  C   UNL     1      -9.036   8.452  68.495  1.00  0.00    -0.136 C  
HETATM   24  N   UNL     1      -9.350   8.836  69.882  1.00  0.00    -0.158 NA 
HETATM   25  C   UNL     1     -10.208  10.025  70.046  1.00  0.00    -0.255 C  
HETATM   26  C   UNL     1     -11.345  10.110  68.994  1.00  0.00    -0.133 C  
BRANCH  24  27
HETATM   27  C   UNL     1      -9.360   7.846  70.829  1.00  0.00    -0.157 A  
HETATM   28  N   UNL     1     -10.451   7.520  71.519  1.00  0.00    -0.204 NA 
HETATM   29  S   UNL     1     -10.142   6.203  72.455  1.00  0.00    -0.180 SA 
HETATM   30  C   UNL     1      -8.518   5.982  71.956  1.00  0.00    -0.121 A  
HETATM   31  C   UNL     1      -7.605   4.977  72.320  1.00  0.00    -0.094 A  
HETATM   32  C   UNL     1      -6.326   5.007  71.762  1.00  0.00    -0.031 A  
HETATM   33  C   UNL     1      -5.967   6.008  70.867  1.00  0.00    -0.026 A  
HETATM   34  C   UNL     1      -6.889   6.996  70.504  1.00  0.00    -0.057 A  
HETATM   35  C   UNL     1      -8.196   7.002  71.057  1.00  0.00    -0.117 A  
ENDBRANCH  24  27
ENDBRANCH  20  21
ENDBRANCH  19  20
ENDBRANCH  13  14
ENDBRANCH  10  13
TORSDOF 5
ENDMDL
MODEL      240
REMARK 921   NORMALIZED FREE ENERGY PREDICTED BY IDOCK:   -2.11 KCAL/MOL
REMARK 922        TOTAL FREE ENERGY PREDICTED BY IDOCK:   -4.44 KCAL/MOL
REMARK 923 INTER-LIGAND FREE ENERGY PREDICTED BY IDOCK:   -6.08 KCAL/MOL
REMARK 924 INTRA-LIGAND FREE ENERGY PREDICTED BY IDOCK:    1.64 KCAL/MOL
REMARK 927      BINDING AFFINITY PREDICTED BY RF-SCORE:    0.00 PKD
ROOT
HETATM    1  C   UNL     1      -6.164   9.990  69.572  1.00  0.00    -0.046 C  
HETATM    2  C   UNL     1      -6.774  11.378  69.838  1.00  0.00    -0.032 C  
HETATM    3  C   UNL     1      -5.664  12.428  69.639  1.00  0.00    -0.102 C  
HETATM    4  C   UNL     1      -5.439  12.414  68.114  1.00  0.00    -0.064 C  
HETATM    5  C   UNL     1      -6.460  11.367  67.623  1.00  0.00    -0.063 C  
HETATM    6  C   UNL     1      -7.620  11.630  68.589  1.00  0.00    -0.133 C  
HETATM    7  C   UNL     1      -5.946   9.985  68.057  1.00  0.00    -0.038 C  
HETATM    8  C   UNL     1      -6.794   8.849  67.558  1.00  0.00    -0.071 C  
HETATM    9  O   UNL     1      -6.962   8.579  66.379  1.00  0.00    -0.075 OA 
HETATM   10  N   UNL     1      -7.356   8.214  68.629  1.00  0.00    -0.087 N  
HETATM   11  O   UNL     1      -7.646   8.615  70.893  1.00  0.00    -0.070 OA 
HETATM   12  C   UNL     1      -7.132   8.864  69.813  1.00  0.00    -0.054 C  
ENDROOT
BRANCH  10  13
HETATM   13  C   UNL     1      -8.265   7.085  68.505  1.00  0.00    -0.124 C  
BRANCH  13  14
HETATM   14  C   UNL     1      -9.047   6.821  69.811  1.00  0.00    -0.143 C  
HETATM   15  C   UNL     1      -8.681   5.431  70.369  1.00  0.00    -0.136 C  
HETATM   16  C   UNL     1      -9.371   5.157  71.699  1.00  0.00    -0.183 C  
HETATM   17  C   UNL     1     -10.880   5.330  71.590  1.00  0.00    -0.181 C  
HETATM   18  C   UNL     1     -11.253   6.702  71.032  1.00  0.00    -0.349 C  
HETATM   19  C   UNL     1     -10.596   6.949  69.658  1.00  0.00    -0.258 C  
BRANCH  19  20
HETATM   20  C   UNL     1     -10.993   8.327  69.078  1.00  0.00     0.124 C  
BRANCH  20  21
HETATM   21  N   UNL     1     -10.137   9.478  69.424  1.00  0.00    -0.187 NA 
HETATM   22  C   UNL     1     -10.365  10.585  68.454  1.00  0.00    -0.176 C  
HETATM   23  C   UNL     1     -11.790  11.174  68.503  1.00  0.00    -0.260 C  
HETATM   24  N   UNL     1     -12.148  11.631  69.856  1.00  0.00    -0.310 NA 
HETATM   25  C   UNL     1     -11.788  10.724  70.963  1.00  0.00    -0.247 C  
HETATM   26  C   UNL     1     -10.409  10.040  70.769  1.00  0.00     0.007 C  
BRANCH  24  27
HETATM   27  C   UNL     1     -12.223  12.981  70.073  1.00  0.00    -0.236 A  
HETATM   28  N   UNL     1     -12.777  13.507  71.164  1.00  0.00    -0.354 NA 
HETATM   29  S   UNL     1     -12.563  15.138  71.164  1.00  0.00    -0.407 SA 
HETATM   30  C   UNL     1     -11.681  15.222  69.697  1.00  0.00    -0.334 A  
HETATM   31  C   UNL     1     -11.104  16.339  69.070  1.00  0.00    -0.331 A  
HETATM   32  C   UNL     1     -10.416  16.147  67.871  1.00  0.00    -0.290 A  
HETATM   33  C   UNL     1     -10.307  14.879  67.313  1.00  0.00    -0.251 A  
HETATM   34  C   UNL     1     -10.876  13.772  67.953  1.00  0.00    -0.257 A  
HETATM   35  C   UNL     1     -11.589  13.932  69.170  1.00  0.00    -0.359 A  
ENDBRANCH  24  27
ENDBRANCH  20  21
ENDBRANCH  19  20
ENDBRANCH  13  14
ENDBRANCH  10  13
TORSDOF 5
ENDMDL
MODEL      241
REMARK 921   NORMALIZED FREE ENERGY PREDICTED BY IDOCK:   -2.02 KCAL/MOL
REMARK 922        TOTAL FREE ENERGY PREDICTED BY IDOCK:   -4.33 KCAL/MOL
REMARK 923 INTER-LIGAND FREE ENERGY PREDICTED BY IDOCK:   -5.72 KCAL/MOL
REMARK 924 INTRA-LIGAND FREE ENERGY PREDICTED BY IDOCK:    1.39 KCAL/MOL
REMARK 927      BINDING AFFINITY PREDICTED BY RF-SCORE:    0.00 PKD
ROOT
HETATM    1  C   UNL     1      -9.009  14.512  69.168  1.00  0.00     0.032 C  
HETATM    2  C   UNL     1      -9.059  15.803  68.333  1.00  0.00    -0.188 C  
HETATM    3  C   UNL     1      -8.028  16.787  68.919  1.00  0.00    -0.237 C  
HETATM    4  C   UNL     1      -6.678  16.151  68.528  1.00  0.00    -0.126 C  
HETATM    5  C   UNL     1      -7.103  14.889  67.751  1.00  0.00    -0.192 C  
HETATM    6  C   UNL     1      -8.355  15.405  67.035  1.00  0.00    -0.268 C  
HETATM    7  C   UNL     1      -7.668  13.888  68.772  1.00  0.00    -0.096 C  
HETATM    8  C   UNL     1      -8.033  12.561  68.168  1.00  0.00    -0.157 C  
HETATM    9  O   UNL     1      -7.237  11.799  67.643  1.00  0.00    -0.095 OA 
HETATM   10  N   UNL     1      -9.382  12.383  68.278  1.00  0.00    -0.211 N  
HETATM   11  O   UNL     1     -11.241  13.672  68.786  1.00  0.00    -0.252 OA 
HETATM   12  C   UNL     1     -10.032  13.494  68.743  1.00  0.00    -0.070 C  
ENDROOT
BRANCH  10  13
HETATM   13  C   UNL     1     -10.081  11.214  67.765  1.00  0.00    -0.178 C  
BRANCH  13  14
HETATM   14  C   UNL     1     -10.803  10.430  68.883  1.00  0.00    -0.273 C  
HETATM   15  C   UNL     1     -12.096  11.165  69.288  1.00  0.00    -0.377 C  
HETATM   16  C   UNL     1     -12.882  10.389  70.336  1.00  0.00    -0.249 C  
HETATM   17  C   UNL     1     -12.024  10.067  71.552  1.00  0.00    -0.438 C  
HETATM   18  C   UNL     1     -10.738   9.343  71.161  1.00  0.00    -0.417 C  
HETATM   19  C   UNL     1      -9.919  10.162  70.142  1.00  0.00    -0.154 C  
BRANCH  19  20
HETATM   20  C   UNL     1      -8.602   9.443  69.763  1.00  0.00    -0.175 C  
BRANCH  20  21
HETATM   21  N   UNL     1      -8.704   8.267  68.879  1.00  0.00    -0.136 NA 
HETATM   22  C   UNL     1      -7.444   7.474  68.947  1.00  0.00    -0.096 C  
HETATM   23  C   UNL     1      -7.170   6.856  70.333  1.00  0.00    -0.076 C  
HETATM   24  N   UNL     1      -8.294   6.023  70.794  1.00  0.00    -0.124 NA 
HETATM   25  C   UNL     1      -9.642   6.588  70.596  1.00  0.00    -0.172 C  
HETATM   26  C   UNL     1      -9.800   7.339  69.247  1.00  0.00    -0.166 C  
BRANCH  24  27
HETATM   27  C   UNL     1      -8.114   4.665  70.811  1.00  0.00    -0.084 A  
HETATM   28  N   UNL     1      -7.836   3.989  71.924  1.00  0.00    -0.073 NA 
HETATM   29  S   UNL     1      -7.834   2.375  71.606  1.00  0.00    -0.045 SA 
HETATM   30  C   UNL     1      -8.239   2.500  69.945  1.00  0.00    -0.041 A  
HETATM   31  C   UNL     1      -8.467   1.479  69.007  1.00  0.00    -0.080 A  
HETATM   32  C   UNL     1      -8.800   1.839  67.700  1.00  0.00    -0.148 A  
HETATM   33  C   UNL     1      -8.902   3.176  67.339  1.00  0.00    -0.159 A  
HETATM   34  C   UNL     1      -8.685   4.185  68.286  1.00  0.00    -0.119 A  
HETATM   35  C   UNL     1      -8.337   3.855  69.622  1.00  0.00    -0.078 A  
ENDBRANCH  24  27
ENDBRANCH  20  21
ENDBRANCH  19  20
ENDBRANCH  13  14
ENDBRANCH  10  13
TORSDOF 5
ENDMDL
MODEL      242
REMARK 921   NORMALIZED FREE ENERGY PREDICTED BY IDOCK:   -1.94 KCAL/MOL
REMARK 922        TOTAL FREE ENERGY PREDICTED BY IDOCK:   -4.22 KCAL/MOL
REMARK 923 INTER-LIGAND FREE ENERGY PREDICTED BY IDOCK:   -4.21 KCAL/MOL
REMARK 924 INTRA-LIGAND FREE ENERGY PREDICTED BY IDOCK:   -0.01 KCAL/MOL
REMARK 927      BINDING AFFINITY PREDICTED BY RF-SCORE:    0.00 PKD
ROOT
HETATM    1  C   UNL     1      -7.500  13.375  68.801  1.00  0.00    -0.061 C  
HETATM    2  C   UNL     1      -6.457  14.488  69.005  1.00  0.00    -0.099 C  
HETATM    3  C   UNL     1      -6.271  14.690  70.522  1.00  0.00    -0.149 C  
HETATM    4  C   UNL     1      -5.529  13.409  70.956  1.00  0.00    -0.198 C  
HETATM    5  C   UNL     1      -5.367  12.637  69.630  1.00  0.00    -0.079 C  
HETATM    6  C   UNL     1      -5.138  13.796  68.655  1.00  0.00    -0.084 C  
HETATM    7  C   UNL     1      -6.755  12.109  69.233  1.00  0.00    -0.084 C  
HETATM    8  C   UNL     1      -6.736  11.246  68.003  1.00  0.00    -0.062 C  
HETATM    9  O   UNL     1      -6.144  10.181  67.916  1.00  0.00    -0.052 OA 
HETATM   10  N   UNL     1      -7.447  11.866  67.017  1.00  0.00    -0.146 N  
HETATM   11  O   UNL     1      -8.332  13.970  66.613  1.00  0.00    -0.005 OA 
HETATM   12  C   UNL     1      -7.832  13.136  67.354  1.00  0.00    -0.165 C  
ENDROOT
BRANCH  10  13
HETATM   13  C   UNL     1      -7.605  11.320  65.677  1.00  0.00     0.340 C  
BRANCH  13  14
HETATM   14  C   UNL     1      -9.090  11.118  65.302  1.00  0.00    -0.183 C  
HETATM   15  C   UNL     1      -9.569  12.282  64.411  1.00  0.00     0.095 C  
HETATM   16  C   UNL     1     -11.008  12.088  63.953  1.00  0.00    -0.465 C  
HETATM   17  C   UNL     1     -11.945  11.872  65.133  1.00  0.00    -0.113 C  
HETATM   18  C   UNL     1     -11.476  10.725  66.025  1.00  0.00     0.688 C  
HETATM   19  C   UNL     1     -10.038  10.956  66.532  1.00  0.00    -0.269 C  
BRANCH  19  20
HETATM   20  C   UNL     1      -9.570   9.808  67.457  1.00  0.00    -0.150 C  
BRANCH  20  21
HETATM   21  N   UNL     1      -9.561   8.446  66.891  1.00  0.00    -0.184 NA 
HETATM   22  C   UNL     1      -8.371   7.701  67.390  1.00  0.00    -0.116 C  
HETATM   23  C   UNL     1      -8.382   7.454  68.913  1.00  0.00    -0.129 C  
HETATM   24  N   UNL     1      -9.607   6.762  69.347  1.00  0.00    -0.147 NA 
HETATM   25  C   UNL     1     -10.871   7.253  68.765  1.00  0.00    -0.086 C  
HETATM   26  C   UNL     1     -10.746   7.637  67.266  1.00  0.00    -0.274 C  
BRANCH  24  27
HETATM   27  C   UNL     1      -9.494   5.453  69.735  1.00  0.00    -0.151 A  
HETATM   28  N   UNL     1      -8.778   4.559  69.057  1.00  0.00    -0.083 NA 
HETATM   29  S   UNL     1      -8.742   3.136  69.881  1.00  0.00    -0.085 SA 
HETATM   30  C   UNL     1      -9.673   3.660  71.221  1.00  0.00    -0.169 A  
HETATM   31  C   UNL     1     -10.021   2.960  72.389  1.00  0.00    -0.235 A  
HETATM   32  C   UNL     1     -10.787   3.617  73.354  1.00  0.00    -0.314 A  
HETATM   33  C   UNL     1     -11.195   4.930  73.160  1.00  0.00    -0.403 A  
HETATM   34  C   UNL     1     -10.832   5.621  71.997  1.00  0.00    -0.300 A  
HETATM   35  C   UNL     1     -10.059   4.982  70.992  1.00  0.00    -0.297 A  
ENDBRANCH  24  27
ENDBRANCH  20  21
ENDBRANCH  19  20
ENDBRANCH  13  14
ENDBRANCH  10  13
TORSDOF 5
ENDMDL
MODEL      243
REMARK 921   NORMALIZED FREE ENERGY PREDICTED BY IDOCK:   -1.80 KCAL/MOL
REMARK 922        TOTAL FREE ENERGY PREDICTED BY IDOCK:   -4.05 KCAL/MOL
REMARK 923 INTER-LIGAND FREE ENERGY PREDICTED BY IDOCK:   -4.95 KCAL/MOL
REMARK 924 INTRA-LIGAND FREE ENERGY PREDICTED BY IDOCK:    0.90 KCAL/MOL
REMARK 927      BINDING AFFINITY PREDICTED BY RF-SCORE:    0.00 PKD
ROOT
HETATM    1  C   UNL     1      -7.592   4.851  65.411  1.00  0.00    -0.085 C  
HETATM    2  C   UNL     1      -8.262   4.979  64.032  1.00  0.00    -0.125 C  
HETATM    3  C   UNL     1      -7.477   4.099  63.040  1.00  0.00    -0.050 C  
HETATM    4  C   UNL     1      -7.833   2.667  63.488  1.00  0.00    -0.069 C  
HETATM    5  C   UNL     1      -8.792   2.903  64.672  1.00  0.00    -0.112 C  
HETATM    6  C   UNL     1      -9.538   4.150  64.187  1.00  0.00    -0.148 C  
HETATM    7  C   UNL     1      -7.952   3.428  65.847  1.00  0.00    -0.092 C  
HETATM    8  C   UNL     1      -8.742   3.610  67.112  1.00  0.00    -0.116 C  
HETATM    9  O   UNL     1      -9.292   2.705  67.719  1.00  0.00    -0.192 OA 
HETATM   10  N   UNL     1      -8.765   4.938  67.431  1.00  0.00    -0.104 N  
HETATM   11  O   UNL     1      -8.255   6.952  66.402  1.00  0.00    -0.108 OA 
HETATM   12  C   UNL     1      -8.220   5.731  66.457  1.00  0.00    -0.106 C  
ENDROOT
BRANCH  10  13
HETATM   13  C   UNL     1      -9.474   5.473  68.583  1.00  0.00    -0.129 C  
BRANCH  13  14
HETATM   14  C   UNL     1      -8.582   6.404  69.435  1.00  0.00    -0.130 C  
HETATM   15  C   UNL     1      -7.154   5.829  69.519  1.00  0.00    -0.065 C  
HETATM   16  C   UNL     1      -6.217   6.752  70.286  1.00  0.00    -0.031 C  
HETATM   17  C   UNL     1      -6.765   7.078  71.669  1.00  0.00    -0.056 C  
HETATM   18  C   UNL     1      -8.181   7.643  71.597  1.00  0.00    -0.115 C  
HETATM   19  C   UNL     1      -9.137   6.677  70.868  1.00  0.00    -0.154 C  
BRANCH  19  20
HETATM   20  C   UNL     1     -10.579   7.235  70.817  1.00  0.00    -0.223 C  
BRANCH  20  21
HETATM   21  N   UNL     1     -10.992   7.927  69.581  1.00  0.00    -0.171 NA 
HETATM   22  C   UNL     1     -12.227   8.721  69.837  1.00  0.00     1.008 C  
HETATM   23  C   UNL     1     -12.031   9.874  70.843  1.00  0.00    -0.345 C  
HETATM   24  N   UNL     1     -10.946  10.781  70.432  1.00  0.00    -0.119 NA 
HETATM   25  C   UNL     1      -9.712  10.136  69.943  1.00  0.00    -0.150 C  
HETATM   26  C   UNL     1      -9.982   8.883  69.068  1.00  0.00    -0.190 C  
BRANCH  24  27
HETATM   27  C   UNL     1     -11.294  12.026  69.980  1.00  0.00     0.029 A  
HETATM   28  N   UNL     1     -10.956  12.475  68.773  1.00  0.00    -0.248 NA 
HETATM   29  S   UNL     1     -11.661  13.938  68.509  1.00  0.00    -0.354 SA 
HETATM   30  C   UNL     1     -12.489  14.033  70.006  1.00  0.00    -0.281 A  
HETATM   31  C   UNL     1     -13.365  15.026  70.475  1.00  0.00    -0.177 A  
HETATM   32  C   UNL     1     -13.931  14.869  71.742  1.00  0.00    -0.583 A  
HETATM   33  C   UNL     1     -13.632  13.756  72.517  1.00  0.00    -0.680 A  
HETATM   34  C   UNL     1     -12.766  12.768  72.034  1.00  0.00    -0.133 A  
HETATM   35  C   UNL     1     -12.167  12.898  70.754  1.00  0.00    -0.348 A  
ENDBRANCH  24  27
ENDBRANCH  20  21
ENDBRANCH  19  20
ENDBRANCH  13  14
ENDBRANCH  10  13
TORSDOF 5
ENDMDL
MODEL      244
REMARK 921   NORMALIZED FREE ENERGY PREDICTED BY IDOCK:   -1.66 KCAL/MOL
REMARK 922        TOTAL FREE ENERGY PREDICTED BY IDOCK:   -3.87 KCAL/MOL
REMARK 923 INTER-LIGAND FREE ENERGY PREDICTED BY IDOCK:   -3.95 KCAL/MOL
REMARK 924 INTRA-LIGAND FREE ENERGY PREDICTED BY IDOCK:    0.08 KCAL/MOL
REMARK 927      BINDING AFFINITY PREDICTED BY RF-SCORE:    0.00 PKD
ROOT
HETATM    1  C   UNL     1      -8.599   5.827  68.732  1.00  0.00    -0.109 C  
HETATM    2  C   UNL     1      -7.650   4.962  67.884  1.00  0.00    -0.083 C  
HETATM    3  C   UNL     1      -7.951   3.483  68.196  1.00  0.00    -0.071 C  
HETATM    4  C   UNL     1      -9.330   3.262  67.542  1.00  0.00    -0.250 C  
HETATM    5  C   UNL     1      -9.642   4.638  66.920  1.00  0.00    -0.197 C  
HETATM    6  C   UNL     1      -8.242   5.073  66.478  1.00  0.00    -0.108 C  
HETATM    7  C   UNL     1      -9.963   5.602  68.074  1.00  0.00    -0.178 C  
HETATM    8  C   UNL     1     -10.388   6.967  67.612  1.00  0.00    -0.211 C  
HETATM    9  O   UNL     1     -11.390   7.191  66.951  1.00  0.00    -0.105 OA 
HETATM   10  N   UNL     1      -9.459   7.880  68.020  1.00  0.00    -0.148 N  
HETATM   11  O   UNL     1      -7.305   7.861  68.877  1.00  0.00    -0.081 OA 
HETATM   12  C   UNL     1      -8.350   7.302  68.577  1.00  0.00    -0.125 C  
ENDROOT
BRANCH  10  13
HETATM   13  C   UNL     1      -9.541   9.300  67.713  1.00  0.00    -0.142 C  
BRANCH  13  14
HETATM   14  C   UNL     1      -8.684   9.681  66.485  1.00  0.00    -0.147 C  
HETATM   15  C   UNL     1      -8.331   8.416  65.678  1.00  0.00    -0.160 C  
HETATM   16  C   UNL     1      -7.549   8.751  64.415  1.00  0.00    -0.116 C  
HETATM   17  C   UNL     1      -6.305   9.571  64.731  1.00  0.00    -0.083 C  
HETATM   18  C   UNL     1      -6.643  10.824  65.535  1.00  0.00     0.006 C  
HETATM   19  C   UNL     1      -7.385  10.472  66.841  1.00  0.00    -0.110 C  
BRANCH  19  20
HETATM   20  C   UNL     1      -7.705  11.738  67.671  1.00  0.00    -0.137 C  
BRANCH  20  21
HETATM   21  N   UNL     1      -8.902  12.512  67.288  1.00  0.00    -0.187 NA 
HETATM   22  C   UNL     1      -9.399  13.284  68.461  1.00  0.00    -0.091 C  
HETATM   23  C   UNL     1      -8.418  14.367  68.957  1.00  0.00    -0.001 C  
HETATM   24  N   UNL     1      -8.044  15.301  67.881  1.00  0.00    -0.133 NA 
HETATM   25  C   UNL     1      -7.727  14.692  66.576  1.00  0.00     0.992 C  
HETATM   26  C   UNL     1      -8.653  13.501  66.213  1.00  0.00     0.560 C  
BRANCH  24  27
HETATM   27  C   UNL     1      -8.548  16.573  67.941  1.00  0.00    -0.183 A  
HETATM   28  N   UNL     1      -9.428  16.958  68.864  1.00  0.00    -0.259 NA 
HETATM   29  S   UNL     1      -9.701  18.575  68.730  1.00  0.00    -0.326 SA 
HETATM   30  C   UNL     1      -8.618  18.851  67.431  1.00  0.00    -0.274 A  
HETATM   31  C   UNL     1      -8.282  20.059  66.797  1.00  0.00    -0.362 A  
HETATM   32  C   UNL     1      -7.352  20.027  65.756  1.00  0.00    -0.321 A  
HETATM   33  C   UNL     1      -6.776  18.828  65.358  1.00  0.00    -0.251 A  
HETATM   34  C   UNL     1      -7.111  17.632  66.006  1.00  0.00    -0.318 A  
HETATM   35  C   UNL     1      -8.057  17.626  67.063  1.00  0.00    -0.243 A  
ENDBRANCH  24  27
ENDBRANCH  20  21
ENDBRANCH  19  20
ENDBRANCH  13  14
ENDBRANCH  10  13
TORSDOF 5
ENDMDL
MODEL      245
REMARK 921   NORMALIZED FREE ENERGY PREDICTED BY IDOCK:   -1.65 KCAL/MOL
REMARK 922        TOTAL FREE ENERGY PREDICTED BY IDOCK:   -3.86 KCAL/MOL
REMARK 923 INTER-LIGAND FREE ENERGY PREDICTED BY IDOCK:   -6.07 KCAL/MOL
REMARK 924 INTRA-LIGAND FREE ENERGY PREDICTED BY IDOCK:    2.21 KCAL/MOL
REMARK 927      BINDING AFFINITY PREDICTED BY RF-SCORE:    0.00 PKD
ROOT
HETATM    1  C   UNL     1     -11.047  13.235  68.977  1.00  0.00    -0.291 C  
HETATM    2  C   UNL     1     -12.211  14.179  68.628  1.00  0.00    -0.216 C  
HETATM    3  C   UNL     1     -12.390  15.164  69.799  1.00  0.00    -0.278 C  
HETATM    4  C   UNL     1     -11.144  16.065  69.690  1.00  0.00    -0.331 C  
HETATM    5  C   UNL     1     -10.411  15.495  68.459  1.00  0.00    -0.238 C  
HETATM    6  C   UNL     1     -11.601  15.108  67.576  1.00  0.00    -0.268 C  
HETATM    7  C   UNL     1      -9.815  14.138  68.865  1.00  0.00    -0.110 C  
HETATM    8  C   UNL     1      -8.981  13.504  67.788  1.00  0.00    -0.201 C  
HETATM    9  O   UNL     1      -7.953  13.986  67.338  1.00  0.00    -0.172 OA 
HETATM   10  N   UNL     1      -9.583  12.346  67.388  1.00  0.00    -0.181 N  
HETATM   11  O   UNL     1     -11.643  11.313  67.641  1.00  0.00    -0.490 OA 
HETATM   12  C   UNL     1     -10.822  12.168  67.942  1.00  0.00    -0.217 C  
ENDROOT
BRANCH  10  13
HETATM   13  C   UNL     1      -9.058  11.494  66.332  1.00  0.00    -0.200 C  
BRANCH  13  14
HETATM   14  C   UNL     1      -7.940  10.557  66.841  1.00  0.00    -0.121 C  
HETATM   15  C   UNL     1      -6.639  11.357  67.050  1.00  0.00    -0.125 C  
HETATM   16  C   UNL     1      -5.528  10.489  67.625  1.00  0.00    -0.043 C  
HETATM   17  C   UNL     1      -5.286   9.254  66.769  1.00  0.00    -0.038 C  
HETATM   18  C   UNL     1      -6.570   8.457  66.551  1.00  0.00    -0.056 C  
HETATM   19  C   UNL     1      -7.673   9.328  65.916  1.00  0.00    -0.098 C  
BRANCH  19  20
HETATM   20  C   UNL     1      -8.967   8.516  65.669  1.00  0.00    -0.160 C  
BRANCH  20  21
HETATM   21  N   UNL     1      -9.202   7.342  66.532  1.00  0.00    -0.154 NA 
HETATM   22  C   UNL     1      -8.476   7.511  67.822  1.00  0.00    -0.118 C  
HETATM   23  C   UNL     1      -8.988   8.690  68.676  1.00  0.00    -0.142 C  
HETATM   24  N   UNL     1     -10.434   8.588  68.940  1.00  0.00    -0.211 NA 
HETATM   25  C   UNL     1     -11.277   8.211  67.790  1.00  0.00     0.646 C  
HETATM   26  C   UNL     1     -10.628   7.135  66.880  1.00  0.00    -0.301 C  
BRANCH  24  27
HETATM   27  C   UNL     1     -10.827   8.269  70.213  1.00  0.00    -0.240 A  
HETATM   28  N   UNL     1     -11.407   9.146  71.029  1.00  0.00    -0.286 NA 
HETATM   29  S   UNL     1     -11.878   8.390  72.412  1.00  0.00    -0.352 SA 
HETATM   30  C   UNL     1     -11.347   6.822  71.971  1.00  0.00    -0.272 A  
HETATM   31  C   UNL     1     -11.468   5.612  72.675  1.00  0.00    -0.339 A  
HETATM   32  C   UNL     1     -10.960   4.450  72.092  1.00  0.00     0.184 A  
HETATM   33  C   UNL     1     -10.348   4.492  70.846  1.00  0.00    -0.074 A  
HETATM   34  C   UNL     1     -10.243   5.702  70.149  1.00  0.00    -0.318 A  
HETATM   35  C   UNL     1     -10.743   6.904  70.714  1.00  0.00    -0.262 A  
ENDBRANCH  24  27
ENDBRANCH  20  21
ENDBRANCH  19  20
ENDBRANCH  13  14
ENDBRANCH  10  13
TORSDOF 5
ENDMDL
MODEL      246
REMARK 921   NORMALIZED FREE ENERGY PREDICTED BY IDOCK:   -1.62 KCAL/MOL
REMARK 922        TOTAL FREE ENERGY PREDICTED BY IDOCK:   -3.82 KCAL/MOL
REMARK 923 INTER-LIGAND FREE ENERGY PREDICTED BY IDOCK:   -4.04 KCAL/MOL
REMARK 924 INTRA-LIGAND FREE ENERGY PREDICTED BY IDOCK:    0.22 KCAL/MOL
REMARK 927      BINDING AFFINITY PREDICTED BY RF-SCORE:    0.00 PKD
ROOT
HETATM    1  C   UNL     1      -9.346  14.857  69.359  1.00  0.00    -0.054 C  
HETATM    2  C   UNL     1     -10.830  14.973  69.749  1.00  0.00    -0.277 C  
HETATM    3  C   UNL     1     -10.998  16.248  70.598  1.00  0.00    -0.179 C  
HETATM    4  C   UNL     1     -10.801  17.380  69.570  1.00  0.00     0.363 C  
HETATM    5  C   UNL     1     -10.560  16.614  68.253  1.00  0.00    -0.338 C  
HETATM    6  C   UNL     1     -11.498  15.418  68.446  1.00  0.00    -0.365 C  
HETATM    7  C   UNL     1      -9.161  15.983  68.338  1.00  0.00    -0.192 C  
HETATM    8  C   UNL     1      -8.744  15.281  67.076  1.00  0.00    -0.234 C  
HETATM    9  O   UNL     1      -8.590  15.834  65.998  1.00  0.00    -0.277 OA 
HETATM   10  N   UNL     1      -8.610  13.948  67.335  1.00  0.00    -0.189 N  
HETATM   11  O   UNL     1      -9.180  12.470  69.028  1.00  0.00     0.217 OA 
HETATM   12  C   UNL     1      -9.035  13.602  68.590  1.00  0.00    -0.025 C  
ENDROOT
BRANCH  10  13
HETATM   13  C   UNL     1      -8.248  12.967  66.324  1.00  0.00     0.785 C  
BRANCH  13  14
HETATM   14  C   UNL     1      -9.463  12.529  65.476  1.00  0.00     0.044 C  
HETATM   15  C   UNL     1     -10.149  13.767  64.865  1.00  0.00    -0.297 C  
HETATM   16  C   UNL     1     -11.309  13.380  63.958  1.00  0.00    -0.356 C  
HETATM   17  C   UNL     1     -12.311  12.491  64.682  1.00  0.00    -0.547 C  
HETATM   18  C   UNL     1     -11.640  11.265  65.295  1.00  0.00     0.252 C  
HETATM   19  C   UNL     1     -10.503  11.667  66.258  1.00  0.00    -0.286 C  
BRANCH  19  20
HETATM   20  C   UNL     1      -9.838  10.427  66.901  1.00  0.00    -0.191 C  
BRANCH  20  21
HETATM   21  N   UNL     1     -10.729   9.436  67.535  1.00  0.00    -0.268 NA 
HETATM   22  C   UNL     1     -10.632   8.136  66.812  1.00  0.00    -0.153 C  
HETATM   23  C   UNL     1      -9.241   7.475  66.901  1.00  0.00    -0.149 C  
HETATM   24  N   UNL     1      -8.811   7.289  68.297  1.00  0.00    -0.128 NA 
HETATM   25  C   UNL     1      -9.041   8.430  69.204  1.00  0.00    -0.147 C  
HETATM   26  C   UNL     1     -10.391   9.152  68.950  1.00  0.00    -0.214 C  
BRANCH  24  27
HETATM   27  C   UNL     1      -8.794   6.012  68.793  1.00  0.00    -0.116 A  
HETATM   28  N   UNL     1      -9.541   5.630  69.827  1.00  0.00    -0.153 NA 
HETATM   29  S   UNL     1      -9.383   4.008  70.056  1.00  0.00    -0.188 SA 
HETATM   30  C   UNL     1      -8.314   3.726  68.747  1.00  0.00    -0.073 A  
HETATM   31  C   UNL     1      -7.773   2.514  68.287  1.00  0.00    -0.055 A  
HETATM   32  C   UNL     1      -6.924   2.542  67.179  1.00  0.00    -0.048 A  
HETATM   33  C   UNL     1      -6.624   3.743  66.548  1.00  0.00    -0.041 A  
HETATM   34  C   UNL     1      -7.179   4.943  67.008  1.00  0.00    -0.077 A  
HETATM   35  C   UNL     1      -8.040   4.953  68.137  1.00  0.00    -0.086 A  
ENDBRANCH  24  27
ENDBRANCH  20  21
ENDBRANCH  19  20
ENDBRANCH  13  14
ENDBRANCH  10  13
TORSDOF 5
ENDMDL
MODEL      247
REMARK 921   NORMALIZED FREE ENERGY PREDICTED BY IDOCK:   -1.53 KCAL/MOL
REMARK 922        TOTAL FREE ENERGY PREDICTED BY IDOCK:   -3.69 KCAL/MOL
REMARK 923 INTER-LIGAND FREE ENERGY PREDICTED BY IDOCK:   -3.89 KCAL/MOL
REMARK 924 INTRA-LIGAND FREE ENERGY PREDICTED BY IDOCK:    0.19 KCAL/MOL
REMARK 927      BINDING AFFINITY PREDICTED BY RF-SCORE:    0.00 PKD
ROOT
HETATM    1  C   UNL     1     -10.301  14.846  67.601  1.00  0.00    -0.242 C  
HETATM    2  C   UNL     1     -10.794  13.626  66.803  1.00  0.00    -0.291 C  
HETATM    3  C   UNL     1     -12.164  13.981  66.193  1.00  0.00    -0.494 C  
HETATM    4  C   UNL     1     -11.804  15.010  65.102  1.00  0.00    -0.195 C  
HETATM    5  C   UNL     1     -10.268  15.105  65.210  1.00  0.00    -0.400 C  
HETATM    6  C   UNL     1      -9.918  13.653  65.550  1.00  0.00    -0.244 C  
HETATM    7  C   UNL     1      -9.945  15.860  66.510  1.00  0.00    -0.286 C  
HETATM    8  C   UNL     1      -8.477  16.119  66.701  1.00  0.00    -0.280 C  
HETATM    9  O   UNL     1      -7.795  16.808  65.959  1.00  0.00    -0.330 OA 
HETATM   10  N   UNL     1      -8.048  15.434  67.802  1.00  0.00    -0.133 N  
HETATM   11  O   UNL     1      -8.844  13.755  69.188  1.00  0.00     0.194 OA 
HETATM   12  C   UNL     1      -9.002  14.598  68.317  1.00  0.00    -0.184 C  
ENDROOT
BRANCH  10  13
HETATM   13  C   UNL     1      -6.666  15.435  68.258  1.00  0.00    -0.119 C  
BRANCH  13  14
HETATM   14  C   UNL     1      -6.517  14.818  69.667  1.00  0.00    -0.150 C  
HETATM   15  C   UNL     1      -6.237  15.929  70.698  1.00  0.00     0.349 C  
HETATM   16  C   UNL     1      -6.159  15.377  72.115  1.00  0.00     1.294 C  
HETATM   17  C   UNL     1      -5.136  14.254  72.220  1.00  0.00    -0.212 C  
HETATM   18  C   UNL     1      -5.402  13.150  71.198  1.00  0.00    -0.193 C  
HETATM   19  C   UNL     1      -5.423  13.708  69.760  1.00  0.00    -0.094 C  
BRANCH  19  20
HETATM   20  C   UNL     1      -5.666  12.588  68.720  1.00  0.00    -0.062 C  
BRANCH  20  21
HETATM   21  N   UNL     1      -6.962  11.886  68.774  1.00  0.00    -0.098 NA 
HETATM   22  C   UNL     1      -7.285  11.322  67.434  1.00  0.00    -0.110 C  
HETATM   23  C   UNL     1      -6.305  10.226  66.965  1.00  0.00    -0.071 C  
HETATM   24  N   UNL     1      -6.201   9.130  67.943  1.00  0.00    -0.051 NA 
HETATM   25  C   UNL     1      -6.089   9.531  69.358  1.00  0.00    -0.036 C  
HETATM   26  C   UNL     1      -6.983  10.746  69.722  1.00  0.00    -0.141 C  
BRANCH  24  27
HETATM   27  C   UNL     1      -6.770   7.928  67.614  1.00  0.00    -0.068 A  
HETATM   28  N   UNL     1      -6.056   6.822  67.417  1.00  0.00    -0.030 NA 
HETATM   29  S   UNL     1      -7.065   5.543  67.187  1.00  0.00    -0.075 SA 
HETATM   30  C   UNL     1      -8.530   6.412  67.370  1.00  0.00    -0.108 A  
HETATM   31  C   UNL     1      -9.853   5.938  67.348  1.00  0.00    -0.145 A  
HETATM   32  C   UNL     1     -10.890   6.853  67.535  1.00  0.00    -0.363 A  
HETATM   33  C   UNL     1     -10.618   8.200  67.739  1.00  0.00    -0.233 A  
HETATM   34  C   UNL     1      -9.295   8.658  67.771  1.00  0.00    -0.157 A  
HETATM   35  C   UNL     1      -8.216   7.757  67.576  1.00  0.00    -0.124 A  
ENDBRANCH  24  27
ENDBRANCH  20  21
ENDBRANCH  19  20
ENDBRANCH  13  14
ENDBRANCH  10  13
TORSDOF 5
ENDMDL
MODEL      248
REMARK 921   NORMALIZED FREE ENERGY PREDICTED BY IDOCK:   -1.43 KCAL/MOL
REMARK 922        TOTAL FREE ENERGY PREDICTED BY IDOCK:   -3.57 KCAL/MOL
REMARK 923 INTER-LIGAND FREE ENERGY PREDICTED BY IDOCK:   -3.45 KCAL/MOL
REMARK 924 INTRA-LIGAND FREE ENERGY PREDICTED BY IDOCK:   -0.13 KCAL/MOL
REMARK 927      BINDING AFFINITY PREDICTED BY RF-SCORE:    0.00 PKD
ROOT
HETATM    1  C   UNL     1      -5.871  10.074  70.735  1.00  0.00    -0.091 C  
HETATM    2  C   UNL     1      -6.602  11.345  70.269  1.00  0.00     0.168 C  
HETATM    3  C   UNL     1      -5.551  12.307  69.679  1.00  0.00    -0.092 C  
HETATM    4  C   UNL     1      -5.145  11.614  68.363  1.00  0.00    -0.039 C  
HETATM    5  C   UNL     1      -6.025  10.348  68.351  1.00  0.00    -0.040 C  
HETATM    6  C   UNL     1      -7.308  10.890  68.990  1.00  0.00    -0.113 C  
HETATM    7  C   UNL     1      -5.473   9.394  69.423  1.00  0.00    -0.035 C  
HETATM    8  C   UNL     1      -6.175   8.066  69.459  1.00  0.00    -0.034 C  
HETATM    9  O   UNL     1      -6.182   7.263  68.538  1.00  0.00    -0.033 OA 
HETATM   10  N   UNL     1      -6.816   7.938  70.657  1.00  0.00    -0.041 N  
HETATM   11  O   UNL     1      -7.403   9.303  72.436  1.00  0.00    -0.166 OA 
HETATM   12  C   UNL     1      -6.781   9.083  71.407  1.00  0.00    -0.074 C  
ENDROOT
BRANCH  10  13
HETATM   13  C   UNL     1      -7.623   6.782  71.015  1.00  0.00    -0.085 C  
BRANCH  13  14
HETATM   14  C   UNL     1      -9.053   6.869  70.437  1.00  0.00    -0.156 C  
HETATM   15  C   UNL     1      -9.849   7.968  71.169  1.00  0.00    -0.198 C  
HETATM   16  C   UNL     1     -11.243   8.143  70.581  1.00  0.00    -0.268 C  
HETATM   17  C   UNL     1     -12.008   6.827  70.559  1.00  0.00    -0.385 C  
HETATM   18  C   UNL     1     -11.226   5.730  69.841  1.00  0.00    -0.193 C  
HETATM   19  C   UNL     1      -9.837   5.519  70.478  1.00  0.00    -0.254 C  
BRANCH  19  20
HETATM   20  C   UNL     1      -9.052   4.390  69.769  1.00  0.00    -0.112 C  
BRANCH  20  21
HETATM   21  N   UNL     1      -8.195   4.774  68.631  1.00  0.00    -0.083 NA 
HETATM   22  C   UNL     1      -7.439   3.586  68.146  1.00  0.00    -0.057 C  
HETATM   23  C   UNL     1      -8.333   2.474  67.559  1.00  0.00    -0.084 C  
HETATM   24  N   UNL     1      -9.194   2.978  66.476  1.00  0.00    -0.150 NA 
HETATM   25  C   UNL     1      -9.856   4.273  66.724  1.00  0.00    -0.205 C  
HETATM   26  C   UNL     1      -8.950   5.292  67.465  1.00  0.00    -0.108 C  
BRANCH  24  27
HETATM   27  C   UNL     1      -8.897   2.594  65.195  1.00  0.00    -0.125 A  
HETATM   28  N   UNL     1      -9.765   1.955  64.414  1.00  0.00    -0.096 NA 
HETATM   29  S   UNL     1      -9.132   1.783  62.906  1.00  0.00    -0.087 SA 
HETATM   30  C   UNL     1      -7.654   2.592  63.218  1.00  0.00    -0.062 A  
HETATM   31  C   UNL     1      -6.597   2.880  62.339  1.00  0.00    -0.018 A  
HETATM   32  C   UNL     1      -5.489   3.570  62.835  1.00  0.00    -0.008 A  
HETATM   33  C   UNL     1      -5.437   3.961  64.167  1.00  0.00    -0.013 A  
HETATM   34  C   UNL     1      -6.503   3.678  65.030  1.00  0.00    -0.035 A  
HETATM   35  C   UNL     1      -7.641   2.971  64.562  1.00  0.00    -0.076 A  
ENDBRANCH  24  27
ENDBRANCH  20  21
ENDBRANCH  19  20
ENDBRANCH  13  14
ENDBRANCH  10  13
TORSDOF 5
ENDMDL
MODEL      249
REMARK 921   NORMALIZED FREE ENERGY PREDICTED BY IDOCK:   -1.35 KCAL/MOL
REMARK 922        TOTAL FREE ENERGY PREDICTED BY IDOCK:   -3.47 KCAL/MOL
REMARK 923 INTER-LIGAND FREE ENERGY PREDICTED BY IDOCK:   -4.46 KCAL/MOL
REMARK 924 INTRA-LIGAND FREE ENERGY PREDICTED BY IDOCK:    1.00 KCAL/MOL
REMARK 927      BINDING AFFINITY PREDICTED BY RF-SCORE:    0.00 PKD
ROOT
HETATM    1  C   UNL     1      -7.966   7.426  64.116  1.00  0.00    -0.092 C  
HETATM    2  C   UNL     1      -7.639   8.383  62.956  1.00  0.00    -0.120 C  
HETATM    3  C   UNL     1      -8.241   9.761  63.294  1.00  0.00    -0.155 C  
HETATM    4  C   UNL     1      -7.342  10.260  64.444  1.00  0.00    -0.075 C  
HETATM    5  C   UNL     1      -6.325   9.113  64.612  1.00  0.00    -0.071 C  
HETATM    6  C   UNL     1      -6.150   8.675  63.155  1.00  0.00    -0.086 C  
HETATM    7  C   UNL     1      -7.069   7.929  65.251  1.00  0.00    -0.060 C  
HETATM    8  C   UNL     1      -6.176   6.763  65.569  1.00  0.00    -0.039 C  
HETATM    9  O   UNL     1      -5.250   6.800  66.364  1.00  0.00    -0.016 OA 
HETATM   10  N   UNL     1      -6.551   5.698  64.802  1.00  0.00    -0.041 N  
HETATM   11  O   UNL     1      -7.895   5.310  62.954  1.00  0.00    -0.069 OA 
HETATM   12  C   UNL     1      -7.499   6.018  63.869  1.00  0.00    -0.080 C  
ENDROOT
BRANCH  10  13
HETATM   13  C   UNL     1      -5.873   4.410  64.833  1.00  0.00    -0.018 C  
BRANCH  13  14
HETATM   14  C   UNL     1      -6.858   3.239  65.049  1.00  0.00    -0.041 C  
HETATM   15  C   UNL     1      -7.381   2.737  63.688  1.00  0.00    -0.060 C  
HETATM   16  C   UNL     1      -8.298   1.531  63.846  1.00  0.00    -0.072 C  
HETATM   17  C   UNL     1      -9.443   1.823  64.806  1.00  0.00    -0.055 C  
HETATM   18  C   UNL     1      -8.935   2.327  66.155  1.00  0.00    -0.111 C  
HETATM   19  C   UNL     1      -8.054   3.582  65.992  1.00  0.00    -0.093 C  
BRANCH  19  20
HETATM   20  C   UNL     1      -7.559   4.110  67.360  1.00  0.00    -0.076 C  
BRANCH  20  21
HETATM   21  N   UNL     1      -7.740   5.548  67.634  1.00  0.00    -0.092 NA 
HETATM   22  C   UNL     1      -9.113   5.969  67.237  1.00  0.00    -0.111 C  
HETATM   23  C   UNL     1     -10.233   5.304  68.064  1.00  0.00    -0.143 C  
HETATM   24  N   UNL     1     -10.054   5.529  69.508  1.00  0.00    -0.211 NA 
HETATM   25  C   UNL     1      -8.683   5.359  70.026  1.00  0.00    -0.122 C  
HETATM   26  C   UNL     1      -7.593   5.905  69.066  1.00  0.00    -0.090 C  
BRANCH  24  27
HETATM   27  C   UNL     1     -10.919   6.390  70.130  1.00  0.00    -0.334 A  
HETATM   28  N   UNL     1     -11.844   5.981  70.997  1.00  0.00    -0.019 NA 
HETATM   29  S   UNL     1     -12.601   7.284  71.657  1.00  0.00    -0.370 SA 
HETATM   30  C   UNL     1     -11.697   8.480  70.825  1.00  0.00    -0.205 A  
HETATM   31  C   UNL     1     -11.766   9.879  70.932  1.00  0.00    -0.449 A  
HETATM   32  C   UNL     1     -10.905  10.649  70.147  1.00  0.00    -0.224 A  
HETATM   33  C   UNL     1     -10.003  10.042  69.282  1.00  0.00    -0.226 A  
HETATM   34  C   UNL     1      -9.936   8.646  69.194  1.00  0.00    -0.193 A  
HETATM   35  C   UNL     1     -10.801   7.833  69.971  1.00  0.00    -0.243 A  
ENDBRANCH  24  27
ENDBRANCH  20  21
ENDBRANCH  19  20
ENDBRANCH  13  14
ENDBRANCH  10  13
TORSDOF 5
ENDMDL
MODEL      250
REMARK 921   NORMALIZED FREE ENERGY PREDICTED BY IDOCK:   -1.20 KCAL/MOL
REMARK 922        TOTAL FREE ENERGY PREDICTED BY IDOCK:   -3.28 KCAL/MOL
REMARK 923 INTER-LIGAND FREE ENERGY PREDICTED BY IDOCK:   -4.34 KCAL/MOL
REMARK 924 INTRA-LIGAND FREE ENERGY PREDICTED BY IDOCK:    1.06 KCAL/MOL
REMARK 927      BINDING AFFINITY PREDICTED BY RF-SCORE:    0.00 PKD
ROOT
HETATM    1  C   UNL     1      -9.143  17.265  67.761  1.00  0.00    -0.235 C  
HETATM    2  C   UNL     1      -9.202  18.801  67.686  1.00  0.00    -0.310 C  
HETATM    3  C   UNL     1      -7.754  19.329  67.649  1.00  0.00    -0.288 C  
HETATM    4  C   UNL     1      -7.267  18.912  66.246  1.00  0.00    -0.274 C  
HETATM    5  C   UNL     1      -8.502  18.211  65.645  1.00  0.00     0.602 C  
HETATM    6  C   UNL     1      -9.628  19.062  66.240  1.00  0.00    -0.367 C  
HETATM    7  C   UNL     1      -8.661  16.862  66.365  1.00  0.00    -0.328 C  
HETATM    8  C   UNL     1      -9.773  16.016  65.812  1.00  0.00    -0.305 C  
HETATM    9  O   UNL     1      -9.806  15.578  64.672  1.00  0.00    -0.005 OA 
HETATM   10  N   UNL     1     -10.730  15.862  66.773  1.00  0.00    -0.311 N  
HETATM   11  O   UNL     1     -11.266  16.811  68.819  1.00  0.00    -0.273 OA 
HETATM   12  C   UNL     1     -10.500  16.628  67.884  1.00  0.00    -0.322 C  
ENDROOT
BRANCH  10  13
HETATM   13  C   UNL     1     -11.966  15.123  66.562  1.00  0.00     0.161 C  
BRANCH  13  14
HETATM   14  C   UNL     1     -11.840  14.091  65.419  1.00  0.00    -0.363 C  
HETATM   15  C   UNL     1     -13.201  13.918  64.717  1.00  0.00     0.462 C  
HETATM   16  C   UNL     1     -13.109  12.965  63.533  1.00  0.00     0.555 C  
HETATM   17  C   UNL     1     -12.522  11.621  63.943  1.00  0.00    -0.223 C  
HETATM   18  C   UNL     1     -11.175  11.783  64.644  1.00  0.00    -0.349 C  
HETATM   19  C   UNL     1     -11.289  12.704  65.876  1.00  0.00    -0.373 C  
BRANCH  19  20
HETATM   20  C   UNL     1      -9.932  12.848  66.605  1.00  0.00    -0.251 C  
BRANCH  20  21
HETATM   21  N   UNL     1      -8.910  11.817  66.341  1.00  0.00    -0.191 NA 
HETATM   22  C   UNL     1      -7.606  12.239  66.925  1.00  0.00     0.004 C  
HETATM   23  C   UNL     1      -7.617  12.344  68.464  1.00  0.00    -0.122 C  
HETATM   24  N   UNL     1      -8.049  11.087  69.096  1.00  0.00    -0.107 NA 
HETATM   25  C   UNL     1      -9.219  10.424  68.488  1.00  0.00    -0.145 C  
HETATM   26  C   UNL     1      -9.227  10.498  66.938  1.00  0.00    -0.155 C  
BRANCH  24  27
HETATM   27  C   UNL     1      -7.101  10.342  69.747  1.00  0.00    -0.148 A  
HETATM   28  N   UNL     1      -6.085  10.890  70.410  1.00  0.00    -0.172 NA 
HETATM   29  S   UNL     1      -5.233   9.717  71.187  1.00  0.00    -0.056 SA 
HETATM   30  C   UNL     1      -6.211   8.400  70.691  1.00  0.00    -0.036 A  
HETATM   31  C   UNL     1      -6.108   7.040  71.029  1.00  0.00    -0.036 A  
HETATM   32  C   UNL     1      -7.046   6.151  70.500  1.00  0.00    -0.071 A  
HETATM   33  C   UNL     1      -8.055   6.604  69.660  1.00  0.00    -0.126 A  
HETATM   34  C   UNL     1      -8.154   7.963  69.341  1.00  0.00    -0.125 A  
HETATM   35  C   UNL     1      -7.214   8.894  69.854  1.00  0.00    -0.052 A  
ENDBRANCH  24  27
ENDBRANCH  20  21
ENDBRANCH  19  20
ENDBRANCH  13  14
ENDBRANCH  10  13
TORSDOF 5
ENDMDL
MODEL      251
REMARK 921   NORMALIZED FREE ENERGY PREDICTED BY IDOCK:   -1.13 KCAL/MOL
REMARK 922        TOTAL FREE ENERGY PREDICTED BY IDOCK:   -3.19 KCAL/MOL
REMARK 923 INTER-LIGAND FREE ENERGY PREDICTED BY IDOCK:   -5.34 KCAL/MOL
REMARK 924 INTRA-LIGAND FREE ENERGY PREDICTED BY IDOCK:    2.15 KCAL/MOL
REMARK 927      BINDING AFFINITY PREDICTED BY RF-SCORE:    0.00 PKD
ROOT
HETATM    1  C   UNL     1     -10.739   7.232  71.184  1.00  0.00    -0.244 C  
HETATM    2  C   UNL     1     -10.066   8.265  72.105  1.00  0.00    -0.344 C  
HETATM    3  C   UNL     1     -10.412   7.897  73.562  1.00  0.00     0.026 C  
HETATM    4  C   UNL     1      -9.597   6.610  73.799  1.00  0.00    -0.226 C  
HETATM    5  C   UNL     1      -8.871   6.407  72.453  1.00  0.00    -0.134 C  
HETATM    6  C   UNL     1      -8.591   7.861  72.061  1.00  0.00    -0.173 C  
HETATM    7  C   UNL     1      -9.923   5.959  71.426  1.00  0.00    -0.228 C  
HETATM    8  C   UNL     1      -9.340   5.625  70.081  1.00  0.00    -0.154 C  
HETATM    9  O   UNL     1      -8.545   4.720  69.879  1.00  0.00    -0.074 OA 
HETATM   10  N   UNL     1      -9.818   6.512  69.160  1.00  0.00    -0.143 N  
HETATM   11  O   UNL     1     -10.946   8.537  69.163  1.00  0.00    -0.090 OA 
HETATM   12  C   UNL     1     -10.543   7.528  69.723  1.00  0.00    -0.241 C  
ENDROOT
BRANCH  10  13
HETATM   13  C   UNL     1      -9.431   6.498  67.758  1.00  0.00    -0.119 C  
BRANCH  13  14
HETATM   14  C   UNL     1      -8.003   7.048  67.542  1.00  0.00    -0.113 C  
HETATM   15  C   UNL     1      -6.972   6.100  68.185  1.00  0.00    -0.080 C  
HETATM   16  C   UNL     1      -5.544   6.563  67.932  1.00  0.00    -0.008 C  
HETATM   17  C   UNL     1      -5.334   8.000  68.389  1.00  0.00    -0.032 C  
HETATM   18  C   UNL     1      -6.355   8.947  67.762  1.00  0.00    -0.056 C  
HETATM   19  C   UNL     1      -7.799   8.503  68.071  1.00  0.00    -0.103 C  
BRANCH  19  20
HETATM   20  C   UNL     1      -8.835   9.476  67.459  1.00  0.00    -0.125 C  
BRANCH  20  21
HETATM   21  N   UNL     1      -8.374  10.353  66.365  1.00  0.00    -0.135 NA 
HETATM   22  C   UNL     1      -9.468  11.286  65.973  1.00  0.00    -0.216 C  
HETATM   23  C   UNL     1      -9.870  12.280  67.083  1.00  0.00    -0.203 C  
HETATM   24  N   UNL     1      -8.716  13.058  67.564  1.00  0.00    -0.185 NA 
HETATM   25  C   UNL     1      -7.474  12.298  67.799  1.00  0.00    -0.126 C  
HETATM   26  C   UNL     1      -7.215  11.202  66.731  1.00  0.00    -0.146 C  
BRANCH  24  27
HETATM   27  C   UNL     1      -8.655  14.383  67.222  1.00  0.00    -0.215 A  
HETATM   28  N   UNL     1      -9.686  15.039  66.693  1.00  0.00    -0.246 NA 
HETATM   29  S   UNL     1      -9.312  16.634  66.546  1.00  0.00    -0.283 SA 
HETATM   30  C   UNL     1      -7.739  16.532  67.219  1.00  0.00    -0.164 A  
HETATM   31  C   UNL     1      -6.810  17.556  67.466  1.00  0.00    -0.176 A  
HETATM   32  C   UNL     1      -5.584  17.217  68.042  1.00  0.00    -0.118 A  
HETATM   33  C   UNL     1      -5.293  15.897  68.361  1.00  0.00    -0.103 A  
HETATM   34  C   UNL     1      -6.231  14.887  68.120  1.00  0.00    -0.144 A  
HETATM   35  C   UNL     1      -7.485  15.194  67.530  1.00  0.00    -0.223 A  
ENDBRANCH  24  27
ENDBRANCH  20  21
ENDBRANCH  19  20
ENDBRANCH  13  14
ENDBRANCH  10  13
TORSDOF 5
ENDMDL
MODEL      252
REMARK 921   NORMALIZED FREE ENERGY PREDICTED BY IDOCK:   -1.12 KCAL/MOL
REMARK 922        TOTAL FREE ENERGY PREDICTED BY IDOCK:   -3.17 KCAL/MOL
REMARK 923 INTER-LIGAND FREE ENERGY PREDICTED BY IDOCK:   -4.57 KCAL/MOL
REMARK 924 INTRA-LIGAND FREE ENERGY PREDICTED BY IDOCK:    1.40 KCAL/MOL
REMARK 927      BINDING AFFINITY PREDICTED BY RF-SCORE:    0.00 PKD
ROOT
HETATM    1  C   UNL     1      -7.993   7.793  65.421  1.00  0.00    -0.125 C  
HETATM    2  C   UNL     1      -8.024   6.968  64.122  1.00  0.00    -0.079 C  
HETATM    3  C   UNL     1      -6.938   7.526  63.181  1.00  0.00    -0.068 C  
HETATM    4  C   UNL     1      -5.627   7.085  63.862  1.00  0.00    -0.032 C  
HETATM    5  C   UNL     1      -6.123   6.314  65.102  1.00  0.00    -0.030 C  
HETATM    6  C   UNL     1      -7.379   5.645  64.535  1.00  0.00    -0.068 C  
HETATM    7  C   UNL     1      -6.690   7.348  66.090  1.00  0.00    -0.053 C  
HETATM    8  C   UNL     1      -7.123   6.748  67.398  1.00  0.00    -0.084 C  
HETATM    9  O   UNL     1      -6.374   6.191  68.184  1.00  0.00    -0.039 OA 
HETATM   10  N   UNL     1      -8.474   6.902  67.528  1.00  0.00    -0.122 N  
HETATM   11  O   UNL     1     -10.266   7.481  66.176  1.00  0.00     0.093 OA 
HETATM   12  C   UNL     1      -9.066   7.397  66.397  1.00  0.00    -0.160 C  
ENDROOT
BRANCH  10  13
HETATM   13  C   UNL     1      -9.231   6.406  68.667  1.00  0.00    -0.125 C  
BRANCH  13  14
HETATM   14  C   UNL     1      -8.398   6.412  69.968  1.00  0.00    -0.130 C  
HETATM   15  C   UNL     1      -7.889   4.989  70.272  1.00  0.00    -0.070 C  
HETATM   16  C   UNL     1      -6.998   4.959  71.506  1.00  0.00    -0.048 C  
HETATM   17  C   UNL     1      -7.698   5.566  72.714  1.00  0.00    -0.098 C  
HETATM   18  C   UNL     1      -8.211   6.974  72.421  1.00  0.00    -0.111 C  
HETATM   19  C   UNL     1      -9.158   6.987  71.204  1.00  0.00    -0.153 C  
BRANCH  19  20
HETATM   20  C   UNL     1      -9.701   8.409  70.922  1.00  0.00    -0.174 C  
BRANCH  20  21
HETATM   21  N   UNL     1     -10.132   8.705  69.542  1.00  0.00    -0.197 NA 
HETATM   22  C   UNL     1     -11.519   9.250  69.554  1.00  0.00     0.216 C  
HETATM   23  C   UNL     1     -11.647  10.612  70.269  1.00  0.00    -0.336 C  
HETATM   24  N   UNL     1     -10.733  11.617  69.700  1.00  0.00     0.041 NA 
HETATM   25  C   UNL     1      -9.357  11.161  69.426  1.00  0.00     0.292 C  
HETATM   26  C   UNL     1      -9.292   9.717  68.859  1.00  0.00    -0.158 C  
BRANCH  24  27
HETATM   27  C   UNL     1     -11.282  12.627  68.954  1.00  0.00    -0.280 A  
HETATM   28  N   UNL     1     -11.577  13.821  69.464  1.00  0.00    -0.285 NA 
HETATM   29  S   UNL     1     -12.078  14.828  68.264  1.00  0.00    -0.045 SA 
HETATM   30  C   UNL     1     -11.895  13.710  66.978  1.00  0.00    -0.408 A  
HETATM   31  C   UNL     1     -12.100  13.899  65.601  1.00  0.00    -0.442 A  
HETATM   32  C   UNL     1     -11.869  12.823  64.741  1.00  0.00    -0.423 A  
HETATM   33  C   UNL     1     -11.447  11.597  65.238  1.00  0.00    -0.173 A  
HETATM   34  C   UNL     1     -11.236  11.425  66.612  1.00  0.00    -0.298 A  
HETATM   35  C   UNL     1     -11.467  12.494  67.516  1.00  0.00    -0.397 A  
ENDBRANCH  24  27
ENDBRANCH  20  21
ENDBRANCH  19  20
ENDBRANCH  13  14
ENDBRANCH  10  13
TORSDOF 5
ENDMDL
MODEL      253
REMARK 921   NORMALIZED FREE ENERGY PREDICTED BY IDOCK:   -1.09 KCAL/MOL
REMARK 922        TOTAL FREE ENERGY PREDICTED BY IDOCK:   -3.13 KCAL/MOL
REMARK 923 INTER-LIGAND FREE ENERGY PREDICTED BY IDOCK:   -5.01 KCAL/MOL
REMARK 924 INTRA-LIGAND FREE ENERGY PREDICTED BY IDOCK:    1.88 KCAL/MOL
REMARK 927      BINDING AFFINITY PREDICTED BY RF-SCORE:    0.00 PKD
ROOT
HETATM    1  C   UNL     1     -10.992   7.305  69.036  1.00  0.00    -0.077 C  
HETATM    2  C   UNL     1     -11.061   8.591  69.878  1.00  0.00    -0.114 C  
HETATM    3  C   UNL     1     -12.034   8.341  71.047  1.00  0.00    -0.260 C  
HETATM    4  C   UNL     1     -11.255   7.358  71.944  1.00  0.00    -0.282 C  
HETATM    5  C   UNL     1      -9.923   7.179  71.187  1.00  0.00    -0.187 C  
HETATM    6  C   UNL     1      -9.726   8.589  70.624  1.00  0.00    -0.207 C  
HETATM    7  C   UNL     1     -10.217   6.337  69.934  1.00  0.00    -0.232 C  
HETATM    8  C   UNL     1      -8.986   5.993  69.143  1.00  0.00    -0.124 C  
HETATM    9  O   UNL     1      -8.063   5.313  69.563  1.00  0.00    -0.091 OA 
HETATM   10  N   UNL     1      -9.066   6.593  67.919  1.00  0.00    -0.115 N  
HETATM   11  O   UNL     1     -10.353   8.230  66.899  1.00  0.00    -0.298 OA 
HETATM   12  C   UNL     1     -10.132   7.446  67.811  1.00  0.00    -0.184 C  
ENDROOT
BRANCH  10  13
HETATM   13  C   UNL     1      -8.024   6.496  66.909  1.00  0.00    -0.112 C  
BRANCH  13  14
HETATM   14  C   UNL     1      -8.078   7.667  65.902  1.00  0.00    -0.122 C  
HETATM   15  C   UNL     1      -8.384   7.130  64.490  1.00  0.00     0.085 C  
HETATM   16  C   UNL     1      -8.522   8.256  63.475  1.00  0.00     0.056 C  
HETATM   17  C   UNL     1      -7.295   9.157  63.470  1.00  0.00    -0.097 C  
HETATM   18  C   UNL     1      -6.980   9.690  64.867  1.00  0.00    -0.113 C  
HETATM   19  C   UNL     1      -6.784   8.541  65.877  1.00  0.00    -0.057 C  
BRANCH  19  20
HETATM   20  C   UNL     1      -6.439   9.077  67.287  1.00  0.00    -0.061 C  
BRANCH  20  21
HETATM   21  N   UNL     1      -7.526   9.717  68.051  1.00  0.00    -0.082 NA 
HETATM   22  C   UNL     1      -6.950  10.604  69.101  1.00  0.00    -0.085 C  
HETATM   23  C   UNL     1      -6.156  11.802  68.539  1.00  0.00    -0.050 C  
HETATM   24  N   UNL     1      -6.966  12.609  67.610  1.00  0.00    -0.125 NA 
HETATM   25  C   UNL     1      -7.773  11.856  66.632  1.00  0.00     0.018 C  
HETATM   26  C   UNL     1      -8.412  10.572  67.225  1.00  0.00    -0.122 C  
BRANCH  24  27
HETATM   27  C   UNL     1      -7.379  13.844  68.035  1.00  0.00    -0.141 A  
HETATM   28  N   UNL     1      -6.755  14.521  68.997  1.00  0.00    -0.098 NA 
HETATM   29  S   UNL     1      -7.425  16.016  69.147  1.00  0.00    -0.220 SA 
HETATM   30  C   UNL     1      -8.581  15.841  67.895  1.00  0.00    -0.159 A  
HETATM   31  C   UNL     1      -9.509  16.776  67.405  1.00  0.00    -0.236 A  
HETATM   32  C   UNL     1     -10.347  16.394  66.356  1.00  0.00    -0.319 A  
HETATM   33  C   UNL     1     -10.264  15.118  65.812  1.00  0.00    -0.365 A  
HETATM   34  C   UNL     1      -9.328  14.199  66.301  1.00  0.00    -0.215 A  
HETATM   35  C   UNL     1      -8.465  14.551  67.372  1.00  0.00    -0.220 A  
ENDBRANCH  24  27
ENDBRANCH  20  21
ENDBRANCH  19  20
ENDBRANCH  13  14
ENDBRANCH  10  13
TORSDOF 5
ENDMDL
MODEL      254
REMARK 921   NORMALIZED FREE ENERGY PREDICTED BY IDOCK:   -1.01 KCAL/MOL
REMARK 922        TOTAL FREE ENERGY PREDICTED BY IDOCK:   -3.03 KCAL/MOL
REMARK 923 INTER-LIGAND FREE ENERGY PREDICTED BY IDOCK:   -4.89 KCAL/MOL
REMARK 924 INTRA-LIGAND FREE ENERGY PREDICTED BY IDOCK:    1.87 KCAL/MOL
REMARK 927      BINDING AFFINITY PREDICTED BY RF-SCORE:    0.00 PKD
ROOT
HETATM    1  C   UNL     1      -7.977   5.914  69.850  1.00  0.00    -0.104 C  
HETATM    2  C   UNL     1      -8.810   5.060  70.821  1.00  0.00    -0.156 C  
HETATM    3  C   UNL     1      -7.843   4.407  71.828  1.00  0.00    -0.087 C  
HETATM    4  C   UNL     1      -7.383   5.599  72.692  1.00  0.00    -0.095 C  
HETATM    5  C   UNL     1      -8.156   6.786  72.084  1.00  0.00    -0.100 C  
HETATM    6  C   UNL     1      -9.478   6.104  71.717  1.00  0.00    -0.162 C  
HETATM    7  C   UNL     1      -7.526   7.094  70.716  1.00  0.00    -0.080 C  
HETATM    8  C   UNL     1      -8.117   8.301  70.044  1.00  0.00    -0.116 C  
HETATM    9  O   UNL     1      -8.059   9.437  70.490  1.00  0.00    -0.161 OA 
HETATM   10  N   UNL     1      -8.743   7.906  68.897  1.00  0.00    -0.135 N  
HETATM   11  O   UNL     1      -9.438   5.919  67.927  1.00  0.00    -0.110 OA 
HETATM   12  C   UNL     1      -8.801   6.545  68.762  1.00  0.00    -0.125 C  
ENDROOT
BRANCH  10  13
HETATM   13  C   UNL     1      -9.453   8.820  68.016  1.00  0.00    -0.143 C  
BRANCH  13  14
HETATM   14  C   UNL     1     -10.247   9.888  68.801  1.00  0.00    -0.205 C  
HETATM   15  C   UNL     1     -11.671   9.374  69.091  1.00  0.00     0.594 C  
HETATM   16  C   UNL     1     -12.468  10.363  69.931  1.00  0.00    -0.123 C  
HETATM   17  C   UNL     1     -12.498  11.743  69.288  1.00  0.00     0.148 C  
HETATM   18  C   UNL     1     -11.092  12.259  68.992  1.00  0.00    -0.289 C  
HETATM   19  C   UNL     1     -10.310  11.279  68.094  1.00  0.00    -0.205 C  
BRANCH  19  20
HETATM   20  C   UNL     1      -8.894  11.811  67.770  1.00  0.00    -0.163 C  
BRANCH  20  21
HETATM   21  N   UNL     1      -8.792  12.906  66.786  1.00  0.00    -0.187 NA 
HETATM   22  C   UNL     1      -9.974  13.805  66.910  1.00  0.00    -0.264 C  
HETATM   23  C   UNL     1     -10.055  14.546  68.261  1.00  0.00    -0.232 C  
HETATM   24  N   UNL     1      -8.829  15.312  68.541  1.00  0.00    -0.177 NA 
HETATM   25  C   UNL     1      -7.555  14.621  68.260  1.00  0.00    -0.118 C  
HETATM   26  C   UNL     1      -7.596  13.762  66.969  1.00  0.00     0.248 C  
BRANCH  24  27
HETATM   27  C   UNL     1      -8.900  16.677  68.463  1.00  0.00    -0.235 A  
HETATM   28  N   UNL     1     -10.000  17.321  68.078  1.00  0.00    -0.290 NA 
HETATM   29  S   UNL     1      -9.780  18.943  68.243  1.00  0.00    -0.384 SA 
HETATM   30  C   UNL     1      -8.189  18.864  68.875  1.00  0.00    -0.244 A  
HETATM   31  C   UNL     1      -7.354  19.906  69.312  1.00  0.00    -0.191 A  
HETATM   32  C   UNL     1      -6.088  19.581  69.803  1.00  0.00    -0.323 A  
HETATM   33  C   UNL     1      -5.667  18.259  69.857  1.00  0.00    -0.246 A  
HETATM   34  C   UNL     1      -6.513  17.228  69.429  1.00  0.00    -0.235 A  
HETATM   35  C   UNL     1      -7.804  17.522  68.917  1.00  0.00    -0.197 A  
ENDBRANCH  24  27
ENDBRANCH  20  21
ENDBRANCH  19  20
ENDBRANCH  13  14
ENDBRANCH  10  13
TORSDOF 5
ENDMDL
MODEL      255
REMARK 921   NORMALIZED FREE ENERGY PREDICTED BY IDOCK:   -0.86 KCAL/MOL
REMARK 922        TOTAL FREE ENERGY PREDICTED BY IDOCK:   -2.84 KCAL/MOL
REMARK 923 INTER-LIGAND FREE ENERGY PREDICTED BY IDOCK:   -2.31 KCAL/MOL
REMARK 924 INTRA-LIGAND FREE ENERGY PREDICTED BY IDOCK:   -0.53 KCAL/MOL
REMARK 927      BINDING AFFINITY PREDICTED BY RF-SCORE:    0.00 PKD
ROOT
HETATM    1  C   UNL     1      -5.125   7.779  72.432  1.00  0.00    -0.036 C  
HETATM    2  C   UNL     1      -6.137   8.882  72.791  1.00  0.00    -0.020 C  
HETATM    3  C   UNL     1      -5.532  10.235  72.370  1.00  0.00     0.319 C  
HETATM    4  C   UNL     1      -5.586  10.178  70.830  1.00  0.00    -0.086 C  
HETATM    5  C   UNL     1      -6.232   8.804  70.558  1.00  0.00    -0.037 C  
HETATM    6  C   UNL     1      -7.221   8.720  71.724  1.00  0.00    -0.076 C  
HETATM    7  C   UNL     1      -5.187   7.729  70.903  1.00  0.00    -0.026 C  
HETATM    8  C   UNL     1      -5.643   6.331  70.590  1.00  0.00    -0.018 C  
HETATM    9  O   UNL     1      -5.906   5.925  69.469  1.00  0.00    -0.018 OA 
HETATM   10  N   UNL     1      -5.744   5.629  71.757  1.00  0.00    -0.020 N  
HETATM   11  O   UNL     1      -5.760   6.083  74.030  1.00  0.00    -0.050 OA 
HETATM   12  C   UNL     1      -5.566   6.409  72.867  1.00  0.00    -0.038 C  
ENDROOT
BRANCH  10  13
HETATM   13  C   UNL     1      -6.192   4.246  71.824  1.00  0.00    -0.018 C  
BRANCH  13  14
HETATM   14  C   UNL     1      -7.730   4.128  71.724  1.00  0.00    -0.074 C  
HETATM   15  C   UNL     1      -8.371   4.467  73.085  1.00  0.00    -0.095 C  
HETATM   16  C   UNL     1      -9.892   4.437  73.015  1.00  0.00    -0.180 C  
HETATM   17  C   UNL     1     -10.400   3.105  72.481  1.00  0.00    -0.181 C  
HETATM   18  C   UNL     1      -9.766   2.757  71.136  1.00  0.00    -0.184 C  
HETATM   19  C   UNL     1      -8.227   2.733  71.228  1.00  0.00    -0.075 C  
BRANCH  19  20
HETATM   20  C   UNL     1      -7.582   2.355  69.873  1.00  0.00    -0.043 C  
BRANCH  20  21
HETATM   21  N   UNL     1      -7.414   3.434  68.880  1.00  0.00    -0.049 NA 
HETATM   22  C   UNL     1      -6.631   2.931  67.717  1.00  0.00    -0.037 C  
HETATM   23  C   UNL     1      -7.345   1.820  66.918  1.00  0.00    -0.055 C  
HETATM   24  N   UNL     1      -8.678   2.245  66.461  1.00  0.00    -0.116 NA 
HETATM   25  C   UNL     1      -9.506   2.960  67.451  1.00  0.00    -0.088 C  
HETATM   26  C   UNL     1      -8.693   3.945  68.333  1.00  0.00    -0.101 C  
BRANCH  24  27
HETATM   27  C   UNL     1      -8.843   2.491  65.123  1.00  0.00    -0.120 A  
HETATM   28  N   UNL     1      -9.410   1.617  64.294  1.00  0.00    -0.124 NA 
HETATM   29  S   UNL     1      -9.579   2.295  62.804  1.00  0.00    -0.089 SA 
HETATM   30  C   UNL     1      -8.919   3.824  63.207  1.00  0.00    -0.103 A  
HETATM   31  C   UNL     1      -8.784   4.972  62.407  1.00  0.00    -0.120 A  
HETATM   32  C   UNL     1      -8.219   6.115  62.975  1.00  0.00    -0.032 A  
HETATM   33  C   UNL     1      -7.800   6.114  64.299  1.00  0.00    -0.114 A  
HETATM   34  C   UNL     1      -7.951   4.969  65.089  1.00  0.00    -0.103 A  
HETATM   35  C   UNL     1      -8.515   3.786  64.543  1.00  0.00    -0.097 A  
ENDBRANCH  24  27
ENDBRANCH  20  21
ENDBRANCH  19  20
ENDBRANCH  13  14
ENDBRANCH  10  13
TORSDOF 5
ENDMDL
MODEL      256
REMARK 921   NORMALIZED FREE ENERGY PREDICTED BY IDOCK:   -0.72 KCAL/MOL
REMARK 922        TOTAL FREE ENERGY PREDICTED BY IDOCK:   -2.66 KCAL/MOL
REMARK 923 INTER-LIGAND FREE ENERGY PREDICTED BY IDOCK:   -4.12 KCAL/MOL
REMARK 924 INTRA-LIGAND FREE ENERGY PREDICTED BY IDOCK:    1.47 KCAL/MOL
REMARK 927      BINDING AFFINITY PREDICTED BY RF-SCORE:    0.00 PKD
ROOT
HETATM    1  C   UNL     1      -8.387   8.437  65.730  1.00  0.00    -0.150 C  
HETATM    2  C   UNL     1      -8.165   8.451  64.208  1.00  0.00    -0.130 C  
HETATM    3  C   UNL     1      -7.740   9.876  63.804  1.00  0.00    -0.143 C  
HETATM    4  C   UNL     1      -6.314   9.992  64.382  1.00  0.00    -0.131 C  
HETATM    5  C   UNL     1      -6.092   8.611  65.032  1.00  0.00    -0.060 C  
HETATM    6  C   UNL     1      -6.837   7.709  64.043  1.00  0.00    -0.054 C  
HETATM    7  C   UNL     1      -6.968   8.550  66.295  1.00  0.00    -0.077 C  
HETATM    8  C   UNL     1      -6.778   7.291  67.093  1.00  0.00    -0.068 C  
HETATM    9  O   UNL     1      -5.730   6.964  67.627  1.00  0.00    -0.018 OA 
HETATM   10  N   UNL     1      -7.945   6.582  67.083  1.00  0.00    -0.111 N  
HETATM   11  O   UNL     1      -9.947   6.603  65.915  1.00  0.00     0.228 OA 
HETATM   12  C   UNL     1      -8.885   7.113  66.242  1.00  0.00    -0.148 C  
ENDROOT
BRANCH  10  13
HETATM   13  C   UNL     1      -8.104   5.291  67.735  1.00  0.00    -0.099 C  
BRANCH  13  14
HETATM   14  C   UNL     1      -7.206   5.156  68.985  1.00  0.00    -0.057 C  
HETATM   15  C   UNL     1      -6.093   4.122  68.722  1.00  0.00    -0.031 C  
HETATM   16  C   UNL     1      -5.136   4.010  69.901  1.00  0.00     0.000 C  
HETATM   17  C   UNL     1      -5.878   3.706  71.195  1.00  0.00    -0.013 C  
HETATM   18  C   UNL     1      -6.987   4.722  71.462  1.00  0.00    -0.044 C  
HETATM   19  C   UNL     1      -7.984   4.788  70.288  1.00  0.00    -0.068 C  
BRANCH  19  20
HETATM   20  C   UNL     1      -9.124   5.797  70.567  1.00  0.00    -0.147 C  
BRANCH  20  21
HETATM   21  N   UNL     1      -9.462   6.748  69.491  1.00  0.00    -0.149 NA 
HETATM   22  C   UNL     1     -10.942   6.891  69.392  1.00  0.00    -0.237 C  
HETATM   23  C   UNL     1     -11.593   7.520  70.642  1.00  0.00    -0.248 C  
HETATM   24  N   UNL     1     -10.999   8.826  70.971  1.00  0.00    -0.252 NA 
HETATM   25  C   UNL     1      -9.527   8.904  70.903  1.00  0.00    -0.236 C  
HETATM   26  C   UNL     1      -8.926   8.113  69.712  1.00  0.00    -0.144 C  
BRANCH  24  27
HETATM   27  C   UNL     1     -11.756   9.945  70.744  1.00  0.00    -0.341 A  
HETATM   28  N   UNL     1     -12.790  10.283  71.512  1.00  0.00    -0.414 NA 
HETATM   29  S   UNL     1     -13.372  11.749  71.044  1.00  0.00     0.700 SA 
HETATM   30  C   UNL     1     -12.236  12.023  69.791  1.00  0.00    -0.159 A  
HETATM   31  C   UNL     1     -12.087  13.142  68.955  1.00  0.00    -0.240 A  
HETATM   32  C   UNL     1     -11.064  13.132  68.006  1.00  0.00    -0.290 A  
HETATM   33  C   UNL     1     -10.214  12.039  67.893  1.00  0.00    -0.203 A  
HETATM   34  C   UNL     1     -10.365  10.934  68.739  1.00  0.00    -0.215 A  
HETATM   35  C   UNL     1     -11.399  10.907  69.711  1.00  0.00    -0.374 A  
ENDBRANCH  24  27
ENDBRANCH  20  21
ENDBRANCH  19  20
ENDBRANCH  13  14
ENDBRANCH  10  13
TORSDOF 5
ENDMDL
MODEL      257
REMARK 921   NORMALIZED FREE ENERGY PREDICTED BY IDOCK:   -0.69 KCAL/MOL
REMARK 922        TOTAL FREE ENERGY PREDICTED BY IDOCK:   -2.61 KCAL/MOL
REMARK 923 INTER-LIGAND FREE ENERGY PREDICTED BY IDOCK:   -3.51 KCAL/MOL
REMARK 924 INTRA-LIGAND FREE ENERGY PREDICTED BY IDOCK:    0.90 KCAL/MOL
REMARK 927      BINDING AFFINITY PREDICTED BY RF-SCORE:    0.00 PKD
ROOT
HETATM    1  C   UNL     1     -12.397  15.916  70.408  1.00  0.00    -0.253 C  
HETATM    2  C   UNL     1     -12.734  16.082  71.901  1.00  0.00    -0.387 C  
HETATM    3  C   UNL     1     -14.188  15.619  72.113  1.00  0.00    -0.529 C  
HETATM    4  C   UNL     1     -14.099  14.091  71.926  1.00  0.00    -0.537 C  
HETATM    5  C   UNL     1     -12.599  13.864  71.646  1.00  0.00    -0.387 C  
HETATM    6  C   UNL     1     -11.977  14.926  72.558  1.00  0.00    -0.364 C  
HETATM    7  C   UNL     1     -12.309  14.397  70.234  1.00  0.00    -0.410 C  
HETATM    8  C   UNL     1     -10.897  14.151  69.781  1.00  0.00     0.053 C  
HETATM    9  O   UNL     1     -10.406  13.045  69.622  1.00  0.00     0.496 OA 
HETATM   10  N   UNL     1     -10.271  15.353  69.618  1.00  0.00    -0.267 N  
HETATM   11  O   UNL     1     -10.652  17.570  70.179  1.00  0.00     0.304 OA 
HETATM   12  C   UNL     1     -11.022  16.411  70.054  1.00  0.00    -0.318 C  
ENDROOT
BRANCH  10  13
HETATM   13  C   UNL     1      -8.878  15.483  69.216  1.00  0.00    -0.256 C  
BRANCH  13  14
HETATM   14  C   UNL     1      -8.734  16.076  67.797  1.00  0.00    -0.170 C  
HETATM   15  C   UNL     1      -9.281  17.518  67.773  1.00  0.00    -0.253 C  
HETATM   16  C   UNL     1      -9.091  18.171  66.411  1.00  0.00    -0.255 C  
HETATM   17  C   UNL     1      -9.700  17.330  65.299  1.00  0.00     0.932 C  
HETATM   18  C   UNL     1      -9.169  15.898  65.317  1.00  0.00     0.696 C  
HETATM   19  C   UNL     1      -9.417  15.223  66.682  1.00  0.00    -0.281 C  
BRANCH  19  20
HETATM   20  C   UNL     1      -8.903  13.764  66.695  1.00  0.00    -0.067 C  
BRANCH  20  21
HETATM   21  N   UNL     1      -9.905  12.693  66.531  1.00  0.00    -0.250 NA 
HETATM   22  C   UNL     1      -9.869  12.178  65.133  1.00  0.00    -0.180 C  
HETATM   23  C   UNL     1      -8.542  11.485  64.759  1.00  0.00     0.571 C  
HETATM   24  N   UNL     1      -8.213  10.392  65.689  1.00  0.00    -0.154 NA 
HETATM   25  C   UNL     1      -8.406  10.682  67.123  1.00  0.00    -0.125 C  
HETATM   26  C   UNL     1      -9.677  11.524  67.412  1.00  0.00    -0.179 C  
BRANCH  24  27
HETATM   27  C   UNL     1      -8.327   9.108  65.227  1.00  0.00    -0.146 A  
HETATM   28  N   UNL     1      -7.530   8.607  64.286  1.00  0.00    -0.105 NA 
HETATM   29  S   UNL     1      -7.849   7.006  64.083  1.00  0.00    -0.078 SA 
HETATM   30  C   UNL     1      -9.067   6.893  65.282  1.00  0.00     0.424 A  
HETATM   31  C   UNL     1      -9.786   5.766  65.715  1.00  0.00     0.151 A  
HETATM   32  C   UNL     1     -10.731   5.930  66.730  1.00  0.00    -0.371 A  
HETATM   33  C   UNL     1     -10.953   7.179  67.296  1.00  0.00    -0.333 A  
HETATM   34  C   UNL     1     -10.222   8.292  66.864  1.00  0.00    -0.388 A  
HETATM   35  C   UNL     1      -9.259   8.164  65.830  1.00  0.00    -0.098 A  
ENDBRANCH  24  27
ENDBRANCH  20  21
ENDBRANCH  19  20
ENDBRANCH  13  14
ENDBRANCH  10  13
TORSDOF 5
ENDMDL
MODEL      258
REMARK 921   NORMALIZED FREE ENERGY PREDICTED BY IDOCK:   -0.66 KCAL/MOL
REMARK 922        TOTAL FREE ENERGY PREDICTED BY IDOCK:   -2.58 KCAL/MOL
REMARK 923 INTER-LIGAND FREE ENERGY PREDICTED BY IDOCK:   -3.90 KCAL/MOL
REMARK 924 INTRA-LIGAND FREE ENERGY PREDICTED BY IDOCK:    1.32 KCAL/MOL
REMARK 927      BINDING AFFINITY PREDICTED BY RF-SCORE:    0.00 PKD
ROOT
HETATM    1  C   UNL     1      -8.386   9.276  63.802  1.00  0.00    -0.180 C  
HETATM    2  C   UNL     1      -8.156  10.782  63.583  1.00  0.00     0.128 C  
HETATM    3  C   UNL     1      -9.245  11.292  62.619  1.00  0.00    -0.330 C  
HETATM    4  C   UNL     1     -10.525  11.238  63.478  1.00  0.00    -0.457 C  
HETATM    5  C   UNL     1     -10.008  10.719  64.836  1.00  0.00    -0.374 C  
HETATM    6  C   UNL     1      -8.638  11.401  64.896  1.00  0.00     0.374 C  
HETATM    7  C   UNL     1      -9.656   9.233  64.656  1.00  0.00     0.253 C  
HETATM    8  C   UNL     1      -9.230   8.562  65.931  1.00  0.00    -0.182 C  
HETATM    9  O   UNL     1      -9.945   8.425  66.911  1.00  0.00    -0.218 OA 
HETATM   10  N   UNL     1      -7.925   8.178  65.813  1.00  0.00    -0.099 N  
HETATM   11  O   UNL     1      -6.146   8.585  64.383  1.00  0.00    -0.064 OA 
HETATM   12  C   UNL     1      -7.334   8.638  64.667  1.00  0.00    -0.094 C  
ENDROOT
BRANCH  10  13
HETATM   13  C   UNL     1      -7.182   7.525  66.880  1.00  0.00    -0.085 C  
BRANCH  13  14
HETATM   14  C   UNL     1      -7.058   6.001  66.655  1.00  0.00    -0.072 C  
HETATM   15  C   UNL     1      -5.944   5.711  65.629  1.00  0.00    -0.025 C  
HETATM   16  C   UNL     1      -5.733   4.216  65.432  1.00  0.00    -0.022 C  
HETATM   17  C   UNL     1      -7.030   3.515  65.053  1.00  0.00    -0.057 C  
HETATM   18  C   UNL     1      -8.142   3.801  66.060  1.00  0.00    -0.100 C  
HETATM   19  C   UNL     1      -8.389   5.316  66.212  1.00  0.00    -0.114 C  
BRANCH  19  20
HETATM   20  C   UNL     1      -9.533   5.607  67.212  1.00  0.00    -0.115 C  
BRANCH  20  21
HETATM   21  N   UNL     1      -9.548   4.831  68.467  1.00  0.00    -0.148 NA 
HETATM   22  C   UNL     1      -8.268   5.038  69.202  1.00  0.00    -0.083 C  
HETATM   23  C   UNL     1      -8.052   6.488  69.683  1.00  0.00    -0.125 C  
HETATM   24  N   UNL     1      -9.173   6.963  70.512  1.00  0.00    -0.156 NA 
HETATM   25  C   UNL     1     -10.526   6.643  70.018  1.00  0.00    -0.212 C  
HETATM   26  C   UNL     1     -10.632   5.224  69.398  1.00  0.00    -0.145 C  
BRANCH  24  27
HETATM   27  C   UNL     1      -8.951   7.114  71.855  1.00  0.00    -0.127 A  
HETATM   28  N   UNL     1      -9.712   6.533  72.781  1.00  0.00    -0.157 NA 
HETATM   29  S   UNL     1      -9.075   6.807  74.273  1.00  0.00    -0.214 SA 
HETATM   30  C   UNL     1      -7.714   7.705  73.746  1.00  0.00    -0.138 A  
HETATM   31  C   UNL     1      -6.659   8.243  74.501  1.00  0.00    -0.159 A  
HETATM   32  C   UNL     1      -5.647   8.933  73.831  1.00  0.00    -0.119 A  
HETATM   33  C   UNL     1      -5.686   9.082  72.451  1.00  0.00    -0.071 A  
HETATM   34  C   UNL     1      -6.736   8.530  71.708  1.00  0.00    -0.082 A  
HETATM   35  C   UNL     1      -7.786   7.829  72.357  1.00  0.00    -0.129 A  
ENDBRANCH  24  27
ENDBRANCH  20  21
ENDBRANCH  19  20
ENDBRANCH  13  14
ENDBRANCH  10  13
TORSDOF 5
ENDMDL
MODEL      259
REMARK 921   NORMALIZED FREE ENERGY PREDICTED BY IDOCK:   -0.22 KCAL/MOL
REMARK 922        TOTAL FREE ENERGY PREDICTED BY IDOCK:   -2.01 KCAL/MOL
REMARK 923 INTER-LIGAND FREE ENERGY PREDICTED BY IDOCK:   -4.28 KCAL/MOL
REMARK 924 INTRA-LIGAND FREE ENERGY PREDICTED BY IDOCK:    2.28 KCAL/MOL
REMARK 927      BINDING AFFINITY PREDICTED BY RF-SCORE:    0.00 PKD
ROOT
HETATM    1  C   UNL     1      -7.833  13.446  68.610  1.00  0.00    -0.073 C  
HETATM    2  C   UNL     1      -6.826  14.610  68.646  1.00  0.00    -0.094 C  
HETATM    3  C   UNL     1      -6.407  14.828  70.113  1.00  0.00    -0.169 C  
HETATM    4  C   UNL     1      -5.542  13.588  70.416  1.00  0.00    -0.149 C  
HETATM    5  C   UNL     1      -5.559  12.819  69.080  1.00  0.00    -0.070 C  
HETATM    6  C   UNL     1      -5.549  13.982  68.084  1.00  0.00    -0.123 C  
HETATM    7  C   UNL     1      -6.966  12.221  68.911  1.00  0.00    -0.098 C  
HETATM    8  C   UNL     1      -7.103  11.353  67.691  1.00  0.00    -0.092 C  
HETATM    9  O   UNL     1      -6.482  10.318  67.507  1.00  0.00    -0.064 OA 
HETATM   10  N   UNL     1      -7.995  11.933  66.836  1.00  0.00    -0.156 N  
HETATM   11  O   UNL     1      -9.037  13.989  66.588  1.00  0.00    -0.250 OA 
HETATM   12  C   UNL     1      -8.383  13.184  67.235  1.00  0.00    -0.179 C  
ENDROOT
BRANCH  10  13
HETATM   13  C   UNL     1      -8.341  11.373  65.538  1.00  0.00     0.236 C  
BRANCH  13  14
HETATM   14  C   UNL     1      -9.825  11.611  65.178  1.00  0.00    -0.281 C  
HETATM   15  C   UNL     1     -10.000  13.023  64.583  1.00  0.00    -0.149 C  
HETATM   16  C   UNL     1     -11.435  13.275  64.141  1.00  0.00    -0.438 C  
HETATM   17  C   UNL     1     -12.419  13.027  65.276  1.00  0.00    -0.555 C  
HETATM   18  C   UNL     1     -12.250  11.633  65.876  1.00  0.00     0.981 C  
HETATM   19  C   UNL     1     -10.808  11.405  66.373  1.00  0.00    -0.323 C  
BRANCH  19  20
HETATM   20  C   UNL     1     -10.640  10.003  67.006  1.00  0.00    -0.212 C  
BRANCH  20  21
HETATM   21  N   UNL     1      -9.711   9.883  68.145  1.00  0.00    -0.143 NA 
HETATM   22  C   UNL     1     -10.467   9.985  69.425  1.00  0.00    -0.232 C  
HETATM   23  C   UNL     1     -11.463   8.829  69.654  1.00  0.00     0.306 C  
HETATM   24  N   UNL     1     -10.803   7.514  69.581  1.00  0.00    -0.231 NA 
HETATM   25  C   UNL     1      -9.847   7.330  68.473  1.00  0.00    -0.156 C  
HETATM   26  C   UNL     1      -8.987   8.590  68.190  1.00  0.00    -0.142 C  
BRANCH  24  27
HETATM   27  C   UNL     1     -10.642   6.817  70.749  1.00  0.00    -0.222 A  
HETATM   28  N   UNL     1     -11.140   5.596  70.935  1.00  0.00    -0.195 NA 
HETATM   29  S   UNL     1     -10.634   5.005  72.384  1.00  0.00    -0.198 SA 
HETATM   30  C   UNL     1      -9.686   6.361  72.831  1.00  0.00    -0.157 A  
HETATM   31  C   UNL     1      -8.888   6.550  73.972  1.00  0.00    -0.160 A  
HETATM   32  C   UNL     1      -8.193   7.754  74.105  1.00  0.00    -0.282 A  
HETATM   33  C   UNL     1      -8.290   8.739  73.131  1.00  0.00     0.278 A  
HETATM   34  C   UNL     1      -9.079   8.534  71.993  1.00  0.00    -0.317 A  
HETATM   35  C   UNL     1      -9.806   7.326  71.828  1.00  0.00    -0.175 A  
ENDBRANCH  24  27
ENDBRANCH  20  21
ENDBRANCH  19  20
ENDBRANCH  13  14
ENDBRANCH  10  13
TORSDOF 5
ENDMDL
MODEL      260
REMARK 921   NORMALIZED FREE ENERGY PREDICTED BY IDOCK:    0.49 KCAL/MOL
REMARK 922        TOTAL FREE ENERGY PREDICTED BY IDOCK:   -1.09 KCAL/MOL
REMARK 923 INTER-LIGAND FREE ENERGY PREDICTED BY IDOCK:   -2.23 KCAL/MOL
REMARK 924 INTRA-LIGAND FREE ENERGY PREDICTED BY IDOCK:    1.14 KCAL/MOL
REMARK 927      BINDING AFFINITY PREDICTED BY RF-SCORE:    0.00 PKD
ROOT
HETATM    1  C   UNL     1      -7.688  13.372  68.115  1.00  0.00    -0.143 C  
HETATM    2  C   UNL     1      -6.983  14.728  67.940  1.00  0.00    -0.173 C  
HETATM    3  C   UNL     1      -6.663  15.280  69.343  1.00  0.00    -0.164 C  
HETATM    4  C   UNL     1      -5.539  14.345  69.837  1.00  0.00    -0.103 C  
HETATM    5  C   UNL     1      -5.343  13.383  68.648  1.00  0.00    -0.075 C  
HETATM    6  C   UNL     1      -5.581  14.334  67.471  1.00  0.00     0.168 C  
HETATM    7  C   UNL     1      -6.565  12.451  68.603  1.00  0.00    -0.079 C  
HETATM    8  C   UNL     1      -6.466  11.386  67.548  1.00  0.00    -0.074 C  
HETATM    9  O   UNL     1      -5.615  10.510  67.529  1.00  0.00    -0.044 OA 
HETATM   10  N   UNL     1      -7.448  11.590  66.622  1.00  0.00    -0.116 N  
HETATM   11  O   UNL     1      -8.936  13.272  66.050  1.00  0.00     0.114 OA 
HETATM   12  C   UNL     1      -8.128  12.763  66.812  1.00  0.00     0.117 C  
ENDROOT
BRANCH  10  13
HETATM   13  C   UNL     1      -7.621  10.757  65.441  1.00  0.00     0.040 C  
BRANCH  13  14
HETATM   14  C   UNL     1      -9.107  10.614  65.042  1.00  0.00    -0.229 C  
HETATM   15  C   UNL     1      -9.511  11.769  64.104  1.00  0.00    -0.001 C  
HETATM   16  C   UNL     1     -10.949  11.628  63.622  1.00  0.00    -0.507 C  
HETATM   17  C   UNL     1     -11.918  11.499  64.789  1.00  0.00     0.164 C  
HETATM   18  C   UNL     1     -11.523  10.361  65.728  1.00  0.00     1.381 C  
HETATM   19  C   UNL     1     -10.085  10.540  66.257  1.00  0.00    -0.290 C  
BRANCH  19  20
HETATM   20  C   UNL     1      -9.692   9.402  67.229  1.00  0.00    -0.165 C  
BRANCH  20  21
HETATM   21  N   UNL     1      -9.726   9.706  68.672  1.00  0.00    -0.152 NA 
HETATM   22  C   UNL     1     -10.899   9.036  69.300  1.00  0.00    -0.113 C  
HETATM   23  C   UNL     1     -10.834   7.495  69.261  1.00  0.00    -0.117 C  
HETATM   24  N   UNL     1      -9.596   6.984  69.873  1.00  0.00    -0.160 NA 
HETATM   25  C   UNL     1      -8.353   7.691  69.511  1.00  0.00    -0.130 C  
HETATM   26  C   UNL     1      -8.531   9.229  69.409  1.00  0.00    -0.137 C  
BRANCH  24  27
HETATM   27  C   UNL     1      -9.699   6.356  71.087  1.00  0.00    -0.175 A  
HETATM   28  N   UNL     1     -10.408   6.854  72.098  1.00  0.00    -0.198 NA 
HETATM   29  S   UNL     1     -10.434   5.776  73.341  1.00  0.00    -0.261 SA 
HETATM   30  C   UNL     1      -9.509   4.559  72.567  1.00  0.00    -0.136 A  
HETATM   31  C   UNL     1      -9.156   3.281  73.032  1.00  0.00    -0.107 A  
HETATM   32  C   UNL     1      -8.396   2.457  72.199  1.00  0.00    -0.056 A  
HETATM   33  C   UNL     1      -7.999   2.895  70.942  1.00  0.00    -0.054 A  
HETATM   34  C   UNL     1      -8.366   4.166  70.486  1.00  0.00    -0.083 A  
HETATM   35  C   UNL     1      -9.132   5.033  71.308  1.00  0.00    -0.176 A  
ENDBRANCH  24  27
ENDBRANCH  20  21
ENDBRANCH  19  20
ENDBRANCH  13  14
ENDBRANCH  10  13
TORSDOF 5
ENDMDL
MODEL      261
REMARK 921   NORMALIZED FREE ENERGY PREDICTED BY IDOCK:    0.52 KCAL/MOL
REMARK 922        TOTAL FREE ENERGY PREDICTED BY IDOCK:   -1.05 KCAL/MOL
REMARK 923 INTER-LIGAND FREE ENERGY PREDICTED BY IDOCK:   -2.08 KCAL/MOL
REMARK 924 INTRA-LIGAND FREE ENERGY PREDICTED BY IDOCK:    1.04 KCAL/MOL
REMARK 927      BINDING AFFINITY PREDICTED BY RF-SCORE:    0.00 PKD
ROOT
HETATM    1  C   UNL     1      -7.750   6.201  67.345  1.00  0.00    -0.094 C  
HETATM    2  C   UNL     1      -8.031   4.725  67.011  1.00  0.00    -0.103 C  
HETATM    3  C   UNL     1      -6.751   3.921  67.307  1.00  0.00    -0.047 C  
HETATM    4  C   UNL     1      -6.676   3.939  68.847  1.00  0.00    -0.045 C  
HETATM    5  C   UNL     1      -7.933   4.738  69.245  1.00  0.00    -0.070 C  
HETATM    6  C   UNL     1      -8.919   4.269  68.171  1.00  0.00    -0.151 C  
HETATM    7  C   UNL     1      -7.680   6.209  68.875  1.00  0.00    -0.093 C  
HETATM    8  C   UNL     1      -8.788   7.131  69.298  1.00  0.00    -0.136 C  
HETATM    9  O   UNL     1      -9.117   7.328  70.458  1.00  0.00    -0.156 OA 
HETATM   10  N   UNL     1      -9.367   7.666  68.184  1.00  0.00    -0.144 N  
HETATM   11  O   UNL     1      -9.357   7.277  65.898  1.00  0.00    -0.041 OA 
HETATM   12  C   UNL     1      -8.904   7.109  67.022  1.00  0.00    -0.124 C  
ENDROOT
BRANCH  10  13
HETATM   13  C   UNL     1     -10.498   8.580  68.229  1.00  0.00    -0.171 C  
BRANCH  13  14
HETATM   14  C   UNL     1     -11.043   8.762  69.663  1.00  0.00    -0.038 C  
HETATM   15  C   UNL     1     -12.333   7.938  69.843  1.00  0.00     1.205 C  
HETATM   16  C   UNL     1     -12.866   8.026  71.267  1.00  0.00    -0.221 C  
HETATM   17  C   UNL     1     -13.069   9.472  71.698  1.00  0.00    -0.486 C  
HETATM   18  C   UNL     1     -11.798  10.299  71.518  1.00  0.00    -0.290 C  
HETATM   19  C   UNL     1     -11.296  10.251  70.060  1.00  0.00    -0.370 C  
BRANCH  19  20
HETATM   20  C   UNL     1     -10.023  11.109  69.870  1.00  0.00     0.770 C  
BRANCH  20  21
HETATM   21  N   UNL     1      -9.758  11.634  68.516  1.00  0.00    -0.197 NA 
HETATM   22  C   UNL     1     -10.437  12.949  68.344  1.00  0.00    -0.251 C  
HETATM   23  C   UNL     1      -9.892  14.058  69.269  1.00  0.00     0.246 C  
HETATM   24  N   UNL     1      -8.439  14.235  69.114  1.00  0.00     0.056 NA 
HETATM   25  C   UNL     1      -7.637  12.998  69.051  1.00  0.00     0.142 C  
HETATM   26  C   UNL     1      -8.321  11.867  68.238  1.00  0.00    -0.159 C  
BRANCH  24  27
HETATM   27  C   UNL     1      -8.000  15.370  68.483  1.00  0.00    -0.140 A  
HETATM   28  N   UNL     1      -6.728  15.762  68.507  1.00  0.00    -0.116 NA 
HETATM   29  S   UNL     1      -6.533  17.072  67.531  1.00  0.00    -0.156 SA 
HETATM   30  C   UNL     1      -8.158  17.164  66.996  1.00  0.00    -0.201 A  
HETATM   31  C   UNL     1      -8.740  18.046  66.070  1.00  0.00    -0.009 A  
HETATM   32  C   UNL     1     -10.101  17.911  65.788  1.00  0.00    -0.058 A  
HETATM   33  C   UNL     1     -10.858  16.928  66.410  1.00  0.00     0.033 A  
HETATM   34  C   UNL     1     -10.265  16.047  67.322  1.00  0.00    -0.277 A  
HETATM   35  C   UNL     1      -8.886  16.159  67.639  1.00  0.00    -0.191 A  
ENDBRANCH  24  27
ENDBRANCH  20  21
ENDBRANCH  19  20
ENDBRANCH  13  14
ENDBRANCH  10  13
TORSDOF 5
ENDMDL
MODEL      262
REMARK 921   NORMALIZED FREE ENERGY PREDICTED BY IDOCK:    0.62 KCAL/MOL
REMARK 922        TOTAL FREE ENERGY PREDICTED BY IDOCK:   -0.93 KCAL/MOL
REMARK 923 INTER-LIGAND FREE ENERGY PREDICTED BY IDOCK:   -2.31 KCAL/MOL
REMARK 924 INTRA-LIGAND FREE ENERGY PREDICTED BY IDOCK:    1.39 KCAL/MOL
REMARK 927      BINDING AFFINITY PREDICTED BY RF-SCORE:    0.00 PKD
ROOT
HETATM    1  C   UNL     1      -8.007   9.406  63.593  1.00  0.00    -0.142 C  
HETATM    2  C   UNL     1      -7.911  10.940  63.519  1.00  0.00     0.267 C  
HETATM    3  C   UNL     1      -8.920  11.427  62.461  1.00  0.00    -0.172 C  
HETATM    4  C   UNL     1     -10.283  11.178  63.138  1.00  0.00    -0.347 C  
HETATM    5  C   UNL     1      -9.887  10.593  64.509  1.00  0.00    -0.388 C  
HETATM    6  C   UNL     1      -8.614  11.394  64.800  1.00  0.00     0.423 C  
HETATM    7  C   UNL     1      -9.361   9.169  64.268  1.00  0.00     0.302 C  
HETATM    8  C   UNL     1      -9.028   8.432  65.534  1.00  0.00    -0.098 C  
HETATM    9  O   UNL     1      -9.840   8.143  66.399  1.00  0.00    -0.236 OA 
HETATM   10  N   UNL     1      -7.685   8.185  65.560  1.00  0.00    -0.090 N  
HETATM   11  O   UNL     1      -5.796   8.882  64.412  1.00  0.00    -0.064 OA 
HETATM   12  C   UNL     1      -7.009   8.797  64.540  1.00  0.00    -0.084 C  
ENDROOT
BRANCH  10  13
HETATM   13  C   UNL     1      -7.015   7.514  66.664  1.00  0.00    -0.074 C  
BRANCH  13  14
HETATM   14  C   UNL     1      -6.753   6.021  66.366  1.00  0.00    -0.060 C  
HETATM   15  C   UNL     1      -5.746   5.888  65.206  1.00  0.00    -0.024 C  
HETATM   16  C   UNL     1      -5.397   4.432  64.925  1.00  0.00    -0.013 C  
HETATM   17  C   UNL     1      -6.646   3.598  64.673  1.00  0.00    -0.043 C  
HETATM   18  C   UNL     1      -7.652   3.728  65.814  1.00  0.00    -0.081 C  
HETATM   19  C   UNL     1      -8.044   5.200  66.055  1.00  0.00    -0.109 C  
BRANCH  19  20
HETATM   20  C   UNL     1      -9.084   5.333  67.193  1.00  0.00    -0.112 C  
BRANCH  20  21
HETATM   21  N   UNL     1      -9.044   4.320  68.266  1.00  0.00    -0.122 NA 
HETATM   22  C   UNL     1      -7.638   4.122  68.719  1.00  0.00    -0.055 C  
HETATM   23  C   UNL     1      -7.015   5.369  69.382  1.00  0.00    -0.059 C  
HETATM   24  N   UNL     1      -7.828   5.853  70.511  1.00  0.00    -0.099 NA 
HETATM   25  C   UNL     1      -9.285   5.904  70.285  1.00  0.00    -0.154 C  
HETATM   26  C   UNL     1      -9.821   4.697  69.470  1.00  0.00    -0.216 C  
BRANCH  24  27
HETATM   27  C   UNL     1      -7.335   5.667  71.775  1.00  0.00    -0.092 A  
HETATM   28  N   UNL     1      -7.203   6.661  72.651  1.00  0.00    -0.080 NA 
HETATM   29  S   UNL     1      -6.726   6.059  74.106  1.00  0.00    -0.080 SA 
HETATM   30  C   UNL     1      -6.700   4.410  73.639  1.00  0.00    -0.058 A  
HETATM   31  C   UNL     1      -6.420   3.272  74.414  1.00  0.00    -0.026 A  
HETATM   32  C   UNL     1      -6.476   2.019  73.799  1.00  0.00    -0.017 A  
HETATM   33  C   UNL     1      -6.802   1.905  72.454  1.00  0.00    -0.019 A  
HETATM   34  C   UNL     1      -7.091   3.046  71.696  1.00  0.00    -0.032 A  
HETATM   35  C   UNL     1      -7.036   4.336  72.285  1.00  0.00    -0.060 A  
ENDBRANCH  24  27
ENDBRANCH  20  21
ENDBRANCH  19  20
ENDBRANCH  13  14
ENDBRANCH  10  13
TORSDOF 5
ENDMDL
MODEL      263
REMARK 921   NORMALIZED FREE ENERGY PREDICTED BY IDOCK:    0.68 KCAL/MOL
REMARK 922        TOTAL FREE ENERGY PREDICTED BY IDOCK:   -0.85 KCAL/MOL
REMARK 923 INTER-LIGAND FREE ENERGY PREDICTED BY IDOCK:   -5.15 KCAL/MOL
REMARK 924 INTRA-LIGAND FREE ENERGY PREDICTED BY IDOCK:    4.31 KCAL/MOL
REMARK 927      BINDING AFFINITY PREDICTED BY RF-SCORE:    0.00 PKD
ROOT
HETATM    1  C   UNL     1     -11.127  10.527  67.027  1.00  0.00    -0.183 C  
HETATM    2  C   UNL     1     -10.369  11.645  66.290  1.00  0.00    -0.273 C  
HETATM    3  C   UNL     1     -11.325  12.259  65.248  1.00  0.00    -0.384 C  
HETATM    4  C   UNL     1     -12.346  13.021  66.117  1.00  0.00    -0.335 C  
HETATM    5  C   UNL     1     -11.839  12.764  67.551  1.00  0.00    -0.402 C  
HETATM    6  C   UNL     1     -10.325  12.774  67.323  1.00  0.00    -0.235 C  
HETATM    7  C   UNL     1     -12.136  11.293  67.887  1.00  0.00     0.136 C  
HETATM    8  C   UNL     1     -11.786  10.921  69.300  1.00  0.00    -0.324 C  
HETATM    9  O   UNL     1     -12.309  11.405  70.292  1.00  0.00    -0.314 OA 
HETATM   10  N   UNL     1     -10.781   9.997  69.277  1.00  0.00    -0.213 N  
HETATM   11  O   UNL     1      -9.273   9.151  67.733  1.00  0.00    -0.133 OA 
HETATM   12  C   UNL     1     -10.273   9.791  68.022  1.00  0.00    -0.190 C  
ENDROOT
BRANCH  10  13
HETATM   13  C   UNL     1     -10.175   9.441  70.477  1.00  0.00    -0.271 C  
BRANCH  13  14
HETATM   14  C   UNL     1      -8.691   9.068  70.262  1.00  0.00    -0.202 C  
HETATM   15  C   UNL     1      -7.952  10.233  69.574  1.00  0.00    -0.171 C  
HETATM   16  C   UNL     1      -6.467   9.940  69.409  1.00  0.00    -0.046 C  
HETATM   17  C   UNL     1      -6.235   8.627  68.674  1.00  0.00    -0.046 C  
HETATM   18  C   UNL     1      -6.969   7.467  69.344  1.00  0.00    -0.057 C  
HETATM   19  C   UNL     1      -8.481   7.747  69.456  1.00  0.00    -0.131 C  
BRANCH  19  20
HETATM   20  C   UNL     1      -9.231   6.562  70.111  1.00  0.00    -0.158 C  
BRANCH  20  21
HETATM   21  N   UNL     1     -10.075   5.729  69.233  1.00  0.00    -0.187 NA 
HETATM   22  C   UNL     1      -9.847   6.105  67.809  1.00  0.00    -0.123 C  
HETATM   23  C   UNL     1      -8.416   5.815  67.309  1.00  0.00    -0.107 C  
HETATM   24  N   UNL     1      -8.043   4.404  67.506  1.00  0.00    -0.099 NA 
HETATM   25  C   UNL     1      -8.401   3.815  68.810  1.00  0.00    -0.073 C  
HETATM   26  C   UNL     1      -9.787   4.278  69.332  1.00  0.00    -0.135 C  
BRANCH  24  27
HETATM   27  C   UNL     1      -7.955   3.608  66.394  1.00  0.00    -0.089 A  
HETATM   28  N   UNL     1      -8.751   2.560  66.194  1.00  0.00    -0.121 NA 
HETATM   29  S   UNL     1      -8.470   1.928  64.701  1.00  0.00    -0.090 SA 
HETATM   30  C   UNL     1      -7.271   3.058  64.230  1.00  0.00    -0.058 A  
HETATM   31  C   UNL     1      -6.587   3.169  63.008  1.00  0.00    -0.026 A  
HETATM   32  C   UNL     1      -5.651   4.195  62.861  1.00  0.00    -0.013 A  
HETATM   33  C   UNL     1      -5.406   5.083  63.900  1.00  0.00    -0.010 A  
HETATM   34  C   UNL     1      -6.103   4.969  65.109  1.00  0.00    -0.030 A  
HETATM   35  C   UNL     1      -7.056   3.934  65.296  1.00  0.00    -0.063 A  
ENDBRANCH  24  27
ENDBRANCH  20  21
ENDBRANCH  19  20
ENDBRANCH  13  14
ENDBRANCH  10  13
TORSDOF 5
ENDMDL
MODEL      264
REMARK 921   NORMALIZED FREE ENERGY PREDICTED BY IDOCK:    0.71 KCAL/MOL
REMARK 922        TOTAL FREE ENERGY PREDICTED BY IDOCK:   -0.81 KCAL/MOL
REMARK 923 INTER-LIGAND FREE ENERGY PREDICTED BY IDOCK:   -5.93 KCAL/MOL
REMARK 924 INTRA-LIGAND FREE ENERGY PREDICTED BY IDOCK:    5.12 KCAL/MOL
REMARK 927      BINDING AFFINITY PREDICTED BY RF-SCORE:    0.00 PKD
ROOT
HETATM    1  C   UNL     1     -10.801  14.840  67.435  1.00  0.00    -0.300 C  
HETATM    2  C   UNL     1     -11.336  13.603  66.694  1.00  0.00    -0.343 C  
HETATM    3  C   UNL     1     -12.667  13.993  66.020  1.00  0.00    -0.379 C  
HETATM    4  C   UNL     1     -12.219  14.934  64.883  1.00  0.00    -0.230 C  
HETATM    5  C   UNL     1     -10.684  14.954  65.035  1.00  0.00    -0.451 C  
HETATM    6  C   UNL     1     -10.424  13.509  65.470  1.00  0.00    -0.304 C  
HETATM    7  C   UNL     1     -10.358  15.767  66.299  1.00  0.00    -0.320 C  
HETATM    8  C   UNL     1      -8.884  15.959  66.522  1.00  0.00    -0.305 C  
HETATM    9  O   UNL     1      -8.144  16.565  65.764  1.00  0.00    -0.198 OA 
HETATM   10  N   UNL     1      -8.525  15.319  67.674  1.00  0.00    -0.154 N  
HETATM   11  O   UNL     1      -9.452  13.771  69.129  1.00  0.00     0.124 OA 
HETATM   12  C   UNL     1      -9.539  14.567  68.205  1.00  0.00    -0.212 C  
ENDROOT
BRANCH  10  13
HETATM   13  C   UNL     1      -7.160  15.274  68.173  1.00  0.00    -0.119 C  
BRANCH  13  14
HETATM   14  C   UNL     1      -6.972  14.190  69.259  1.00  0.00    -0.103 C  
HETATM   15  C   UNL     1      -6.466  14.837  70.564  1.00  0.00    -0.034 C  
HETATM   16  C   UNL     1      -6.339  13.817  71.687  1.00  0.00     0.944 C  
HETATM   17  C   UNL     1      -5.463  12.642  71.276  1.00  0.00    -0.067 C  
HETATM   18  C   UNL     1      -5.952  11.997  69.981  1.00  0.00    -0.159 C  
HETATM   19  C   UNL     1      -6.024  13.025  68.833  1.00  0.00    -0.079 C  
BRANCH  19  20
HETATM   20  C   UNL     1      -6.495  12.369  67.513  1.00  0.00    -0.146 C  
BRANCH  20  21
HETATM   21  N   UNL     1      -7.946  12.166  67.339  1.00  0.00    -0.159 NA 
HETATM   22  C   UNL     1      -8.187  11.009  66.432  1.00  0.00    -0.166 C  
HETATM   23  C   UNL     1      -7.703   9.659  67.000  1.00  0.00    -0.095 C  
HETATM   24  N   UNL     1      -8.295   9.376  68.319  1.00  0.00    -0.118 NA 
HETATM   25  C   UNL     1      -8.325  10.502  69.271  1.00  0.00    -0.137 C  
HETATM   26  C   UNL     1      -8.660  11.861  68.602  1.00  0.00    -0.037 C  
BRANCH  24  27
HETATM   27  C   UNL     1      -9.245   8.390  68.392  1.00  0.00    -0.135 A  
HETATM   28  N   UNL     1      -9.399   7.467  67.445  1.00  0.00    -0.137 NA 
HETATM   29  S   UNL     1     -10.521   6.363  67.924  1.00  0.00    -0.255 SA 
HETATM   30  C   UNL     1     -10.840   7.059  69.457  1.00  0.00    -0.238 A  
HETATM   31  C   UNL     1     -11.692   6.605  70.479  1.00  0.00    -0.453 A  
HETATM   32  C   UNL     1     -11.773   7.350  71.657  1.00  0.00    -0.311 A  
HETATM   33  C   UNL     1     -11.028   8.512  71.812  1.00  0.00    -0.376 A  
HETATM   34  C   UNL     1     -10.173   8.947  70.792  1.00  0.00    -0.282 A  
HETATM   35  C   UNL     1     -10.071   8.219  69.578  1.00  0.00    -0.197 A  
ENDBRANCH  24  27
ENDBRANCH  20  21
ENDBRANCH  19  20
ENDBRANCH  13  14
ENDBRANCH  10  13
TORSDOF 5
ENDMDL
MODEL      265
REMARK 921   NORMALIZED FREE ENERGY PREDICTED BY IDOCK:    0.91 KCAL/MOL
REMARK 922        TOTAL FREE ENERGY PREDICTED BY IDOCK:   -0.55 KCAL/MOL
REMARK 923 INTER-LIGAND FREE ENERGY PREDICTED BY IDOCK:   -5.59 KCAL/MOL
REMARK 924 INTRA-LIGAND FREE ENERGY PREDICTED BY IDOCK:    5.05 KCAL/MOL
REMARK 927      BINDING AFFINITY PREDICTED BY RF-SCORE:    0.00 PKD
ROOT
HETATM    1  C   UNL     1      -7.156   7.934  72.035  1.00  0.00    -0.076 C  
HETATM    2  C   UNL     1      -7.401   6.577  72.718  1.00  0.00    -0.089 C  
HETATM    3  C   UNL     1      -7.349   6.799  74.243  1.00  0.00    -0.099 C  
HETATM    4  C   UNL     1      -8.643   7.589  74.524  1.00  0.00    -0.204 C  
HETATM    5  C   UNL     1      -9.286   7.709  73.128  1.00  0.00    -0.289 C  
HETATM    6  C   UNL     1      -8.902   6.356  72.522  1.00  0.00    -0.133 C  
HETATM    7  C   UNL     1      -8.445   8.710  72.319  1.00  0.00    -0.149 C  
HETATM    8  C   UNL     1      -9.013   9.007  70.959  1.00  0.00    -0.241 C  
HETATM    9  O   UNL     1     -10.096   9.536  70.764  1.00  0.00    -0.279 OA 
HETATM   10  N   UNL     1      -8.141   8.558  70.009  1.00  0.00    -0.107 N  
HETATM   11  O   UNL     1      -6.273   7.188  69.914  1.00  0.00    -0.027 OA 
HETATM   12  C   UNL     1      -7.102   7.838  70.535  1.00  0.00    -0.047 C  
ENDROOT
BRANCH  10  13
HETATM   13  C   UNL     1      -8.394   8.654  68.580  1.00  0.00    -0.123 C  
BRANCH  13  14
HETATM   14  C   UNL     1      -9.173   7.433  68.042  1.00  0.00    -0.132 C  
HETATM   15  C   UNL     1      -8.203   6.264  67.784  1.00  0.00    -0.118 C  
HETATM   16  C   UNL     1      -8.937   5.011  67.325  1.00  0.00    -0.113 C  
HETATM   17  C   UNL     1      -9.804   5.289  66.105  1.00  0.00    -0.186 C  
HETATM   18  C   UNL     1     -10.766   6.450  66.349  1.00  0.00     0.031 C  
HETATM   19  C   UNL     1     -10.011   7.731  66.758  1.00  0.00    -0.331 C  
BRANCH  19  20
HETATM   20  C   UNL     1     -10.981   8.916  66.980  1.00  0.00     0.235 C  
BRANCH  20  21
HETATM   21  N   UNL     1     -10.715   9.799  68.132  1.00  0.00    -0.237 NA 
HETATM   22  C   UNL     1      -9.386  10.453  67.970  1.00  0.00    -0.140 C  
HETATM   23  C   UNL     1      -9.303  11.408  66.760  1.00  0.00    -0.180 C  
HETATM   24  N   UNL     1     -10.352  12.441  66.806  1.00  0.00    -0.220 NA 
HETATM   25  C   UNL     1     -11.704  11.977  67.169  1.00  0.00    -0.273 C  
HETATM   26  C   UNL     1     -11.703  10.895  68.282  1.00  0.00    -0.184 C  
BRANCH  24  27
HETATM   27  C   UNL     1      -9.968  13.725  67.092  1.00  0.00    -0.243 A  
HETATM   28  N   UNL     1      -9.031  14.368  66.397  1.00  0.00    -0.159 NA 
HETATM   29  S   UNL     1      -8.930  15.927  66.914  1.00  0.00    -0.253 SA 
HETATM   30  C   UNL     1     -10.171  15.826  68.091  1.00  0.00    -0.230 A  
HETATM   31  C   UNL     1     -10.690  16.832  68.924  1.00  0.00    -0.333 A  
HETATM   32  C   UNL     1     -11.722  16.500  69.804  1.00  0.00     0.288 A  
HETATM   33  C   UNL     1     -12.223  15.205  69.852  1.00  0.00    -0.353 A  
HETATM   34  C   UNL     1     -11.706  14.215  69.008  1.00  0.00    -0.361 A  
HETATM   35  C   UNL     1     -10.651  14.514  68.107  1.00  0.00    -0.238 A  
ENDBRANCH  24  27
ENDBRANCH  20  21
ENDBRANCH  19  20
ENDBRANCH  13  14
ENDBRANCH  10  13
TORSDOF 5
ENDMDL
MODEL      266
REMARK 921   NORMALIZED FREE ENERGY PREDICTED BY IDOCK:    1.06 KCAL/MOL
REMARK 922        TOTAL FREE ENERGY PREDICTED BY IDOCK:   -0.36 KCAL/MOL
REMARK 923 INTER-LIGAND FREE ENERGY PREDICTED BY IDOCK:   -0.94 KCAL/MOL
REMARK 924 INTRA-LIGAND FREE ENERGY PREDICTED BY IDOCK:    0.58 KCAL/MOL
REMARK 927      BINDING AFFINITY PREDICTED BY RF-SCORE:    0.00 PKD
ROOT
HETATM    1  C   UNL     1     -10.973   9.455  68.808  1.00  0.00    -0.080 C  
HETATM    2  C   UNL     1     -12.091  10.492  69.012  1.00  0.00     0.015 C  
HETATM    3  C   UNL     1     -12.872  10.103  70.282  1.00  0.00    -0.063 C  
HETATM    4  C   UNL     1     -11.873  10.415  71.415  1.00  0.00    -0.312 C  
HETATM    5  C   UNL     1     -10.647  10.960  70.654  1.00  0.00     1.026 C  
HETATM    6  C   UNL     1     -11.335  11.722  69.518  1.00  0.00    -0.317 C  
HETATM    7  C   UNL     1      -9.987   9.773  69.935  1.00  0.00    -0.282 C  
HETATM    8  C   UNL     1      -8.712  10.137  69.228  1.00  0.00    -0.179 C  
HETATM    9  O   UNL     1      -7.706  10.547  69.786  1.00  0.00    -0.149 OA 
HETATM   10  N   UNL     1      -8.887   9.967  67.885  1.00  0.00    -0.128 N  
HETATM   11  O   UNL     1     -10.654   9.637  66.421  1.00  0.00    -0.150 OA 
HETATM   12  C   UNL     1     -10.183   9.678  67.548  1.00  0.00    -0.220 C  
ENDROOT
BRANCH  10  13
HETATM   13  C   UNL     1      -7.859  10.260  66.899  1.00  0.00    -0.112 C  
BRANCH  13  14
HETATM   14  C   UNL     1      -8.270  11.411  65.953  1.00  0.00     0.086 C  
HETATM   15  C   UNL     1      -9.526  12.117  66.501  1.00  0.00    -0.235 C  
HETATM   16  C   UNL     1      -9.926  13.308  65.641  1.00  0.00    -0.242 C  
HETATM   17  C   UNL     1     -10.108  12.907  64.184  1.00  0.00    -0.212 C  
HETATM   18  C   UNL     1      -8.871  12.202  63.633  1.00  0.00     1.166 C  
HETATM   19  C   UNL     1      -8.506  10.963  64.476  1.00  0.00     0.086 C  
BRANCH  19  20
HETATM   20  C   UNL     1      -7.269  10.231  63.904  1.00  0.00    -0.055 C  
BRANCH  20  21
HETATM   21  N   UNL     1      -7.490   8.906  63.294  1.00  0.00    -0.099 NA 
HETATM   22  C   UNL     1      -6.229   8.114  63.339  1.00  0.00    -0.072 C  
HETATM   23  C   UNL     1      -5.757   7.774  64.768  1.00  0.00    -0.037 C  
HETATM   24  N   UNL     1      -6.799   7.074  65.537  1.00  0.00    -0.051 NA 
HETATM   25  C   UNL     1      -8.165   7.620  65.423  1.00  0.00    -0.136 C  
HETATM   26  C   UNL     1      -8.517   8.094  63.988  1.00  0.00     0.095 C  
BRANCH  24  27
HETATM   27  C   UNL     1      -6.613   5.742  65.797  1.00  0.00    -0.044 A  
HETATM   28  N   UNL     1      -6.537   4.824  64.835  1.00  0.00    -0.042 NA 
HETATM   29  S   UNL     1      -6.164   3.362  65.492  1.00  0.00    -0.028 SA 
HETATM   30  C   UNL     1      -6.054   3.898  67.116  1.00  0.00    -0.025 A  
HETATM   31  C   UNL     1      -5.707   3.172  68.269  1.00  0.00    -0.022 A  
HETATM   32  C   UNL     1      -5.676   3.844  69.492  1.00  0.00    -0.018 A  
HETATM   33  C   UNL     1      -5.981   5.197  69.565  1.00  0.00    -0.021 A  
HETATM   34  C   UNL     1      -6.314   5.912  68.407  1.00  0.00    -0.044 A  
HETATM   35  C   UNL     1      -6.362   5.259  67.148  1.00  0.00    -0.040 A  
ENDBRANCH  24  27
ENDBRANCH  20  21
ENDBRANCH  19  20
ENDBRANCH  13  14
ENDBRANCH  10  13
TORSDOF 5
ENDMDL
MODEL      267
REMARK 921   NORMALIZED FREE ENERGY PREDICTED BY IDOCK:    1.28 KCAL/MOL
REMARK 922        TOTAL FREE ENERGY PREDICTED BY IDOCK:   -0.07 KCAL/MOL
REMARK 923 INTER-LIGAND FREE ENERGY PREDICTED BY IDOCK:   -0.23 KCAL/MOL
REMARK 924 INTRA-LIGAND FREE ENERGY PREDICTED BY IDOCK:    0.16 KCAL/MOL
REMARK 927      BINDING AFFINITY PREDICTED BY RF-SCORE:    0.00 PKD
ROOT
HETATM    1  C   UNL     1      -5.351   8.818  72.673  1.00  0.00    -0.058 C  
HETATM    2  C   UNL     1      -6.313  10.015  72.584  1.00  0.00     1.295 C  
HETATM    3  C   UNL     1      -5.526  11.216  72.023  1.00  0.00     0.489 C  
HETATM    4  C   UNL     1      -5.294  10.823  70.550  1.00  0.00    -0.087 C  
HETATM    5  C   UNL     1      -5.992   9.452  70.443  1.00  0.00    -0.051 C  
HETATM    6  C   UNL     1      -7.187   9.670  71.376  1.00  0.00     0.418 C  
HETATM    7  C   UNL     1      -5.128   8.435  71.207  1.00  0.00    -0.029 C  
HETATM    8  C   UNL     1      -5.635   7.024  71.105  1.00  0.00    -0.028 C  
HETATM    9  O   UNL     1      -5.716   6.393  70.063  1.00  0.00    -0.014 OA 
HETATM   10  N   UNL     1      -6.014   6.601  72.347  1.00  0.00    -0.038 N  
HETATM   11  O   UNL     1      -6.418   7.544  74.425  1.00  0.00    -0.086 OA 
HETATM   12  C   UNL     1      -5.982   7.598  73.284  1.00  0.00    -0.059 C  
ENDROOT
BRANCH  10  13
HETATM   13  C   UNL     1      -6.584   5.287  72.606  1.00  0.00    -0.064 C  
BRANCH  13  14
HETATM   14  C   UNL     1      -8.093   5.233  72.279  1.00  0.00    -0.110 C  
HETATM   15  C   UNL     1      -8.903   5.844  73.440  1.00  0.00    -0.126 C  
HETATM   16  C   UNL     1     -10.394   5.882  73.130  1.00  0.00    -0.230 C  
HETATM   17  C   UNL     1     -10.920   4.504  72.753  1.00  0.00    -0.206 C  
HETATM   18  C   UNL     1     -10.120   3.888  71.608  1.00  0.00    -0.167 C  
HETATM   19  C   UNL     1      -8.619   3.800  71.951  1.00  0.00    -0.109 C  
BRANCH  19  20
HETATM   20  C   UNL     1      -7.810   3.152  70.803  1.00  0.00    -0.046 C  
BRANCH  20  21
HETATM   21  N   UNL     1      -7.096   4.059  69.885  1.00  0.00    -0.042 NA 
HETATM   22  C   UNL     1      -6.049   3.301  69.142  1.00  0.00    -0.024 C  
HETATM   23  C   UNL     1      -6.613   2.214  68.204  1.00  0.00    -0.029 C  
HETATM   24  N   UNL     1      -7.584   2.768  67.246  1.00  0.00    -0.068 NA 
HETATM   25  C   UNL     1      -8.570   3.717  67.798  1.00  0.00    -0.098 C  
HETATM   26  C   UNL     1      -7.969   4.677  68.859  1.00  0.00    -0.075 C  
BRANCH  24  27
HETATM   27  C   UNL     1      -7.201   2.863  65.934  1.00  0.00    -0.066 A  
HETATM   28  N   UNL     1      -5.954   3.151  65.566  1.00  0.00    -0.019 NA 
HETATM   29  S   UNL     1      -5.818   3.037  63.931  1.00  0.00    -0.010 SA 
HETATM   30  C   UNL     1      -7.436   2.562  63.630  1.00  0.00    -0.061 A  
HETATM   31  C   UNL     1      -8.052   2.226  62.412  1.00  0.00    -0.067 A  
HETATM   32  C   UNL     1      -9.397   1.855  62.427  1.00  0.00    -0.086 A  
HETATM   33  C   UNL     1     -10.108   1.819  63.620  1.00  0.00    -0.128 A  
HETATM   34  C   UNL     1      -9.480   2.144  64.829  1.00  0.00    -0.065 A  
HETATM   35  C   UNL     1      -8.116   2.533  64.850  1.00  0.00    -0.082 A  
ENDBRANCH  24  27
ENDBRANCH  20  21
ENDBRANCH  19  20
ENDBRANCH  13  14
ENDBRANCH  10  13
TORSDOF 5
ENDMDL
MODEL      268
REMARK 921   NORMALIZED FREE ENERGY PREDICTED BY IDOCK:    1.67 KCAL/MOL
REMARK 922        TOTAL FREE ENERGY PREDICTED BY IDOCK:    0.44 KCAL/MOL
REMARK 923 INTER-LIGAND FREE ENERGY PREDICTED BY IDOCK:   -3.90 KCAL/MOL
REMARK 924 INTRA-LIGAND FREE ENERGY PREDICTED BY IDOCK:    4.33 KCAL/MOL
REMARK 927      BINDING AFFINITY PREDICTED BY RF-SCORE:    0.00 PKD
ROOT
HETATM    1  C   UNL     1      -7.819   4.842  68.009  1.00  0.00    -0.083 C  
HETATM    2  C   UNL     1      -7.400   3.420  68.422  1.00  0.00    -0.050 C  
HETATM    3  C   UNL     1      -8.618   2.739  69.077  1.00  0.00    -0.116 C  
HETATM    4  C   UNL     1      -9.570   2.508  67.886  1.00  0.00    -0.061 C  
HETATM    5  C   UNL     1      -8.773   3.071  66.692  1.00  0.00    -0.135 C  
HETATM    6  C   UNL     1      -7.349   2.672  67.089  1.00  0.00    -0.057 C  
HETATM    7  C   UNL     1      -8.762   4.603  66.827  1.00  0.00    -0.111 C  
HETATM    8  C   UNL     1      -8.101   5.299  65.671  1.00  0.00    -0.117 C  
HETATM    9  O   UNL     1      -8.504   5.258  64.519  1.00  0.00    -0.139 OA 
HETATM   10  N   UNL     1      -6.982   5.938  66.122  1.00  0.00    -0.061 N  
HETATM   11  O   UNL     1      -5.668   5.942  68.032  1.00  0.00    -0.011 OA 
HETATM   12  C   UNL     1      -6.688   5.645  67.426  1.00  0.00    -0.059 C  
ENDROOT
BRANCH  10  13
HETATM   13  C   UNL     1      -6.084   6.687  65.256  1.00  0.00    -0.038 C  
BRANCH  13  14
HETATM   14  C   UNL     1      -6.433   8.192  65.217  1.00  0.00    -0.052 C  
HETATM   15  C   UNL     1      -5.150   9.023  65.016  1.00  0.00    -0.037 C  
HETATM   16  C   UNL     1      -5.454  10.510  64.894  1.00  0.00    -0.142 C  
HETATM   17  C   UNL     1      -6.259  11.014  66.084  1.00  0.00    -0.104 C  
HETATM   18  C   UNL     1      -7.529  10.193  66.296  1.00  0.00    -0.112 C  
HETATM   19  C   UNL     1      -7.209   8.695  66.475  1.00  0.00    -0.080 C  
BRANCH  19  20
HETATM   20  C   UNL     1      -8.492   7.865  66.716  1.00  0.00    -0.129 C  
BRANCH  20  21
HETATM   21  N   UNL     1      -9.008   7.805  68.097  1.00  0.00    -0.128 NA 
HETATM   22  C   UNL     1      -8.585   9.021  68.846  1.00  0.00    -0.131 C  
HETATM   23  C   UNL     1      -9.184  10.333  68.298  1.00  0.00    -0.139 C  
HETATM   24  N   UNL     1     -10.655  10.282  68.243  1.00  0.00    -0.206 NA 
HETATM   25  C   UNL     1     -11.241   9.036  67.715  1.00  0.00     0.511 C  
HETATM   26  C   UNL     1     -10.488   7.760  68.177  1.00  0.00    -0.176 C  
BRANCH  24  27
HETATM   27  C   UNL     1     -11.351  11.038  69.149  1.00  0.00    -0.280 A  
HETATM   28  N   UNL     1     -11.703  12.301  68.914  1.00  0.00    -0.313 NA 
HETATM   29  S   UNL     1     -12.649  12.851  70.143  1.00  0.00     0.157 SA 
HETATM   30  C   UNL     1     -12.659  11.397  71.050  1.00  0.00    -0.386 A  
HETATM   31  C   UNL     1     -13.334  11.101  72.247  1.00  0.00    -0.080 A  
HETATM   32  C   UNL     1     -13.192   9.824  72.792  1.00  0.00     0.199 A  
HETATM   33  C   UNL     1     -12.401   8.870  72.164  1.00  0.00    -0.449 A  
HETATM   34  C   UNL     1     -11.743   9.173  70.966  1.00  0.00    -0.363 A  
HETATM   35  C   UNL     1     -11.859  10.464  70.387  1.00  0.00    -0.418 A  
ENDBRANCH  24  27
ENDBRANCH  20  21
ENDBRANCH  19  20
ENDBRANCH  13  14
ENDBRANCH  10  13
TORSDOF 5
ENDMDL
MODEL      269
REMARK 921   NORMALIZED FREE ENERGY PREDICTED BY IDOCK:    2.25 KCAL/MOL
REMARK 922        TOTAL FREE ENERGY PREDICTED BY IDOCK:    1.19 KCAL/MOL
REMARK 923 INTER-LIGAND FREE ENERGY PREDICTED BY IDOCK:    1.26 KCAL/MOL
REMARK 924 INTRA-LIGAND FREE ENERGY PREDICTED BY IDOCK:   -0.06 KCAL/MOL
REMARK 927      BINDING AFFINITY PREDICTED BY RF-SCORE:    0.00 PKD
ROOT
HETATM    1  C   UNL     1      -7.118  11.829  68.832  1.00  0.00    -0.114 C  
HETATM    2  C   UNL     1      -7.658  13.003  69.667  1.00  0.00     0.900 C  
HETATM    3  C   UNL     1      -6.459  13.874  70.092  1.00  0.00    -0.023 C  
HETATM    4  C   UNL     1      -6.023  14.535  68.769  1.00  0.00    -0.084 C  
HETATM    5  C   UNL     1      -7.037  13.975  67.751  1.00  0.00    -0.183 C  
HETATM    6  C   UNL     1      -8.299  13.910  68.615  1.00  0.00    -0.088 C  
HETATM    7  C   UNL     1      -6.689  12.495  67.522  1.00  0.00    -0.151 C  
HETATM    8  C   UNL     1      -7.537  11.837  66.470  1.00  0.00     0.072 C  
HETATM    9  O   UNL     1      -7.556  12.166  65.294  1.00  0.00     1.971 OA 
HETATM   10  N   UNL     1      -8.288  10.860  67.056  1.00  0.00    -0.129 N  
HETATM   11  O   UNL     1      -8.866  10.204  69.203  1.00  0.00    -0.152 OA 
HETATM   12  C   UNL     1      -8.188  10.855  68.422  1.00  0.00    -0.133 C  
ENDROOT
BRANCH  10  13
HETATM   13  C   UNL     1      -9.249  10.043  66.330  1.00  0.00    -0.162 C  
BRANCH  13  14
HETATM   14  C   UNL     1      -9.580  10.631  64.940  1.00  0.00    -0.323 C  
HETATM   15  C   UNL     1     -11.088  10.941  64.848  1.00  0.00     0.095 C  
HETATM   16  C   UNL     1     -11.450  11.595  63.521  1.00  0.00    -0.427 C  
HETATM   17  C   UNL     1     -10.984  10.754  62.340  1.00  0.00     1.731 C  
HETATM   18  C   UNL     1      -9.493  10.437  62.425  1.00  0.00    -0.256 C  
HETATM   19  C   UNL     1      -9.143   9.724  63.747  1.00  0.00    -0.270 C  
BRANCH  19  20
HETATM   20  C   UNL     1      -7.637   9.377  63.825  1.00  0.00    -0.117 C  
BRANCH  20  21
HETATM   21  N   UNL     1      -7.270   7.949  63.788  1.00  0.00    -0.087 NA 
HETATM   22  C   UNL     1      -6.029   7.727  64.582  1.00  0.00    -0.041 C  
HETATM   23  C   UNL     1      -6.193   8.015  66.090  1.00  0.00    -0.045 C  
HETATM   24  N   UNL     1      -7.294   7.235  66.679  1.00  0.00    -0.079 NA 
HETATM   25  C   UNL     1      -8.542   7.180  65.894  1.00  0.00    -0.148 C  
HETATM   26  C   UNL     1      -8.300   7.054  64.367  1.00  0.00     0.125 C  
BRANCH  24  27
HETATM   27  C   UNL     1      -6.965   6.203  67.518  1.00  0.00    -0.069 A  
HETATM   28  N   UNL     1      -6.233   5.162  67.126  1.00  0.00    -0.031 NA 
HETATM   29  S   UNL     1      -5.909   4.195  68.417  1.00  0.00    -0.027 SA 
HETATM   30  C   UNL     1      -6.719   5.149  69.587  1.00  0.00    -0.051 A  
HETATM   31  C   UNL     1      -6.820   4.956  70.975  1.00  0.00    -0.039 A  
HETATM   32  C   UNL     1      -7.534   5.892  71.727  1.00  0.00    -0.095 A  
HETATM   33  C   UNL     1      -8.128   6.987  71.113  1.00  0.00    -0.105 A  
HETATM   34  C   UNL     1      -8.009   7.175  69.731  1.00  0.00    -0.123 A  
HETATM   35  C   UNL     1      -7.298   6.240  68.935  1.00  0.00    -0.086 A  
ENDBRANCH  24  27
ENDBRANCH  20  21
ENDBRANCH  19  20
ENDBRANCH  13  14
ENDBRANCH  10  13
TORSDOF 5
ENDMDL
MODEL      270
REMARK 921   NORMALIZED FREE ENERGY PREDICTED BY IDOCK:    2.66 KCAL/MOL
REMARK 922        TOTAL FREE ENERGY PREDICTED BY IDOCK:    1.71 KCAL/MOL
REMARK 923 INTER-LIGAND FREE ENERGY PREDICTED BY IDOCK:    1.44 KCAL/MOL
REMARK 924 INTRA-LIGAND FREE ENERGY PREDICTED BY IDOCK:    0.27 KCAL/MOL
REMARK 927      BINDING AFFINITY PREDICTED BY RF-SCORE:    0.00 PKD
ROOT
HETATM    1  C   UNL     1      -7.118  11.829  68.832  1.00  0.00    -0.114 C  
HETATM    2  C   UNL     1      -7.658  13.003  69.667  1.00  0.00     0.900 C  
HETATM    3  C   UNL     1      -6.459  13.874  70.092  1.00  0.00    -0.023 C  
HETATM    4  C   UNL     1      -6.023  14.535  68.769  1.00  0.00    -0.084 C  
HETATM    5  C   UNL     1      -7.037  13.975  67.751  1.00  0.00    -0.183 C  
HETATM    6  C   UNL     1      -8.299  13.910  68.615  1.00  0.00    -0.088 C  
HETATM    7  C   UNL     1      -6.689  12.495  67.522  1.00  0.00    -0.151 C  
HETATM    8  C   UNL     1      -7.537  11.837  66.470  1.00  0.00     0.072 C  
HETATM    9  O   UNL     1      -7.556  12.166  65.294  1.00  0.00     1.971 OA 
HETATM   10  N   UNL     1      -8.288  10.860  67.056  1.00  0.00    -0.129 N  
HETATM   11  O   UNL     1      -8.866  10.204  69.203  1.00  0.00    -0.152 OA 
HETATM   12  C   UNL     1      -8.188  10.855  68.422  1.00  0.00    -0.133 C  
ENDROOT
BRANCH  10  13
HETATM   13  C   UNL     1      -9.249  10.043  66.330  1.00  0.00    -0.162 C  
BRANCH  13  14
HETATM   14  C   UNL     1      -9.580  10.631  64.940  1.00  0.00    -0.323 C  
HETATM   15  C   UNL     1     -11.088  10.941  64.848  1.00  0.00     0.095 C  
HETATM   16  C   UNL     1     -11.450  11.595  63.521  1.00  0.00    -0.427 C  
HETATM   17  C   UNL     1     -10.984  10.754  62.340  1.00  0.00     1.731 C  
HETATM   18  C   UNL     1      -9.493  10.437  62.425  1.00  0.00    -0.256 C  
HETATM   19  C   UNL     1      -9.143   9.724  63.747  1.00  0.00    -0.270 C  
BRANCH  19  20
HETATM   20  C   UNL     1      -7.637   9.377  63.825  1.00  0.00    -0.117 C  
BRANCH  20  21
HETATM   21  N   UNL     1      -7.270   7.949  63.788  1.00  0.00    -0.087 NA 
HETATM   22  C   UNL     1      -6.029   7.727  64.582  1.00  0.00    -0.041 C  
HETATM   23  C   UNL     1      -6.193   8.015  66.090  1.00  0.00    -0.045 C  
HETATM   24  N   UNL     1      -7.294   7.235  66.679  1.00  0.00    -0.079 NA 
HETATM   25  C   UNL     1      -8.542   7.180  65.894  1.00  0.00    -0.148 C  
HETATM   26  C   UNL     1      -8.300   7.054  64.367  1.00  0.00     0.125 C  
BRANCH  24  27
HETATM   27  C   UNL     1      -6.965   6.203  67.518  1.00  0.00    -0.069 A  
HETATM   28  N   UNL     1      -6.870   6.349  68.838  1.00  0.00    -0.064 NA 
HETATM   29  S   UNL     1      -6.606   4.885  69.540  1.00  0.00    -0.041 SA 
HETATM   30  C   UNL     1      -6.635   3.964  68.095  1.00  0.00    -0.042 A  
HETATM   31  C   UNL     1      -6.521   2.574  67.925  1.00  0.00    -0.032 A  
HETATM   32  C   UNL     1      -6.588   2.055  66.631  1.00  0.00    -0.038 A  
HETATM   33  C   UNL     1      -6.762   2.896  65.539  1.00  0.00    -0.040 A  
HETATM   34  C   UNL     1      -6.885   4.278  65.722  1.00  0.00    -0.057 A  
HETATM   35  C   UNL     1      -6.815   4.842  67.023  1.00  0.00    -0.056 A  
ENDBRANCH  24  27
ENDBRANCH  20  21
ENDBRANCH  19  20
ENDBRANCH  13  14
ENDBRANCH  10  13
TORSDOF 5
ENDMDL
MODEL      271
REMARK 921   NORMALIZED FREE ENERGY PREDICTED BY IDOCK:    3.06 KCAL/MOL
REMARK 922        TOTAL FREE ENERGY PREDICTED BY IDOCK:    2.23 KCAL/MOL
REMARK 923 INTER-LIGAND FREE ENERGY PREDICTED BY IDOCK:   -1.77 KCAL/MOL
REMARK 924 INTRA-LIGAND FREE ENERGY PREDICTED BY IDOCK:    4.00 KCAL/MOL
REMARK 927      BINDING AFFINITY PREDICTED BY RF-SCORE:    0.00 PKD
ROOT
HETATM    1  C   UNL     1     -12.360  14.535  69.011  1.00  0.00    -0.122 C  
HETATM    2  C   UNL     1     -12.254  15.889  69.735  1.00  0.00    -0.157 C  
HETATM    3  C   UNL     1     -12.984  15.761  71.086  1.00  0.00    -0.421 C  
HETATM    4  C   UNL     1     -12.054  14.838  71.899  1.00  0.00    -0.409 C  
HETATM    5  C   UNL     1     -10.896  14.563  70.918  1.00  0.00     0.498 C  
HETATM    6  C   UNL     1     -10.800  15.917  70.208  1.00  0.00    -0.349 C  
HETATM    7  C   UNL     1     -11.432  13.627  69.823  1.00  0.00    -0.256 C  
HETATM    8  C   UNL     1     -10.381  13.189  68.844  1.00  0.00    -0.048 C  
HETATM    9  O   UNL     1      -9.399  12.524  69.136  1.00  0.00     0.345 OA 
HETATM   10  N   UNL     1     -10.692  13.686  67.611  1.00  0.00    -0.244 N  
HETATM   11  O   UNL     1     -12.138  15.262  66.718  1.00  0.00     0.099 OA 
HETATM   12  C   UNL     1     -11.751  14.553  67.635  1.00  0.00    -0.382 C  
ENDROOT
BRANCH  10  13
HETATM   13  C   UNL     1      -9.865  13.480  66.431  1.00  0.00    -0.295 C  
BRANCH  13  14
HETATM   14  C   UNL     1     -10.686  13.549  65.125  1.00  0.00    -0.349 C  
HETATM   15  C   UNL     1     -11.257  14.969  64.939  1.00  0.00    -0.423 C  
HETATM   16  C   UNL     1     -12.012  15.107  63.623  1.00  0.00     0.652 C  
HETATM   17  C   UNL     1     -13.101  14.051  63.493  1.00  0.00     1.662 C  
HETATM   18  C   UNL     1     -12.546  12.640  63.681  1.00  0.00    -0.437 C  
HETATM   19  C   UNL     1     -11.832  12.493  65.040  1.00  0.00    -0.445 C  
BRANCH  19  20
HETATM   20  C   UNL     1     -11.292  11.057  65.245  1.00  0.00     0.308 C  
BRANCH  20  21
HETATM   21  N   UNL     1      -9.919  10.920  65.766  1.00  0.00    -0.235 NA 
HETATM   22  C   UNL     1      -9.935  10.116  67.021  1.00  0.00    -0.199 C  
HETATM   23  C   UNL     1     -10.387   8.655  66.819  1.00  0.00    -0.266 C  
HETATM   24  N   UNL     1      -9.571   7.963  65.807  1.00  0.00     0.157 NA 
HETATM   25  C   UNL     1      -9.283   8.723  64.576  1.00  0.00     0.450 C  
HETATM   26  C   UNL     1      -8.996  10.226  64.838  1.00  0.00    -0.201 C  
BRANCH  24  27
HETATM   27  C   UNL     1      -8.693   7.006  66.244  1.00  0.00    -0.146 A  
HETATM   28  N   UNL     1      -8.728   5.747  65.814  1.00  0.00    -0.149 NA 
HETATM   29  S   UNL     1      -7.447   4.916  66.428  1.00  0.00    -0.087 SA 
HETATM   30  C   UNL     1      -6.756   6.226  67.289  1.00  0.00    -0.060 A  
HETATM   31  C   UNL     1      -5.569   6.268  68.040  1.00  0.00    -0.008 A  
HETATM   32  C   UNL     1      -5.207   7.473  68.645  1.00  0.00    -0.022 A  
HETATM   33  C   UNL     1      -6.005   8.602  68.506  1.00  0.00    -0.045 A  
HETATM   34  C   UNL     1      -7.179   8.551  67.746  1.00  0.00    -0.084 A  
HETATM   35  C   UNL     1      -7.581   7.340  67.123  1.00  0.00    -0.103 A  
ENDBRANCH  24  27
ENDBRANCH  20  21
ENDBRANCH  19  20
ENDBRANCH  13  14
ENDBRANCH  10  13
TORSDOF 5
ENDMDL
MODEL      272
REMARK 921   NORMALIZED FREE ENERGY PREDICTED BY IDOCK:    3.18 KCAL/MOL
REMARK 922        TOTAL FREE ENERGY PREDICTED BY IDOCK:    2.39 KCAL/MOL
REMARK 923 INTER-LIGAND FREE ENERGY PREDICTED BY IDOCK:   -2.03 KCAL/MOL
REMARK 924 INTRA-LIGAND FREE ENERGY PREDICTED BY IDOCK:    4.42 KCAL/MOL
REMARK 927      BINDING AFFINITY PREDICTED BY RF-SCORE:    0.00 PKD
ROOT
HETATM    1  C   UNL     1      -7.471  12.736  68.293  1.00  0.00    -0.124 C  
HETATM    2  C   UNL     1      -6.333  11.978  68.999  1.00  0.00    -0.085 C  
HETATM    3  C   UNL     1      -5.919  10.799  68.097  1.00  0.00    -0.049 C  
HETATM    4  C   UNL     1      -5.216  11.495  66.914  1.00  0.00    -0.114 C  
HETATM    5  C   UNL     1      -5.299  12.988  67.292  1.00  0.00     0.159 C  
HETATM    6  C   UNL     1      -5.130  12.904  68.812  1.00  0.00    -0.061 C  
HETATM    7  C   UNL     1      -6.764  13.424  67.123  1.00  0.00     0.331 C  
HETATM    8  C   UNL     1      -6.981  14.892  67.362  1.00  0.00    -0.130 C  
HETATM    9  O   UNL     1      -6.485  15.782  66.688  1.00  0.00    -0.117 OA 
HETATM   10  N   UNL     1      -7.780  15.047  68.458  1.00  0.00    -0.115 N  
HETATM   11  O   UNL     1      -8.562  13.736  70.202  1.00  0.00     1.946 OA 
HETATM   12  C   UNL     1      -8.022  13.870  69.113  1.00  0.00     0.196 C  
ENDROOT
BRANCH  10  13
HETATM   13  C   UNL     1      -8.165  16.345  68.991  1.00  0.00    -0.222 C  
BRANCH  13  14
HETATM   14  C   UNL     1      -7.547  17.511  68.189  1.00  0.00    -0.221 C  
HETATM   15  C   UNL     1      -6.604  18.329  69.094  1.00  0.00    -0.265 C  
HETATM   16  C   UNL     1      -5.912  19.446  68.326  1.00  0.00    -0.238 C  
HETATM   17  C   UNL     1      -6.918  20.344  67.620  1.00  0.00    -0.342 C  
HETATM   18  C   UNL     1      -7.860  19.543  66.725  1.00  0.00    -0.291 C  
HETATM   19  C   UNL     1      -8.601  18.450  67.522  1.00  0.00    -0.264 C  
BRANCH  19  20
HETATM   20  C   UNL     1      -9.576  17.654  66.623  1.00  0.00    -0.295 C  
BRANCH  20  21
HETATM   21  N   UNL     1     -10.984  17.575  67.057  1.00  0.00    -0.033 NA 
HETATM   22  C   UNL     1     -11.330  16.166  67.393  1.00  0.00     0.061 C  
HETATM   23  C   UNL     1     -10.552  15.604  68.602  1.00  0.00    -0.243 C  
HETATM   24  N   UNL     1     -10.718  16.445  69.799  1.00  0.00    -0.334 NA 
HETATM   25  C   UNL     1     -10.615  17.902  69.587  1.00  0.00     0.662 C  
HETATM   26  C   UNL     1     -11.280  18.378  68.268  1.00  0.00     0.755 C  
BRANCH  24  27
HETATM   27  C   UNL     1     -11.488  15.954  70.820  1.00  0.00    -0.407 A  
HETATM   28  N   UNL     1     -11.913  16.710  71.831  1.00  0.00    -0.149 NA 
HETATM   29  S   UNL     1     -12.926  15.837  72.789  1.00  0.00    -0.517 SA 
HETATM   30  C   UNL     1     -12.869  14.391  71.871  1.00  0.00    -0.349 A  
HETATM   31  C   UNL     1     -13.558  13.183  72.073  1.00  0.00    -0.554 A  
HETATM   32  C   UNL     1     -13.350  12.140  71.168  1.00  0.00     0.249 A  
HETATM   33  C   UNL     1     -12.482  12.296  70.095  1.00  0.00    -0.095 A  
HETATM   34  C   UNL     1     -11.811  13.509  69.897  1.00  0.00    -0.386 A  
HETATM   35  C   UNL     1     -11.993  14.588  70.801  1.00  0.00    -0.388 A  
ENDBRANCH  24  27
ENDBRANCH  20  21
ENDBRANCH  19  20
ENDBRANCH  13  14
ENDBRANCH  10  13
TORSDOF 5
ENDMDL
MODEL      273
REMARK 921   NORMALIZED FREE ENERGY PREDICTED BY IDOCK:    3.32 KCAL/MOL
REMARK 922        TOTAL FREE ENERGY PREDICTED BY IDOCK:    2.57 KCAL/MOL
REMARK 923 INTER-LIGAND FREE ENERGY PREDICTED BY IDOCK:   -0.57 KCAL/MOL
REMARK 924 INTRA-LIGAND FREE ENERGY PREDICTED BY IDOCK:    3.14 KCAL/MOL
REMARK 927      BINDING AFFINITY PREDICTED BY RF-SCORE:    0.00 PKD
ROOT
HETATM    1  C   UNL     1     -11.203  15.967  69.274  1.00  0.00    -0.335 C  
HETATM    2  C   UNL     1     -12.271  16.321  70.324  1.00  0.00     0.328 C  
HETATM    3  C   UNL     1     -13.396  15.271  70.228  1.00  0.00     0.045 C  
HETATM    4  C   UNL     1     -12.734  13.998  70.794  1.00  0.00    -0.396 C  
HETATM    5  C   UNL     1     -11.316  14.480  71.161  1.00  0.00     0.031 C  
HETATM    6  C   UNL     1     -11.615  15.903  71.641  1.00  0.00    -0.541 C  
HETATM    7  C   UNL     1     -10.552  14.704  69.845  1.00  0.00    -0.012 C  
HETATM    8  C   UNL     1      -9.112  15.082  70.048  1.00  0.00     0.400 C  
HETATM    9  O   UNL     1      -8.278  14.366  70.580  1.00  0.00     1.346 OA 
HETATM   10  N   UNL     1      -8.917  16.349  69.577  1.00  0.00     0.005 N  
HETATM   11  O   UNL     1     -10.224  18.145  68.913  1.00  0.00    -0.379 OA 
HETATM   12  C   UNL     1     -10.083  16.968  69.211  1.00  0.00    -0.208 C  
ENDROOT
BRANCH  10  13
HETATM   13  C   UNL     1      -7.640  17.042  69.646  1.00  0.00     0.492 C  
BRANCH  13  14
HETATM   14  C   UNL     1      -7.235  17.652  68.285  1.00  0.00    -0.227 C  
HETATM   15  C   UNL     1      -8.098  18.895  67.990  1.00  0.00    -0.321 C  
HETATM   16  C   UNL     1      -7.682  19.576  66.693  1.00  0.00    -0.286 C  
HETATM   17  C   UNL     1      -7.695  18.602  65.522  1.00  0.00     0.357 C  
HETATM   18  C   UNL     1      -6.847  17.364  65.808  1.00  0.00     0.029 C  
HETATM   19  C   UNL     1      -7.311  16.648  67.092  1.00  0.00    -0.220 C  
BRANCH  19  20
HETATM   20  C   UNL     1      -6.471  15.379  67.370  1.00  0.00    -0.080 C  
BRANCH  20  21
HETATM   21  N   UNL     1      -7.041  14.380  68.294  1.00  0.00    -0.100 NA 
HETATM   22  C   UNL     1      -7.884  13.415  67.535  1.00  0.00    -0.176 C  
HETATM   23  C   UNL     1      -7.095  12.556  66.524  1.00  0.00     0.857 C  
HETATM   24  N   UNL     1      -5.986  11.832  67.169  1.00  0.00    -0.126 NA 
HETATM   25  C   UNL     1      -5.176  12.608  68.127  1.00  0.00    -0.073 C  
HETATM   26  C   UNL     1      -6.019  13.573  69.002  1.00  0.00    -0.082 C  
BRANCH  24  27
HETATM   27  C   UNL     1      -6.114  10.476  67.318  1.00  0.00    -0.054 A  
HETATM   28  N   UNL     1      -5.302   9.606  66.720  1.00  0.00    -0.044 NA 
HETATM   29  S   UNL     1      -5.647   8.082  67.234  1.00  0.00    -0.038 SA 
HETATM   30  C   UNL     1      -6.899   8.518  68.320  1.00  0.00    -0.066 A  
HETATM   31  C   UNL     1      -7.652   7.703  69.182  1.00  0.00    -0.100 A  
HETATM   32  C   UNL     1      -8.620   8.304  69.989  1.00  0.00    -0.128 A  
HETATM   33  C   UNL     1      -8.832   9.676  69.938  1.00  0.00    -0.240 A  
HETATM   34  C   UNL     1      -8.067  10.479  69.084  1.00  0.00    -0.152 A  
HETATM   35  C   UNL     1      -7.079   9.901  68.244  1.00  0.00    -0.076 A  
ENDBRANCH  24  27
ENDBRANCH  20  21
ENDBRANCH  19  20
ENDBRANCH  13  14
ENDBRANCH  10  13
TORSDOF 5
ENDMDL
MODEL      274
REMARK 921   NORMALIZED FREE ENERGY PREDICTED BY IDOCK:    3.81 KCAL/MOL
REMARK 922        TOTAL FREE ENERGY PREDICTED BY IDOCK:    3.20 KCAL/MOL
REMARK 923 INTER-LIGAND FREE ENERGY PREDICTED BY IDOCK:    0.40 KCAL/MOL
REMARK 924 INTRA-LIGAND FREE ENERGY PREDICTED BY IDOCK:    2.79 KCAL/MOL
REMARK 927      BINDING AFFINITY PREDICTED BY RF-SCORE:    0.00 PKD
ROOT
HETATM    1  C   UNL     1     -10.930  16.021  69.043  1.00  0.00    -0.296 C  
HETATM    2  C   UNL     1     -12.102  16.372  69.977  1.00  0.00     0.493 C  
HETATM    3  C   UNL     1     -13.158  15.256  69.851  1.00  0.00     0.209 C  
HETATM    4  C   UNL     1     -12.483  14.057  70.546  1.00  0.00    -0.429 C  
HETATM    5  C   UNL     1     -11.128  14.638  71.000  1.00  0.00     0.107 C  
HETATM    6  C   UNL     1     -11.542  16.066  71.367  1.00  0.00    -0.520 C  
HETATM    7  C   UNL     1     -10.266  14.832  69.742  1.00  0.00     0.012 C  
HETATM    8  C   UNL     1      -8.870  15.301  70.041  1.00  0.00     0.346 C  
HETATM    9  O   UNL     1      -8.050  14.664  70.682  1.00  0.00     1.149 OA 
HETATM   10  N   UNL     1      -8.702  16.549  69.512  1.00  0.00     0.091 N  
HETATM   11  O   UNL     1     -10.038  18.228  68.635  1.00  0.00    -0.370 OA 
HETATM   12  C   UNL     1      -9.862  17.079  69.014  1.00  0.00    -0.240 C  
ENDROOT
BRANCH  10  13
HETATM   13  C   UNL     1      -7.473  17.317  69.645  1.00  0.00     0.483 C  
BRANCH  13  14
HETATM   14  C   UNL     1      -6.931  17.789  68.278  1.00  0.00    -0.223 C  
HETATM   15  C   UNL     1      -7.831  18.906  67.714  1.00  0.00    -0.267 C  
HETATM   16  C   UNL     1      -7.292  19.457  66.401  1.00  0.00    -0.264 C  
HETATM   17  C   UNL     1      -7.077  18.350  65.378  1.00  0.00     0.049 C  
HETATM   18  C   UNL     1      -6.190  17.236  65.929  1.00  0.00     0.140 C  
HETATM   19  C   UNL     1      -6.773  16.644  67.229  1.00  0.00    -0.213 C  
BRANCH  19  20
HETATM   20  C   UNL     1      -5.890  15.497  67.776  1.00  0.00    -0.137 C  
BRANCH  20  21
HETATM   21  N   UNL     1      -6.563  14.437  68.551  1.00  0.00    -0.087 NA 
HETATM   22  C   UNL     1      -7.671  13.850  67.746  1.00  0.00    -0.172 C  
HETATM   23  C   UNL     1      -7.196  13.114  66.476  1.00  0.00     1.557 C  
HETATM   24  N   UNL     1      -6.210  12.066  66.786  1.00  0.00    -0.158 NA 
HETATM   25  C   UNL     1      -5.155  12.433  67.750  1.00  0.00    -0.087 C  
HETATM   26  C   UNL     1      -5.672  13.311  68.919  1.00  0.00    -0.074 C  
BRANCH  24  27
HETATM   27  C   UNL     1      -6.612  10.761  66.673  1.00  0.00    -0.112 A  
HETATM   28  N   UNL     1      -6.800   9.971  67.728  1.00  0.00    -0.075 NA 
HETATM   29  S   UNL     1      -7.419   8.528  67.237  1.00  0.00    -0.093 SA 
HETATM   30  C   UNL     1      -7.495   8.903  65.566  1.00  0.00    -0.086 A  
HETATM   31  C   UNL     1      -7.987   8.128  64.503  1.00  0.00    -0.142 A  
HETATM   32  C   UNL     1      -7.951   8.666  63.215  1.00  0.00    -0.163 A  
HETATM   33  C   UNL     1      -7.440   9.938  62.994  1.00  0.00    -0.130 A  
HETATM   34  C   UNL     1      -6.963  10.706  64.064  1.00  0.00     0.248 A  
HETATM   35  C   UNL     1      -6.978  10.188  65.385  1.00  0.00    -0.139 A  
ENDBRANCH  24  27
ENDBRANCH  20  21
ENDBRANCH  19  20
ENDBRANCH  13  14
ENDBRANCH  10  13
TORSDOF 5
ENDMDL
MODEL      275
REMARK 921   NORMALIZED FREE ENERGY PREDICTED BY IDOCK:    4.78 KCAL/MOL
REMARK 922        TOTAL FREE ENERGY PREDICTED BY IDOCK:    4.45 KCAL/MOL
REMARK 923 INTER-LIGAND FREE ENERGY PREDICTED BY IDOCK:   -3.78 KCAL/MOL
REMARK 924 INTRA-LIGAND FREE ENERGY PREDICTED BY IDOCK:    8.23 KCAL/MOL
REMARK 927      BINDING AFFINITY PREDICTED BY RF-SCORE:    0.00 PKD
ROOT
HETATM    1  C   UNL     1     -11.001   8.261  71.371  1.00  0.00    -0.301 C  
HETATM    2  C   UNL     1     -11.893   8.040  72.605  1.00  0.00    -0.380 C  
HETATM    3  C   UNL     1     -13.130   8.948  72.464  1.00  0.00    -0.426 C  
HETATM    4  C   UNL     1     -13.921   8.284  71.319  1.00  0.00    -0.247 C  
HETATM    5  C   UNL     1     -13.046   7.067  70.955  1.00  0.00    -0.170 C  
HETATM    6  C   UNL     1     -12.522   6.672  72.339  1.00  0.00     0.030 C  
HETATM    7  C   UNL     1     -11.793   7.598  70.241  1.00  0.00     0.072 C  
HETATM    8  C   UNL     1     -10.887   6.510  69.735  1.00  0.00    -0.295 C  
HETATM    9  O   UNL     1     -11.202   5.689  68.887  1.00  0.00    -0.092 OA 
HETATM   10  N   UNL     1      -9.698   6.580  70.401  1.00  0.00    -0.171 N  
HETATM   11  O   UNL     1      -8.852   7.639  72.282  1.00  0.00    -0.121 OA 
HETATM   12  C   UNL     1      -9.713   7.487  71.427  1.00  0.00    -0.166 C  
ENDROOT
BRANCH  10  13
HETATM   13  C   UNL     1      -8.600   5.652  70.181  1.00  0.00    -0.127 C  
BRANCH  13  14
HETATM   14  C   UNL     1      -8.267   5.489  68.681  1.00  0.00    -0.102 C  
HETATM   15  C   UNL     1      -9.439   4.798  67.955  1.00  0.00    -0.182 C  
HETATM   16  C   UNL     1      -9.187   4.684  66.457  1.00  0.00    -0.132 C  
HETATM   17  C   UNL     1      -7.867   3.986  66.165  1.00  0.00    -0.090 C  
HETATM   18  C   UNL     1      -6.700   4.660  66.884  1.00  0.00    -0.051 C  
HETATM   19  C   UNL     1      -6.936   4.720  68.407  1.00  0.00    -0.056 C  
BRANCH  19  20
HETATM   20  C   UNL     1      -5.743   5.378  69.141  1.00  0.00    -0.012 C  
BRANCH  20  21
HETATM   21  N   UNL     1      -5.168   6.596  68.538  1.00  0.00    -0.011 NA 
HETATM   22  C   UNL     1      -5.924   6.953  67.304  1.00  0.00    -0.017 C  
HETATM   23  C   UNL     1      -7.393   7.345  67.565  1.00  0.00    -0.102 C  
HETATM   24  N   UNL     1      -7.502   8.444  68.539  1.00  0.00    -0.093 NA 
HETATM   25  C   UNL     1      -6.642   8.340  69.733  1.00  0.00    -0.039 C  
HETATM   26  C   UNL     1      -5.227   7.784  69.422  1.00  0.00    -0.019 C  
BRANCH  24  27
HETATM   27  C   UNL     1      -7.879   9.675  68.070  1.00  0.00    -0.086 A  
HETATM   28  N   UNL     1      -7.395  10.195  66.944  1.00  0.00    -0.091 NA 
HETATM   29  S   UNL     1      -8.168  11.608  66.609  1.00  0.00    -0.098 SA 
HETATM   30  C   UNL     1      -9.225  11.579  67.957  1.00  0.00    -0.175 A  
HETATM   31  C   UNL     1     -10.244  12.482  68.306  1.00  0.00    -0.235 A  
HETATM   32  C   UNL     1     -10.986  12.232  69.463  1.00  0.00    -0.007 A  
HETATM   33  C   UNL     1     -10.720  11.117  70.247  1.00  0.00     0.491 A  
HETATM   34  C   UNL     1      -9.710  10.219  69.882  1.00  0.00    -0.119 A  
HETATM   35  C   UNL     1      -8.931  10.445  68.717  1.00  0.00    -0.157 A  
ENDBRANCH  24  27
ENDBRANCH  20  21
ENDBRANCH  19  20
ENDBRANCH  13  14
ENDBRANCH  10  13
TORSDOF 5
ENDMDL
MODEL      276
REMARK 921   NORMALIZED FREE ENERGY PREDICTED BY IDOCK:    6.38 KCAL/MOL
REMARK 922        TOTAL FREE ENERGY PREDICTED BY IDOCK:    6.53 KCAL/MOL
REMARK 923 INTER-LIGAND FREE ENERGY PREDICTED BY IDOCK:    2.28 KCAL/MOL
REMARK 924 INTRA-LIGAND FREE ENERGY PREDICTED BY IDOCK:    4.24 KCAL/MOL
REMARK 927      BINDING AFFINITY PREDICTED BY RF-SCORE:    0.00 PKD
ROOT
HETATM    1  C   UNL     1      -8.852   9.266  66.669  1.00  0.00    -0.146 C  
HETATM    2  C   UNL     1      -9.611   9.983  65.539  1.00  0.00    -0.328 C  
HETATM    3  C   UNL     1      -8.618  10.915  64.818  1.00  0.00    -0.006 C  
HETATM    4  C   UNL     1      -7.696   9.930  64.070  1.00  0.00    -0.141 C  
HETATM    5  C   UNL     1      -8.285   8.554  64.443  1.00  0.00    -0.153 C  
HETATM    6  C   UNL     1      -9.779   8.888  64.484  1.00  0.00     1.193 C  
HETATM    7  C   UNL     1      -7.941   8.290  65.918  1.00  0.00    -0.097 C  
HETATM    8  C   UNL     1      -8.369   6.931  66.397  1.00  0.00    -0.125 C  
HETATM    9  O   UNL     1      -7.938   5.877  65.956  1.00  0.00    -0.102 OA 
HETATM   10  N   UNL     1      -9.324   7.083  67.360  1.00  0.00    -0.124 N  
HETATM   11  O   UNL     1     -10.682   8.780  68.168  1.00  0.00    -0.177 OA 
HETATM   12  C   UNL     1      -9.735   8.381  67.505  1.00  0.00    -0.162 C  
ENDROOT
BRANCH  10  13
HETATM   13  C   UNL     1      -9.983   5.966  68.019  1.00  0.00    -0.137 C  
BRANCH  13  14
HETATM   14  C   UNL     1      -8.986   4.854  68.416  1.00  0.00    -0.129 C  
HETATM   15  C   UNL     1      -9.343   3.544  67.688  1.00  0.00    -0.250 C  
HETATM   16  C   UNL     1      -8.341   2.438  67.990  1.00  0.00    -0.081 C  
HETATM   17  C   UNL     1      -8.192   2.215  69.489  1.00  0.00    -0.065 C  
HETATM   18  C   UNL     1      -7.843   3.509  70.221  1.00  0.00    -0.048 C  
HETATM   19  C   UNL     1      -8.893   4.607  69.955  1.00  0.00    -0.125 C  
BRANCH  19  20
HETATM   20  C   UNL     1      -8.557   5.911  70.717  1.00  0.00    -0.130 C  
BRANCH  20  21
HETATM   21  N   UNL     1      -8.837   7.186  70.029  1.00  0.00    -0.142 NA 
HETATM   22  C   UNL     1      -9.187   8.232  71.031  1.00  0.00    -0.158 C  
HETATM   23  C   UNL     1      -8.031   8.590  71.989  1.00  0.00    -0.105 C  
HETATM   24  N   UNL     1      -6.821   9.001  71.257  1.00  0.00    -0.116 NA 
HETATM   25  C   UNL     1      -6.458   8.176  70.089  1.00  0.00    -0.036 C  
HETATM   26  C   UNL     1      -7.686   7.714  69.260  1.00  0.00    -0.104 C  
BRANCH  24  27
HETATM   27  C   UNL     1      -6.473  10.326  71.295  1.00  0.00     0.446 A  
HETATM   28  N   UNL     1      -5.416  10.774  71.969  1.00  0.00    -0.303 NA 
HETATM   29  S   UNL     1      -5.213  12.381  71.678  1.00  0.00     0.087 SA 
HETATM   30  C   UNL     1      -6.531  12.554  70.597  1.00  0.00     0.898 A  
HETATM   31  C   UNL     1      -6.952  13.689  69.884  1.00  0.00     0.308 A  
HETATM   32  C   UNL     1      -8.063  13.574  69.045  1.00  0.00     0.244 A  
HETATM   33  C   UNL     1      -8.733  12.364  68.922  1.00  0.00     0.287 A  
HETATM   34  C   UNL     1      -8.297  11.237  69.628  1.00  0.00     0.713 A  
HETATM   35  C   UNL     1      -7.176  11.319  70.496  1.00  0.00     1.597 A  
ENDBRANCH  24  27
ENDBRANCH  20  21
ENDBRANCH  19  20
ENDBRANCH  13  14
ENDBRANCH  10  13
TORSDOF 5
ENDMDL
MODEL      277
REMARK 921   NORMALIZED FREE ENERGY PREDICTED BY IDOCK:    7.20 KCAL/MOL
REMARK 922        TOTAL FREE ENERGY PREDICTED BY IDOCK:    7.58 KCAL/MOL
REMARK 923 INTER-LIGAND FREE ENERGY PREDICTED BY IDOCK:   -0.98 KCAL/MOL
REMARK 924 INTRA-LIGAND FREE ENERGY PREDICTED BY IDOCK:    8.56 KCAL/MOL
REMARK 927      BINDING AFFINITY PREDICTED BY RF-SCORE:    0.00 PKD
ROOT
HETATM    1  C   UNL     1     -10.067  14.945  69.321  1.00  0.00    -0.201 C  
HETATM    2  C   UNL     1     -11.018  14.008  70.088  1.00  0.00     0.224 C  
HETATM    3  C   UNL     1     -12.426  14.633  70.054  1.00  0.00    -0.333 C  
HETATM    4  C   UNL     1     -12.850  14.458  68.582  1.00  0.00     1.119 C  
HETATM    5  C   UNL     1     -11.637  13.740  67.956  1.00  0.00    -0.368 C  
HETATM    6  C   UNL     1     -11.210  12.840  69.119  1.00  0.00    -0.294 C  
HETATM    7  C   UNL     1     -10.494  14.764  67.862  1.00  0.00    -0.246 C  
HETATM    8  C   UNL     1      -9.269  14.230  67.174  1.00  0.00    -0.223 C  
HETATM    9  O   UNL     1      -9.235  13.867  66.009  1.00  0.00    -0.101 OA 
HETATM   10  N   UNL     1      -8.241  14.191  68.072  1.00  0.00    -0.141 N  
HETATM   11  O   UNL     1      -7.968  14.367  70.367  1.00  0.00     0.887 OA 
HETATM   12  C   UNL     1      -8.635  14.485  69.349  1.00  0.00     0.205 C  
ENDROOT
BRANCH  10  13
HETATM   13  C   UNL     1      -6.913  13.694  67.747  1.00  0.00    -0.162 C  
BRANCH  13  14
HETATM   14  C   UNL     1      -6.793  12.169  67.962  1.00  0.00    -0.081 C  
HETATM   15  C   UNL     1      -5.332  11.798  68.284  1.00  0.00    -0.043 C  
HETATM   16  C   UNL     1      -5.178  10.312  68.579  1.00  0.00    -0.035 C  
HETATM   17  C   UNL     1      -5.729   9.458  67.445  1.00  0.00    -0.041 C  
HETATM   18  C   UNL     1      -7.175   9.822  67.114  1.00  0.00    -0.087 C  
HETATM   19  C   UNL     1      -7.312  11.317  66.761  1.00  0.00    -0.146 C  
BRANCH  19  20
HETATM   20  C   UNL     1      -8.771  11.684  66.399  1.00  0.00    -0.170 C  
BRANCH  20  21
HETATM   21  N   UNL     1      -9.466  10.815  65.430  1.00  0.00    -0.201 NA 
HETATM   22  C   UNL     1      -8.561   9.709  65.007  1.00  0.00    -0.162 C  
HETATM   23  C   UNL     1      -8.183   8.740  66.147  1.00  0.00    -0.117 C  
HETATM   24  N   UNL     1      -9.375   8.172  66.800  1.00  0.00    -0.170 NA 
HETATM   25  C   UNL     1     -10.466   9.120  67.095  1.00  0.00    -0.255 C  
HETATM   26  C   UNL     1     -10.685  10.170  65.974  1.00  0.00     0.103 C  
BRANCH  24  27
HETATM   27  C   UNL     1      -9.656   6.851  66.572  1.00  0.00    -0.143 A  
HETATM   28  N   UNL     1     -10.802   6.441  66.032  1.00  0.00     0.715 NA 
HETATM   29  S   UNL     1     -10.741   4.819  65.767  1.00  0.00     0.005 SA 
HETATM   30  C   UNL     1      -9.145   4.584  66.344  1.00  0.00    -0.122 A  
HETATM   31  C   UNL     1      -8.377   3.407  66.378  1.00  0.00    -0.102 A  
HETATM   32  C   UNL     1      -7.080   3.475  66.891  1.00  0.00    -0.059 A  
HETATM   33  C   UNL     1      -6.565   4.678  67.356  1.00  0.00    -0.047 A  
HETATM   34  C   UNL     1      -7.336   5.846  67.306  1.00  0.00    -0.077 A  
HETATM   35  C   UNL     1      -8.660   5.813  66.797  1.00  0.00    -0.112 A  
ENDBRANCH  24  27
ENDBRANCH  20  21
ENDBRANCH  19  20
ENDBRANCH  13  14
ENDBRANCH  10  13
TORSDOF 5
ENDMDL
MODEL      278
REMARK 921   NORMALIZED FREE ENERGY PREDICTED BY IDOCK:    7.98 KCAL/MOL
REMARK 922        TOTAL FREE ENERGY PREDICTED BY IDOCK:    8.59 KCAL/MOL
REMARK 923 INTER-LIGAND FREE ENERGY PREDICTED BY IDOCK:    0.41 KCAL/MOL
REMARK 924 INTRA-LIGAND FREE ENERGY PREDICTED BY IDOCK:    8.18 KCAL/MOL
REMARK 927      BINDING AFFINITY PREDICTED BY RF-SCORE:    0.00 PKD
ROOT
HETATM    1  C   UNL     1      -8.082   5.552  68.575  1.00  0.00    -0.099 C  
HETATM    2  C   UNL     1      -7.977   4.077  68.149  1.00  0.00    -0.077 C  
HETATM    3  C   UNL     1      -9.317   3.392  68.481  1.00  0.00    -0.231 C  
HETATM    4  C   UNL     1     -10.286   4.003  67.448  1.00  0.00     0.349 C  
HETATM    5  C   UNL     1      -9.377   4.952  66.640  1.00  0.00    -0.140 C  
HETATM    6  C   UNL     1      -8.073   4.149  66.624  1.00  0.00    -0.101 C  
HETATM    7  C   UNL     1      -9.044   6.150  67.544  1.00  0.00    -0.109 C  
HETATM    8  C   UNL     1      -8.240   7.215  66.853  1.00  0.00    -0.117 C  
HETATM    9  O   UNL     1      -8.631   7.861  65.893  1.00  0.00    -0.140 OA 
HETATM   10  N   UNL     1      -7.015   7.301  67.450  1.00  0.00    -0.076 N  
HETATM   11  O   UNL     1      -5.748   6.056  68.939  1.00  0.00    -0.011 OA 
HETATM   12  C   UNL     1      -6.802   6.316  68.377  1.00  0.00    -0.071 C  
ENDROOT
BRANCH  10  13
HETATM   13  C   UNL     1      -5.971   8.212  67.008  1.00  0.00    -0.053 C  
BRANCH  13  14
HETATM   14  C   UNL     1      -6.341   9.691  67.262  1.00  0.00    -0.068 C  
HETATM   15  C   UNL     1      -5.169  10.604  66.851  1.00  0.00    -0.045 C  
HETATM   16  C   UNL     1      -5.517  12.077  67.013  1.00  0.00    -0.099 C  
HETATM   17  C   UNL     1      -5.991  12.387  68.426  1.00  0.00    -0.056 C  
HETATM   18  C   UNL     1      -7.149  11.483  68.845  1.00  0.00    -0.111 C  
HETATM   19  C   UNL     1      -6.770   9.993  68.733  1.00  0.00    -0.049 C  
BRANCH  19  20
HETATM   20  C   UNL     1      -7.932   9.075  69.181  1.00  0.00    -0.101 C  
BRANCH  20  21
HETATM   21  N   UNL     1      -8.915   9.643  70.125  1.00  0.00    -0.233 NA 
HETATM   22  C   UNL     1      -8.631  11.090  70.338  1.00  0.00     2.571 C  
HETATM   23  C   UNL     1      -8.812  11.954  69.072  1.00  0.00     0.311 C  
HETATM   24  N   UNL     1     -10.157  11.800  68.492  1.00  0.00    -0.210 NA 
HETATM   25  C   UNL     1     -10.675  10.421  68.410  1.00  0.00    -0.225 C  
HETATM   26  C   UNL     1     -10.316   9.558  69.648  1.00  0.00    -0.221 C  
BRANCH  24  27
HETATM   27  C   UNL     1     -11.026  12.853  68.613  1.00  0.00    -0.261 A  
HETATM   28  N   UNL     1     -11.194  13.763  67.656  1.00  0.00    -0.283 NA 
HETATM   29  S   UNL     1     -12.411  14.789  68.073  1.00  0.00     0.387 SA 
HETATM   30  C   UNL     1     -12.799  14.039  69.565  1.00  0.00     0.513 A  
HETATM   31  C   UNL     1     -13.814  14.360  70.482  1.00  0.00     0.580 A  
HETATM   32  C   UNL     1     -13.937  13.582  71.635  1.00  0.00    -0.079 A  
HETATM   33  C   UNL     1     -13.075  12.518  71.866  1.00  0.00    -0.473 A  
HETATM   34  C   UNL     1     -12.075  12.201  70.939  1.00  0.00    -0.181 A  
HETATM   35  C   UNL     1     -11.916  12.975  69.760  1.00  0.00    -0.377 A  
ENDBRANCH  24  27
ENDBRANCH  20  21
ENDBRANCH  19  20
ENDBRANCH  13  14
ENDBRANCH  10  13
TORSDOF 5
ENDMDL
MODEL      279
REMARK 921   NORMALIZED FREE ENERGY PREDICTED BY IDOCK:    8.57 KCAL/MOL
REMARK 922        TOTAL FREE ENERGY PREDICTED BY IDOCK:    9.36 KCAL/MOL
REMARK 923 INTER-LIGAND FREE ENERGY PREDICTED BY IDOCK:    3.54 KCAL/MOL
REMARK 924 INTRA-LIGAND FREE ENERGY PREDICTED BY IDOCK:    5.82 KCAL/MOL
REMARK 927      BINDING AFFINITY PREDICTED BY RF-SCORE:    0.00 PKD
ROOT
HETATM    1  C   UNL     1     -10.589  15.614  68.810  1.00  0.00    -0.238 C  
HETATM    2  C   UNL     1     -11.907  16.110  69.429  1.00  0.00    -0.154 C  
HETATM    3  C   UNL     1     -12.938  14.968  69.326  1.00  0.00     0.696 C  
HETATM    4  C   UNL     1     -12.418  13.937  70.349  1.00  0.00    -0.404 C  
HETATM    5  C   UNL     1     -11.163  14.622  70.924  1.00  0.00    -0.052 C  
HETATM    6  C   UNL     1     -11.617  16.085  70.931  1.00  0.00    -0.453 C  
HETATM    7  C   UNL     1     -10.081  14.593  69.832  1.00  0.00     0.235 C  
HETATM    8  C   UNL     1      -8.758  15.141  70.287  1.00  0.00     0.847 C  
HETATM    9  O   UNL     1      -8.079  14.655  71.178  1.00  0.00     2.189 OA 
HETATM   10  N   UNL     1      -8.478  16.269  69.571  1.00  0.00    -0.011 N  
HETATM   11  O   UNL     1      -9.606  17.722  68.160  1.00  0.00    -0.281 OA 
HETATM   12  C   UNL     1      -9.519  16.670  68.777  1.00  0.00    -0.258 C  
ENDROOT
BRANCH  10  13
HETATM   13  C   UNL     1      -7.284  17.075  69.779  1.00  0.00     0.463 C  
BRANCH  13  14
HETATM   14  C   UNL     1      -6.520  17.335  68.461  1.00  0.00    -0.170 C  
HETATM   15  C   UNL     1      -7.104  18.573  67.752  1.00  0.00    -0.222 C  
HETATM   16  C   UNL     1      -6.332  18.914  66.485  1.00  0.00    -0.208 C  
HETATM   17  C   UNL     1      -6.255  17.722  65.541  1.00  0.00    -0.050 C  
HETATM   18  C   UNL     1      -5.683  16.488  66.236  1.00  0.00     0.863 C  
HETATM   19  C   UNL     1      -6.504  16.115  67.487  1.00  0.00    -0.202 C  
BRANCH  19  20
HETATM   20  C   UNL     1      -5.943  14.849  68.178  1.00  0.00    -0.140 C  
BRANCH  20  21
HETATM   21  N   UNL     1      -6.914  13.818  68.590  1.00  0.00    -0.096 NA 
HETATM   22  C   UNL     1      -8.229  14.074  67.937  1.00  0.00    -0.158 C  
HETATM   23  C   UNL     1      -8.199  13.942  66.400  1.00  0.00     0.848 C  
HETATM   24  N   UNL     1      -7.692  12.627  65.974  1.00  0.00     1.403 NA 
HETATM   25  C   UNL     1      -6.500  12.130  66.686  1.00  0.00     0.301 C  
HETATM   26  C   UNL     1      -6.520  12.441  68.206  1.00  0.00    -0.061 C  
BRANCH  24  27
HETATM   27  C   UNL     1      -8.590  11.742  65.439  1.00  0.00     0.470 A  
HETATM   28  N   UNL     1      -8.438  10.422  65.523  1.00  0.00    -0.162 NA 
HETATM   29  S   UNL     1      -9.766   9.670  64.908  1.00  0.00     0.043 SA 
HETATM   30  C   UNL     1     -10.637  11.094  64.518  1.00  0.00    -0.328 A  
HETATM   31  C   UNL     1     -11.928  11.227  63.982  1.00  0.00     0.365 A  
HETATM   32  C   UNL     1     -12.428  12.512  63.762  1.00  0.00    -0.552 A  
HETATM   33  C   UNL     1     -11.664  13.631  64.068  1.00  0.00    -0.405 A  
HETATM   34  C   UNL     1     -10.382  13.485  64.614  1.00  0.00    -0.406 A  
HETATM   35  C   UNL     1      -9.839  12.194  64.843  1.00  0.00    -0.173 A  
ENDBRANCH  24  27
ENDBRANCH  20  21
ENDBRANCH  19  20
ENDBRANCH  13  14
ENDBRANCH  10  13
TORSDOF 5
ENDMDL
MODEL      280
REMARK 921   NORMALIZED FREE ENERGY PREDICTED BY IDOCK:    9.40 KCAL/MOL
REMARK 922        TOTAL FREE ENERGY PREDICTED BY IDOCK:   10.42 KCAL/MOL
REMARK 923 INTER-LIGAND FREE ENERGY PREDICTED BY IDOCK:    1.17 KCAL/MOL
REMARK 924 INTRA-LIGAND FREE ENERGY PREDICTED BY IDOCK:    9.25 KCAL/MOL
REMARK 927      BINDING AFFINITY PREDICTED BY RF-SCORE:    0.00 PKD
ROOT
HETATM    1  C   UNL     1     -11.037  10.591  70.764  1.00  0.00    -0.065 C  
HETATM    2  C   UNL     1     -11.783   9.252  70.631  1.00  0.00    -0.276 C  
HETATM    3  C   UNL     1     -13.209   9.447  71.184  1.00  0.00    -0.288 C  
HETATM    4  C   UNL     1     -13.875  10.343  70.121  1.00  0.00     1.468 C  
HETATM    5  C   UNL     1     -12.754  10.538  69.080  1.00  0.00     0.922 C  
HETATM    6  C   UNL     1     -12.077   9.165  69.133  1.00  0.00     1.626 C  
HETATM    7  C   UNL     1     -11.705  11.473  69.704  1.00  0.00    -0.419 C  
HETATM    8  C   UNL     1     -10.592  11.836  68.762  1.00  0.00    -0.206 C  
HETATM    9  O   UNL     1     -10.744  12.460  67.723  1.00  0.00    -0.213 OA 
HETATM   10  N   UNL     1      -9.421  11.326  69.243  1.00  0.00     0.091 N  
HETATM   11  O   UNL     1      -8.757   9.800  70.858  1.00  0.00    -0.140 OA 
HETATM   12  C   UNL     1      -9.600  10.512  70.330  1.00  0.00     0.711 C  
ENDROOT
BRANCH  10  13
HETATM   13  C   UNL     1      -8.145  11.464  68.558  1.00  0.00    -0.149 C  
BRANCH  13  14
HETATM   14  C   UNL     1      -7.502  10.095  68.243  1.00  0.00    -0.082 C  
HETATM   15  C   UNL     1      -5.975  10.252  68.103  1.00  0.00    -0.041 C  
HETATM   16  C   UNL     1      -5.288   8.914  67.868  1.00  0.00    -0.035 C  
HETATM   17  C   UNL     1      -5.882   8.186  66.669  1.00  0.00    -0.044 C  
HETATM   18  C   UNL     1      -7.395   8.030  66.795  1.00  0.00    -0.089 C  
HETATM   19  C   UNL     1      -8.089   9.396  66.977  1.00  0.00    -0.105 C  
BRANCH  19  20
HETATM   20  C   UNL     1      -9.626   9.243  67.078  1.00  0.00    -0.171 C  
BRANCH  20  21
HETATM   21  N   UNL     1     -10.141   8.135  67.906  1.00  0.00    -0.186 NA 
HETATM   22  C   UNL     1     -10.755   7.097  67.031  1.00  0.00    -0.350 C  
HETATM   23  C   UNL     1      -9.749   6.401  66.090  1.00  0.00     0.052 C  
HETATM   24  N   UNL     1      -8.623   5.810  66.832  1.00  0.00    -0.111 NA 
HETATM   25  C   UNL     1      -8.036   6.648  67.894  1.00  0.00    -0.113 C  
HETATM   26  C   UNL     1      -9.094   7.448  68.699  1.00  0.00    -0.134 C  
BRANCH  24  27
HETATM   27  C   UNL     1      -8.571   4.444  66.927  1.00  0.00    -0.104 A  
HETATM   28  N   UNL     1      -9.543   3.652  66.479  1.00  0.00    -0.176 NA 
HETATM   29  S   UNL     1      -9.086   2.078  66.621  1.00  0.00     0.002 SA 
HETATM   30  C   UNL     1      -7.531   2.381  67.272  1.00  0.00    -0.061 A  
HETATM   31  C   UNL     1      -6.516   1.470  67.610  1.00  0.00    -0.024 A  
HETATM   32  C   UNL     1      -5.316   1.970  68.120  1.00  0.00    -0.013 A  
HETATM   33  C   UNL     1      -5.133   3.337  68.288  1.00  0.00    -0.011 A  
HETATM   34  C   UNL     1      -6.147   4.236  67.937  1.00  0.00    -0.032 A  
HETATM   35  C   UNL     1      -7.383   3.762  67.422  1.00  0.00    -0.067 A  
ENDBRANCH  24  27
ENDBRANCH  20  21
ENDBRANCH  19  20
ENDBRANCH  13  14
ENDBRANCH  10  13
TORSDOF 5
ENDMDL
MODEL      281
REMARK 921   NORMALIZED FREE ENERGY PREDICTED BY IDOCK:    9.52 KCAL/MOL
REMARK 922        TOTAL FREE ENERGY PREDICTED BY IDOCK:   10.58 KCAL/MOL
REMARK 923 INTER-LIGAND FREE ENERGY PREDICTED BY IDOCK:    1.46 KCAL/MOL
REMARK 924 INTRA-LIGAND FREE ENERGY PREDICTED BY IDOCK:    9.11 KCAL/MOL
REMARK 927      BINDING AFFINITY PREDICTED BY RF-SCORE:    0.00 PKD
ROOT
HETATM    1  C   UNL     1     -10.741  15.680  68.412  1.00  0.00    -0.271 C  
HETATM    2  C   UNL     1     -12.216  15.591  68.841  1.00  0.00    -0.097 C  
HETATM    3  C   UNL     1     -12.474  14.162  69.359  1.00  0.00    -0.114 C  
HETATM    4  C   UNL     1     -11.703  14.133  70.695  1.00  0.00    -0.259 C  
HETATM    5  C   UNL     1     -11.112  15.554  70.785  1.00  0.00    -0.383 C  
HETATM    6  C   UNL     1     -12.244  16.372  70.156  1.00  0.00     0.667 C  
HETATM    7  C   UNL     1      -9.985  15.651  69.744  1.00  0.00    -0.281 C  
HETATM    8  C   UNL     1      -9.244  16.958  69.785  1.00  0.00     0.803 C  
HETATM    9  O   UNL     1      -8.594  17.353  70.740  1.00  0.00     4.419 OA 
HETATM   10  N   UNL     1      -9.453  17.621  68.610  1.00  0.00    -0.289 N  
HETATM   11  O   UNL     1     -10.877  17.461  66.787  1.00  0.00    -0.154 OA 
HETATM   12  C   UNL     1     -10.381  17.010  67.809  1.00  0.00    -0.335 C  
ENDROOT
BRANCH  10  13
HETATM   13  C   UNL     1      -8.907  18.939  68.325  1.00  0.00    -0.332 C  
BRANCH  13  14
HETATM   14  C   UNL     1      -7.705  18.873  67.357  1.00  0.00    -0.247 C  
HETATM   15  C   UNL     1      -8.072  19.544  66.018  1.00  0.00    -0.299 C  
HETATM   16  C   UNL     1      -6.891  19.572  65.057  1.00  0.00    -0.060 C  
HETATM   17  C   UNL     1      -6.318  18.179  64.838  1.00  0.00     0.404 C  
HETATM   18  C   UNL     1      -5.955  17.503  66.159  1.00  0.00    -0.229 C  
HETATM   19  C   UNL     1      -7.171  17.427  67.105  1.00  0.00    -0.201 C  
BRANCH  19  20
HETATM   20  C   UNL     1      -6.814  16.720  68.434  1.00  0.00    -0.160 C  
BRANCH  20  21
HETATM   21  N   UNL     1      -7.723  15.655  68.897  1.00  0.00    -0.166 NA 
HETATM   22  C   UNL     1      -7.915  14.649  67.815  1.00  0.00    -0.156 C  
HETATM   23  C   UNL     1      -6.630  13.882  67.441  1.00  0.00     0.067 C  
HETATM   24  N   UNL     1      -6.022  13.228  68.611  1.00  0.00    -0.079 NA 
HETATM   25  C   UNL     1      -5.954  14.036  69.843  1.00  0.00    -0.133 C  
HETATM   26  C   UNL     1      -7.216  14.909  70.074  1.00  0.00     0.009 C  
BRANCH  24  27
HETATM   27  C   UNL     1      -6.103  11.862  68.690  1.00  0.00    -0.052 A  
HETATM   28  N   UNL     1      -6.564  11.229  69.767  1.00  0.00    -0.140 NA 
HETATM   29  S   UNL     1      -6.660   9.615  69.463  1.00  0.00    -0.053 SA 
HETATM   30  C   UNL     1      -6.110   9.686  67.841  1.00  0.00    -0.052 A  
HETATM   31  C   UNL     1      -5.977   8.650  66.902  1.00  0.00    -0.057 A  
HETATM   32  C   UNL     1      -5.512   8.967  65.624  1.00  0.00    -0.038 A  
HETATM   33  C   UNL     1      -5.190  10.277  65.292  1.00  0.00    -0.085 A  
HETATM   34  C   UNL     1      -5.338  11.302  66.234  1.00  0.00    -0.134 A  
HETATM   35  C   UNL     1      -5.801  11.016  67.545  1.00  0.00    -0.046 A  
ENDBRANCH  24  27
ENDBRANCH  20  21
ENDBRANCH  19  20
ENDBRANCH  13  14
ENDBRANCH  10  13
TORSDOF 5
ENDMDL
MODEL      282
REMARK 921   NORMALIZED FREE ENERGY PREDICTED BY IDOCK:    9.93 KCAL/MOL
REMARK 922        TOTAL FREE ENERGY PREDICTED BY IDOCK:   11.11 KCAL/MOL
REMARK 923 INTER-LIGAND FREE ENERGY PREDICTED BY IDOCK:    2.12 KCAL/MOL
REMARK 924 INTRA-LIGAND FREE ENERGY PREDICTED BY IDOCK:    8.99 KCAL/MOL
REMARK 927      BINDING AFFINITY PREDICTED BY RF-SCORE:    0.00 PKD
ROOT
HETATM    1  C   UNL     1      -8.068   5.714  68.536  1.00  0.00    -0.103 C  
HETATM    2  C   UNL     1      -7.838   4.217  68.264  1.00  0.00    -0.075 C  
HETATM    3  C   UNL     1      -9.059   3.444  68.800  1.00  0.00    -0.204 C  
HETATM    4  C   UNL     1     -10.176   3.828  67.809  1.00  0.00     0.652 C  
HETATM    5  C   UNL     1      -9.453   4.761  66.816  1.00  0.00    -0.163 C  
HETATM    6  C   UNL     1      -8.074   4.097  66.757  1.00  0.00    -0.101 C  
HETATM    7  C   UNL     1      -9.177   6.085  67.547  1.00  0.00    -0.111 C  
HETATM    8  C   UNL     1      -8.561   7.136  66.667  1.00  0.00    -0.124 C  
HETATM    9  O   UNL     1      -9.105   7.621  65.687  1.00  0.00    -0.066 OA 
HETATM   10  N   UNL     1      -7.306   7.416  67.126  1.00  0.00    -0.095 N  
HETATM   11  O   UNL     1      -5.782   6.490  68.608  1.00  0.00    -0.015 OA 
HETATM   12  C   UNL     1      -6.904   6.574  68.129  1.00  0.00    -0.074 C  
ENDROOT
BRANCH  10  13
HETATM   13  C   UNL     1      -6.413   8.369  66.486  1.00  0.00    -0.055 C  
BRANCH  13  14
HETATM   14  C   UNL     1      -6.899   9.826  66.653  1.00  0.00    -0.084 C  
HETATM   15  C   UNL     1      -6.123  10.750  65.693  1.00  0.00    -0.097 C  
HETATM   16  C   UNL     1      -6.622  12.187  65.768  1.00  0.00     2.396 C  
HETATM   17  C   UNL     1      -6.588  12.716  67.195  1.00  0.00    -0.016 C  
HETATM   18  C   UNL     1      -7.349  11.804  68.154  1.00  0.00    -0.094 C  
HETATM   19  C   UNL     1      -6.801  10.363  68.115  1.00  0.00    -0.072 C  
BRANCH  19  20
HETATM   20  C   UNL     1      -7.553   9.442  69.106  1.00  0.00    -0.074 C  
BRANCH  20  21
HETATM   21  N   UNL     1      -8.184  10.082  70.276  1.00  0.00    -0.133 NA 
HETATM   22  C   UNL     1      -7.896  11.544  70.268  1.00  0.00     2.426 C  
HETATM   23  C   UNL     1      -8.517  12.295  69.072  1.00  0.00     0.398 C  
HETATM   24  N   UNL     1      -9.973  12.085  68.989  1.00  0.00     0.039 NA 
HETATM   25  C   UNL     1     -10.440  10.701  69.193  1.00  0.00    -0.222 C  
HETATM   26  C   UNL     1      -9.660   9.948  70.304  1.00  0.00    -0.127 C  
BRANCH  24  27
HETATM   27  C   UNL     1     -10.787  13.139  69.311  1.00  0.00    -0.006 A  
HETATM   28  N   UNL     1     -11.982  12.979  69.877  1.00  0.00    -0.330 NA 
HETATM   29  S   UNL     1     -12.616  14.449  70.258  1.00  0.00    -0.265 SA 
HETATM   30  C   UNL     1     -11.292  15.385  69.703  1.00  0.00    -0.307 A  
HETATM   31  C   UNL     1     -11.104  16.777  69.755  1.00  0.00    -0.021 A  
HETATM   32  C   UNL     1      -9.919  17.307  69.242  1.00  0.00    -0.136 A  
HETATM   33  C   UNL     1      -8.951  16.476  68.692  1.00  0.00    -0.236 A  
HETATM   34  C   UNL     1      -9.145  15.090  68.657  1.00  0.00    -0.191 A  
HETATM   35  C   UNL     1     -10.340  14.517  69.163  1.00  0.00    -0.197 A  
ENDBRANCH  24  27
ENDBRANCH  20  21
ENDBRANCH  19  20
ENDBRANCH  13  14
ENDBRANCH  10  13
TORSDOF 5
ENDMDL
MODEL      283
REMARK 921   NORMALIZED FREE ENERGY PREDICTED BY IDOCK:   11.91 KCAL/MOL
REMARK 922        TOTAL FREE ENERGY PREDICTED BY IDOCK:   13.67 KCAL/MOL
REMARK 923 INTER-LIGAND FREE ENERGY PREDICTED BY IDOCK:   -4.00 KCAL/MOL
REMARK 924 INTRA-LIGAND FREE ENERGY PREDICTED BY IDOCK:   17.67 KCAL/MOL
REMARK 927      BINDING AFFINITY PREDICTED BY RF-SCORE:    0.00 PKD
ROOT
HETATM    1  C   UNL     1     -11.282   7.417  68.822  1.00  0.00     0.226 C  
HETATM    2  C   UNL     1     -10.803   8.492  69.813  1.00  0.00    -0.177 C  
HETATM    3  C   UNL     1     -11.842   8.587  70.947  1.00  0.00    -0.243 C  
HETATM    4  C   UNL     1     -11.641   7.266  71.716  1.00  0.00    -0.309 C  
HETATM    5  C   UNL     1     -10.498   6.583  70.937  1.00  0.00    -0.263 C  
HETATM    6  C   UNL     1      -9.654   7.800  70.548  1.00  0.00    -0.167 C  
HETATM    7  C   UNL     1     -11.077   6.110  69.593  1.00  0.00    -0.489 C  
HETATM    8  C   UNL     1     -10.096   5.332  68.761  1.00  0.00    -0.177 C  
HETATM    9  O   UNL     1      -9.605   4.264  69.092  1.00  0.00    -0.166 OA 
HETATM   10  N   UNL     1      -9.833   6.032  67.619  1.00  0.00    -0.117 N  
HETATM   11  O   UNL     1     -10.183   8.176  66.809  1.00  0.00    -0.280 OA 
HETATM   12  C   UNL     1     -10.389   7.284  67.619  1.00  0.00    -0.227 C  
ENDROOT
BRANCH  10  13
HETATM   13  C   UNL     1      -8.897   5.582  66.600  1.00  0.00    -0.117 C  
BRANCH  13  14
HETATM   14  C   UNL     1      -8.180   6.761  65.906  1.00  0.00    -0.132 C  
HETATM   15  C   UNL     1      -7.999   6.454  64.406  1.00  0.00    -0.108 C  
HETATM   16  C   UNL     1      -7.364   7.622  63.663  1.00  0.00    -0.093 C  
HETATM   17  C   UNL     1      -6.049   8.042  64.305  1.00  0.00    -0.057 C  
HETATM   18  C   UNL     1      -6.216   8.342  65.792  1.00  0.00    -0.052 C  
HETATM   19  C   UNL     1      -6.807   7.134  66.548  1.00  0.00    -0.065 C  
BRANCH  19  20
HETATM   20  C   UNL     1      -6.953   7.427  68.060  1.00  0.00    -0.075 C  
BRANCH  20  21
HETATM   21  N   UNL     1      -8.055   8.317  68.473  1.00  0.00    -0.122 NA 
HETATM   22  C   UNL     1      -7.499   9.573  69.049  1.00  0.00    -0.074 C  
HETATM   23  C   UNL     1      -6.710  10.428  68.035  1.00  0.00    -0.065 C  
HETATM   24  N   UNL     1      -7.517  10.753  66.847  1.00  0.00    -0.113 NA 
HETATM   25  C   UNL     1      -8.307   9.644  66.277  1.00  0.00    -0.116 C  
HETATM   26  C   UNL     1      -8.940   8.726  67.356  1.00  0.00    -0.133 C  
BRANCH  24  27
HETATM   27  C   UNL     1      -7.946  12.045  66.702  1.00  0.00     0.013 A  
HETATM   28  N   UNL     1      -9.196  12.356  66.364  1.00  0.00    -0.221 NA 
HETATM   29  S   UNL     1      -9.399  13.988  66.427  1.00  0.00    -0.168 SA 
HETATM   30  C   UNL     1      -7.809  14.364  66.946  1.00  0.00     0.212 A  
HETATM   31  C   UNL     1      -7.252  15.614  67.267  1.00  0.00    -0.252 A  
HETATM   32  C   UNL     1      -5.920  15.661  67.682  1.00  0.00    -0.159 A  
HETATM   33  C   UNL     1      -5.166  14.498  67.774  1.00  0.00     0.005 A  
HETATM   34  C   UNL     1      -5.736  13.257  67.464  1.00  0.00    -0.028 A  
HETATM   35  C   UNL     1      -7.085  13.173  67.031  1.00  0.00     0.307 A  
ENDBRANCH  24  27
ENDBRANCH  20  21
ENDBRANCH  19  20
ENDBRANCH  13  14
ENDBRANCH  10  13
TORSDOF 5
ENDMDL
MODEL      284
REMARK 921   NORMALIZED FREE ENERGY PREDICTED BY IDOCK:   12.04 KCAL/MOL
REMARK 922        TOTAL FREE ENERGY PREDICTED BY IDOCK:   13.84 KCAL/MOL
REMARK 923 INTER-LIGAND FREE ENERGY PREDICTED BY IDOCK:    6.52 KCAL/MOL
REMARK 924 INTRA-LIGAND FREE ENERGY PREDICTED BY IDOCK:    7.32 KCAL/MOL
REMARK 927      BINDING AFFINITY PREDICTED BY RF-SCORE:    0.00 PKD
ROOT
HETATM    1  C   UNL     1      -7.417  14.923  66.796  1.00  0.00     0.488 C  
HETATM    2  C   UNL     1      -6.755  16.289  67.053  1.00  0.00    -0.217 C  
HETATM    3  C   UNL     1      -6.760  17.075  65.727  1.00  0.00     0.608 C  
HETATM    4  C   UNL     1      -8.250  17.422  65.533  1.00  0.00     0.915 C  
HETATM    5  C   UNL     1      -8.914  16.805  66.782  1.00  0.00    -0.265 C  
HETATM    6  C   UNL     1      -7.828  17.053  67.832  1.00  0.00    -0.188 C  
HETATM    7  C   UNL     1      -8.895  15.278  66.606  1.00  0.00    -0.328 C  
HETATM    8  C   UNL     1      -9.603  14.541  67.708  1.00  0.00    -0.215 C  
HETATM    9  O   UNL     1     -10.795  14.645  67.952  1.00  0.00    -0.250 OA 
HETATM   10  N   UNL     1      -8.693  13.786  68.390  1.00  0.00    -0.176 N  
HETATM   11  O   UNL     1      -6.387  13.616  68.546  1.00  0.00    -0.079 OA 
HETATM   12  C   UNL     1      -7.402  14.024  68.001  1.00  0.00    -0.141 C  
ENDROOT
BRANCH  10  13
HETATM   13  C   UNL     1      -9.035  12.968  69.544  1.00  0.00     1.609 C  
BRANCH  13  14
HETATM   14  C   UNL     1     -10.376  13.393  70.183  1.00  0.00     1.802 C  
HETATM   15  C   UNL     1     -10.191  14.711  70.962  1.00  0.00     1.474 C  
HETATM   16  C   UNL     1     -11.505  15.210  71.547  1.00  0.00    -0.422 C  
HETATM   17  C   UNL     1     -12.172  14.147  72.409  1.00  0.00    -0.008 C  
HETATM   18  C   UNL     1     -12.355  12.835  71.647  1.00  0.00     0.156 C  
HETATM   19  C   UNL     1     -11.011  12.306  71.106  1.00  0.00     3.855 C  
BRANCH  19  20
HETATM   20  C   UNL     1     -11.189  10.964  70.357  1.00  0.00    -0.105 C  
BRANCH  20  21
HETATM   21  N   UNL     1      -9.969  10.186  70.065  1.00  0.00    -0.217 NA 
HETATM   22  C   UNL     1     -10.313   9.009  69.220  1.00  0.00    -0.219 C  
HETATM   23  C   UNL     1     -10.844   9.380  67.819  1.00  0.00    -0.159 C  
HETATM   24  N   UNL     1      -9.902  10.245  67.089  1.00  0.00    -0.179 NA 
HETATM   25  C   UNL     1      -9.302  11.348  67.863  1.00  0.00    -0.164 C  
HETATM   26  C   UNL     1      -8.941  10.949  69.319  1.00  0.00     0.031 C  
BRANCH  24  27
HETATM   27  C   UNL     1      -9.221   9.697  66.034  1.00  0.00    -0.182 A  
HETATM   28  N   UNL     1      -9.320  10.164  64.791  1.00  0.00    -0.244 NA 
HETATM   29  S   UNL     1      -8.261   9.370  63.814  1.00  0.00    -0.178 SA 
HETATM   30  C   UNL     1      -7.587   8.366  65.028  1.00  0.00    -0.094 A  
HETATM   31  C   UNL     1      -6.547   7.426  64.927  1.00  0.00    -0.043 A  
HETATM   32  C   UNL     1      -6.164   6.733  66.077  1.00  0.00    -0.038 A  
HETATM   33  C   UNL     1      -6.798   6.969  67.290  1.00  0.00    -0.069 A  
HETATM   34  C   UNL     1      -7.824   7.917  67.381  1.00  0.00    -0.121 A  
HETATM   35  C   UNL     1      -8.245   8.635  66.231  1.00  0.00    -0.116 A  
ENDBRANCH  24  27
ENDBRANCH  20  21
ENDBRANCH  19  20
ENDBRANCH  13  14
ENDBRANCH  10  13
TORSDOF 5
ENDMDL
MODEL      285
REMARK 921   NORMALIZED FREE ENERGY PREDICTED BY IDOCK:   16.36 KCAL/MOL
REMARK 922        TOTAL FREE ENERGY PREDICTED BY IDOCK:   19.41 KCAL/MOL
REMARK 923 INTER-LIGAND FREE ENERGY PREDICTED BY IDOCK:    4.60 KCAL/MOL
REMARK 924 INTRA-LIGAND FREE ENERGY PREDICTED BY IDOCK:   14.81 KCAL/MOL
REMARK 927      BINDING AFFINITY PREDICTED BY RF-SCORE:    0.00 PKD
ROOT
HETATM    1  C   UNL     1      -7.755  12.147  66.230  1.00  0.00     0.538 C  
HETATM    2  C   UNL     1      -6.362  11.521  66.041  1.00  0.00     0.339 C  
HETATM    3  C   UNL     1      -5.311  12.569  66.457  1.00  0.00     0.994 C  
HETATM    4  C   UNL     1      -5.475  12.638  67.989  1.00  0.00    -0.087 C  
HETATM    5  C   UNL     1      -6.589  11.608  68.264  1.00  0.00    -0.059 C  
HETATM    6  C   UNL     1      -6.257  10.544  67.213  1.00  0.00    -0.058 C  
HETATM    7  C   UNL     1      -7.909  12.210  67.752  1.00  0.00    -0.148 C  
HETATM    8  C   UNL     1      -9.109  11.354  68.045  1.00  0.00    -0.171 C  
HETATM    9  O   UNL     1      -9.501  11.076  69.168  1.00  0.00    -0.156 OA 
HETATM   10  N   UNL     1      -9.644  10.925  66.865  1.00  0.00    -0.176 N  
HETATM   11  O   UNL     1      -9.022  10.853  64.632  1.00  0.00    -0.191 OA 
HETATM   12  C   UNL     1      -8.872  11.247  65.780  1.00  0.00    -0.148 C  
ENDROOT
BRANCH  10  13
HETATM   13  C   UNL     1     -10.801  10.047  66.781  1.00  0.00    -0.021 C  
BRANCH  13  14
HETATM   14  C   UNL     1     -11.540   9.928  68.132  1.00  0.00     0.403 C  
HETATM   15  C   UNL     1     -12.797  10.821  68.123  1.00  0.00     3.775 C  
HETATM   16  C   UNL     1     -13.601  10.677  69.409  1.00  0.00     2.870 C  
HETATM   17  C   UNL     1     -12.741  10.944  70.637  1.00  0.00    -0.396 C  
HETATM   18  C   UNL     1     -11.490  10.068  70.652  1.00  0.00    -0.425 C  
HETATM   19  C   UNL     1     -10.652  10.261  69.372  1.00  0.00    -0.262 C  
BRANCH  19  20
HETATM   20  C   UNL     1      -9.370   9.394  69.397  1.00  0.00    -0.169 C  
BRANCH  20  21
HETATM   21  N   UNL     1      -9.544   7.936  69.539  1.00  0.00    -0.160 NA 
HETATM   22  C   UNL     1     -10.670   7.476  68.678  1.00  0.00    -0.077 C  
HETATM   23  C   UNL     1     -10.415   7.660  67.167  1.00  0.00    -0.342 C  
HETATM   24  N   UNL     1      -9.172   6.998  66.737  1.00  0.00    -0.147 NA 
HETATM   25  C   UNL     1      -8.001   7.185  67.615  1.00  0.00    -0.114 C  
HETATM   26  C   UNL     1      -8.356   7.152  69.125  1.00  0.00    -0.129 C  
BRANCH  24  27
HETATM   27  C   UNL     1      -9.285   5.865  65.976  1.00  0.00    -0.128 A  
HETATM   28  N   UNL     1     -10.237   4.955  66.175  1.00  0.00    -0.256 NA 
HETATM   29  S   UNL     1     -10.165   3.810  64.996  1.00  0.00    -0.019 SA 
HETATM   30  C   UNL     1      -8.855   4.498  64.132  1.00  0.00    -0.148 A  
HETATM   31  C   UNL     1      -8.256   4.068  62.935  1.00  0.00    -0.081 A  
HETATM   32  C   UNL     1      -7.197   4.815  62.416  1.00  0.00    -0.034 A  
HETATM   33  C   UNL     1      -6.747   5.955  63.070  1.00  0.00    -0.036 A  
HETATM   34  C   UNL     1      -7.360   6.380  64.255  1.00  0.00    -0.075 A  
HETATM   35  C   UNL     1      -8.434   5.641  64.816  1.00  0.00    -0.102 A  
ENDBRANCH  24  27
ENDBRANCH  20  21
ENDBRANCH  19  20
ENDBRANCH  13  14
ENDBRANCH  10  13
TORSDOF 5
ENDMDL
MODEL      286
REMARK 921   NORMALIZED FREE ENERGY PREDICTED BY IDOCK:   16.93 KCAL/MOL
REMARK 922        TOTAL FREE ENERGY PREDICTED BY IDOCK:   20.15 KCAL/MOL
REMARK 923 INTER-LIGAND FREE ENERGY PREDICTED BY IDOCK:   15.23 KCAL/MOL
REMARK 924 INTRA-LIGAND FREE ENERGY PREDICTED BY IDOCK:    4.93 KCAL/MOL
REMARK 927      BINDING AFFINITY PREDICTED BY RF-SCORE:    0.00 PKD
ROOT
HETATM    1  C   UNL     1      -9.229   7.309  71.007  1.00  0.00    -0.154 C  
HETATM    2  C   UNL     1      -7.755   7.089  71.390  1.00  0.00    -0.094 C  
HETATM    3  C   UNL     1      -7.202   5.950  70.511  1.00  0.00    -0.083 C  
HETATM    4  C   UNL     1      -7.124   6.596  69.112  1.00  0.00    -0.088 C  
HETATM    5  C   UNL     1      -7.627   8.032  69.366  1.00  0.00    -0.102 C  
HETATM    6  C   UNL     1      -7.050   8.292  70.761  1.00  0.00    -0.044 C  
HETATM    7  C   UNL     1      -9.142   7.951  69.620  1.00  0.00    -0.153 C  
HETATM    8  C   UNL     1      -9.792   9.295  69.785  1.00  0.00    -0.188 C  
HETATM    9  O   UNL     1      -9.836  10.152  68.917  1.00  0.00    -0.172 OA 
HETATM   10  N   UNL     1     -10.279   9.396  71.057  1.00  0.00    -0.304 N  
HETATM   11  O   UNL     1     -10.065   8.258  73.065  1.00  0.00    -0.271 OA 
HETATM   12  C   UNL     1      -9.911   8.347  71.855  1.00  0.00    -0.258 C  
ENDROOT
BRANCH  10  13
HETATM   13  C   UNL     1     -10.944  10.585  71.568  1.00  0.00     1.502 C  
BRANCH  13  14
HETATM   14  C   UNL     1     -11.857  11.242  70.509  1.00  0.00    -0.421 C  
HETATM   15  C   UNL     1     -11.860  10.396  69.221  1.00  0.00    -0.165 C  
HETATM   16  C   UNL     1     -12.808  10.965  68.173  1.00  0.00     3.530 C  
HETATM   17  C   UNL     1     -12.496  12.425  67.874  1.00  0.00     0.892 C  
HETATM   18  C   UNL     1     -12.485  13.272  69.145  1.00  0.00     0.194 C  
HETATM   19  C   UNL     1     -11.482  12.722  70.179  1.00  0.00     0.005 C  
BRANCH  19  20
HETATM   20  C   UNL     1     -11.449  13.593  71.458  1.00  0.00     1.695 C  
BRANCH  20  21
HETATM   21  N   UNL     1     -11.728  15.034  71.301  1.00  0.00    -0.330 NA 
HETATM   22  C   UNL     1     -10.752  15.826  72.102  1.00  0.00     1.168 C  
HETATM   23  C   UNL     1      -9.293  15.690  71.619  1.00  0.00     4.434 C  
HETATM   24  N   UNL     1      -9.152  16.039  70.196  1.00  0.00     0.634 NA 
HETATM   25  C   UNL     1     -10.183  15.498  69.290  1.00  0.00    -0.252 C  
HETATM   26  C   UNL     1     -11.608  15.515  69.904  1.00  0.00    -0.335 C  
BRANCH  24  27
HETATM   27  C   UNL     1      -8.519  17.215  69.889  1.00  0.00     1.561 A  
HETATM   28  N   UNL     1      -8.740  18.347  70.554  1.00  0.00     3.371 NA 
HETATM   29  S   UNL     1      -7.709  19.514  70.020  1.00  0.00     0.863 SA 
HETATM   30  C   UNL     1      -6.884  18.541  68.876  1.00  0.00    -0.278 A  
HETATM   31  C   UNL     1      -5.798  18.871  68.048  1.00  0.00    -0.205 A  
HETATM   32  C   UNL     1      -5.287  17.888  67.198  1.00  0.00    -0.154 A  
HETATM   33  C   UNL     1      -5.842  16.615  67.175  1.00  0.00    -0.194 A  
HETATM   34  C   UNL     1      -6.916  16.294  68.013  1.00  0.00    -0.140 A  
HETATM   35  C   UNL     1      -7.466  17.271  68.885  1.00  0.00    -0.240 A  
ENDBRANCH  24  27
ENDBRANCH  20  21
ENDBRANCH  19  20
ENDBRANCH  13  14
ENDBRANCH  10  13
TORSDOF 5
ENDMDL
MODEL      287
REMARK 921   NORMALIZED FREE ENERGY PREDICTED BY IDOCK:   18.21 KCAL/MOL
REMARK 922        TOTAL FREE ENERGY PREDICTED BY IDOCK:   21.81 KCAL/MOL
REMARK 923 INTER-LIGAND FREE ENERGY PREDICTED BY IDOCK:    2.54 KCAL/MOL
REMARK 924 INTRA-LIGAND FREE ENERGY PREDICTED BY IDOCK:   19.27 KCAL/MOL
REMARK 927      BINDING AFFINITY PREDICTED BY RF-SCORE:    0.00 PKD
ROOT
HETATM    1  C   UNL     1     -11.904  15.273  67.492  1.00  0.00    -0.041 C  
HETATM    2  C   UNL     1     -12.227  13.779  67.320  1.00  0.00    -0.315 C  
HETATM    3  C   UNL     1     -13.498  13.665  66.456  1.00  0.00     2.940 C  
HETATM    4  C   UNL     1     -13.010  14.097  65.058  1.00  0.00    -0.122 C  
HETATM    5  C   UNL     1     -11.513  14.388  65.290  1.00  0.00    -0.350 C  
HETATM    6  C   UNL     1     -11.170  13.308  66.319  1.00  0.00    -0.321 C  
HETATM    7  C   UNL     1     -11.419  15.691  66.101  1.00  0.00     0.186 C  
HETATM    8  C   UNL     1     -10.007  16.158  66.319  1.00  0.00    -0.317 C  
HETATM    9  O   UNL     1      -9.243  16.487  65.425  1.00  0.00    -0.326 OA 
HETATM   10  N   UNL     1      -9.729  16.114  67.655  1.00  0.00    -0.231 N  
HETATM   11  O   UNL     1     -10.671  15.205  69.568  1.00  0.00    -0.244 OA 
HETATM   12  C   UNL     1     -10.722  15.522  68.388  1.00  0.00    -0.263 C  
ENDROOT
BRANCH  10  13
HETATM   13  C   UNL     1      -8.434  16.469  68.216  1.00  0.00    -0.199 C  
BRANCH  13  14
HETATM   14  C   UNL     1      -7.871  15.358  69.130  1.00  0.00    -0.212 C  
HETATM   15  C   UNL     1      -7.340  15.975  70.439  1.00  0.00     1.257 C  
HETATM   16  C   UNL     1      -6.843  14.908  71.405  1.00  0.00     1.253 C  
HETATM   17  C   UNL     1      -5.801  14.008  70.755  1.00  0.00    -0.206 C  
HETATM   18  C   UNL     1      -6.315  13.397  69.453  1.00  0.00    -0.111 C  
HETATM   19  C   UNL     1      -6.764  14.486  68.458  1.00  0.00    -0.096 C  
BRANCH  19  20
HETATM   20  C   UNL     1      -7.261  13.870  67.128  1.00  0.00     0.243 C  
BRANCH  20  21
HETATM   21  N   UNL     1      -8.704  13.586  67.013  1.00  0.00    -0.211 NA 
HETATM   22  C   UNL     1      -8.915  12.125  66.810  1.00  0.00    -0.203 C  
HETATM   23  C   UNL     1      -8.474  11.258  68.008  1.00  0.00    -0.138 C  
HETATM   24  N   UNL     1      -9.132  11.675  69.257  1.00  0.00     0.359 NA 
HETATM   25  C   UNL     1      -9.195  13.129  69.502  1.00  0.00     1.510 C  
HETATM   26  C   UNL     1      -9.482  13.955  68.220  1.00  0.00    -0.217 C  
BRANCH  24  27
HETATM   27  C   UNL     1     -10.095  10.850  69.775  1.00  0.00     0.211 A  
HETATM   28  N   UNL     1      -9.998   9.522  69.747  1.00  0.00    -0.199 NA 
HETATM   29  S   UNL     1     -11.249   8.856  70.583  1.00  0.00    -0.263 SA 
HETATM   30  C   UNL     1     -11.978  10.333  71.056  1.00  0.00    -0.385 A  
HETATM   31  C   UNL     1     -13.107  10.546  71.865  1.00  0.00    -0.567 A  
HETATM   32  C   UNL     1     -13.503  11.860  72.120  1.00  0.00    -0.300 A  
HETATM   33  C   UNL     1     -12.796  12.929  71.585  1.00  0.00    -0.368 A  
HETATM   34  C   UNL     1     -11.666  12.704  70.790  1.00  0.00     0.390 A  
HETATM   35  C   UNL     1     -11.238  11.381  70.504  1.00  0.00     0.401 A  
ENDBRANCH  24  27
ENDBRANCH  20  21
ENDBRANCH  19  20
ENDBRANCH  13  14
ENDBRANCH  10  13
TORSDOF 5
ENDMDL
MODEL      288
REMARK 921   NORMALIZED FREE ENERGY PREDICTED BY IDOCK:   26.52 KCAL/MOL
REMARK 922        TOTAL FREE ENERGY PREDICTED BY IDOCK:   32.55 KCAL/MOL
REMARK 923 INTER-LIGAND FREE ENERGY PREDICTED BY IDOCK:   27.74 KCAL/MOL
REMARK 924 INTRA-LIGAND FREE ENERGY PREDICTED BY IDOCK:    4.81 KCAL/MOL
REMARK 927      BINDING AFFINITY PREDICTED BY RF-SCORE:    0.00 PKD
ROOT
HETATM    1  C   UNL     1     -11.244  13.809  67.363  1.00  0.00    -0.330 C  
HETATM    2  C   UNL     1     -12.138  14.912  66.770  1.00  0.00     0.003 C  
HETATM    3  C   UNL     1     -13.380  14.236  66.156  1.00  0.00     1.283 C  
HETATM    4  C   UNL     1     -14.164  13.756  67.395  1.00  0.00    12.124 C  
HETATM    5  C   UNL     1     -13.282  14.232  68.568  1.00  0.00     2.973 C  
HETATM    6  C   UNL     1     -12.760  15.559  68.010  1.00  0.00     1.603 C  
HETATM    7  C   UNL     1     -12.029  13.341  68.592  1.00  0.00    -0.345 C  
HETATM    8  C   UNL     1     -11.117  13.624  69.752  1.00  0.00     0.066 C  
HETATM    9  O   UNL     1     -11.425  13.474  70.924  1.00  0.00     0.257 OA 
HETATM   10  N   UNL     1      -9.930  14.100  69.275  1.00  0.00     0.037 N  
HETATM   11  O   UNL     1      -9.095  14.908  67.269  1.00  0.00    -0.185 OA 
HETATM   12  C   UNL     1      -9.952  14.336  67.926  1.00  0.00    -0.230 C  
ENDROOT
BRANCH  10  13
HETATM   13  C   UNL     1      -8.827  14.507  70.132  1.00  0.00     1.242 C  
BRANCH  13  14
HETATM   14  C   UNL     1      -7.846  13.346  70.409  1.00  0.00     3.105 C  
HETATM   15  C   UNL     1      -7.095  13.598  71.732  1.00  0.00     4.188 C  
HETATM   16  C   UNL     1      -6.171  12.441  72.086  1.00  0.00     3.020 C  
HETATM   17  C   UNL     1      -5.204  12.133  70.951  1.00  0.00    -0.147 C  
HETATM   18  C   UNL     1      -5.937  11.887  69.634  1.00  0.00    -0.114 C  
HETATM   19  C   UNL     1      -6.828  13.087  69.253  1.00  0.00    -0.019 C  
BRANCH  19  20
HETATM   20  C   UNL     1      -7.552  12.852  67.906  1.00  0.00    -0.138 C  
BRANCH  20  21
HETATM   21  N   UNL     1      -8.694  11.918  67.908  1.00  0.00    -0.159 NA 
HETATM   22  C   UNL     1      -8.660  11.078  66.677  1.00  0.00    -0.157 C  
HETATM   23  C   UNL     1      -7.435  10.144  66.594  1.00  0.00    -0.106 C  
HETATM   24  N   UNL     1      -7.326   9.277  67.779  1.00  0.00    -0.083 NA 
HETATM   25  C   UNL     1      -7.551   9.929  69.083  1.00  0.00    -0.090 C  
HETATM   26  C   UNL     1      -8.694  10.978  69.054  1.00  0.00    -0.064 C  
BRANCH  24  27
HETATM   27  C   UNL     1      -7.607   7.945  67.620  1.00  0.00    -0.109 A  
HETATM   28  N   UNL     1      -6.711   6.987  67.848  1.00  0.00    -0.062 NA 
HETATM   29  S   UNL     1      -7.427   5.513  67.704  1.00  0.00    -0.081 SA 
HETATM   30  C   UNL     1      -9.001   6.090  67.353  1.00  0.00    -0.108 A  
HETATM   31  C   UNL     1     -10.188   5.366  67.150  1.00  0.00    -0.266 A  
HETATM   32  C   UNL     1     -11.362   6.075  66.887  1.00  0.00     0.130 A  
HETATM   33  C   UNL     1     -11.353   7.462  66.827  1.00  0.00     1.013 A  
HETATM   34  C   UNL     1     -10.166   8.173  67.043  1.00  0.00    -0.378 A  
HETATM   35  C   UNL     1      -8.953   7.485  67.306  1.00  0.00    -0.130 A  
ENDBRANCH  24  27
ENDBRANCH  20  21
ENDBRANCH  19  20
ENDBRANCH  13  14
ENDBRANCH  10  13
TORSDOF 5
ENDMDL
MODEL      289
REMARK 921   NORMALIZED FREE ENERGY PREDICTED BY IDOCK:   26.62 KCAL/MOL
REMARK 922        TOTAL FREE ENERGY PREDICTED BY IDOCK:   32.68 KCAL/MOL
REMARK 923 INTER-LIGAND FREE ENERGY PREDICTED BY IDOCK:   32.25 KCAL/MOL
REMARK 924 INTRA-LIGAND FREE ENERGY PREDICTED BY IDOCK:    0.43 KCAL/MOL
REMARK 927      BINDING AFFINITY PREDICTED BY RF-SCORE:    0.00 PKD
ROOT
HETATM    1  C   UNL     1      -6.326   5.674  66.427  1.00  0.00    -0.035 C  
HETATM    2  C   UNL     1      -6.276   4.155  66.184  1.00  0.00    -0.032 C  
HETATM    3  C   UNL     1      -5.134   3.576  67.043  1.00  0.00    -0.008 C  
HETATM    4  C   UNL     1      -5.682   3.699  68.479  1.00  0.00    -0.022 C  
HETATM    5  C   UNL     1      -7.078   4.318  68.266  1.00  0.00    -0.059 C  
HETATM    6  C   UNL     1      -7.491   3.639  66.957  1.00  0.00    -0.075 C  
HETATM    7  C   UNL     1      -6.872   5.785  67.854  1.00  0.00    -0.060 C  
HETATM    8  C   UNL     1      -8.157   6.550  67.707  1.00  0.00    -0.115 C  
HETATM    9  O   UNL     1      -8.941   6.764  68.618  1.00  0.00    -0.126 OA 
HETATM   10  N   UNL     1      -8.303   6.921  66.401  1.00  0.00    -0.119 N  
HETATM   11  O   UNL     1      -7.338   6.401  64.358  1.00  0.00    -0.064 OA 
HETATM   12  C   UNL     1      -7.354   6.373  65.580  1.00  0.00    -0.080 C  
ENDROOT
BRANCH  10  13
HETATM   13  C   UNL     1      -9.457   7.651  65.899  1.00  0.00     0.134 C  
BRANCH  13  14
HETATM   14  C   UNL     1     -10.627   7.654  66.908  1.00  0.00    -0.359 C  
HETATM   15  C   UNL     1     -11.702   6.641  66.468  1.00  0.00     1.918 C  
HETATM   16  C   UNL     1     -12.842   6.553  67.473  1.00  0.00     9.467 C  
HETATM   17  C   UNL     1     -13.451   7.922  67.746  1.00  0.00    18.501 C  
HETATM   18  C   UNL     1     -12.393   8.935  68.178  1.00  0.00     5.433 C  
HETATM   19  C   UNL     1     -11.271   9.060  67.128  1.00  0.00     0.712 C  
BRANCH  19  20
HETATM   20  C   UNL     1     -10.212  10.105  67.550  1.00  0.00    -0.211 C  
BRANCH  20  21
HETATM   21  N   UNL     1      -9.369  10.682  66.485  1.00  0.00    -0.164 NA 
HETATM   22  C   UNL     1     -10.066  11.844  65.865  1.00  0.00    -0.234 C  
HETATM   23  C   UNL     1     -10.282  13.029  66.829  1.00  0.00    -0.246 C  
HETATM   24  N   UNL     1      -9.017  13.484  67.430  1.00  0.00    -0.208 NA 
HETATM   25  C   UNL     1      -8.107  12.424  67.906  1.00  0.00    -0.161 C  
HETATM   26  C   UNL     1      -8.062  11.189  66.968  1.00  0.00    -0.148 C  
BRANCH  24  27
HETATM   27  C   UNL     1      -8.510  14.686  67.013  1.00  0.00    -0.210 A  
HETATM   28  N   UNL     1      -9.121  15.451  66.110  1.00  0.00    -0.321 NA 
HETATM   29  S   UNL     1      -8.317  16.878  65.958  1.00  0.00     0.003 SA 
HETATM   30  C   UNL     1      -7.110  16.551  67.129  1.00  0.00    -0.193 A  
HETATM   31  C   UNL     1      -6.067  17.376  67.584  1.00  0.00    -0.159 A  
HETATM   32  C   UNL     1      -5.209  16.881  68.568  1.00  0.00    -0.123 A  
HETATM   33  C   UNL     1      -5.384  15.602  69.082  1.00  0.00    -0.100 A  
HETATM   34  C   UNL     1      -6.434  14.795  68.629  1.00  0.00    -0.084 A  
HETATM   35  C   UNL     1      -7.322  15.263  67.625  1.00  0.00    -0.201 A  
ENDBRANCH  24  27
ENDBRANCH  20  21
ENDBRANCH  19  20
ENDBRANCH  13  14
ENDBRANCH  10  13
TORSDOF 5
ENDMDL
MODEL      290
REMARK 921   NORMALIZED FREE ENERGY PREDICTED BY IDOCK:   27.96 KCAL/MOL
REMARK 922        TOTAL FREE ENERGY PREDICTED BY IDOCK:   34.42 KCAL/MOL
REMARK 923 INTER-LIGAND FREE ENERGY PREDICTED BY IDOCK:    5.27 KCAL/MOL
REMARK 924 INTRA-LIGAND FREE ENERGY PREDICTED BY IDOCK:   29.15 KCAL/MOL
REMARK 927      BINDING AFFINITY PREDICTED BY RF-SCORE:    0.00 PKD
ROOT
HETATM    1  C   UNL     1     -11.075   9.767  70.533  1.00  0.00    -0.384 C  
HETATM    2  C   UNL     1     -12.168   8.848  69.960  1.00  0.00     0.721 C  
HETATM    3  C   UNL     1     -13.469   9.114  70.743  1.00  0.00     0.210 C  
HETATM    4  C   UNL     1     -13.884  10.519  70.261  1.00  0.00     1.404 C  
HETATM    5  C   UNL     1     -12.777  10.879  69.249  1.00  0.00     0.472 C  
HETATM    6  C   UNL     1     -12.510   9.507  68.623  1.00  0.00     3.409 C  
HETATM    7  C   UNL     1     -11.494  11.158  70.049  1.00  0.00    -0.376 C  
HETATM    8  C   UNL     1     -10.348  11.622  69.195  1.00  0.00    -0.014 C  
HETATM    9  O   UNL     1     -10.344  12.657  68.548  1.00  0.00    -0.234 OA 
HETATM   10  N   UNL     1      -9.354  10.686  69.245  1.00  0.00    -0.162 N  
HETATM   11  O   UNL     1      -9.105   8.495  69.957  1.00  0.00    -0.143 OA 
HETATM   12  C   UNL     1      -9.727   9.545  69.903  1.00  0.00    -0.224 C  
ENDROOT
BRANCH  10  13
HETATM   13  C   UNL     1      -8.107  10.802  68.504  1.00  0.00    -0.133 C  
BRANCH  13  14
HETATM   14  C   UNL     1      -8.031   9.799  67.332  1.00  0.00    -0.102 C  
HETATM   15  C   UNL     1      -6.618   9.821  66.714  1.00  0.00    -0.067 C  
HETATM   16  C   UNL     1      -6.472   8.791  65.602  1.00  0.00    -0.059 C  
HETATM   17  C   UNL     1      -7.545   8.966  64.536  1.00  0.00    -0.109 C  
HETATM   18  C   UNL     1      -8.948   8.952  65.138  1.00  0.00    -0.189 C  
HETATM   19  C   UNL     1      -9.106  10.035  66.225  1.00  0.00    -0.180 C  
BRANCH  19  20
HETATM   20  C   UNL     1     -10.535  10.040  66.818  1.00  0.00    -0.198 C  
BRANCH  20  21
HETATM   21  N   UNL     1     -10.891   8.937  67.731  1.00  0.00    -0.125 NA 
HETATM   22  C   UNL     1     -11.508   7.823  66.958  1.00  0.00     1.560 C  
HETATM   23  C   UNL     1     -10.549   7.156  65.950  1.00  0.00     1.771 C  
HETATM   24  N   UNL     1      -9.319   6.675  66.601  1.00  0.00    -0.159 NA 
HETATM   25  C   UNL     1      -8.696   7.595  67.571  1.00  0.00    -0.125 C  
HETATM   26  C   UNL     1      -9.729   8.356  68.444  1.00  0.00    -0.156 C  
BRANCH  24  27
HETATM   27  C   UNL     1      -9.162   5.321  66.741  1.00  0.00    -0.126 A  
HETATM   28  N   UNL     1      -9.398   4.682  67.885  1.00  0.00    -0.127 NA 
HETATM   29  S   UNL     1      -9.252   3.060  67.655  1.00  0.00    -0.192 SA 
HETATM   30  C   UNL     1      -8.888   3.129  65.982  1.00  0.00    -0.140 A  
HETATM   31  C   UNL     1      -8.678   2.077  65.074  1.00  0.00    -0.115 A  
HETATM   32  C   UNL     1      -8.404   2.394  63.742  1.00  0.00    -0.082 A  
HETATM   33  C   UNL     1      -8.342   3.718  63.328  1.00  0.00    -0.090 A  
HETATM   34  C   UNL     1      -8.565   4.757  64.239  1.00  0.00    -0.141 A  
HETATM   35  C   UNL     1      -8.838   4.472  65.603  1.00  0.00    -0.127 A  
ENDBRANCH  24  27
ENDBRANCH  20  21
ENDBRANCH  19  20
ENDBRANCH  13  14
ENDBRANCH  10  13
TORSDOF 5
ENDMDL
MODEL      291
REMARK 921   NORMALIZED FREE ENERGY PREDICTED BY IDOCK:   28.00 KCAL/MOL
REMARK 922        TOTAL FREE ENERGY PREDICTED BY IDOCK:   34.46 KCAL/MOL
REMARK 923 INTER-LIGAND FREE ENERGY PREDICTED BY IDOCK:   34.76 KCAL/MOL
REMARK 924 INTRA-LIGAND FREE ENERGY PREDICTED BY IDOCK:   -0.30 KCAL/MOL
REMARK 927      BINDING AFFINITY PREDICTED BY RF-SCORE:    0.00 PKD
ROOT
HETATM    1  C   UNL     1      -6.330   5.674  66.427  1.00  0.00    -0.035 C  
HETATM    2  C   UNL     1      -6.260   4.161  66.157  1.00  0.00    -0.032 C  
HETATM    3  C   UNL     1      -5.126   3.578  67.023  1.00  0.00    -0.008 C  
HETATM    4  C   UNL     1      -5.697   3.667  68.452  1.00  0.00    -0.022 C  
HETATM    5  C   UNL     1      -7.096   4.276  68.228  1.00  0.00    -0.059 C  
HETATM    6  C   UNL     1      -7.482   3.618  66.900  1.00  0.00    -0.079 C  
HETATM    7  C   UNL     1      -6.900   5.753  67.846  1.00  0.00    -0.060 C  
HETATM    8  C   UNL     1      -8.190   6.507  67.693  1.00  0.00    -0.122 C  
HETATM    9  O   UNL     1      -8.991   6.695  68.596  1.00  0.00    -0.125 OA 
HETATM   10  N   UNL     1      -8.320   6.901  66.393  1.00  0.00    -0.119 N  
HETATM   11  O   UNL     1      -7.317   6.430  64.356  1.00  0.00    -0.064 OA 
HETATM   12  C   UNL     1      -7.352   6.378  65.577  1.00  0.00    -0.076 C  
ENDROOT
BRANCH  10  13
HETATM   13  C   UNL     1      -9.473   7.629  65.887  1.00  0.00     0.134 C  
BRANCH  13  14
HETATM   14  C   UNL     1     -10.667   7.583  66.867  1.00  0.00    -0.299 C  
HETATM   15  C   UNL     1     -11.718   6.573  66.366  1.00  0.00     2.044 C  
HETATM   16  C   UNL     1     -12.880   6.437  67.341  1.00  0.00     9.606 C  
HETATM   17  C   UNL     1     -13.512   7.788  67.647  1.00  0.00    18.533 C  
HETATM   18  C   UNL     1     -12.477   8.797  68.139  1.00  0.00     6.484 C  
HETATM   19  C   UNL     1     -11.332   8.972  67.120  1.00  0.00     1.162 C  
BRANCH  19  20
HETATM   20  C   UNL     1     -10.296  10.014  67.604  1.00  0.00    -0.224 C  
BRANCH  20  21
HETATM   21  N   UNL     1     -10.075  11.195  66.748  1.00  0.00    -0.211 NA 
HETATM   22  C   UNL     1     -11.214  12.145  66.896  1.00  0.00    -0.320 C  
HETATM   23  C   UNL     1     -11.342  12.748  68.311  1.00  0.00    -0.296 C  
HETATM   24  N   UNL     1     -10.097  13.409  68.739  1.00  0.00    -0.147 NA 
HETATM   25  C   UNL     1      -8.847  12.677  68.462  1.00  0.00    -0.044 C  
HETATM   26  C   UNL     1      -8.850  11.957  67.088  1.00  0.00    -0.180 C  
BRANCH  24  27
HETATM   27  C   UNL     1     -10.092  14.777  68.801  1.00  0.00    -0.237 A  
HETATM   28  N   UNL     1     -10.089  15.447  69.952  1.00  0.00    -0.270 NA 
HETATM   29  S   UNL     1      -9.933  17.058  69.656  1.00  0.00     0.274 SA 
HETATM   30  C   UNL     1      -9.832  16.937  67.950  1.00  0.00    -0.263 A  
HETATM   31  C   UNL     1      -9.633  17.951  66.998  1.00  0.00    -0.286 A  
HETATM   32  C   UNL     1      -9.574  17.594  65.649  1.00  0.00     0.345 A  
HETATM   33  C   UNL     1      -9.710  16.267  65.262  1.00  0.00     0.303 A  
HETATM   34  C   UNL     1      -9.895  15.264  66.221  1.00  0.00    -0.316 A  
HETATM   35  C   UNL     1      -9.967  15.591  67.600  1.00  0.00    -0.233 A  
ENDBRANCH  24  27
ENDBRANCH  20  21
ENDBRANCH  19  20
ENDBRANCH  13  14
ENDBRANCH  10  13
TORSDOF 5
ENDMDL
MODEL      292
REMARK 921   NORMALIZED FREE ENERGY PREDICTED BY IDOCK:   35.37 KCAL/MOL
REMARK 922        TOTAL FREE ENERGY PREDICTED BY IDOCK:   43.99 KCAL/MOL
REMARK 923 INTER-LIGAND FREE ENERGY PREDICTED BY IDOCK:   44.55 KCAL/MOL
REMARK 924 INTRA-LIGAND FREE ENERGY PREDICTED BY IDOCK:   -0.56 KCAL/MOL
REMARK 927      BINDING AFFINITY PREDICTED BY RF-SCORE:    0.00 PKD
ROOT
HETATM    1  C   UNL     1      -6.425   5.698  66.421  1.00  0.00    -0.044 C  
HETATM    2  C   UNL     1      -6.276   4.204  66.082  1.00  0.00    -0.032 C  
HETATM    3  C   UNL     1      -5.139   3.632  66.951  1.00  0.00    -0.008 C  
HETATM    4  C   UNL     1      -5.751   3.627  68.367  1.00  0.00    -0.022 C  
HETATM    5  C   UNL     1      -7.170   4.182  68.132  1.00  0.00    -0.060 C  
HETATM    6  C   UNL     1      -7.491   3.571  66.765  1.00  0.00    -0.076 C  
HETATM    7  C   UNL     1      -7.033   5.683  67.826  1.00  0.00    -0.066 C  
HETATM    8  C   UNL     1      -8.353   6.384  67.672  1.00  0.00    -0.117 C  
HETATM    9  O   UNL     1      -9.185   6.493  68.560  1.00  0.00    -0.127 OA 
HETATM   10  N   UNL     1      -8.467   6.834  66.388  1.00  0.00    -0.120 N  
HETATM   11  O   UNL     1      -7.392   6.506  64.360  1.00  0.00    -0.067 OA 
HETATM   12  C   UNL     1      -7.456   6.395  65.576  1.00  0.00    -0.083 C  
ENDROOT
BRANCH  10  13
HETATM   13  C   UNL     1      -9.640   7.532  65.884  1.00  0.00     0.240 C  
BRANCH  13  14
HETATM   14  C   UNL     1     -10.953   6.801  66.246  1.00  0.00     0.824 C  
HETATM   15  C   UNL     1     -11.519   6.092  64.999  1.00  0.00     4.810 C  
HETATM   16  C   UNL     1     -12.774   5.293  65.325  1.00  0.00     5.745 C  
HETATM   17  C   UNL     1     -13.830   6.162  65.994  1.00  0.00    14.046 C  
HETATM   18  C   UNL     1     -13.277   6.873  67.227  1.00  0.00    13.971 C  
HETATM   19  C   UNL     1     -12.040   7.726  66.879  1.00  0.00     5.328 C  
BRANCH  19  20
HETATM   20  C   UNL     1     -11.494   8.469  68.121  1.00  0.00     1.262 C  
BRANCH  20  21
HETATM   21  N   UNL     1     -11.119   9.885  67.950  1.00  0.00    -0.226 NA 
HETATM   22  C   UNL     1     -12.346  10.729  67.904  1.00  0.00     1.740 C  
HETATM   23  C   UNL     1     -13.153  10.730  69.220  1.00  0.00     1.516 C  
HETATM   24  N   UNL     1     -12.326  11.135  70.369  1.00  0.00    -0.339 NA 
HETATM   25  C   UNL     1     -10.979  10.539  70.440  1.00  0.00    -0.178 C  
HETATM   26  C   UNL     1     -10.288  10.419  69.056  1.00  0.00    -0.214 C  
BRANCH  24  27
HETATM   27  C   UNL     1     -12.561  12.367  70.918  1.00  0.00    -0.246 A  
HETATM   28  N   UNL     1     -13.122  12.528  72.115  1.00  0.00    -0.388 NA 
HETATM   29  S   UNL     1     -13.116  14.123  72.521  1.00  0.00    -0.460 SA 
HETATM   30  C   UNL     1     -12.326  14.683  71.108  1.00  0.00    -0.335 A  
HETATM   31  C   UNL     1     -11.926  15.988  70.772  1.00  0.00    -0.339 A  
HETATM   32  C   UNL     1     -11.279  16.192  69.552  1.00  0.00    -0.337 A  
HETATM   33  C   UNL     1     -11.038  15.128  68.692  1.00  0.00    -0.276 A  
HETATM   34  C   UNL     1     -11.431  13.830  69.043  1.00  0.00    -0.349 A  
HETATM   35  C   UNL     1     -12.097  13.587  70.273  1.00  0.00    -0.425 A  
ENDBRANCH  24  27
ENDBRANCH  20  21
ENDBRANCH  19  20
ENDBRANCH  13  14
ENDBRANCH  10  13
TORSDOF 5
ENDMDL
MODEL      293
REMARK 921   NORMALIZED FREE ENERGY PREDICTED BY IDOCK:   36.49 KCAL/MOL
REMARK 922        TOTAL FREE ENERGY PREDICTED BY IDOCK:   45.44 KCAL/MOL
REMARK 923 INTER-LIGAND FREE ENERGY PREDICTED BY IDOCK:   29.18 KCAL/MOL
REMARK 924 INTRA-LIGAND FREE ENERGY PREDICTED BY IDOCK:   16.25 KCAL/MOL
REMARK 927      BINDING AFFINITY PREDICTED BY RF-SCORE:    0.00 PKD
ROOT
HETATM    1  C   UNL     1     -11.244  13.809  67.363  1.00  0.00    -0.330 C  
HETATM    2  C   UNL     1     -12.138  14.912  66.770  1.00  0.00     0.003 C  
HETATM    3  C   UNL     1     -13.380  14.236  66.156  1.00  0.00     1.283 C  
HETATM    4  C   UNL     1     -14.164  13.756  67.395  1.00  0.00    12.124 C  
HETATM    5  C   UNL     1     -13.282  14.232  68.568  1.00  0.00     2.973 C  
HETATM    6  C   UNL     1     -12.760  15.559  68.010  1.00  0.00     1.603 C  
HETATM    7  C   UNL     1     -12.029  13.341  68.592  1.00  0.00    -0.345 C  
HETATM    8  C   UNL     1     -11.117  13.624  69.752  1.00  0.00     0.066 C  
HETATM    9  O   UNL     1     -11.425  13.474  70.924  1.00  0.00     0.257 OA 
HETATM   10  N   UNL     1      -9.930  14.100  69.275  1.00  0.00     0.037 N  
HETATM   11  O   UNL     1      -9.095  14.908  67.269  1.00  0.00    -0.185 OA 
HETATM   12  C   UNL     1      -9.952  14.336  67.926  1.00  0.00    -0.230 C  
ENDROOT
BRANCH  10  13
HETATM   13  C   UNL     1      -8.827  14.507  70.132  1.00  0.00     1.242 C  
BRANCH  13  14
HETATM   14  C   UNL     1      -7.846  13.346  70.409  1.00  0.00     3.105 C  
HETATM   15  C   UNL     1      -7.095  13.598  71.732  1.00  0.00     4.188 C  
HETATM   16  C   UNL     1      -6.171  12.441  72.086  1.00  0.00     3.020 C  
HETATM   17  C   UNL     1      -5.204  12.133  70.951  1.00  0.00    -0.147 C  
HETATM   18  C   UNL     1      -5.937  11.887  69.634  1.00  0.00    -0.114 C  
HETATM   19  C   UNL     1      -6.828  13.087  69.253  1.00  0.00    -0.019 C  
BRANCH  19  20
HETATM   20  C   UNL     1      -7.552  12.852  67.906  1.00  0.00    -0.138 C  
BRANCH  20  21
HETATM   21  N   UNL     1      -8.694  11.918  67.908  1.00  0.00    -0.159 NA 
HETATM   22  C   UNL     1      -8.218  10.540  67.603  1.00  0.00    -0.111 C  
HETATM   23  C   UNL     1      -7.277   9.953  68.676  1.00  0.00    -0.072 C  
HETATM   24  N   UNL     1      -7.892   9.972  70.014  1.00  0.00    -0.174 NA 
HETATM   25  C   UNL     1      -8.599  11.212  70.385  1.00  0.00     2.922 C  
HETATM   26  C   UNL     1      -9.397  11.838  69.210  1.00  0.00     0.561 C  
BRANCH  24  27
HETATM   27  C   UNL     1      -8.282   8.773  70.551  1.00  0.00    -0.131 A  
HETATM   28  N   UNL     1      -7.446   7.749  70.710  1.00  0.00    -0.069 NA 
HETATM   29  S   UNL     1      -8.207   6.532  71.514  1.00  0.00    -0.116 SA 
HETATM   30  C   UNL     1      -9.706   7.336  71.718  1.00  0.00    -0.153 A  
HETATM   31  C   UNL     1     -10.863   6.903  72.388  1.00  0.00    -0.267 A  
HETATM   32  C   UNL     1     -11.967   7.756  72.427  1.00  0.00    -0.338 A  
HETATM   33  C   UNL     1     -11.920   9.003  71.817  1.00  0.00    -0.438 A  
HETATM   34  C   UNL     1     -10.758   9.429  71.163  1.00  0.00    -0.417 A  
HETATM   35  C   UNL     1      -9.618   8.585  71.098  1.00  0.00    -0.248 A  
ENDBRANCH  24  27
ENDBRANCH  20  21
ENDBRANCH  19  20
ENDBRANCH  13  14
ENDBRANCH  10  13
TORSDOF 5
ENDMDL
MODEL      294
REMARK 921   NORMALIZED FREE ENERGY PREDICTED BY IDOCK:   37.00 KCAL/MOL
REMARK 922        TOTAL FREE ENERGY PREDICTED BY IDOCK:   46.09 KCAL/MOL
REMARK 923 INTER-LIGAND FREE ENERGY PREDICTED BY IDOCK:   30.53 KCAL/MOL
REMARK 924 INTRA-LIGAND FREE ENERGY PREDICTED BY IDOCK:   15.56 KCAL/MOL
REMARK 927      BINDING AFFINITY PREDICTED BY RF-SCORE:    0.00 PKD
ROOT
HETATM    1  C   UNL     1     -11.244  13.809  67.363  1.00  0.00    -0.330 C  
HETATM    2  C   UNL     1     -12.138  14.912  66.770  1.00  0.00     0.003 C  
HETATM    3  C   UNL     1     -13.380  14.236  66.156  1.00  0.00     1.283 C  
HETATM    4  C   UNL     1     -14.164  13.756  67.395  1.00  0.00    12.124 C  
HETATM    5  C   UNL     1     -13.282  14.232  68.568  1.00  0.00     2.973 C  
HETATM    6  C   UNL     1     -12.760  15.559  68.010  1.00  0.00     1.603 C  
HETATM    7  C   UNL     1     -12.029  13.341  68.592  1.00  0.00    -0.345 C  
HETATM    8  C   UNL     1     -11.117  13.624  69.752  1.00  0.00     0.066 C  
HETATM    9  O   UNL     1     -11.425  13.474  70.924  1.00  0.00     0.257 OA 
HETATM   10  N   UNL     1      -9.930  14.100  69.275  1.00  0.00     0.037 N  
HETATM   11  O   UNL     1      -9.095  14.908  67.269  1.00  0.00    -0.185 OA 
HETATM   12  C   UNL     1      -9.952  14.336  67.926  1.00  0.00    -0.230 C  
ENDROOT
BRANCH  10  13
HETATM   13  C   UNL     1      -8.827  14.507  70.132  1.00  0.00     1.242 C  
BRANCH  13  14
HETATM   14  C   UNL     1      -7.846  13.346  70.409  1.00  0.00     3.105 C  
HETATM   15  C   UNL     1      -7.095  13.598  71.732  1.00  0.00     4.188 C  
HETATM   16  C   UNL     1      -6.171  12.441  72.086  1.00  0.00     3.020 C  
HETATM   17  C   UNL     1      -5.204  12.133  70.951  1.00  0.00    -0.147 C  
HETATM   18  C   UNL     1      -5.937  11.887  69.634  1.00  0.00    -0.114 C  
HETATM   19  C   UNL     1      -6.828  13.087  69.253  1.00  0.00    -0.019 C  
BRANCH  19  20
HETATM   20  C   UNL     1      -7.552  12.852  67.906  1.00  0.00    -0.138 C  
BRANCH  20  21
HETATM   21  N   UNL     1      -8.694  11.918  67.908  1.00  0.00    -0.159 NA 
HETATM   22  C   UNL     1      -8.218  10.540  67.603  1.00  0.00    -0.111 C  
HETATM   23  C   UNL     1      -7.277   9.953  68.676  1.00  0.00    -0.072 C  
HETATM   24  N   UNL     1      -7.892   9.972  70.014  1.00  0.00    -0.174 NA 
HETATM   25  C   UNL     1      -8.599  11.212  70.385  1.00  0.00     2.922 C  
HETATM   26  C   UNL     1      -9.397  11.838  69.210  1.00  0.00     0.561 C  
BRANCH  24  27
HETATM   27  C   UNL     1      -8.282   8.773  70.551  1.00  0.00    -0.131 A  
HETATM   28  N   UNL     1      -9.551   8.373  70.576  1.00  0.00    -0.167 NA 
HETATM   29  S   UNL     1      -9.637   6.835  71.154  1.00  0.00    -0.173 SA 
HETATM   30  C   UNL     1      -7.953   6.613  71.376  1.00  0.00    -0.107 A  
HETATM   31  C   UNL     1      -7.257   5.473  71.813  1.00  0.00    -0.089 A  
HETATM   32  C   UNL     1      -5.865   5.537  71.901  1.00  0.00    -0.025 A  
HETATM   33  C   UNL     1      -5.187   6.702  71.565  1.00  0.00    -0.027 A  
HETATM   34  C   UNL     1      -5.891   7.828  71.120  1.00  0.00    -0.034 A  
HETATM   35  C   UNL     1      -7.307   7.801  71.025  1.00  0.00    -0.072 A  
ENDBRANCH  24  27
ENDBRANCH  20  21
ENDBRANCH  19  20
ENDBRANCH  13  14
ENDBRANCH  10  13
TORSDOF 5
ENDMDL
MODEL      295
REMARK 921   NORMALIZED FREE ENERGY PREDICTED BY IDOCK:   38.23 KCAL/MOL
REMARK 922        TOTAL FREE ENERGY PREDICTED BY IDOCK:   47.69 KCAL/MOL
REMARK 923 INTER-LIGAND FREE ENERGY PREDICTED BY IDOCK:   28.55 KCAL/MOL
REMARK 924 INTRA-LIGAND FREE ENERGY PREDICTED BY IDOCK:   19.14 KCAL/MOL
REMARK 927      BINDING AFFINITY PREDICTED BY RF-SCORE:    0.00 PKD
ROOT
HETATM    1  C   UNL     1     -12.207  15.359  69.927  1.00  0.00    -0.363 C  
HETATM    2  C   UNL     1     -12.586  16.809  69.576  1.00  0.00     2.862 C  
HETATM    3  C   UNL     1     -13.634  17.286  70.601  1.00  0.00    11.601 C  
HETATM    4  C   UNL     1     -12.813  17.426  71.899  1.00  0.00     6.683 C  
HETATM    5  C   UNL     1     -11.391  17.028  71.454  1.00  0.00     0.817 C  
HETATM    6  C   UNL     1     -11.366  17.608  70.037  1.00  0.00     2.171 C  
HETATM    7  C   UNL     1     -11.393  15.509  71.214  1.00  0.00    -0.449 C  
HETATM    8  C   UNL     1     -10.038  14.958  70.869  1.00  0.00     1.057 C  
HETATM    9  O   UNL     1      -9.071  14.987  71.614  1.00  0.00     2.934 OA 
HETATM   10  N   UNL     1     -10.073  14.466  69.596  1.00  0.00     0.156 N  
HETATM   11  O   UNL     1     -11.484  14.574  67.760  1.00  0.00    -0.307 OA 
HETATM   12  C   UNL     1     -11.245  14.748  68.946  1.00  0.00    -0.266 C  
ENDROOT
BRANCH  10  13
HETATM   13  C   UNL     1      -8.917  13.885  68.929  1.00  0.00     0.104 C  
BRANCH  13  14
HETATM   14  C   UNL     1      -9.156  13.689  67.415  1.00  0.00    -0.222 C  
HETATM   15  C   UNL     1      -8.476  14.826  66.626  1.00  0.00    -0.093 C  
HETATM   16  C   UNL     1      -8.620  14.633  65.122  1.00  0.00     3.607 C  
HETATM   17  C   UNL     1     -10.080  14.474  64.717  1.00  0.00    -0.109 C  
HETATM   18  C   UNL     1     -10.764  13.354  65.498  1.00  0.00    -0.301 C  
HETATM   19  C   UNL     1     -10.663  13.586  67.020  1.00  0.00    -0.278 C  
BRANCH  19  20
HETATM   20  C   UNL     1     -11.379  12.467  67.813  1.00  0.00    -0.299 C  
BRANCH  20  21
HETATM   21  N   UNL     1     -11.014  12.307  69.234  1.00  0.00    -0.154 NA 
HETATM   22  C   UNL     1     -11.826  11.216  69.843  1.00  0.00    -0.363 C  
HETATM   23  C   UNL     1     -11.546   9.822  69.244  1.00  0.00     0.167 C  
HETATM   24  N   UNL     1     -10.119   9.469  69.323  1.00  0.00    -0.188 NA 
HETATM   25  C   UNL     1      -9.167  10.532  68.951  1.00  0.00    -0.183 C  
HETATM   26  C   UNL     1      -9.595  11.939  69.447  1.00  0.00     0.790 C  
BRANCH  24  27
HETATM   27  C   UNL     1      -9.751   8.502  70.221  1.00  0.00    -0.171 A  
HETATM   28  N   UNL     1     -10.446   7.380  70.397  1.00  0.00    -0.217 NA 
HETATM   29  S   UNL     1      -9.643   6.388  71.436  1.00  0.00    -0.161 SA 
HETATM   30  C   UNL     1      -8.293   7.413  71.685  1.00  0.00    -0.104 A  
HETATM   31  C   UNL     1      -7.135   7.187  72.448  1.00  0.00    -0.068 A  
HETATM   32  C   UNL     1      -6.157   8.184  72.484  1.00  0.00    -0.057 A  
HETATM   33  C   UNL     1      -6.329   9.369  71.781  1.00  0.00     0.101 A  
HETATM   34  C   UNL     1      -7.482   9.578  71.015  1.00  0.00     0.036 A  
HETATM   35  C   UNL     1      -8.500   8.589  70.961  1.00  0.00    -0.185 A  
ENDBRANCH  24  27
ENDBRANCH  20  21
ENDBRANCH  19  20
ENDBRANCH  13  14
ENDBRANCH  10  13
TORSDOF 5
ENDMDL
MODEL      296
REMARK 921   NORMALIZED FREE ENERGY PREDICTED BY IDOCK:   47.39 KCAL/MOL
REMARK 922        TOTAL FREE ENERGY PREDICTED BY IDOCK:   59.52 KCAL/MOL
REMARK 923 INTER-LIGAND FREE ENERGY PREDICTED BY IDOCK:   42.02 KCAL/MOL
REMARK 924 INTRA-LIGAND FREE ENERGY PREDICTED BY IDOCK:   17.50 KCAL/MOL
REMARK 927      BINDING AFFINITY PREDICTED BY RF-SCORE:    0.00 PKD
ROOT
HETATM    1  C   UNL     1      -8.065   5.942  68.699  1.00  0.00    -0.103 C  
HETATM    2  C   UNL     1      -7.986   5.238  67.333  1.00  0.00    -0.100 C  
HETATM    3  C   UNL     1      -9.255   4.380  67.169  1.00  0.00    -0.157 C  
HETATM    4  C   UNL     1     -10.365   5.433  66.973  1.00  0.00    -0.299 C  
HETATM    5  C   UNL     1      -9.592   6.766  67.034  1.00  0.00    -0.188 C  
HETATM    6  C   UNL     1      -8.284   6.366  66.343  1.00  0.00    -0.115 C  
HETATM    7  C   UNL     1      -9.167   6.986  68.495  1.00  0.00    -0.137 C  
HETATM    8  C   UNL     1      -8.485   8.305  68.727  1.00  0.00    -0.125 C  
HETATM    9  O   UNL     1      -9.014   9.393  68.563  1.00  0.00    -0.128 OA 
HETATM   10  N   UNL     1      -7.195   8.073  69.107  1.00  0.00    -0.075 N  
HETATM   11  O   UNL     1      -5.715   6.289  69.135  1.00  0.00    -0.018 OA 
HETATM   12  C   UNL     1      -6.839   6.754  69.017  1.00  0.00    -0.069 C  
ENDROOT
BRANCH  10  13
HETATM   13  C   UNL     1      -6.237   9.134  69.381  1.00  0.00    -0.040 C  
BRANCH  13  14
HETATM   14  C   UNL     1      -6.921  10.408  69.925  1.00  0.00    -0.149 C  
HETATM   15  C   UNL     1      -5.853  11.427  70.370  1.00  0.00    -0.153 C  
HETATM   16  C   UNL     1      -6.479  12.732  70.844  1.00  0.00     1.272 C  
HETATM   17  C   UNL     1      -7.505  12.491  71.943  1.00  0.00    10.113 C  
HETATM   18  C   UNL     1      -8.565  11.478  71.514  1.00  0.00    11.640 C  
HETATM   19  C   UNL     1      -7.927  10.140  71.089  1.00  0.00     1.718 C  
BRANCH  19  20
HETATM   20  C   UNL     1      -9.000   9.104  70.679  1.00  0.00    -0.244 C  
BRANCH  20  21
HETATM   21  N   UNL     1     -10.407   9.435  70.974  1.00  0.00    -0.308 NA 
HETATM   22  C   UNL     1     -10.481  10.761  71.650  1.00  0.00     4.347 C  
HETATM   23  C   UNL     1     -10.014  11.938  70.769  1.00  0.00     5.722 C  
HETATM   24  N   UNL     1     -10.756  11.997  69.498  1.00  0.00     0.075 NA 
HETATM   25  C   UNL     1     -10.955  10.712  68.803  1.00  0.00    -0.246 C  
HETATM   26  C   UNL     1     -11.261   9.535  69.767  1.00  0.00    -0.144 C  
BRANCH  24  27
HETATM   27  C   UNL     1     -11.663  13.012  69.337  1.00  0.00    -0.326 A  
HETATM   28  N   UNL     1     -12.767  12.882  68.604  1.00  0.00     0.786 NA 
HETATM   29  S   UNL     1     -13.692  14.234  68.751  1.00  0.00     6.761 SA 
HETATM   30  C   UNL     1     -12.661  15.062  69.841  1.00  0.00    -0.090 A  
HETATM   31  C   UNL     1     -12.843  16.309  70.462  1.00  0.00     1.264 A  
HETATM   32  C   UNL     1     -11.852  16.770  71.331  1.00  0.00     0.559 A  
HETATM   33  C   UNL     1     -10.715  16.010  71.574  1.00  0.00     0.697 A  
HETATM   34  C   UNL     1     -10.551  14.764  70.958  1.00  0.00     0.556 A  
HETATM   35  C   UNL     1     -11.534  14.267  70.063  1.00  0.00    -0.280 A  
ENDBRANCH  24  27
ENDBRANCH  20  21
ENDBRANCH  19  20
ENDBRANCH  13  14
ENDBRANCH  10  13
TORSDOF 5
ENDMDL
MODEL      297
REMARK 921   NORMALIZED FREE ENERGY PREDICTED BY IDOCK:   49.12 KCAL/MOL
REMARK 922        TOTAL FREE ENERGY PREDICTED BY IDOCK:   61.76 KCAL/MOL
REMARK 923 INTER-LIGAND FREE ENERGY PREDICTED BY IDOCK:   52.93 KCAL/MOL
REMARK 924 INTRA-LIGAND FREE ENERGY PREDICTED BY IDOCK:    8.83 KCAL/MOL
REMARK 927      BINDING AFFINITY PREDICTED BY RF-SCORE:    0.00 PKD
ROOT
HETATM    1  C   UNL     1      -6.637   5.755  66.393  1.00  0.00    -0.055 C  
HETATM    2  C   UNL     1      -6.348   4.288  66.029  1.00  0.00    -0.033 C  
HETATM    3  C   UNL     1      -5.181   3.803  66.911  1.00  0.00    -0.012 C  
HETATM    4  C   UNL     1      -5.817   3.713  68.313  1.00  0.00    -0.026 C  
HETATM    5  C   UNL     1      -7.276   4.143  68.059  1.00  0.00    -0.060 C  
HETATM    6  C   UNL     1      -7.513   3.534  66.674  1.00  0.00    -0.076 C  
HETATM    7  C   UNL     1      -7.269   5.656  67.784  1.00  0.00    -0.072 C  
HETATM    8  C   UNL     1      -8.644   6.239  67.616  1.00  0.00    -0.114 C  
HETATM    9  O   UNL     1      -9.499   6.253  68.488  1.00  0.00    -0.124 OA 
HETATM   10  N   UNL     1      -8.773   6.702  66.339  1.00  0.00    -0.136 N  
HETATM   11  O   UNL     1      -7.634   6.515  64.328  1.00  0.00    -0.085 OA 
HETATM   12  C   UNL     1      -7.711   6.374  65.540  1.00  0.00    -0.096 C  
ENDROOT
BRANCH  10  13
HETATM   13  C   UNL     1      -9.995   7.302  65.824  1.00  0.00     0.904 C  
BRANCH  13  14
HETATM   14  C   UNL     1     -11.242   6.446  66.140  1.00  0.00     1.208 C  
HETATM   15  C   UNL     1     -11.746   5.760  64.855  1.00  0.00     4.611 C  
HETATM   16  C   UNL     1     -12.930   4.843  65.132  1.00  0.00     7.122 C  
HETATM   17  C   UNL     1     -14.055   5.585  65.840  1.00  0.00    14.401 C  
HETATM   18  C   UNL     1     -13.565   6.274  67.112  1.00  0.00    17.507 C  
HETATM   19  C   UNL     1     -12.403   7.243  66.815  1.00  0.00     6.492 C  
BRANCH  19  20
HETATM   20  C   UNL     1     -11.921   7.962  68.098  1.00  0.00     3.002 C  
BRANCH  20  21
HETATM   21  N   UNL     1     -12.067   7.237  69.374  1.00  0.00     0.809 NA 
HETATM   22  C   UNL     1     -10.899   6.335  69.578  1.00  0.00    -0.340 C  
HETATM   23  C   UNL     1      -9.557   7.080  69.742  1.00  0.00    -0.151 C  
HETATM   24  N   UNL     1      -9.609   8.066  70.835  1.00  0.00    -0.160 NA 
HETATM   25  C   UNL     1     -10.822   8.903  70.897  1.00  0.00    -0.248 C  
HETATM   26  C   UNL     1     -12.121   8.124  70.560  1.00  0.00     0.147 C  
BRANCH  24  27
HETATM   27  C   UNL     1      -8.911   7.783  71.980  1.00  0.00    -0.134 A  
HETATM   28  N   UNL     1      -8.340   8.725  72.727  1.00  0.00    -0.390 NA 
HETATM   29  S   UNL     1      -7.721   8.050  74.094  1.00  0.00    -0.225 SA 
HETATM   30  C   UNL     1      -8.218   6.444  73.764  1.00  0.00    -0.111 A  
HETATM   31  C   UNL     1      -8.070   5.289  74.550  1.00  0.00    -0.101 A  
HETATM   32  C   UNL     1      -8.577   4.083  74.062  1.00  0.00    -0.093 A  
HETATM   33  C   UNL     1      -9.211   4.030  72.827  1.00  0.00    -0.135 A  
HETATM   34  C   UNL     1      -9.363   5.190  72.058  1.00  0.00    -0.164 A  
HETATM   35  C   UNL     1      -8.854   6.432  72.520  1.00  0.00    -0.133 A  
ENDBRANCH  24  27
ENDBRANCH  20  21
ENDBRANCH  19  20
ENDBRANCH  13  14
ENDBRANCH  10  13
TORSDOF 5
ENDMDL
MODEL      298
REMARK 921   NORMALIZED FREE ENERGY PREDICTED BY IDOCK:   67.66 KCAL/MOL
REMARK 922        TOTAL FREE ENERGY PREDICTED BY IDOCK:   85.71 KCAL/MOL
REMARK 923 INTER-LIGAND FREE ENERGY PREDICTED BY IDOCK:    7.69 KCAL/MOL
REMARK 924 INTRA-LIGAND FREE ENERGY PREDICTED BY IDOCK:   78.02 KCAL/MOL
REMARK 927      BINDING AFFINITY PREDICTED BY RF-SCORE:    0.00 PKD
ROOT
HETATM    1  C   UNL     1      -8.300  13.181  68.018  1.00  0.00    -0.162 C  
HETATM    2  C   UNL     1      -7.471  12.802  69.258  1.00  0.00     0.311 C  
HETATM    3  C   UNL     1      -6.418  11.763  68.824  1.00  0.00    -0.066 C  
HETATM    4  C   UNL     1      -5.439  12.595  67.971  1.00  0.00    -0.087 C  
HETATM    5  C   UNL     1      -6.043  14.012  68.034  1.00  0.00    -0.144 C  
HETATM    6  C   UNL     1      -6.580  14.028  69.468  1.00  0.00    -0.115 C  
HETATM    7  C   UNL     1      -7.321  14.007  67.179  1.00  0.00     0.149 C  
HETATM    8  C   UNL     1      -7.969  15.358  67.064  1.00  0.00    -0.224 C  
HETATM    9  O   UNL     1      -7.448  16.331  66.542  1.00  0.00    -0.231 OA 
HETATM   10  N   UNL     1      -9.194  15.312  67.664  1.00  0.00    -0.186 N  
HETATM   11  O   UNL     1     -10.352  13.886  69.078  1.00  0.00    -0.200 OA 
HETATM   12  C   UNL     1      -9.421  14.135  68.327  1.00  0.00    -0.211 C  
ENDROOT
BRANCH  10  13
HETATM   13  C   UNL     1     -10.081  16.461  67.765  1.00  0.00    -0.262 C  
BRANCH  13  14
HETATM   14  C   UNL     1      -9.350  17.788  67.465  1.00  0.00    -0.245 C  
HETATM   15  C   UNL     1      -7.893  17.709  67.961  1.00  0.00    -0.235 C  
HETATM   16  C   UNL     1      -7.110  18.969  67.618  1.00  0.00    -0.237 C  
HETATM   17  C   UNL     1      -7.806  20.218  68.142  1.00  0.00    -0.140 C  
HETATM   18  C   UNL     1      -9.252  20.303  67.660  1.00  0.00    -0.449 C  
HETATM   19  C   UNL     1     -10.054  19.048  68.061  1.00  0.00    -0.458 C  
BRANCH  19  20
HETATM   20  C   UNL     1     -11.527  19.143  67.597  1.00  0.00     0.772 C  
BRANCH  20  21
HETATM   21  N   UNL     1     -12.450  18.088  68.057  1.00  0.00     3.658 NA 
HETATM   22  C   UNL     1     -12.584  17.043  67.004  1.00  0.00     4.638 C  
HETATM   23  C   UNL     1     -11.277  16.274  66.716  1.00  0.00     0.217 C  
HETATM   24  N   UNL     1     -10.720  15.667  67.936  1.00  0.00    -0.286 NA 
HETATM   25  C   UNL     1     -10.714  16.519  69.140  1.00  0.00    -0.335 C  
HETATM   26  C   UNL     1     -11.992  17.389  69.281  1.00  0.00     2.952 C  
BRANCH  24  27
HETATM   27  C   UNL     1     -10.795  14.305  68.061  1.00  0.00    -0.239 A  
HETATM   28  N   UNL     1     -10.635  13.677  69.224  1.00  0.00    -0.044 NA 
HETATM   29  S   UNL     1     -10.935  12.071  69.034  1.00  0.00    -0.180 SA 
HETATM   30  C   UNL     1     -11.329  12.139  67.368  1.00  0.00    -0.326 A  
HETATM   31  C   UNL     1     -11.752  11.108  66.512  1.00  0.00     0.542 A  
HETATM   32  C   UNL     1     -12.027  11.421  65.179  1.00  0.00     0.584 A  
HETATM   33  C   UNL     1     -11.884  12.722  64.714  1.00  0.00    -0.423 A  
HETATM   34  C   UNL     1     -11.473  13.743  65.579  1.00  0.00    -0.319 A  
HETATM   35  C   UNL     1     -11.178  13.460  66.938  1.00  0.00    -0.330 A  
ENDBRANCH  24  27
ENDBRANCH  20  21
ENDBRANCH  19  20
ENDBRANCH  13  14
ENDBRANCH  10  13
TORSDOF 5
ENDMDL
MODEL      299
REMARK 921   NORMALIZED FREE ENERGY PREDICTED BY IDOCK:  105.18 KCAL/MOL
REMARK 922        TOTAL FREE ENERGY PREDICTED BY IDOCK:  134.20 KCAL/MOL
REMARK 923 INTER-LIGAND FREE ENERGY PREDICTED BY IDOCK:   76.91 KCAL/MOL
REMARK 924 INTRA-LIGAND FREE ENERGY PREDICTED BY IDOCK:   57.29 KCAL/MOL
REMARK 927      BINDING AFFINITY PREDICTED BY RF-SCORE:    0.00 PKD
ROOT
HETATM    1  C   UNL     1     -10.278   8.703  73.673  1.00  0.00     2.126 C  
HETATM    2  C   UNL     1     -10.818   7.332  73.232  1.00  0.00    -0.404 C  
HETATM    3  C   UNL     1     -12.333   7.307  73.512  1.00  0.00     2.432 C  
HETATM    4  C   UNL     1     -12.899   8.278  72.456  1.00  0.00    -0.191 C  
HETATM    5  C   UNL     1     -11.638   8.728  71.690  1.00  0.00    -0.390 C  
HETATM    6  C   UNL     1     -10.820   7.433  71.706  1.00  0.00    -0.253 C  
HETATM    7  C   UNL     1     -10.843   9.660  72.619  1.00  0.00     2.518 C  
HETATM    8  C   UNL     1      -9.629  10.261  71.967  1.00  0.00     5.457 C  
HETATM    9  O   UNL     1      -9.663  11.010  71.004  1.00  0.00     2.885 OA 
HETATM   10  N   UNL     1      -8.513   9.801  72.604  1.00  0.00     3.303 N  
HETATM   11  O   UNL     1      -7.974   8.130  74.118  1.00  0.00    -0.214 OA 
HETATM   12  C   UNL     1      -8.787   8.826  73.526  1.00  0.00     0.584 C  
ENDROOT
BRANCH  10  13
HETATM   13  C   UNL     1      -7.160  10.159  72.208  1.00  0.00     2.789 C  
BRANCH  13  14
HETATM   14  C   UNL     1      -7.097  10.678  70.754  1.00  0.00     0.948 C  
HETATM   15  C   UNL     1      -6.966   9.492  69.778  1.00  0.00    -0.071 C  
HETATM   16  C   UNL     1      -6.977   9.951  68.326  1.00  0.00    -0.072 C  
HETATM   17  C   UNL     1      -5.907  11.002  68.066  1.00  0.00    -0.042 C  
HETATM   18  C   UNL     1      -6.025  12.180  69.031  1.00  0.00    -0.069 C  
HETATM   19  C   UNL     1      -5.956  11.713  70.500  1.00  0.00    -0.078 C  
BRANCH  19  20
HETATM   20  C   UNL     1      -6.048  12.907  71.480  1.00  0.00     1.174 C  
BRANCH  20  21
HETATM   21  N   UNL     1      -7.352  13.151  72.126  1.00  0.00     6.691 NA 
HETATM   22  C   UNL     1      -8.243  13.898  71.195  1.00  0.00     5.780 C  
HETATM   23  C   UNL     1      -8.618  13.110  69.922  1.00  0.00     2.709 C  
HETATM   24  N   UNL     1      -9.229  11.809  70.243  1.00  0.00     3.133 NA 
HETATM   25  C   UNL     1      -8.575  11.032  71.313  1.00  0.00     6.951 C  
HETATM   26  C   UNL     1      -8.077  11.911  72.491  1.00  0.00    18.638 C  
BRANCH  24  27
HETATM   27  C   UNL     1     -10.571  11.663  70.012  1.00  0.00     0.853 A  
HETATM   28  N   UNL     1     -11.286  10.661  70.520  1.00  0.00    -0.268 NA 
HETATM   29  S   UNL     1     -12.877  10.877  70.164  1.00  0.00     0.051 SA 
HETATM   30  C   UNL     1     -12.692  12.359  69.324  1.00  0.00     0.886 A  
HETATM   31  C   UNL     1     -13.675  13.187  68.756  1.00  0.00     6.680 A  
HETATM   32  C   UNL     1     -13.269  14.365  68.126  1.00  0.00     3.254 A  
HETATM   33  C   UNL     1     -11.925  14.708  68.064  1.00  0.00    -0.292 A  
HETATM   34  C   UNL     1     -10.956  13.880  68.644  1.00  0.00    -0.281 A  
HETATM   35  C   UNL     1     -11.331  12.671  69.286  1.00  0.00    -0.306 A  
ENDBRANCH  24  27
ENDBRANCH  20  21
ENDBRANCH  19  20
ENDBRANCH  13  14
ENDBRANCH  10  13
TORSDOF 5
ENDMDL
