MODEL        1
REMARK 921   NORMALIZED FREE ENERGY PREDICTED BY IDOCK:   -6.34 KCAL/MOL
REMARK 922        TOTAL FREE ENERGY PREDICTED BY IDOCK:  -12.39 KCAL/MOL
REMARK 923 INTER-LIGAND FREE ENERGY PREDICTED BY IDOCK:  -10.79 KCAL/MOL
REMARK 924 INTRA-LIGAND FREE ENERGY PREDICTED BY IDOCK:   -1.60 KCAL/MOL
REMARK 927      BINDING AFFINITY PREDICTED BY RF-SCORE:    0.00 PKD
ROOT
HETATM    1  C   UNL     1      -8.128   7.095  65.497  1.00  0.00    -0.135 C  
HETATM    2  C   UNL     1      -7.953   5.617  65.771  1.00  0.00    -0.109 C  
ENDROOT
BRANCH   2   3
HETATM    3  C   UNL     1      -9.297   4.925  66.029  1.00  0.00    -0.158 C  
BRANCH   3   4
HETATM    4  C   UNL     1      -9.081   3.582  66.714  1.00  0.00    -0.179 C  
BRANCH   4   5
HETATM    5  C   UNL     1      -8.392   3.726  68.063  1.00  0.00    -0.101 C  
BRANCH   5   6
HETATM    6  C   UNL     1      -9.182   2.983  69.132  1.00  0.00    -0.154 C  
BRANCH   6   7
HETATM    7  O   UNL     1      -8.960   3.630  70.376  1.00  0.00    -0.080 OA 
BRANCH   7   8
HETATM    8  C   UNL     1      -9.972   3.386  71.369  1.00  0.00    -0.065 C  
HETATM    9  C   UNL     1      -9.527   2.280  72.325  1.00  0.00    -0.167 C  
BRANCH   8  10
HETATM   10  C   UNL     1     -10.249   4.689  72.116  1.00  0.00    -0.259 A  
HETATM   11  C   UNL     1     -10.847   5.845  71.546  1.00  0.00    -0.266 A  
HETATM   12  C   UNL     1     -10.122   5.850  74.274  1.00  0.00    -0.292 A  
HETATM   13  C   UNL     1     -11.076   7.000  72.350  1.00  0.00    -0.294 A  
HETATM   14  C   UNL     1     -10.677   6.984  73.700  1.00  0.00    -0.310 A  
HETATM   15  C   UNL     1      -9.923   4.720  73.492  1.00  0.00    -0.183 A  
BRANCH  11  16
HETATM   16  O   UNL     1     -11.362   5.876  70.272  1.00  0.00    -0.322 OA 
HETATM   17  C   UNL     1     -10.536   6.388  69.234  1.00  0.00    -0.259 C  
ENDBRANCH  11  16
BRANCH  13  18
HETATM   18  C   UNL     1     -11.689   8.250  71.877  1.00  0.00    -0.322 A  
HETATM   19  C   UNL     1     -13.000   8.640  72.076  1.00  0.00    -0.378 A  
HETATM   20  S   UNL     1     -13.283  10.172  71.333  1.00  0.00    -0.357 SA 
HETATM   21  C   UNL     1     -11.629  10.261  70.928  1.00  0.00    -0.365 A  
HETATM   22  N   UNL     1     -10.912   9.213  71.236  1.00  0.00    -0.301 NA 
BRANCH  21  23
HETATM   23  N   UNL     1     -11.239  11.427  70.302  1.00  0.00    -0.466 N  
HETATM   24  C   UNL     1     -11.630  11.672  68.998  1.00  0.00    -0.316 C  
HETATM   25  H   UNL     1     -10.663  12.105  70.799  1.00  0.00     0.000 HD 
HETATM   26  O   UNL     1     -12.207  10.882  68.257  1.00  0.00    -0.526 OA 
BRANCH  24  27
HETATM   27  C   UNL     1     -11.343  13.014  68.416  1.00  0.00    -0.326 A  
HETATM   28  C   UNL     1     -11.085  13.268  67.072  1.00  0.00    -0.304 A  
HETATM   29  C   UNL     1     -10.909  14.601  66.633  1.00  0.00    -0.312 A  
HETATM   30  C   UNL     1     -10.954  15.719  67.513  1.00  0.00    -0.293 A  
HETATM   31 CL   UNL     1     -10.615  14.794  64.928  1.00  0.00    -0.449 Cl 
HETATM   32  C   UNL     1     -11.376  14.100  69.301  1.00  0.00    -0.324 A  
HETATM   33  C   UNL     1     -11.136  15.415  68.874  1.00  0.00    -0.275 A  
HETATM   34 CL   UNL     1     -10.958  16.575  70.147  1.00  0.00    -0.310 Cl 
BRANCH  30  35
HETATM   35  C   UNL     1     -10.697  17.093  66.973  1.00  0.00    -0.149 C  
HETATM   36  C   UNL     1      -9.616  17.906  67.035  1.00  0.00    -0.286 C  
HETATM   37  C   UNL     1      -9.654  19.267  66.409  1.00  0.00    -0.371 C  
HETATM   38  C   UNL     1      -8.265  17.625  67.632  1.00  0.00    -0.225 C  
HETATM   39  O   UNL     1     -10.848  19.889  66.481  1.00  0.00    -0.430 OA 
HETATM   40  O   UNL     1      -8.667  19.806  65.932  1.00  0.00    -0.369 OA 
ENDBRANCH  30  35
ENDBRANCH  24  27
ENDBRANCH  21  23
ENDBRANCH  13  18
ENDBRANCH   8  10
ENDBRANCH   7   8
ENDBRANCH   6   7
ENDBRANCH   5   6
ENDBRANCH   4   5
ENDBRANCH   3   4
ENDBRANCH   2   3
TORSDOF 12
ENDMDL
MODEL        2
REMARK 921   NORMALIZED FREE ENERGY PREDICTED BY IDOCK:   -6.29 KCAL/MOL
REMARK 922        TOTAL FREE ENERGY PREDICTED BY IDOCK:  -12.30 KCAL/MOL
REMARK 923 INTER-LIGAND FREE ENERGY PREDICTED BY IDOCK:  -10.47 KCAL/MOL
REMARK 924 INTRA-LIGAND FREE ENERGY PREDICTED BY IDOCK:   -1.83 KCAL/MOL
REMARK 927      BINDING AFFINITY PREDICTED BY RF-SCORE:    0.00 PKD
ROOT
HETATM    1  C   UNL     1      -9.480   9.210  67.055  1.00  0.00    -0.201 C  
HETATM    2  C   UNL     1      -8.873   8.537  65.844  1.00  0.00    -0.219 C  
ENDROOT
BRANCH   2   3
HETATM    3  C   UNL     1      -8.455   7.093  66.147  1.00  0.00    -0.143 C  
BRANCH   3   4
HETATM    4  C   UNL     1      -7.051   7.059  66.737  1.00  0.00    -0.082 C  
BRANCH   4   5
HETATM    5  C   UNL     1      -7.005   6.333  68.075  1.00  0.00    -0.080 C  
BRANCH   5   6
HETATM    6  C   UNL     1      -7.641   4.955  67.941  1.00  0.00    -0.083 C  
BRANCH   6   7
HETATM    7  O   UNL     1      -7.869   4.445  69.245  1.00  0.00    -0.058 OA 
BRANCH   7   8
HETATM    8  C   UNL     1      -9.159   3.834  69.434  1.00  0.00    -0.132 C  
HETATM    9  C   UNL     1      -9.000   2.371  69.845  1.00  0.00    -0.159 C  
BRANCH   8  10
HETATM   10  C   UNL     1      -9.927   4.628  70.487  1.00  0.00    -0.295 A  
HETATM   11  C   UNL     1     -10.424   5.948  70.311  1.00  0.00    -0.261 A  
HETATM   12  C   UNL     1     -10.886   4.595  72.745  1.00  0.00    -0.259 A  
HETATM   13  C   UNL     1     -11.149   6.583  71.362  1.00  0.00    -0.315 A  
HETATM   14  C   UNL     1     -11.339   5.895  72.575  1.00  0.00    -0.352 A  
HETATM   15  C   UNL     1     -10.202   3.973  71.710  1.00  0.00    -0.135 A  
BRANCH  11  16
HETATM   16  O   UNL     1     -10.372   6.619  69.113  1.00  0.00    -0.174 OA 
HETATM   17  C   UNL     1     -11.275   6.221  68.089  1.00  0.00    -0.133 C  
ENDBRANCH  11  16
BRANCH  13  18
HETATM   18  C   UNL     1     -11.713   7.940  71.299  1.00  0.00    -0.287 A  
HETATM   19  C   UNL     1     -12.881   8.364  71.905  1.00  0.00    -0.353 A  
HETATM   20  S   UNL     1     -13.164  10.029  71.549  1.00  0.00    -0.390 SA 
HETATM   21  C   UNL     1     -11.663  10.092  70.741  1.00  0.00    -0.357 A  
HETATM   22  N   UNL     1     -11.016   8.960  70.657  1.00  0.00    -0.232 NA 
BRANCH  21  23
HETATM   23  N   UNL     1     -11.310  11.333  70.251  1.00  0.00    -0.491 N  
HETATM   24  C   UNL     1     -11.715  11.713  68.985  1.00  0.00    -0.324 C  
HETATM   25  H   UNL     1     -10.751  11.967  70.821  1.00  0.00     0.000 HD 
HETATM   26  O   UNL     1     -12.273  10.996  68.160  1.00  0.00    -0.578 OA 
BRANCH  24  27
HETATM   27  C   UNL     1     -11.471  13.120  68.559  1.00  0.00    -0.338 A  
HETATM   28  C   UNL     1     -11.404  14.218  69.413  1.00  0.00    -0.325 A  
HETATM   29  C   UNL     1     -11.083  15.492  68.890  1.00  0.00    -0.282 A  
HETATM   30  C   UNL     1     -10.848  15.725  67.505  1.00  0.00    -0.315 A  
HETATM   31 CL   UNL     1     -11.005  16.781  70.057  1.00  0.00    -0.172 Cl 
HETATM   32  C   UNL     1     -11.258  13.332  67.190  1.00  0.00    -0.327 A  
HETATM   33  C   UNL     1     -11.005  14.608  66.665  1.00  0.00    -0.323 A  
HETATM   34 CL   UNL     1     -11.033  14.705  64.937  1.00  0.00    -0.405 Cl 
BRANCH  30  35
HETATM   35  C   UNL     1     -10.572  17.119  67.028  1.00  0.00    -0.227 C  
HETATM   36  C   UNL     1      -9.450  17.877  67.038  1.00  0.00    -0.272 C  
HETATM   37  C   UNL     1      -9.476  19.277  66.503  1.00  0.00    -0.357 C  
HETATM   38  C   UNL     1      -8.067  17.498  67.489  1.00  0.00    -0.213 C  
HETATM   39  O   UNL     1     -10.626  19.945  66.724  1.00  0.00    -0.461 OA 
HETATM   40  O   UNL     1      -8.511  19.801  65.971  1.00  0.00    -0.361 OA 
ENDBRANCH  30  35
ENDBRANCH  24  27
ENDBRANCH  21  23
ENDBRANCH  13  18
ENDBRANCH   8  10
ENDBRANCH   7   8
ENDBRANCH   6   7
ENDBRANCH   5   6
ENDBRANCH   4   5
ENDBRANCH   3   4
ENDBRANCH   2   3
TORSDOF 12
ENDMDL
MODEL        3
REMARK 921   NORMALIZED FREE ENERGY PREDICTED BY IDOCK:   -6.29 KCAL/MOL
REMARK 922        TOTAL FREE ENERGY PREDICTED BY IDOCK:  -12.30 KCAL/MOL
REMARK 923 INTER-LIGAND FREE ENERGY PREDICTED BY IDOCK:  -10.20 KCAL/MOL
REMARK 924 INTRA-LIGAND FREE ENERGY PREDICTED BY IDOCK:   -2.10 KCAL/MOL
REMARK 927      BINDING AFFINITY PREDICTED BY RF-SCORE:    0.00 PKD
ROOT
HETATM    1  C   UNL     1      -6.683   5.766  68.941  1.00  0.00    -0.060 C  
HETATM    2  C   UNL     1      -6.446   4.409  69.567  1.00  0.00    -0.033 C  
ENDROOT
BRANCH   2   3
HETATM    3  C   UNL     1      -6.109   4.523  71.059  1.00  0.00    -0.018 C  
BRANCH   3   4
HETATM    4  C   UNL     1      -6.179   3.156  71.727  1.00  0.00    -0.014 C  
BRANCH   4   5
HETATM    5  C   UNL     1      -6.860   3.212  73.086  1.00  0.00    -0.038 C  
BRANCH   5   6
HETATM    6  C   UNL     1      -7.339   4.630  73.369  1.00  0.00    -0.082 C  
BRANCH   6   7
HETATM    7  O   UNL     1      -8.637   4.553  73.938  1.00  0.00    -0.102 OA 
BRANCH   7   8
HETATM    8  C   UNL     1      -9.591   3.808  73.159  1.00  0.00    -0.114 C  
HETATM    9  C   UNL     1     -10.772   3.380  74.029  1.00  0.00    -0.283 C  
BRANCH   8  10
HETATM   10  C   UNL     1     -10.048   4.672  71.987  1.00  0.00    -0.262 A  
HETATM   11  C   UNL     1     -10.588   5.981  72.101  1.00  0.00    -0.214 A  
HETATM   12  C   UNL     1     -10.255   4.827  69.547  1.00  0.00    -0.180 A  
HETATM   13  C   UNL     1     -10.962   6.703  70.929  1.00  0.00    -0.315 A  
HETATM   14  C   UNL     1     -10.811   6.091  69.671  1.00  0.00    -0.439 A  
HETATM   15  C   UNL     1      -9.871   4.137  70.689  1.00  0.00    -0.249 A  
BRANCH  11  16
HETATM   16  O   UNL     1     -10.647   6.671  73.288  1.00  0.00    -0.249 OA 
HETATM   17  C   UNL     1      -9.612   7.607  73.563  1.00  0.00    -0.290 C  
ENDBRANCH  11  16
BRANCH  13  18
HETATM   18  C   UNL     1     -11.527   8.061  70.919  1.00  0.00    -0.276 A  
HETATM   19  C   UNL     1     -12.688   8.464  71.551  1.00  0.00    -0.308 A  
HETATM   20  S   UNL     1     -12.973  10.141  71.256  1.00  0.00    -0.431 SA 
HETATM   21  C   UNL     1     -11.481  10.232  70.435  1.00  0.00    -0.335 A  
HETATM   22  N   UNL     1     -10.835   9.103  70.305  1.00  0.00    -0.237 NA 
BRANCH  21  23
HETATM   23  N   UNL     1     -11.132  11.489  69.985  1.00  0.00    -0.469 N  
HETATM   24  C   UNL     1     -11.509  11.895  68.718  1.00  0.00    -0.290 C  
HETATM   25  H   UNL     1     -10.598  12.116  70.586  1.00  0.00     0.000 HD 
HETATM   26  O   UNL     1     -12.035  11.191  67.861  1.00  0.00    -0.624 OA 
BRANCH  24  27
HETATM   27  C   UNL     1     -11.273  13.315  68.333  1.00  0.00    -0.314 A  
HETATM   28  C   UNL     1     -11.248  14.393  69.214  1.00  0.00    -0.308 A  
HETATM   29  C   UNL     1     -10.930  15.683  68.731  1.00  0.00    -0.281 A  
HETATM   30  C   UNL     1     -10.657  15.953  67.360  1.00  0.00    -0.315 A  
HETATM   31 CL   UNL     1     -10.907  16.945  69.930  1.00  0.00    -0.143 Cl 
HETATM   32  C   UNL     1     -11.023  13.562  66.976  1.00  0.00    -0.297 A  
HETATM   33  C   UNL     1     -10.773  14.855  66.489  1.00  0.00    -0.309 A  
HETATM   34 CL   UNL     1     -10.750  14.993  64.764  1.00  0.00    -0.405 Cl 
BRANCH  30  35
HETATM   35  C   UNL     1     -10.388  17.362  66.925  1.00  0.00    -0.317 C  
HETATM   36  C   UNL     1      -9.247  18.084  66.843  1.00  0.00    -0.271 C  
HETATM   37  C   UNL     1      -9.284  19.511  66.385  1.00  0.00    -0.371 C  
HETATM   38  C   UNL     1      -7.835  17.641  67.110  1.00  0.00    -0.229 C  
HETATM   39  O   UNL     1     -10.376  20.200  66.771  1.00  0.00    -0.444 OA 
HETATM   40  O   UNL     1      -8.367  20.034  65.771  1.00  0.00    -0.282 OA 
ENDBRANCH  30  35
ENDBRANCH  24  27
ENDBRANCH  21  23
ENDBRANCH  13  18
ENDBRANCH   8  10
ENDBRANCH   7   8
ENDBRANCH   6   7
ENDBRANCH   5   6
ENDBRANCH   4   5
ENDBRANCH   3   4
ENDBRANCH   2   3
TORSDOF 12
ENDMDL
MODEL        4
REMARK 921   NORMALIZED FREE ENERGY PREDICTED BY IDOCK:   -5.89 KCAL/MOL
REMARK 922        TOTAL FREE ENERGY PREDICTED BY IDOCK:  -11.62 KCAL/MOL
REMARK 923 INTER-LIGAND FREE ENERGY PREDICTED BY IDOCK:   -9.13 KCAL/MOL
REMARK 924 INTRA-LIGAND FREE ENERGY PREDICTED BY IDOCK:   -2.49 KCAL/MOL
REMARK 927      BINDING AFFINITY PREDICTED BY RF-SCORE:    0.00 PKD
ROOT
HETATM    1  C   UNL     1     -12.251   6.762  70.830  1.00  0.00    -0.386 C  
HETATM    2  C   UNL     1     -11.159   7.804  70.718  1.00  0.00    -0.265 C  
ENDROOT
BRANCH   2   3
HETATM    3  C   UNL     1     -11.006   8.606  72.016  1.00  0.00    -0.432 C  
BRANCH   3   4
HETATM    4  C   UNL     1      -9.836   8.075  72.835  1.00  0.00    -0.357 C  
BRANCH   4   5
HETATM    5  C   UNL     1     -10.275   7.049  73.869  1.00  0.00    -0.388 C  
BRANCH   5   6
HETATM    6  C   UNL     1      -9.068   6.262  74.364  1.00  0.00    -0.158 C  
BRANCH   6   7
HETATM    7  O   UNL     1      -7.994   6.485  73.464  1.00  0.00    -0.095 OA 
BRANCH   7   8
HETATM    8  C   UNL     1      -7.523   5.306  72.787  1.00  0.00    -0.096 C  
HETATM    9  C   UNL     1      -7.736   4.069  73.659  1.00  0.00    -0.080 C  
BRANCH   8  10
HETATM   10  C   UNL     1      -8.256   5.179  71.455  1.00  0.00    -0.115 A  
HETATM   11  C   UNL     1      -8.063   6.031  70.333  1.00  0.00    -0.111 A  
HETATM   12  C   UNL     1      -9.892   3.887  70.160  1.00  0.00    -0.163 A  
HETATM   13  C   UNL     1      -8.793   5.801  69.130  1.00  0.00    -0.112 A  
HETATM   14  C   UNL     1      -9.719   4.743  69.082  1.00  0.00    -0.258 A  
HETATM   15  C   UNL     1      -9.161   4.100  71.321  1.00  0.00    -0.200 A  
BRANCH  11  16
HETATM   16  O   UNL     1      -7.090   7.001  70.283  1.00  0.00    -0.064 OA 
HETATM   17  C   UNL     1      -5.751   6.586  70.043  1.00  0.00    -0.018 C  
ENDBRANCH  11  16
BRANCH  13  18
HETATM   18  C   UNL     1      -8.677   6.608  67.905  1.00  0.00    -0.116 A  
HETATM   19  C   UNL     1      -8.423   6.127  66.635  1.00  0.00    -0.116 A  
HETATM   20  S   UNL     1      -8.357   7.432  65.507  1.00  0.00    -0.113 SA 
HETATM   21  C   UNL     1      -8.801   8.508  66.754  1.00  0.00    -0.139 A  
HETATM   22  N   UNL     1      -8.918   7.980  67.944  1.00  0.00    -0.130 NA 
BRANCH  21  23
HETATM   23  N   UNL     1      -8.970   9.821  66.367  1.00  0.00    -0.148 N  
HETATM   24  C   UNL     1     -10.125  10.497  66.714  1.00  0.00    -0.219 C  
HETATM   25  H   UNL     1      -8.244  10.291  65.827  1.00  0.00     0.000 HD 
HETATM   26  O   UNL     1     -11.118  10.007  67.243  1.00  0.00    -0.229 OA 
BRANCH  24  27
HETATM   27  C   UNL     1     -10.196  11.960  66.436  1.00  0.00    -0.240 A  
HETATM   28  C   UNL     1     -11.146  12.579  65.628  1.00  0.00    -0.338 A  
HETATM   29  C   UNL     1     -11.154  13.988  65.512  1.00  0.00    -0.309 A  
HETATM   30  C   UNL     1     -10.207  14.826  66.166  1.00  0.00    -0.310 A  
HETATM   31 CL   UNL     1     -12.402  14.647  64.493  1.00  0.00    -0.473 Cl 
HETATM   32  C   UNL     1      -9.245  12.766  67.077  1.00  0.00    -0.221 A  
HETATM   33  C   UNL     1      -9.215  14.159  66.907  1.00  0.00    -0.257 A  
HETATM   34 CL   UNL     1      -7.817  14.943  67.562  1.00  0.00    -0.187 Cl 
BRANCH  30  35
HETATM   35  C   UNL     1     -10.251  16.306  65.941  1.00  0.00    -0.384 C  
HETATM   36  C   UNL     1     -10.499  17.345  66.773  1.00  0.00    -0.257 C  
HETATM   37  C   UNL     1     -10.500  18.751  66.252  1.00  0.00    -0.435 C  
HETATM   38  C   UNL     1     -10.744  17.320  68.256  1.00  0.00    -0.349 C  
HETATM   39  O   UNL     1     -10.978  18.889  65.000  1.00  0.00    -0.479 OA 
HETATM   40  O   UNL     1     -10.162  19.709  66.930  1.00  0.00    -0.378 OA 
ENDBRANCH  30  35
ENDBRANCH  24  27
ENDBRANCH  21  23
ENDBRANCH  13  18
ENDBRANCH   8  10
ENDBRANCH   7   8
ENDBRANCH   6   7
ENDBRANCH   5   6
ENDBRANCH   4   5
ENDBRANCH   3   4
ENDBRANCH   2   3
TORSDOF 12
ENDMDL
MODEL        5
REMARK 921   NORMALIZED FREE ENERGY PREDICTED BY IDOCK:   -5.88 KCAL/MOL
REMARK 922        TOTAL FREE ENERGY PREDICTED BY IDOCK:  -11.60 KCAL/MOL
REMARK 923 INTER-LIGAND FREE ENERGY PREDICTED BY IDOCK:   -9.22 KCAL/MOL
REMARK 924 INTRA-LIGAND FREE ENERGY PREDICTED BY IDOCK:   -2.38 KCAL/MOL
REMARK 927      BINDING AFFINITY PREDICTED BY RF-SCORE:    0.00 PKD
ROOT
HETATM    1  C   UNL     1     -12.462   6.894  71.273  1.00  0.00    -0.409 C  
HETATM    2  C   UNL     1     -11.421   7.851  71.813  1.00  0.00    -0.313 C  
ENDROOT
BRANCH   2   3
HETATM    3  C   UNL     1     -10.850   7.370  73.152  1.00  0.00    -0.435 C  
BRANCH   3   4
HETATM    4  C   UNL     1      -9.525   8.063  73.445  1.00  0.00    -0.307 C  
BRANCH   4   5
HETATM    5  C   UNL     1      -8.453   7.087  73.907  1.00  0.00    -0.172 C  
BRANCH   5   6
HETATM    6  C   UNL     1      -9.062   5.706  74.116  1.00  0.00    -0.122 C  
BRANCH   6   7
HETATM    7  O   UNL     1      -8.279   4.764  73.399  1.00  0.00    -0.102 OA 
BRANCH   7   8
HETATM    8  C   UNL     1      -7.500   5.324  72.326  1.00  0.00    -0.095 C  
HETATM    9  C   UNL     1      -6.275   4.454  72.047  1.00  0.00    -0.021 C  
BRANCH   8  10
HETATM   10  C   UNL     1      -8.386   5.450  71.090  1.00  0.00    -0.124 A  
HETATM   11  C   UNL     1      -8.370   6.543  70.183  1.00  0.00    -0.134 A  
HETATM   12  C   UNL     1     -10.113   4.371  69.720  1.00  0.00    -0.101 A  
HETATM   13  C   UNL     1      -9.232   6.540  69.047  1.00  0.00    -0.130 A  
HETATM   14  C   UNL     1     -10.112   5.457  68.858  1.00  0.00    -0.265 A  
HETATM   15  C   UNL     1      -9.254   4.368  70.811  1.00  0.00    -0.203 A  
BRANCH  11  16
HETATM   16  O   UNL     1      -7.453   7.565  70.251  1.00  0.00    -0.081 OA 
HETATM   17  C   UNL     1      -6.200   7.377  69.605  1.00  0.00    -0.031 C  
ENDBRANCH  11  16
BRANCH  13  18
HETATM   18  C   UNL     1      -9.303   7.608  68.038  1.00  0.00    -0.140 A  
HETATM   19  C   UNL     1      -9.401   7.430  66.671  1.00  0.00    -0.170 A  
HETATM   20  S   UNL     1      -9.441   8.961  65.874  1.00  0.00    -0.201 SA 
HETATM   21  C   UNL     1      -9.463   9.731  67.395  1.00  0.00    -0.152 A  
HETATM   22  N   UNL     1      -9.368   8.942  68.432  1.00  0.00    -0.136 NA 
BRANCH  21  23
HETATM   23  N   UNL     1      -9.561  11.107  67.357  1.00  0.00    -0.168 N  
HETATM   24  C   UNL     1     -10.771  11.718  67.627  1.00  0.00    -0.214 C  
HETATM   25  H   UNL     1      -8.742  11.671  67.130  1.00  0.00     0.000 HD 
HETATM   26  O   UNL     1     -11.848  11.150  67.782  1.00  0.00    -0.608 OA 
BRANCH  24  27
HETATM   27  C   UNL     1     -10.800  13.203  67.753  1.00  0.00    -0.261 A  
HETATM   28  C   UNL     1     -11.030  13.905  68.933  1.00  0.00    -0.290 A  
HETATM   29  C   UNL     1     -10.948  15.317  68.934  1.00  0.00    -0.261 A  
HETATM   30  C   UNL     1     -10.666  16.078  67.765  1.00  0.00    -0.323 A  
HETATM   31 CL   UNL     1     -11.233  16.081  70.472  1.00  0.00    -0.381 Cl 
HETATM   32  C   UNL     1     -10.535  13.935  66.587  1.00  0.00    -0.272 A  
HETATM   33  C   UNL     1     -10.519  15.339  66.577  1.00  0.00    -0.298 A  
HETATM   34 CL   UNL     1     -10.438  16.056  65.005  1.00  0.00    -0.336 Cl 
BRANCH  30  35
HETATM   35  C   UNL     1     -10.657  17.575  67.843  1.00  0.00    -0.390 C  
HETATM   36  C   UNL     1      -9.749  18.499  67.450  1.00  0.00    -0.318 C  
HETATM   37  C   UNL     1     -10.004  19.958  67.683  1.00  0.00    -0.419 C  
HETATM   38  C   UNL     1      -8.453  18.289  66.719  1.00  0.00    -0.272 C  
HETATM   39  O   UNL     1     -10.658  20.242  68.827  1.00  0.00    -0.212 OA 
HETATM   40  O   UNL     1      -9.591  20.831  66.935  1.00  0.00    -0.353 OA 
ENDBRANCH  30  35
ENDBRANCH  24  27
ENDBRANCH  21  23
ENDBRANCH  13  18
ENDBRANCH   8  10
ENDBRANCH   7   8
ENDBRANCH   6   7
ENDBRANCH   5   6
ENDBRANCH   4   5
ENDBRANCH   3   4
ENDBRANCH   2   3
TORSDOF 12
ENDMDL
MODEL        6
REMARK 921   NORMALIZED FREE ENERGY PREDICTED BY IDOCK:   -5.64 KCAL/MOL
REMARK 922        TOTAL FREE ENERGY PREDICTED BY IDOCK:  -11.20 KCAL/MOL
REMARK 923 INTER-LIGAND FREE ENERGY PREDICTED BY IDOCK:   -8.78 KCAL/MOL
REMARK 924 INTRA-LIGAND FREE ENERGY PREDICTED BY IDOCK:   -2.42 KCAL/MOL
REMARK 927      BINDING AFFINITY PREDICTED BY RF-SCORE:    0.00 PKD
ROOT
HETATM    1  C   UNL     1     -12.021   6.921  70.278  1.00  0.00    -0.257 C  
HETATM    2  C   UNL     1     -11.323   8.000  71.077  1.00  0.00    -0.294 C  
ENDROOT
BRANCH   2   3
HETATM    3  C   UNL     1     -11.534   7.816  72.585  1.00  0.00    -0.430 C  
BRANCH   3   4
HETATM    4  C   UNL     1     -10.198   7.616  73.288  1.00  0.00    -0.398 C  
BRANCH   4   5
HETATM    5  C   UNL     1     -10.095   6.254  73.958  1.00  0.00    -0.302 C  
BRANCH   5   6
HETATM    6  C   UNL     1     -11.081   5.285  73.317  1.00  0.00    -0.316 C  
BRANCH   6   7
HETATM    7  O   UNL     1     -10.372   4.112  72.948  1.00  0.00    -0.161 OA 
BRANCH   7   8
HETATM    8  C   UNL     1      -9.032   4.345  72.476  1.00  0.00    -0.115 C  
HETATM    9  C   UNL     1      -8.125   3.172  72.847  1.00  0.00    -0.072 C  
BRANCH   8  10
HETATM   10  C   UNL     1      -9.075   4.558  70.965  1.00  0.00    -0.185 A  
HETATM   11  C   UNL     1      -8.660   5.741  70.297  1.00  0.00    -0.133 A  
HETATM   12  C   UNL     1      -9.611   3.549  68.793  1.00  0.00    -0.137 A  
HETATM   13  C   UNL     1      -8.727   5.817  68.874  1.00  0.00    -0.111 A  
HETATM   14  C   UNL     1      -9.232   4.720  68.153  1.00  0.00    -0.155 A  
HETATM   15  C   UNL     1      -9.521   3.472  70.177  1.00  0.00    -0.252 A  
BRANCH  11  16
HETATM   16  O   UNL     1      -8.049   6.794  70.936  1.00  0.00    -0.114 OA 
HETATM   17  C   UNL     1      -6.670   6.666  71.256  1.00  0.00    -0.058 C  
ENDBRANCH  11  16
BRANCH  13  18
HETATM   18  C   UNL     1      -8.323   6.982  68.071  1.00  0.00    -0.119 A  
HETATM   19  C   UNL     1      -7.384   6.985  67.057  1.00  0.00    -0.086 A  
HETATM   20  S   UNL     1      -7.222   8.574  66.402  1.00  0.00    -0.080 SA 
HETATM   21  C   UNL     1      -8.492   9.099  67.411  1.00  0.00    -0.115 A  
HETATM   22  N   UNL     1      -8.967   8.206  68.238  1.00  0.00    -0.136 NA 
BRANCH  21  23
HETATM   23  N   UNL     1      -8.864  10.418  67.251  1.00  0.00    -0.132 N  
HETATM   24  C   UNL     1      -8.099  11.422  67.816  1.00  0.00    -0.121 C  
HETATM   25  H   UNL     1      -9.701  10.652  66.718  1.00  0.00     0.000 HD 
HETATM   26  O   UNL     1      -7.153  11.265  68.582  1.00  0.00    -0.079 OA 
BRANCH  24  27
HETATM   27  C   UNL     1      -8.426  12.836  67.474  1.00  0.00    -0.181 A  
HETATM   28  C   UNL     1      -7.514  13.887  67.444  1.00  0.00    -0.147 A  
HETATM   29  C   UNL     1      -7.937  15.168  67.023  1.00  0.00    -0.188 A  
HETATM   30  C   UNL     1      -9.280  15.457  66.647  1.00  0.00    -0.303 A  
HETATM   31 CL   UNL     1      -6.702  16.395  67.004  1.00  0.00    -0.237 Cl 
HETATM   32  C   UNL     1      -9.756  13.103  67.123  1.00  0.00    -0.235 A  
HETATM   33  C   UNL     1     -10.188  14.390  66.769  1.00  0.00    -0.270 A  
HETATM   34 CL   UNL     1     -11.904  14.571  66.628  1.00  0.00    -0.403 Cl 
BRANCH  30  35
HETATM   35  C   UNL     1      -9.656  16.858  66.271  1.00  0.00    -0.300 C  
HETATM   36  C   UNL     1      -9.953  17.950  67.014  1.00  0.00    -0.324 C  
HETATM   37  C   UNL     1     -10.323  19.241  66.351  1.00  0.00    -0.471 C  
HETATM   38  C   UNL     1      -9.923  18.102  68.510  1.00  0.00    -0.408 C  
HETATM   39  O   UNL     1     -11.033  19.109  65.213  1.00  0.00    -0.512 OA 
HETATM   40  O   UNL     1     -10.068  20.333  66.835  1.00  0.00    -0.445 OA 
ENDBRANCH  30  35
ENDBRANCH  24  27
ENDBRANCH  21  23
ENDBRANCH  13  18
ENDBRANCH   8  10
ENDBRANCH   7   8
ENDBRANCH   6   7
ENDBRANCH   5   6
ENDBRANCH   4   5
ENDBRANCH   3   4
ENDBRANCH   2   3
TORSDOF 12
ENDMDL
MODEL        7
REMARK 921   NORMALIZED FREE ENERGY PREDICTED BY IDOCK:   -5.64 KCAL/MOL
REMARK 922        TOTAL FREE ENERGY PREDICTED BY IDOCK:  -11.20 KCAL/MOL
REMARK 923 INTER-LIGAND FREE ENERGY PREDICTED BY IDOCK:   -9.29 KCAL/MOL
REMARK 924 INTRA-LIGAND FREE ENERGY PREDICTED BY IDOCK:   -1.91 KCAL/MOL
REMARK 927      BINDING AFFINITY PREDICTED BY RF-SCORE:    0.00 PKD
ROOT
HETATM    1  C   UNL     1      -6.147  16.727  66.760  1.00  0.00    -0.171 C  
HETATM    2  C   UNL     1      -5.671  18.085  67.230  1.00  0.00    -0.152 C  
ENDROOT
BRANCH   2   3
HETATM    3  C   UNL     1      -5.939  18.293  68.726  1.00  0.00    -0.199 C  
BRANCH   3   4
HETATM    4  C   UNL     1      -7.108  19.249  68.928  1.00  0.00    -0.385 C  
BRANCH   4   5
HETATM    5  C   UNL     1      -7.320  20.163  67.730  1.00  0.00    -0.333 C  
BRANCH   5   6
HETATM    6  C   UNL     1      -8.764  20.065  67.252  1.00  0.00    -0.343 C  
BRANCH   6   7
HETATM    7  O   UNL     1      -9.264  18.787  67.613  1.00  0.00    -0.282 OA 
BRANCH   7   8
HETATM    8  C   UNL     1     -10.484  18.411  66.949  1.00  0.00    -0.389 C  
HETATM    9  C   UNL     1     -10.768  19.352  65.779  1.00  0.00    -0.458 C  
BRANCH   8  10
HETATM   10  C   UNL     1     -10.360  16.964  66.480  1.00  0.00    -0.299 A  
HETATM   11  C   UNL     1      -9.721  15.923  67.207  1.00  0.00    -0.224 A  
HETATM   12  C   UNL     1     -10.919  15.353  64.716  1.00  0.00    -0.411 A  
HETATM   13  C   UNL     1      -9.685  14.600  66.676  1.00  0.00    -0.283 A  
HETATM   14  C   UNL     1     -10.266  14.351  65.418  1.00  0.00    -0.408 A  
HETATM   15  C   UNL     1     -10.971  16.634  65.248  1.00  0.00    -0.127 A  
BRANCH  11  16
HETATM   16  O   UNL     1      -9.245  16.080  68.487  1.00  0.00    -0.193 OA 
HETATM   17  C   UNL     1     -10.152  15.875  69.563  1.00  0.00    -0.277 C  
ENDBRANCH  11  16
BRANCH  13  18
HETATM   18  C   UNL     1      -9.060  13.443  67.334  1.00  0.00    -0.216 A  
HETATM   19  C   UNL     1      -7.710  13.143  67.342  1.00  0.00    -0.145 A  
HETATM   20  S   UNL     1      -7.431  11.684  68.223  1.00  0.00    -0.105 SA 
HETATM   21  C   UNL     1      -9.085  11.638  68.635  1.00  0.00    -0.100 A  
HETATM   22  N   UNL     1      -9.828  12.576  68.108  1.00  0.00    -0.217 NA 
BRANCH  21  23
HETATM   23  N   UNL     1      -9.456  10.602  69.466  1.00  0.00    -0.423 N  
HETATM   24  C   UNL     1      -9.740   9.358  68.931  1.00  0.00    -0.164 C  
HETATM   25  H   UNL     1      -9.521  10.752  70.472  1.00  0.00     0.000 HD 
HETATM   26  O   UNL     1      -9.825   9.089  67.737  1.00  0.00    -0.154 OA 
BRANCH  24  27
HETATM   27  C   UNL     1      -9.961   8.221  69.868  1.00  0.00    -0.190 A  
HETATM   28  C   UNL     1     -10.186   8.339  71.237  1.00  0.00    -0.253 A  
HETATM   29  C   UNL     1     -10.465   7.184  72.003  1.00  0.00    -0.207 A  
HETATM   30  C   UNL     1     -10.501   5.874  71.445  1.00  0.00    -0.291 A  
HETATM   31 CL   UNL     1     -10.752   7.461  73.697  1.00  0.00    -0.364 Cl 
HETATM   32  C   UNL     1      -9.977   6.938  69.303  1.00  0.00    -0.164 A  
HETATM   33  C   UNL     1     -10.189   5.786  70.077  1.00  0.00    -0.238 A  
HETATM   34 CL   UNL     1      -9.910   4.291  69.251  1.00  0.00    -0.236 Cl 
BRANCH  30  35
HETATM   35  C   UNL     1     -10.745   4.698  72.341  1.00  0.00    -0.186 C  
HETATM   36  C   UNL     1      -9.926   3.726  72.808  1.00  0.00    -0.212 C  
HETATM   37  C   UNL     1     -10.464   2.639  73.689  1.00  0.00    -0.144 C  
HETATM   38  C   UNL     1      -8.443   3.576  72.612  1.00  0.00    -0.086 C  
HETATM   39  O   UNL     1     -11.719   2.244  73.395  1.00  0.00    -0.167 OA 
HETATM   40  O   UNL     1      -9.798   2.100  74.559  1.00  0.00    -0.092 OA 
ENDBRANCH  30  35
ENDBRANCH  24  27
ENDBRANCH  21  23
ENDBRANCH  13  18
ENDBRANCH   8  10
ENDBRANCH   7   8
ENDBRANCH   6   7
ENDBRANCH   5   6
ENDBRANCH   4   5
ENDBRANCH   3   4
ENDBRANCH   2   3
TORSDOF 12
ENDMDL
MODEL        8
REMARK 921   NORMALIZED FREE ENERGY PREDICTED BY IDOCK:   -5.43 KCAL/MOL
REMARK 922        TOTAL FREE ENERGY PREDICTED BY IDOCK:  -10.83 KCAL/MOL
REMARK 923 INTER-LIGAND FREE ENERGY PREDICTED BY IDOCK:   -9.90 KCAL/MOL
REMARK 924 INTRA-LIGAND FREE ENERGY PREDICTED BY IDOCK:   -0.94 KCAL/MOL
REMARK 927      BINDING AFFINITY PREDICTED BY RF-SCORE:    0.00 PKD
ROOT
HETATM    1  C   UNL     1     -14.011  15.453  72.287  1.00  0.00    -0.661 C  
HETATM    2  C   UNL     1     -13.673  14.075  71.763  1.00  0.00    -0.479 C  
ENDROOT
BRANCH   2   3
HETATM    3  C   UNL     1     -12.732  14.143  70.554  1.00  0.00    -0.374 C  
BRANCH   3   4
HETATM    4  C   UNL     1     -11.485  14.949  70.894  1.00  0.00    -0.305 C  
BRANCH   4   5
HETATM    5  C   UNL     1     -11.282  16.124  69.949  1.00  0.00    -0.349 C  
BRANCH   5   6
HETATM    6  C   UNL     1     -11.615  15.707  68.522  1.00  0.00    -0.370 C  
BRANCH   6   7
HETATM    7  O   UNL     1     -10.395  15.500  67.826  1.00  0.00    -0.253 OA 
BRANCH   7   8
HETATM    8  C   UNL     1     -10.446  15.807  66.421  1.00  0.00    -0.303 C  
HETATM    9  C   UNL     1      -9.125  16.420  65.960  1.00  0.00    -0.317 C  
BRANCH   8  10
HETATM   10  C   UNL     1     -10.763  14.527  65.652  1.00  0.00    -0.335 A  
HETATM   11  C   UNL     1     -10.086  13.289  65.815  1.00  0.00    -0.286 A  
HETATM   12  C   UNL     1     -12.225  13.479  63.983  1.00  0.00    -0.458 A  
HETATM   13  C   UNL     1     -10.486  12.151  65.053  1.00  0.00    -0.326 A  
HETATM   14  C   UNL     1     -11.537  12.283  64.126  1.00  0.00    -0.463 A  
HETATM   15  C   UNL     1     -11.847  14.576  64.744  1.00  0.00    -0.446 A  
BRANCH  11  16
HETATM   16  O   UNL     1      -9.137  13.071  66.785  1.00  0.00    -0.230 OA 
HETATM   17  C   UNL     1      -9.584  12.653  68.068  1.00  0.00    -0.213 C  
ENDBRANCH  11  16
BRANCH  13  18
HETATM   18  C   UNL     1      -9.867  10.819  65.136  1.00  0.00    -0.277 A  
HETATM   19  C   UNL     1      -8.937  10.299  64.256  1.00  0.00    -0.234 A  
HETATM   20  S   UNL     1      -8.498   8.698  64.733  1.00  0.00    -0.109 SA 
HETATM   21  C   UNL     1      -9.462   8.871  66.130  1.00  0.00    -0.251 A  
HETATM   22  N   UNL     1     -10.133   9.989  66.222  1.00  0.00    -0.245 NA 
BRANCH  21  23
HETATM   23  N   UNL     1      -9.438   7.799  66.998  1.00  0.00    -0.153 N  
HETATM   24  C   UNL     1      -8.592   7.819  68.092  1.00  0.00    -0.123 C  
HETATM   25  H   UNL     1     -10.042   6.995  66.833  1.00  0.00     0.000 HD 
HETATM   26  O   UNL     1      -7.731   8.663  68.323  1.00  0.00    -0.098 OA 
BRANCH  24  27
HETATM   27  C   UNL     1      -8.719   6.731  69.102  1.00  0.00    -0.131 A  
HETATM   28  C   UNL     1      -8.465   6.866  70.465  1.00  0.00    -0.137 A  
HETATM   29  C   UNL     1      -8.704   5.776  71.332  1.00  0.00    -0.133 A  
HETATM   30  C   UNL     1      -9.174   4.511  70.877  1.00  0.00    -0.201 A  
HETATM   31 CL   UNL     1      -8.371   6.072  73.015  1.00  0.00    -0.117 Cl 
HETATM   32  C   UNL     1      -9.167   5.489  68.632  1.00  0.00    -0.140 A  
HETATM   33  C   UNL     1      -9.342   4.389  69.485  1.00  0.00    -0.156 A  
HETATM   34 CL   UNL     1      -9.643   2.885  68.685  1.00  0.00    -0.174 Cl 
BRANCH  30  35
HETATM   35  C   UNL     1      -9.344   3.390  71.857  1.00  0.00    -0.193 C  
HETATM   36  C   UNL     1     -10.179   3.224  72.910  1.00  0.00    -0.235 C  
HETATM   37  C   UNL     1     -10.107   1.982  73.746  1.00  0.00    -0.095 C  
HETATM   38  C   UNL     1     -11.283   4.128  73.383  1.00  0.00    -0.339 C  
HETATM   39  O   UNL     1      -8.865   1.483  73.910  1.00  0.00    -0.056 OA 
HETATM   40  O   UNL     1     -11.082   1.495  74.297  1.00  0.00    -0.132 OA 
ENDBRANCH  30  35
ENDBRANCH  24  27
ENDBRANCH  21  23
ENDBRANCH  13  18
ENDBRANCH   8  10
ENDBRANCH   7   8
ENDBRANCH   6   7
ENDBRANCH   5   6
ENDBRANCH   4   5
ENDBRANCH   3   4
ENDBRANCH   2   3
TORSDOF 12
ENDMDL
MODEL        9
REMARK 921   NORMALIZED FREE ENERGY PREDICTED BY IDOCK:   -5.32 KCAL/MOL
REMARK 922        TOTAL FREE ENERGY PREDICTED BY IDOCK:  -10.66 KCAL/MOL
REMARK 923 INTER-LIGAND FREE ENERGY PREDICTED BY IDOCK:   -9.31 KCAL/MOL
REMARK 924 INTRA-LIGAND FREE ENERGY PREDICTED BY IDOCK:   -1.35 KCAL/MOL
REMARK 927      BINDING AFFINITY PREDICTED BY RF-SCORE:    0.00 PKD
ROOT
HETATM    1  C   UNL     1      -9.264   4.266  62.595  1.00  0.00    -0.123 C  
HETATM    2  C   UNL     1      -7.755   4.171  62.525  1.00  0.00    -0.060 C  
ENDROOT
BRANCH   2   3
HETATM    3  C   UNL     1      -7.107   4.410  63.895  1.00  0.00    -0.046 C  
BRANCH   3   4
HETATM    4  C   UNL     1      -7.569   5.739  64.478  1.00  0.00    -0.084 C  
BRANCH   4   5
HETATM    5  C   UNL     1      -7.501   5.758  65.998  1.00  0.00    -0.082 C  
BRANCH   5   6
HETATM    6  C   UNL     1      -7.820   4.374  66.549  1.00  0.00    -0.098 C  
BRANCH   6   7
HETATM    7  O   UNL     1      -7.984   4.485  67.954  1.00  0.00    -0.087 OA 
BRANCH   7   8
HETATM    8  C   UNL     1      -9.207   3.922  68.463  1.00  0.00    -0.155 C  
HETATM    9  C   UNL     1      -8.975   2.491  68.946  1.00  0.00    -0.171 C  
BRANCH   8  10
HETATM   10  C   UNL     1      -9.725   4.812  69.589  1.00  0.00    -0.272 A  
HETATM   11  C   UNL     1     -10.084   6.180  69.448  1.00  0.00    -0.184 A  
HETATM   12  C   UNL     1     -10.359   4.916  71.957  1.00  0.00    -0.263 A  
HETATM   13  C   UNL     1     -10.577   6.907  70.571  1.00  0.00    -0.247 A  
HETATM   14  C   UNL     1     -10.677   6.259  71.817  1.00  0.00    -0.279 A  
HETATM   15  C   UNL     1      -9.902   4.206  70.855  1.00  0.00    -0.247 A  
BRANCH  11  16
HETATM   16  O   UNL     1     -10.120   6.828  68.237  1.00  0.00    -0.148 OA 
HETATM   17  C   UNL     1     -11.188   6.518  67.350  1.00  0.00    -0.214 C  
ENDBRANCH  11  16
BRANCH  13  18
HETATM   18  C   UNL     1     -10.984   8.321  70.549  1.00  0.00    -0.242 A  
HETATM   19  C   UNL     1     -12.015   8.882  71.278  1.00  0.00    -0.307 A  
HETATM   20  S   UNL     1     -12.141  10.568  70.928  1.00  0.00    -0.399 SA 
HETATM   21  C   UNL     1     -10.748  10.450  69.952  1.00  0.00    -0.279 A  
HETATM   22  N   UNL     1     -10.252   9.249  69.813  1.00  0.00    -0.199 NA 
BRANCH  21  23
HETATM   23  N   UNL     1     -10.312  11.638  69.402  1.00  0.00    -0.426 N  
HETATM   24  C   UNL     1     -10.929  12.140  68.271  1.00  0.00    -0.234 C  
HETATM   25  H   UNL     1      -9.537  12.145  69.830  1.00  0.00     0.000 HD 
HETATM   26  O   UNL     1     -11.776  11.565  67.595  1.00  0.00    -0.538 OA 
BRANCH  24  27
HETATM   27  C   UNL     1     -10.554  13.508  67.811  1.00  0.00    -0.252 A  
HETATM   28  C   UNL     1     -10.985  14.105  66.630  1.00  0.00    -0.303 A  
HETATM   29  C   UNL     1     -10.622  15.442  66.349  1.00  0.00    -0.307 A  
HETATM   30  C   UNL     1      -9.799  16.220  67.211  1.00  0.00    -0.243 A  
HETATM   31 CL   UNL     1     -11.240  16.086  64.854  1.00  0.00    -0.363 Cl 
HETATM   32  C   UNL     1      -9.730  14.251  68.667  1.00  0.00    -0.213 A  
HETATM   33  C   UNL     1      -9.317  15.556  68.354  1.00  0.00    -0.192 A  
HETATM   34 CL   UNL     1      -8.098  16.206  69.397  1.00  0.00    -0.180 Cl 
BRANCH  30  35
HETATM   35  C   UNL     1      -9.414  17.610  66.807  1.00  0.00    -0.285 C  
HETATM   36  C   UNL     1      -8.224  18.161  66.469  1.00  0.00    -0.292 C  
HETATM   37  C   UNL     1      -8.133  19.617  66.125  1.00  0.00    -0.346 C  
HETATM   38  C   UNL     1      -6.887  17.489  66.324  1.00  0.00    -0.323 C  
HETATM   39  O   UNL     1      -8.959  20.417  66.828  1.00  0.00    -0.296 OA 
HETATM   40  O   UNL     1      -7.326  20.060  65.323  1.00  0.00    -0.329 OA 
ENDBRANCH  30  35
ENDBRANCH  24  27
ENDBRANCH  21  23
ENDBRANCH  13  18
ENDBRANCH   8  10
ENDBRANCH   7   8
ENDBRANCH   6   7
ENDBRANCH   5   6
ENDBRANCH   4   5
ENDBRANCH   3   4
ENDBRANCH   2   3
TORSDOF 12
ENDMDL
MODEL       10
REMARK 921   NORMALIZED FREE ENERGY PREDICTED BY IDOCK:   -5.26 KCAL/MOL
REMARK 922        TOTAL FREE ENERGY PREDICTED BY IDOCK:  -10.54 KCAL/MOL
REMARK 923 INTER-LIGAND FREE ENERGY PREDICTED BY IDOCK:   -8.57 KCAL/MOL
REMARK 924 INTRA-LIGAND FREE ENERGY PREDICTED BY IDOCK:   -1.97 KCAL/MOL
REMARK 927      BINDING AFFINITY PREDICTED BY RF-SCORE:    0.00 PKD
ROOT
HETATM    1  C   UNL     1      -8.537   1.502  70.246  1.00  0.00    -0.087 C  
HETATM    2  C   UNL     1      -9.158   1.805  71.593  1.00  0.00    -0.139 C  
ENDROOT
BRANCH   2   3
HETATM    3  C   UNL     1      -8.479   2.999  72.275  1.00  0.00    -0.081 C  
BRANCH   3   4
HETATM    4  C   UNL     1      -9.264   3.423  73.509  1.00  0.00    -0.106 C  
BRANCH   4   5
HETATM    5  C   UNL     1     -10.768   3.366  73.285  1.00  0.00    -0.291 C  
BRANCH   5   6
HETATM    6  C   UNL     1     -11.370   4.757  73.440  1.00  0.00    -0.312 C  
BRANCH   6   7
HETATM    7  O   UNL     1     -11.332   5.398  72.174  1.00  0.00    -0.191 OA 
BRANCH   7   8
HETATM    8  C   UNL     1     -10.877   6.764  72.207  1.00  0.00    -0.231 C  
HETATM    9  C   UNL     1     -10.171   7.059  73.529  1.00  0.00    -0.371 C  
BRANCH   8  10
HETATM   10  C   UNL     1      -9.951   7.000  71.017  1.00  0.00    -0.196 A  
HETATM   11  C   UNL     1     -10.199   7.919  69.961  1.00  0.00    -0.208 A  
HETATM   12  C   UNL     1      -7.817   6.404  69.964  1.00  0.00    -0.111 A  
HETATM   13  C   UNL     1      -9.247   8.069  68.910  1.00  0.00    -0.147 A  
HETATM   14  C   UNL     1      -8.082   7.279  68.922  1.00  0.00    -0.128 A  
HETATM   15  C   UNL     1      -8.735   6.278  70.997  1.00  0.00    -0.136 A  
BRANCH  11  16
HETATM   16  O   UNL     1     -11.256   8.797  69.959  1.00  0.00    -0.215 OA 
HETATM   17  C   UNL     1     -11.125   9.994  70.715  1.00  0.00    -0.334 C  
ENDBRANCH  11  16
BRANCH  13  18
HETATM   18  C   UNL     1      -9.388   8.987  67.768  1.00  0.00    -0.140 A  
HETATM   19  C   UNL     1     -10.035   8.712  66.579  1.00  0.00    -0.282 A  
HETATM   20  S   UNL     1      -9.940  10.074  65.522  1.00  0.00    -0.259 SA 
HETATM   21  C   UNL     1      -9.175  10.959  66.763  1.00  0.00    -0.158 A  
HETATM   22  N   UNL     1      -8.925  10.297  67.861  1.00  0.00    -0.131 NA 
BRANCH  21  23
HETATM   23  N   UNL     1      -8.891  12.274  66.458  1.00  0.00    -0.347 N  
HETATM   24  C   UNL     1      -9.568  13.292  67.105  1.00  0.00    -0.240 C  
HETATM   25  H   UNL     1      -8.184  12.495  65.757  1.00  0.00     0.000 HD 
HETATM   26  O   UNL     1     -10.523  13.156  67.864  1.00  0.00    -0.229 OA 
BRANCH  24  27
HETATM   27  C   UNL     1      -9.113  14.694  66.884  1.00  0.00    -0.272 A  
HETATM   28  C   UNL     1      -9.891  15.717  66.348  1.00  0.00    -0.295 A  
HETATM   29  C   UNL     1      -9.365  17.027  66.267  1.00  0.00    -0.248 A  
HETATM   30  C   UNL     1      -8.045  17.360  66.685  1.00  0.00    -0.294 A  
HETATM   31 CL   UNL     1     -10.440  18.224  65.602  1.00  0.00    -0.256 Cl 
HETATM   32  C   UNL     1      -7.805  14.998  67.286  1.00  0.00    -0.241 A  
HETATM   33  C   UNL     1      -7.263  16.285  67.144  1.00  0.00    -0.208 A  
HETATM   34 CL   UNL     1      -5.563  16.399  67.448  1.00  0.00    -0.174 Cl 
BRANCH  30  35
HETATM   35  C   UNL     1      -7.548  18.762  66.507  1.00  0.00    -0.267 C  
HETATM   36  C   UNL     1      -6.536  19.281  65.772  1.00  0.00    -0.272 C  
HETATM   37  C   UNL     1      -6.249  20.751  65.808  1.00  0.00    -0.240 C  
HETATM   38  C   UNL     1      -5.615  18.575  64.815  1.00  0.00    -0.198 C  
HETATM   39  O   UNL     1      -6.450  21.337  67.005  1.00  0.00    -0.368 OA 
HETATM   40  O   UNL     1      -5.799  21.363  64.851  1.00  0.00    -0.170 OA 
ENDBRANCH  30  35
ENDBRANCH  24  27
ENDBRANCH  21  23
ENDBRANCH  13  18
ENDBRANCH   8  10
ENDBRANCH   7   8
ENDBRANCH   6   7
ENDBRANCH   5   6
ENDBRANCH   4   5
ENDBRANCH   3   4
ENDBRANCH   2   3
TORSDOF 12
ENDMDL
MODEL       11
REMARK 921   NORMALIZED FREE ENERGY PREDICTED BY IDOCK:   -5.24 KCAL/MOL
REMARK 922        TOTAL FREE ENERGY PREDICTED BY IDOCK:  -10.51 KCAL/MOL
REMARK 923 INTER-LIGAND FREE ENERGY PREDICTED BY IDOCK:  -10.01 KCAL/MOL
REMARK 924 INTRA-LIGAND FREE ENERGY PREDICTED BY IDOCK:   -0.50 KCAL/MOL
REMARK 927      BINDING AFFINITY PREDICTED BY RF-SCORE:    0.00 PKD
ROOT
HETATM    1  C   UNL     1      -6.994   1.619  71.718  1.00  0.00    -0.023 C  
HETATM    2  C   UNL     1      -6.580   2.933  72.345  1.00  0.00    -0.015 C  
ENDROOT
BRANCH   2   3
HETATM    3  C   UNL     1      -7.795   3.800  72.698  1.00  0.00    -0.076 C  
BRANCH   3   4
HETATM    4  C   UNL     1      -7.828   5.049  71.826  1.00  0.00    -0.108 C  
BRANCH   4   5
HETATM    5  C   UNL     1      -8.653   6.165  72.448  1.00  0.00    -0.119 C  
BRANCH   5   6
HETATM    6  C   UNL     1      -9.963   5.605  72.988  1.00  0.00    -0.173 C  
BRANCH   6   7
HETATM    7  O   UNL     1     -10.867   5.469  71.902  1.00  0.00    -0.239 OA 
BRANCH   7   8
HETATM    8  C   UNL     1     -10.799   6.527  70.929  1.00  0.00    -0.253 C  
HETATM    9  C   UNL     1     -10.829   5.952  69.513  1.00  0.00    -0.442 C  
BRANCH   8  10
HETATM   10  C   UNL     1     -11.964   7.484  71.165  1.00  0.00    -0.334 A  
HETATM   11  C   UNL     1     -11.855   8.899  71.239  1.00  0.00    -0.310 A  
HETATM   12  C   UNL     1     -14.388   7.680  71.491  1.00  0.00    -0.589 A  
HETATM   13  C   UNL     1     -13.021   9.695  71.442  1.00  0.00    -0.474 A  
HETATM   14  C   UNL     1     -14.267   9.058  71.594  1.00  0.00    -0.297 A  
HETATM   15  C   UNL     1     -13.253   6.912  71.269  1.00  0.00    -0.237 A  
BRANCH  11  16
HETATM   16  O   UNL     1     -10.689   9.579  70.980  1.00  0.00    -0.300 OA 
HETATM   17  C   UNL     1     -10.267   9.683  69.626  1.00  0.00    -0.222 C  
ENDBRANCH  11  16
BRANCH  13  18
HETATM   18  C   UNL     1     -13.036  11.163  71.533  1.00  0.00    -0.437 A  
HETATM   19  C   UNL     1     -13.896  11.922  72.303  1.00  0.00     0.297 A  
HETATM   20  S   UNL     1     -13.562  13.602  72.088  1.00  0.00    -0.573 SA 
HETATM   21  C   UNL     1     -12.229  13.191  71.106  1.00  0.00    -0.076 A  
HETATM   22  N   UNL     1     -12.067  11.916  70.873  1.00  0.00    -0.252 NA 
BRANCH  21  23
HETATM   23  N   UNL     1     -11.481  14.259  70.654  1.00  0.00    -0.515 N  
HETATM   24  C   UNL     1     -10.852  14.186  69.424  1.00  0.00    -0.136 C  
HETATM   25  H   UNL     1     -11.391  15.098  71.225  1.00  0.00     0.000 HD 
HETATM   26  O   UNL     1     -10.777  13.191  68.710  1.00  0.00    -0.249 OA 
BRANCH  24  27
HETATM   27  C   UNL     1     -10.204  15.417  68.889  1.00  0.00    -0.219 A  
HETATM   28  C   UNL     1     -10.831  16.377  68.099  1.00  0.00    -0.346 A  
HETATM   29  C   UNL     1     -10.126  17.543  67.724  1.00  0.00    -0.330 A  
HETATM   30  C   UNL     1      -8.772  17.783  68.093  1.00  0.00    -0.266 A  
HETATM   31 CL   UNL     1     -11.022  18.680  66.757  1.00  0.00    -0.177 Cl 
HETATM   32  C   UNL     1      -8.866  15.627  69.250  1.00  0.00    -0.264 A  
HETATM   33  C   UNL     1      -8.148  16.754  68.821  1.00  0.00    -0.252 A  
HETATM   34 CL   UNL     1      -6.449  16.704  69.146  1.00  0.00    -0.187 Cl 
BRANCH  30  35
HETATM   35  C   UNL     1      -8.082  19.019  67.602  1.00  0.00    -0.296 C  
HETATM   36  C   UNL     1      -7.165  19.221  66.626  1.00  0.00    -0.228 C  
HETATM   37  C   UNL     1      -6.622  20.594  66.367  1.00  0.00    -0.254 C  
HETATM   38  C   UNL     1      -6.595  18.224  65.655  1.00  0.00    -0.298 C  
HETATM   39  O   UNL     1      -6.471  21.358  67.467  1.00  0.00    -0.496 OA 
HETATM   40  O   UNL     1      -6.275  20.971  65.259  1.00  0.00    -0.244 OA 
ENDBRANCH  30  35
ENDBRANCH  24  27
ENDBRANCH  21  23
ENDBRANCH  13  18
ENDBRANCH   8  10
ENDBRANCH   7   8
ENDBRANCH   6   7
ENDBRANCH   5   6
ENDBRANCH   4   5
ENDBRANCH   3   4
ENDBRANCH   2   3
TORSDOF 12
ENDMDL
MODEL       12
REMARK 921   NORMALIZED FREE ENERGY PREDICTED BY IDOCK:   -5.08 KCAL/MOL
REMARK 922        TOTAL FREE ENERGY PREDICTED BY IDOCK:  -10.24 KCAL/MOL
REMARK 923 INTER-LIGAND FREE ENERGY PREDICTED BY IDOCK:   -8.39 KCAL/MOL
REMARK 924 INTRA-LIGAND FREE ENERGY PREDICTED BY IDOCK:   -1.85 KCAL/MOL
REMARK 927      BINDING AFFINITY PREDICTED BY RF-SCORE:    0.00 PKD
ROOT
HETATM    1  C   UNL     1      -9.974   4.522  66.507  1.00  0.00    -0.263 C  
HETATM    2  C   UNL     1      -8.977   3.384  66.527  1.00  0.00    -0.158 C  
ENDROOT
BRANCH   2   3
HETATM    3  C   UNL     1      -7.532   3.896  66.563  1.00  0.00    -0.083 C  
BRANCH   3   4
HETATM    4  C   UNL     1      -6.634   2.905  67.292  1.00  0.00    -0.037 C  
BRANCH   4   5
HETATM    5  C   UNL     1      -5.459   3.587  67.978  1.00  0.00    -0.017 C  
BRANCH   5   6
HETATM    6  C   UNL     1      -5.741   5.076  68.134  1.00  0.00    -0.017 C  
BRANCH   6   7
HETATM    7  O   UNL     1      -5.535   5.425  69.494  1.00  0.00    -0.007 OA 
BRANCH   7   8
HETATM    8  C   UNL     1      -6.230   4.591  70.439  1.00  0.00    -0.022 C  
HETATM    9  C   UNL     1      -5.661   4.787  71.843  1.00  0.00    -0.008 C  
BRANCH   8  10
HETATM   10  C   UNL     1      -7.718   4.930  70.390  1.00  0.00    -0.062 A  
HETATM   11  C   UNL     1      -8.259   6.240  70.486  1.00  0.00    -0.118 A  
HETATM   12  C   UNL     1      -9.989   4.038  70.130  1.00  0.00    -0.084 A  
HETATM   13  C   UNL     1      -9.669   6.436  70.405  1.00  0.00    -0.183 A  
HETATM   14  C   UNL     1     -10.509   5.317  70.257  1.00  0.00    -0.332 A  
HETATM   15  C   UNL     1      -8.614   3.854  70.186  1.00  0.00    -0.105 A  
BRANCH  11  16
HETATM   16  O   UNL     1      -7.485   7.375  70.511  1.00  0.00    -0.079 OA 
HETATM   17  C   UNL     1      -7.184   7.946  71.779  1.00  0.00    -0.071 C  
ENDBRANCH  11  16
BRANCH  13  18
HETATM   18  C   UNL     1     -10.346   7.740  70.487  1.00  0.00    -0.205 A  
HETATM   19  C   UNL     1     -11.456   8.033  71.257  1.00  0.00    -0.269 A  
HETATM   20  S   UNL     1     -11.917   9.682  71.031  1.00  0.00    -0.362 SA 
HETATM   21  C   UNL     1     -10.544   9.911  70.046  1.00  0.00    -0.288 A  
HETATM   22  N   UNL     1      -9.823   8.845  69.820  1.00  0.00    -0.176 NA 
BRANCH  21  23
HETATM   23  N   UNL     1     -10.359  11.198  69.584  1.00  0.00    -0.440 N  
HETATM   24  C   UNL     1     -11.149  11.680  68.557  1.00  0.00    -0.235 C  
HETATM   25  H   UNL     1      -9.642  11.792  70.000  1.00  0.00     0.000 HD 
HETATM   26  O   UNL     1     -11.948  11.027  67.893  1.00  0.00    -0.620 OA 
BRANCH  24  27
HETATM   27  C   UNL     1     -11.046  13.125  68.205  1.00  0.00    -0.295 A  
HETATM   28  C   UNL     1     -11.039  14.176  69.118  1.00  0.00    -0.295 A  
HETATM   29  C   UNL     1     -10.852  15.500  68.660  1.00  0.00    -0.267 A  
HETATM   30  C   UNL     1     -10.695  15.829  67.284  1.00  0.00    -0.313 A  
HETATM   31 CL   UNL     1     -10.839  16.724  69.897  1.00  0.00    -0.234 Cl 
HETATM   32  C   UNL     1     -10.908  13.429  66.844  1.00  0.00    -0.282 A  
HETATM   33  C   UNL     1     -10.789  14.751  66.385  1.00  0.00    -0.322 A  
HETATM   34 CL   UNL     1     -10.896  14.940  64.669  1.00  0.00    -0.357 Cl 
BRANCH  30  35
HETATM   35  C   UNL     1     -10.561  17.266  66.880  1.00  0.00    -0.213 C  
HETATM   36  C   UNL     1      -9.482  18.033  66.595  1.00  0.00    -0.300 C  
HETATM   37  C   UNL     1      -9.653  19.478  66.235  1.00  0.00    -0.392 C  
HETATM   38  C   UNL     1      -8.036  17.628  66.529  1.00  0.00    -0.302 C  
HETATM   39  O   UNL     1     -10.653  20.107  66.884  1.00  0.00    -0.389 OA 
HETATM   40  O   UNL     1      -8.904  20.063  65.470  1.00  0.00    -0.185 OA 
ENDBRANCH  30  35
ENDBRANCH  24  27
ENDBRANCH  21  23
ENDBRANCH  13  18
ENDBRANCH   8  10
ENDBRANCH   7   8
ENDBRANCH   6   7
ENDBRANCH   5   6
ENDBRANCH   4   5
ENDBRANCH   3   4
ENDBRANCH   2   3
TORSDOF 12
ENDMDL
MODEL       13
REMARK 921   NORMALIZED FREE ENERGY PREDICTED BY IDOCK:   -5.01 KCAL/MOL
REMARK 922        TOTAL FREE ENERGY PREDICTED BY IDOCK:  -10.12 KCAL/MOL
REMARK 923 INTER-LIGAND FREE ENERGY PREDICTED BY IDOCK:   -9.20 KCAL/MOL
REMARK 924 INTRA-LIGAND FREE ENERGY PREDICTED BY IDOCK:   -0.92 KCAL/MOL
REMARK 927      BINDING AFFINITY PREDICTED BY RF-SCORE:    0.00 PKD
ROOT
HETATM    1  C   UNL     1      -5.283  18.877  69.217  1.00  0.00    -0.198 C  
HETATM    2  C   UNL     1      -6.098  20.151  69.179  1.00  0.00    -0.356 C  
ENDROOT
BRANCH   2   3
HETATM    3  C   UNL     1      -6.070  20.801  67.790  1.00  0.00    -0.346 C  
BRANCH   3   4
HETATM    4  C   UNL     1      -7.295  20.388  66.984  1.00  0.00    -0.348 C  
BRANCH   4   5
HETATM    5  C   UNL     1      -6.937  19.495  65.806  1.00  0.00    -0.306 C  
BRANCH   5   6
HETATM    6  C   UNL     1      -7.260  18.043  66.136  1.00  0.00    -0.290 C  
BRANCH   6   7
HETATM    7  O   UNL     1      -8.575  17.767  65.678  1.00  0.00    -0.389 OA 
BRANCH   7   8
HETATM    8  C   UNL     1      -9.415  17.094  66.633  1.00  0.00    -0.264 C  
HETATM    9  C   UNL     1     -10.487  18.044  67.164  1.00  0.00    -0.377 C  
BRANCH   8  10
HETATM   10  C   UNL     1     -10.037  15.872  65.961  1.00  0.00    -0.359 A  
HETATM   11  C   UNL     1      -9.604  14.531  66.145  1.00  0.00    -0.297 A  
HETATM   12  C   UNL     1     -11.806  15.069  64.462  1.00  0.00    -0.377 A  
HETATM   13  C   UNL     1     -10.279  13.467  65.479  1.00  0.00    -0.300 A  
HETATM   14  C   UNL     1     -11.356  13.767  64.623  1.00  0.00    -0.382 A  
HETATM   15  C   UNL     1     -11.160  16.100  65.132  1.00  0.00    -0.256 A  
BRANCH  11  16
HETATM   16  O   UNL     1      -8.641  14.169  67.056  1.00  0.00    -0.215 OA 
HETATM   17  C   UNL     1      -9.022  14.076  68.423  1.00  0.00    -0.189 C  
ENDBRANCH  11  16
BRANCH  13  18
HETATM   18  C   UNL     1      -9.928  12.042  65.592  1.00  0.00    -0.245 A  
HETATM   19  C   UNL     1      -9.594  11.202  64.547  1.00  0.00    -0.250 A  
HETATM   20  S   UNL     1      -9.272   9.613  65.143  1.00  0.00    -0.249 SA 
HETATM   21  C   UNL     1      -9.466  10.192  66.735  1.00  0.00    -0.168 A  
HETATM   22  N   UNL     1      -9.821  11.444  66.845  1.00  0.00    -0.191 NA 
BRANCH  21  23
HETATM   23  N   UNL     1      -9.241   9.262  67.730  1.00  0.00    -0.129 N  
HETATM   24  C   UNL     1     -10.110   9.181  68.803  1.00  0.00    -0.197 C  
HETATM   25  H   UNL     1      -8.438   8.637  67.674  1.00  0.00     0.000 HD 
HETATM   26  O   UNL     1     -11.029   9.956  69.049  1.00  0.00    -0.224 OA 
BRANCH  24  27
HETATM   27  C   UNL     1      -9.941   8.053  69.763  1.00  0.00    -0.191 A  
HETATM   28  C   UNL     1      -9.817   8.184  71.143  1.00  0.00    -0.207 A  
HETATM   29  C   UNL     1      -9.745   7.026  71.952  1.00  0.00    -0.157 A  
HETATM   30  C   UNL     1      -9.765   5.706  71.420  1.00  0.00    -0.204 A  
HETATM   31 CL   UNL     1      -9.615   7.317  73.663  1.00  0.00    -0.286 Cl 
HETATM   32  C   UNL     1      -9.947   6.761  69.218  1.00  0.00    -0.168 A  
HETATM   33  C   UNL     1      -9.810   5.616  70.017  1.00  0.00    -0.186 A  
HETATM   34 CL   UNL     1      -9.575   4.140  69.144  1.00  0.00    -0.251 Cl 
BRANCH  30  35
HETATM   35  C   UNL     1      -9.624   4.536  72.346  1.00  0.00    -0.193 C  
HETATM   36  C   UNL     1     -10.497   3.933  73.187  1.00  0.00    -0.254 C  
HETATM   37  C   UNL     1     -10.062   2.770  74.026  1.00  0.00    -0.113 C  
HETATM   38  C   UNL     1     -11.956   4.233  73.397  1.00  0.00     0.128 C  
HETATM   39  O   UNL     1      -8.789   2.836  74.466  1.00  0.00    -0.077 OA 
HETATM   40  O   UNL     1     -10.817   1.867  74.350  1.00  0.00    -0.142 OA 
ENDBRANCH  30  35
ENDBRANCH  24  27
ENDBRANCH  21  23
ENDBRANCH  13  18
ENDBRANCH   8  10
ENDBRANCH   7   8
ENDBRANCH   6   7
ENDBRANCH   5   6
ENDBRANCH   4   5
ENDBRANCH   3   4
ENDBRANCH   2   3
TORSDOF 12
ENDMDL
MODEL       14
REMARK 921   NORMALIZED FREE ENERGY PREDICTED BY IDOCK:   -4.83 KCAL/MOL
REMARK 922        TOTAL FREE ENERGY PREDICTED BY IDOCK:   -9.82 KCAL/MOL
REMARK 923 INTER-LIGAND FREE ENERGY PREDICTED BY IDOCK:   -8.75 KCAL/MOL
REMARK 924 INTRA-LIGAND FREE ENERGY PREDICTED BY IDOCK:   -1.07 KCAL/MOL
REMARK 927      BINDING AFFINITY PREDICTED BY RF-SCORE:    0.00 PKD
ROOT
HETATM    1  C   UNL     1     -14.101   7.723  71.594  1.00  0.00    -0.533 C  
HETATM    2  C   UNL     1     -12.896   8.631  71.716  1.00  0.00    -0.397 C  
ENDROOT
BRANCH   2   3
HETATM    3  C   UNL     1     -11.930   8.147  72.805  1.00  0.00    -0.252 C  
BRANCH   3   4
HETATM    4  C   UNL     1     -10.487   8.297  72.341  1.00  0.00    -0.404 C  
BRANCH   4   5
HETATM    5  C   UNL     1      -9.739   6.971  72.344  1.00  0.00    -0.171 C  
BRANCH   5   6
HETATM    6  C   UNL     1     -10.663   5.852  71.880  1.00  0.00    -0.239 C  
BRANCH   6   7
HETATM    7  O   UNL     1     -10.357   5.558  70.526  1.00  0.00    -0.234 OA 
BRANCH   7   8
HETATM    8  C   UNL     1      -8.982   5.211  70.283  1.00  0.00    -0.124 C  
HETATM    9  C   UNL     1      -8.685   3.808  70.810  1.00  0.00    -0.121 C  
BRANCH   8  10
HETATM   10  C   UNL     1      -8.709   5.311  68.785  1.00  0.00    -0.093 A  
HETATM   11  C   UNL     1      -8.692   6.520  68.038  1.00  0.00    -0.116 A  
HETATM   12  C   UNL     1      -8.146   4.072  66.743  1.00  0.00    -0.097 A  
HETATM   13  C   UNL     1      -8.403   6.491  66.642  1.00  0.00    -0.113 A  
HETATM   14  C   UNL     1      -8.163   5.253  66.017  1.00  0.00    -0.115 A  
HETATM   15  C   UNL     1      -8.405   4.107  68.107  1.00  0.00    -0.099 A  
BRANCH  11  16
HETATM   16  O   UNL     1      -8.800   7.763  68.614  1.00  0.00    -0.131 OA 
HETATM   17  C   UNL     1      -7.744   8.195  69.462  1.00  0.00    -0.102 C  
ENDBRANCH  11  16
BRANCH  13  18
HETATM   18  C   UNL     1      -8.353   7.672  65.766  1.00  0.00    -0.141 A  
HETATM   19  C   UNL     1      -8.259   7.659  64.387  1.00  0.00    -0.028 A  
HETATM   20  S   UNL     1      -8.215   9.274  63.778  1.00  0.00    -0.176 SA 
HETATM   21  C   UNL     1      -8.458   9.857  65.363  1.00  0.00    -0.147 A  
HETATM   22  N   UNL     1      -8.493   8.950  66.302  1.00  0.00    -0.119 NA 
BRANCH  21  23
HETATM   23  N   UNL     1      -8.572  11.227  65.474  1.00  0.00    -0.376 N  
HETATM   24  C   UNL     1      -9.819  11.802  65.640  1.00  0.00    -0.237 C  
HETATM   25  H   UNL     1      -7.739  11.814  65.434  1.00  0.00     0.000 HD 
HETATM   26  O   UNL     1     -10.897  11.220  65.572  1.00  0.00    -0.253 OA 
BRANCH  24  27
HETATM   27  C   UNL     1      -9.889  13.261  65.935  1.00  0.00    -0.241 A  
HETATM   28  C   UNL     1     -10.398  14.232  65.077  1.00  0.00    -0.448 A  
HETATM   29  C   UNL     1     -10.484  15.575  65.511  1.00  0.00    -0.386 A  
HETATM   30  C   UNL     1     -10.043  16.004  66.795  1.00  0.00    -0.272 A  
HETATM   31 CL   UNL     1     -11.159  16.691  64.359  1.00  0.00    -0.055 Cl 
HETATM   32  C   UNL     1      -9.435  13.667  67.198  1.00  0.00    -0.244 A  
HETATM   33  C   UNL     1      -9.461  15.011  67.602  1.00  0.00    -0.195 A  
HETATM   34 CL   UNL     1      -8.620  15.345  69.077  1.00  0.00    -0.210 Cl 
BRANCH  30  35
HETATM   35  C   UNL     1     -10.116  17.458  67.152  1.00  0.00    -0.307 C  
HETATM   36  C   UNL     1      -9.210  18.460  67.067  1.00  0.00    -0.274 C  
HETATM   37  C   UNL     1      -9.562  19.842  67.530  1.00  0.00    -0.353 C  
HETATM   38  C   UNL     1      -7.819  18.421  66.497  1.00  0.00    -0.279 C  
HETATM   39  O   UNL     1     -10.374  19.888  68.605  1.00  0.00    -0.446 OA 
HETATM   40  O   UNL     1      -9.096  20.850  67.023  1.00  0.00    -0.218 OA 
ENDBRANCH  30  35
ENDBRANCH  24  27
ENDBRANCH  21  23
ENDBRANCH  13  18
ENDBRANCH   8  10
ENDBRANCH   7   8
ENDBRANCH   6   7
ENDBRANCH   5   6
ENDBRANCH   4   5
ENDBRANCH   3   4
ENDBRANCH   2   3
TORSDOF 12
ENDMDL
MODEL       15
REMARK 921   NORMALIZED FREE ENERGY PREDICTED BY IDOCK:   -4.78 KCAL/MOL
REMARK 922        TOTAL FREE ENERGY PREDICTED BY IDOCK:   -9.74 KCAL/MOL
REMARK 923 INTER-LIGAND FREE ENERGY PREDICTED BY IDOCK:   -8.16 KCAL/MOL
REMARK 924 INTRA-LIGAND FREE ENERGY PREDICTED BY IDOCK:   -1.58 KCAL/MOL
REMARK 927      BINDING AFFINITY PREDICTED BY RF-SCORE:    0.00 PKD
ROOT
HETATM    1  C   UNL     1     -12.716  11.722  63.509  1.00  0.00    -0.428 C  
HETATM    2  C   UNL     1     -12.072  13.087  63.623  1.00  0.00    -0.604 C  
ENDROOT
BRANCH   2   3
HETATM    3  C   UNL     1     -10.616  12.989  64.094  1.00  0.00    -0.421 C  
BRANCH   3   4
HETATM    4  C   UNL     1     -10.234  14.224  64.900  1.00  0.00    -0.361 C  
BRANCH   4   5
HETATM    5  C   UNL     1     -11.400  15.187  65.069  1.00  0.00    -0.381 C  
BRANCH   5   6
HETATM    6  C   UNL     1     -10.913  16.623  64.930  1.00  0.00    -0.150 C  
BRANCH   6   7
HETATM    7  O   UNL     1     -10.969  17.235  66.209  1.00  0.00    -0.017 OA 
BRANCH   7   8
HETATM    8  C   UNL     1     -10.009  18.287  66.415  1.00  0.00    -0.380 C  
HETATM    9  C   UNL     1     -10.441  19.184  67.574  1.00  0.00    -0.549 C  
BRANCH   8  10
HETATM   10  C   UNL     1      -8.643  17.659  66.677  1.00  0.00    -0.282 A  
HETATM   11  C   UNL     1      -8.417  16.499  67.467  1.00  0.00    -0.176 A  
HETATM   12  C   UNL     1      -6.237  17.779  66.211  1.00  0.00    -0.265 A  
HETATM   13  C   UNL     1      -7.094  15.990  67.624  1.00  0.00    -0.178 A  
HETATM   14  C   UNL     1      -6.023  16.666  67.009  1.00  0.00    -0.188 A  
HETATM   15  C   UNL     1      -7.530  18.257  66.042  1.00  0.00    -0.255 A  
BRANCH  11  16
HETATM   16  O   UNL     1      -9.432  15.734  67.990  1.00  0.00    -0.200 OA 
HETATM   17  C   UNL     1      -9.676  15.820  69.388  1.00  0.00    -0.286 C  
ENDBRANCH  11  16
BRANCH  13  18
HETATM   18  C   UNL     1      -6.735  14.800  68.410  1.00  0.00    -0.102 A  
HETATM   19  C   UNL     1      -6.090  14.797  69.633  1.00  0.00    -0.121 A  
HETATM   20  S   UNL     1      -5.861  13.175  70.180  1.00  0.00    -0.137 SA 
HETATM   21  C   UNL     1      -6.746  12.616  68.833  1.00  0.00    -0.098 A  
HETATM   22  N   UNL     1      -7.126  13.533  67.984  1.00  0.00    -0.109 NA 
BRANCH  21  23
HETATM   23  N   UNL     1      -6.944  11.252  68.785  1.00  0.00    -0.083 N  
HETATM   24  C   UNL     1      -8.217  10.749  68.583  1.00  0.00    -0.139 C  
HETATM   25  H   UNL     1      -6.155  10.616  68.898  1.00  0.00     0.000 HD 
HETATM   26  O   UNL     1      -9.256  11.400  68.565  1.00  0.00    -0.178 OA 
BRANCH  24  27
HETATM   27  C   UNL     1      -8.368   9.283  68.358  1.00  0.00    -0.119 A  
HETATM   28  C   UNL     1      -9.498   8.663  67.831  1.00  0.00    -0.157 A  
HETATM   29  C   UNL     1      -9.484   7.271  67.590  1.00  0.00    -0.131 A  
HETATM   30  C   UNL     1      -8.364   6.443  67.889  1.00  0.00    -0.118 A  
HETATM   31 CL   UNL     1     -10.945   6.615  66.908  1.00  0.00    -0.451 Cl 
HETATM   32  C   UNL     1      -7.261   8.484  68.675  1.00  0.00    -0.080 A  
HETATM   33  C   UNL     1      -7.273   7.091  68.496  1.00  0.00    -0.091 A  
HETATM   34 CL   UNL     1      -5.924   6.255  69.186  1.00  0.00    -0.020 Cl 
BRANCH  30  35
HETATM   35  C   UNL     1      -8.456   4.965  67.657  1.00  0.00    -0.104 C  
HETATM   36  C   UNL     1      -8.892   3.949  68.439  1.00  0.00    -0.145 C  
HETATM   37  C   UNL     1      -8.844   2.536  67.941  1.00  0.00    -0.130 C  
HETATM   38  C   UNL     1      -9.507   4.017  69.809  1.00  0.00    -0.265 C  
HETATM   39  O   UNL     1      -7.785   2.249  67.158  1.00  0.00    -0.064 OA 
HETATM   40  O   UNL     1      -9.657   1.688  68.273  1.00  0.00    -0.197 OA 
ENDBRANCH  30  35
ENDBRANCH  24  27
ENDBRANCH  21  23
ENDBRANCH  13  18
ENDBRANCH   8  10
ENDBRANCH   7   8
ENDBRANCH   6   7
ENDBRANCH   5   6
ENDBRANCH   4   5
ENDBRANCH   3   4
ENDBRANCH   2   3
TORSDOF 12
ENDMDL
MODEL       16
REMARK 921   NORMALIZED FREE ENERGY PREDICTED BY IDOCK:   -4.74 KCAL/MOL
REMARK 922        TOTAL FREE ENERGY PREDICTED BY IDOCK:   -9.67 KCAL/MOL
REMARK 923 INTER-LIGAND FREE ENERGY PREDICTED BY IDOCK:   -8.14 KCAL/MOL
REMARK 924 INTRA-LIGAND FREE ENERGY PREDICTED BY IDOCK:   -1.53 KCAL/MOL
REMARK 927      BINDING AFFINITY PREDICTED BY RF-SCORE:    0.00 PKD
ROOT
HETATM    1  C   UNL     1     -11.427   1.474  62.926  1.00  0.00    -0.252 C  
HETATM    2  C   UNL     1     -11.069   2.888  62.524  1.00  0.00    -0.087 C  
ENDROOT
BRANCH   2   3
HETATM    3  C   UNL     1     -10.709   3.750  63.741  1.00  0.00    -0.246 C  
BRANCH   3   4
HETATM    4  C   UNL     1      -9.284   4.273  63.620  1.00  0.00    -0.138 C  
BRANCH   4   5
HETATM    5  C   UNL     1      -8.590   4.375  64.970  1.00  0.00    -0.128 C  
BRANCH   5   6
HETATM    6  C   UNL     1      -9.040   3.234  65.873  1.00  0.00    -0.152 C  
BRANCH   6   7
HETATM    7  O   UNL     1      -9.623   3.796  67.039  1.00  0.00    -0.206 OA 
BRANCH   7   8
HETATM    8  C   UNL     1      -9.266   3.136  68.267  1.00  0.00    -0.192 C  
HETATM    9  C   UNL     1      -7.942   2.389  68.106  1.00  0.00    -0.063 C  
BRANCH   8  10
HETATM   10  C   UNL     1      -9.184   4.180  69.378  1.00  0.00    -0.210 A  
HETATM   11  C   UNL     1      -8.546   5.445  69.262  1.00  0.00    -0.102 A  
HETATM   12  C   UNL     1      -9.824   4.740  71.679  1.00  0.00    -0.248 A  
HETATM   13  C   UNL     1      -8.552   6.349  70.365  1.00  0.00    -0.142 A  
HETATM   14  C   UNL     1      -9.172   5.959  71.567  1.00  0.00    -0.157 A  
HETATM   15  C   UNL     1      -9.836   3.873  70.595  1.00  0.00    -0.193 A  
BRANCH  11  16
HETATM   16  O   UNL     1      -8.032   5.925  68.082  1.00  0.00    -0.106 OA 
HETATM   17  C   UNL     1      -6.653   5.701  67.818  1.00  0.00    -0.053 C  
ENDBRANCH  11  16
BRANCH  13  18
HETATM   18  C   UNL     1      -7.933   7.683  70.366  1.00  0.00    -0.097 A  
HETATM   19  C   UNL     1      -6.676   7.996  70.849  1.00  0.00    -0.037 A  
HETATM   20  S   UNL     1      -6.370   9.684  70.659  1.00  0.00    -0.105 SA 
HETATM   21  C   UNL     1      -7.856   9.842  69.838  1.00  0.00    -0.173 A  
HETATM   22  N   UNL     1      -8.582   8.758  69.764  1.00  0.00    -0.127 NA 
BRANCH  21  23
HETATM   23  N   UNL     1      -8.131  11.106  69.357  1.00  0.00    -0.379 N  
HETATM   24  C   UNL     1      -7.890  11.404  68.028  1.00  0.00    -0.121 C  
HETATM   25  H   UNL     1      -8.511  11.818  69.980  1.00  0.00     0.000 HD 
HETATM   26  O   UNL     1      -7.318  10.682  67.218  1.00  0.00    -0.088 OA 
BRANCH  24  27
HETATM   27  C   UNL     1      -8.364  12.716  67.503  1.00  0.00    -0.177 A  
HETATM   28  C   UNL     1      -9.617  12.954  66.946  1.00  0.00    -0.240 A  
HETATM   29  C   UNL     1      -9.974  14.266  66.560  1.00  0.00    -0.281 A  
HETATM   30  C   UNL     1      -9.093  15.377  66.684  1.00  0.00    -0.310 A  
HETATM   31 CL   UNL     1     -11.575  14.441  65.899  1.00  0.00    -0.356 Cl 
HETATM   32  C   UNL     1      -7.476  13.795  67.619  1.00  0.00    -0.187 A  
HETATM   33  C   UNL     1      -7.808  15.084  67.174  1.00  0.00    -0.190 A  
HETATM   34 CL   UNL     1      -6.496  16.212  67.161  1.00  0.00    -0.216 Cl 
BRANCH  30  35
HETATM   35  C   UNL     1      -9.532  16.724  66.194  1.00  0.00    -0.295 C  
HETATM   36  C   UNL     1     -10.044  17.801  66.834  1.00  0.00    -0.342 C  
HETATM   37  C   UNL     1     -10.421  19.032  66.066  1.00  0.00    -0.458 C  
HETATM   38  C   UNL     1     -10.269  17.996  68.308  1.00  0.00    -0.402 C  
HETATM   39  O   UNL     1     -10.923  18.799  64.837  1.00  0.00    -0.439 OA 
HETATM   40  O   UNL     1     -10.348  20.156  66.537  1.00  0.00    -0.440 OA 
ENDBRANCH  30  35
ENDBRANCH  24  27
ENDBRANCH  21  23
ENDBRANCH  13  18
ENDBRANCH   8  10
ENDBRANCH   7   8
ENDBRANCH   6   7
ENDBRANCH   5   6
ENDBRANCH   4   5
ENDBRANCH   3   4
ENDBRANCH   2   3
TORSDOF 12
ENDMDL
MODEL       17
REMARK 921   NORMALIZED FREE ENERGY PREDICTED BY IDOCK:   -4.64 KCAL/MOL
REMARK 922        TOTAL FREE ENERGY PREDICTED BY IDOCK:   -9.50 KCAL/MOL
REMARK 923 INTER-LIGAND FREE ENERGY PREDICTED BY IDOCK:   -7.71 KCAL/MOL
REMARK 924 INTRA-LIGAND FREE ENERGY PREDICTED BY IDOCK:   -1.78 KCAL/MOL
REMARK 927      BINDING AFFINITY PREDICTED BY RF-SCORE:    0.00 PKD
ROOT
HETATM    1  C   UNL     1     -10.683   7.272  69.468  1.00  0.00    -0.244 C  
HETATM    2  C   UNL     1      -9.672   8.168  70.150  1.00  0.00    -0.175 C  
ENDROOT
BRANCH   2   3
HETATM    3  C   UNL     1      -9.345   7.678  71.566  1.00  0.00    -0.157 C  
BRANCH   3   4
HETATM    4  C   UNL     1      -7.932   7.111  71.619  1.00  0.00    -0.097 C  
BRANCH   4   5
HETATM    5  C   UNL     1      -7.885   5.739  72.275  1.00  0.00    -0.103 C  
BRANCH   5   6
HETATM    6  C   UNL     1      -8.907   4.816  71.623  1.00  0.00    -0.126 C  
BRANCH   6   7
HETATM    7  O   UNL     1      -8.216   3.698  71.089  1.00  0.00    -0.065 OA 
BRANCH   7   8
HETATM    8  C   UNL     1      -7.259   4.019  70.063  1.00  0.00    -0.042 C  
HETATM    9  C   UNL     1      -6.291   2.854  69.854  1.00  0.00    -0.028 C  
BRANCH   8  10
HETATM   10  C   UNL     1      -8.012   4.353  68.778  1.00  0.00    -0.073 A  
HETATM   11  C   UNL     1      -7.781   5.502  67.973  1.00  0.00    -0.092 A  
HETATM   12  C   UNL     1      -9.731   3.617  67.190  1.00  0.00    -0.102 A  
HETATM   13  C   UNL     1      -8.535   5.699  66.779  1.00  0.00    -0.111 A  
HETATM   14  C   UNL     1      -9.521   4.757  66.428  1.00  0.00    -0.159 A  
HETATM   15  C   UNL     1      -8.978   3.419  68.339  1.00  0.00    -0.185 A  
BRANCH  11  16
HETATM   16  O   UNL     1      -6.755   6.388  68.201  1.00  0.00    -0.063 OA 
HETATM   17  C   UNL     1      -5.464   6.047  67.714  1.00  0.00    -0.005 C  
ENDBRANCH  11  16
BRANCH  13  18
HETATM   18  C   UNL     1      -8.385   6.841  65.865  1.00  0.00    -0.137 A  
HETATM   19  C   UNL     1      -7.914   6.788  64.567  1.00  0.00    -0.106 A  
HETATM   20  S   UNL     1      -7.895   8.370  63.876  1.00  0.00    -0.155 SA 
HETATM   21  C   UNL     1      -8.633   8.976  65.289  1.00  0.00    -0.174 A  
HETATM   22  N   UNL     1      -8.818   8.108  66.249  1.00  0.00    -0.155 NA 
BRANCH  21  23
HETATM   23  N   UNL     1      -8.935  10.322  65.266  1.00  0.00    -0.174 N  
HETATM   24  C   UNL     1      -9.242  10.979  66.443  1.00  0.00    -0.175 C  
HETATM   25  H   UNL     1      -8.932  10.830  64.382  1.00  0.00     0.000 HD 
HETATM   26  O   UNL     1      -9.407  10.455  67.541  1.00  0.00    -0.147 OA 
BRANCH  24  27
HETATM   27  C   UNL     1      -9.387  12.461  66.407  1.00  0.00    -0.219 A  
HETATM   28  C   UNL     1      -8.597  13.364  67.114  1.00  0.00    -0.201 A  
HETATM   29  C   UNL     1      -8.784  14.753  66.927  1.00  0.00    -0.236 A  
HETATM   30  C   UNL     1      -9.776  15.292  66.060  1.00  0.00    -0.367 A  
HETATM   31 CL   UNL     1      -7.723  15.780  67.848  1.00  0.00    -0.136 Cl 
HETATM   32  C   UNL     1     -10.380  12.973  65.559  1.00  0.00    -0.304 A  
HETATM   33  C   UNL     1     -10.607  14.351  65.426  1.00  0.00    -0.365 A  
HETATM   34 CL   UNL     1     -12.036  14.774  64.546  1.00  0.00    -0.482 Cl 
BRANCH  30  35
HETATM   35  C   UNL     1      -9.945  16.779  65.967  1.00  0.00    -0.334 C  
HETATM   36  C   UNL     1     -10.260  17.716  66.892  1.00  0.00    -0.334 C  
HETATM   37  C   UNL     1     -10.385  19.157  66.499  1.00  0.00    -0.442 C  
HETATM   38  C   UNL     1     -10.472  17.541  68.371  1.00  0.00    -0.372 C  
HETATM   39  O   UNL     1     -10.898  19.364  65.270  1.00  0.00    -0.477 OA 
HETATM   40  O   UNL     1     -10.113  20.077  67.255  1.00  0.00    -0.393 OA 
ENDBRANCH  30  35
ENDBRANCH  24  27
ENDBRANCH  21  23
ENDBRANCH  13  18
ENDBRANCH   8  10
ENDBRANCH   7   8
ENDBRANCH   6   7
ENDBRANCH   5   6
ENDBRANCH   4   5
ENDBRANCH   3   4
ENDBRANCH   2   3
TORSDOF 12
ENDMDL
MODEL       18
REMARK 921   NORMALIZED FREE ENERGY PREDICTED BY IDOCK:   -4.49 KCAL/MOL
REMARK 922        TOTAL FREE ENERGY PREDICTED BY IDOCK:   -9.24 KCAL/MOL
REMARK 923 INTER-LIGAND FREE ENERGY PREDICTED BY IDOCK:   -7.00 KCAL/MOL
REMARK 924 INTRA-LIGAND FREE ENERGY PREDICTED BY IDOCK:   -2.25 KCAL/MOL
REMARK 927      BINDING AFFINITY PREDICTED BY RF-SCORE:    0.00 PKD
ROOT
HETATM    1  C   UNL     1     -11.223   6.238  70.416  1.00  0.00    -0.439 C  
HETATM    2  C   UNL     1     -11.167   6.723  71.848  1.00  0.00    -0.294 C  
ENDROOT
BRANCH   2   3
HETATM    3  C   UNL     1     -11.189   5.556  72.843  1.00  0.00    -0.358 C  
BRANCH   3   4
HETATM    4  C   UNL     1      -9.813   5.362  73.467  1.00  0.00    -0.173 C  
BRANCH   4   5
HETATM    5  C   UNL     1      -9.342   3.918  73.387  1.00  0.00    -0.121 C  
BRANCH   5   6
HETATM    6  C   UNL     1     -10.144   3.166  72.332  1.00  0.00    -0.157 C  
BRANCH   6   7
HETATM    7  O   UNL     1      -9.239   2.411  71.542  1.00  0.00    -0.086 OA 
BRANCH   7   8
HETATM    8  C   UNL     1      -8.120   3.159  71.032  1.00  0.00    -0.057 C  
HETATM    9  C   UNL     1      -6.875   2.275  70.961  1.00  0.00    -0.032 C  
BRANCH   8  10
HETATM   10  C   UNL     1      -8.487   3.714  69.658  1.00  0.00    -0.094 A  
HETATM   11  C   UNL     1      -8.103   4.990  69.165  1.00  0.00    -0.083 A  
HETATM   12  C   UNL     1      -9.625   3.262  67.532  1.00  0.00    -0.124 A  
HETATM   13  C   UNL     1      -8.488   5.392  67.852  1.00  0.00    -0.098 A  
HETATM   14  C   UNL     1      -9.272   4.522  67.072  1.00  0.00    -0.145 A  
HETATM   15  C   UNL     1      -9.227   2.866  68.802  1.00  0.00    -0.230 A  
BRANCH  11  16
HETATM   16  O   UNL     1      -7.242   5.828  69.833  1.00  0.00    -0.065 OA 
HETATM   17  C   UNL     1      -5.846   5.634  69.643  1.00  0.00    -0.020 C  
ENDBRANCH  11  16
BRANCH  13  18
HETATM   18  C   UNL     1      -8.149   6.682  67.231  1.00  0.00    -0.121 A  
HETATM   19  C   UNL     1      -7.296   6.869  66.160  1.00  0.00    -0.076 A  
HETATM   20  S   UNL     1      -7.184   8.548  65.776  1.00  0.00    -0.077 SA 
HETATM   21  C   UNL     1      -8.368   8.878  66.959  1.00  0.00    -0.106 A  
HETATM   22  N   UNL     1      -8.775   7.851  67.656  1.00  0.00    -0.126 NA 
BRANCH  21  23
HETATM   23  N   UNL     1      -8.749  10.201  67.057  1.00  0.00    -0.132 N  
HETATM   24  C   UNL     1      -8.425  10.927  68.188  1.00  0.00    -0.131 C  
HETATM   25  H   UNL     1      -9.267  10.641  66.298  1.00  0.00     0.000 HD 
HETATM   26  O   UNL     1      -7.924  10.480  69.216  1.00  0.00    -0.142 OA 
BRANCH  24  27
HETATM   27  C   UNL     1      -8.693  12.394  68.186  1.00  0.00    -0.190 A  
HETATM   28  C   UNL     1      -7.734  13.386  68.004  1.00  0.00    -0.147 A  
HETATM   29  C   UNL     1      -8.132  14.741  67.940  1.00  0.00    -0.141 A  
HETATM   30  C   UNL     1      -9.486  15.159  68.083  1.00  0.00    -0.201 A  
HETATM   31 CL   UNL     1      -6.847  15.887  67.687  1.00  0.00    -0.172 Cl 
HETATM   32  C   UNL     1     -10.030  12.786  68.344  1.00  0.00    -0.210 A  
HETATM   33  C   UNL     1     -10.414  14.136  68.346  1.00  0.00    -0.254 A  
HETATM   34 CL   UNL     1     -12.054  14.427  68.816  1.00  0.00    -0.319 Cl 
BRANCH  30  35
HETATM   35  C   UNL     1      -9.812  16.621  68.061  1.00  0.00    -0.245 C  
HETATM   36  C   UNL     1     -10.115  17.470  67.051  1.00  0.00    -0.323 C  
HETATM   37  C   UNL     1     -10.378  18.918  67.330  1.00  0.00    -0.427 C  
HETATM   38  C   UNL     1     -10.291  17.162  65.589  1.00  0.00    -0.198 C  
HETATM   39  O   UNL     1      -9.636  19.447  68.323  1.00  0.00    -0.336 OA 
HETATM   40  O   UNL     1     -11.152  19.592  66.667  1.00  0.00    -0.346 OA 
ENDBRANCH  30  35
ENDBRANCH  24  27
ENDBRANCH  21  23
ENDBRANCH  13  18
ENDBRANCH   8  10
ENDBRANCH   7   8
ENDBRANCH   6   7
ENDBRANCH   5   6
ENDBRANCH   4   5
ENDBRANCH   3   4
ENDBRANCH   2   3
TORSDOF 12
ENDMDL
MODEL       19
REMARK 921   NORMALIZED FREE ENERGY PREDICTED BY IDOCK:   -4.42 KCAL/MOL
REMARK 922        TOTAL FREE ENERGY PREDICTED BY IDOCK:   -9.12 KCAL/MOL
REMARK 923 INTER-LIGAND FREE ENERGY PREDICTED BY IDOCK:   -7.69 KCAL/MOL
REMARK 924 INTRA-LIGAND FREE ENERGY PREDICTED BY IDOCK:   -1.43 KCAL/MOL
REMARK 927      BINDING AFFINITY PREDICTED BY RF-SCORE:    0.00 PKD
ROOT
HETATM    1  C   UNL     1      -7.129   6.200  63.530  1.00  0.00    -0.049 C  
HETATM    2  C   UNL     1      -6.720   5.197  64.587  1.00  0.00    -0.047 C  
ENDROOT
BRANCH   2   3
HETATM    3  C   UNL     1      -7.585   5.317  65.848  1.00  0.00    -0.083 C  
BRANCH   3   4
HETATM    4  C   UNL     1      -6.783   5.933  66.987  1.00  0.00    -0.061 C  
BRANCH   4   5
HETATM    5  C   UNL     1      -5.933   4.903  67.717  1.00  0.00    -0.023 C  
BRANCH   5   6
HETATM    6  C   UNL     1      -6.770   3.670  68.036  1.00  0.00    -0.046 C  
BRANCH   6   7
HETATM    7  O   UNL     1      -7.456   3.906  69.256  1.00  0.00    -0.053 OA 
BRANCH   7   8
HETATM    8  C   UNL     1      -8.892   3.900  69.148  1.00  0.00    -0.101 C  
HETATM    9  C   UNL     1      -9.445   2.510  69.461  1.00  0.00    -0.128 C  
BRANCH   8  10
HETATM   10  C   UNL     1      -9.458   4.951  70.100  1.00  0.00    -0.240 A  
HETATM   11  C   UNL     1      -9.819   6.275  69.731  1.00  0.00    -0.165 A  
HETATM   12  C   UNL     1     -10.185   5.420  72.396  1.00  0.00    -0.241 A  
HETATM   13  C   UNL     1     -10.360   7.164  70.705  1.00  0.00    -0.219 A  
HETATM   14  C   UNL     1     -10.504   6.720  72.033  1.00  0.00    -0.226 A  
HETATM   15  C   UNL     1      -9.680   4.551  71.438  1.00  0.00    -0.248 A  
BRANCH  11  16
HETATM   16  O   UNL     1      -9.812   6.724  68.432  1.00  0.00    -0.134 OA 
HETATM   17  C   UNL     1     -10.933   6.410  67.615  1.00  0.00    -0.349 C  
ENDBRANCH  11  16
BRANCH  13  18
HETATM   18  C   UNL     1     -10.773   8.552  70.445  1.00  0.00    -0.228 A  
HETATM   19  C   UNL     1     -12.012   9.097  70.721  1.00  0.00    -0.191 A  
HETATM   20  S   UNL     1     -12.055  10.753  70.235  1.00  0.00    -0.375 SA 
HETATM   21  C   UNL     1     -10.401  10.656  69.828  1.00  0.00    -0.100 A  
HETATM   22  N   UNL     1      -9.853   9.477  69.956  1.00  0.00    -0.218 NA 
BRANCH  21  23
HETATM   23  N   UNL     1      -9.833  11.835  69.390  1.00  0.00    -0.190 N  
HETATM   24  C   UNL     1     -10.418  12.537  68.352  1.00  0.00    -0.240 C  
HETATM   25  H   UNL     1      -8.984  12.187  69.831  1.00  0.00     0.000 HD 
HETATM   26  O   UNL     1     -11.356  12.154  67.660  1.00  0.00    -0.271 OA 
BRANCH  24  27
HETATM   27  C   UNL     1      -9.883  13.889  68.026  1.00  0.00    -0.234 A  
HETATM   28  C   UNL     1      -8.965  14.598  68.796  1.00  0.00    -0.173 A  
HETATM   29  C   UNL     1      -8.474  15.840  68.332  1.00  0.00    -0.170 A  
HETATM   30  C   UNL     1      -8.897  16.433  67.108  1.00  0.00    -0.214 A  
HETATM   31 CL   UNL     1      -7.313  16.619  69.369  1.00  0.00    -0.177 Cl 
HETATM   32  C   UNL     1     -10.325  14.464  66.826  1.00  0.00    -0.273 A  
HETATM   33  C   UNL     1      -9.886  15.727  66.400  1.00  0.00    -0.276 A  
HETATM   34 CL   UNL     1     -10.737  16.375  65.040  1.00  0.00    -0.361 Cl 
BRANCH  30  35
HETATM   35  C   UNL     1      -8.370  17.782  66.722  1.00  0.00    -0.271 C  
HETATM   36  C   UNL     1      -8.856  19.032  66.901  1.00  0.00    -0.314 C  
HETATM   37  C   UNL     1      -8.107  20.219  66.375  1.00  0.00    -0.190 C  
HETATM   38  C   UNL     1     -10.094  19.460  67.639  1.00  0.00    -0.505 C  
HETATM   39  O   UNL     1      -7.466  20.011  65.207  1.00  0.00    -0.330 OA 
HETATM   40  O   UNL     1      -8.130  21.312  66.919  1.00  0.00     0.022 OA 
ENDBRANCH  30  35
ENDBRANCH  24  27
ENDBRANCH  21  23
ENDBRANCH  13  18
ENDBRANCH   8  10
ENDBRANCH   7   8
ENDBRANCH   6   7
ENDBRANCH   5   6
ENDBRANCH   4   5
ENDBRANCH   3   4
ENDBRANCH   2   3
TORSDOF 12
ENDMDL
MODEL       20
REMARK 921   NORMALIZED FREE ENERGY PREDICTED BY IDOCK:   -4.39 KCAL/MOL
REMARK 922        TOTAL FREE ENERGY PREDICTED BY IDOCK:   -9.07 KCAL/MOL
REMARK 923 INTER-LIGAND FREE ENERGY PREDICTED BY IDOCK:   -8.08 KCAL/MOL
REMARK 924 INTRA-LIGAND FREE ENERGY PREDICTED BY IDOCK:   -0.99 KCAL/MOL
REMARK 927      BINDING AFFINITY PREDICTED BY RF-SCORE:    0.00 PKD
ROOT
HETATM    1  C   UNL     1     -11.456  12.040  66.345  1.00  0.00    -0.417 C  
HETATM    2  C   UNL     1     -12.229  12.522  65.136  1.00  0.00    -0.509 C  
ENDROOT
BRANCH   2   3
HETATM    3  C   UNL     1     -12.516  14.027  65.209  1.00  0.00    -0.495 C  
BRANCH   3   4
HETATM    4  C   UNL     1     -11.380  14.751  65.921  1.00  0.00    -0.331 C  
BRANCH   4   5
HETATM    5  C   UNL     1     -10.725  15.804  65.039  1.00  0.00    -0.443 C  
BRANCH   5   6
HETATM    6  C   UNL     1     -10.826  17.172  65.703  1.00  0.00    -0.049 C  
BRANCH   6   7
HETATM    7  O   UNL     1      -9.529  17.748  65.728  1.00  0.00    -0.518 OA 
BRANCH   7   8
HETATM    8  C   UNL     1      -9.330  18.736  66.755  1.00  0.00    -0.318 C  
HETATM    9  C   UNL     1     -10.573  18.846  67.637  1.00  0.00    -0.501 C  
BRANCH   8  10
HETATM   10  C   UNL     1      -8.100  18.352  67.573  1.00  0.00    -0.253 A  
HETATM   11  C   UNL     1      -7.879  17.079  68.164  1.00  0.00    -0.196 A  
HETATM   12  C   UNL     1      -5.927  19.100  68.433  1.00  0.00    -0.231 A  
HETATM   13  C   UNL     1      -6.678  16.829  68.891  1.00  0.00    -0.195 A  
HETATM   14  C   UNL     1      -5.735  17.865  69.033  1.00  0.00    -0.200 A  
HETATM   15  C   UNL     1      -7.088  19.331  67.706  1.00  0.00    -0.264 A  
BRANCH  11  16
HETATM   16  O   UNL     1      -8.704  15.999  67.959  1.00  0.00    -0.168 OA 
HETATM   17  C   UNL     1      -9.663  15.695  68.964  1.00  0.00    -0.241 C  
ENDBRANCH  11  16
BRANCH  13  18
HETATM   18  C   UNL     1      -6.334  15.555  69.542  1.00  0.00    -0.155 A  
HETATM   19  C   UNL     1      -5.713  15.411  70.768  1.00  0.00    -0.017 A  
HETATM   20  S   UNL     1      -5.495  13.737  71.130  1.00  0.00    -0.218 SA 
HETATM   21  C   UNL     1      -6.354  13.338  69.711  1.00  0.00    -0.073 A  
HETATM   22  N   UNL     1      -6.717  14.347  68.965  1.00  0.00    -0.101 NA 
BRANCH  21  23
HETATM   23  N   UNL     1      -6.552  11.988  69.503  1.00  0.00    -0.236 N  
HETATM   24  C   UNL     1      -7.568  11.563  68.666  1.00  0.00    -0.134 C  
HETATM   25  H   UNL     1      -5.951  11.307  69.964  1.00  0.00     0.000 HD 
HETATM   26  O   UNL     1      -8.432  12.273  68.161  1.00  0.00    -0.163 OA 
BRANCH  24  27
HETATM   27  C   UNL     1      -7.640  10.115  68.323  1.00  0.00    -0.087 A  
HETATM   28  C   UNL     1      -6.579   9.216  68.402  1.00  0.00    -0.059 A  
HETATM   29  C   UNL     1      -6.800   7.847  68.127  1.00  0.00    -0.068 A  
HETATM   30  C   UNL     1      -8.068   7.329  67.738  1.00  0.00    -0.115 A  
HETATM   31 CL   UNL     1      -5.404   6.819  68.280  1.00  0.00    -0.011 Cl 
HETATM   32  C   UNL     1      -8.893   9.627  67.927  1.00  0.00    -0.119 A  
HETATM   33  C   UNL     1      -9.094   8.279  67.591  1.00  0.00    -0.131 A  
HETATM   34 CL   UNL     1     -10.631   7.927  66.877  1.00  0.00    -0.401 Cl 
BRANCH  30  35
HETATM   35  C   UNL     1      -8.199   5.873  67.407  1.00  0.00    -0.105 C  
HETATM   36  C   UNL     1      -8.070   5.191  66.245  1.00  0.00    -0.108 C  
HETATM   37  C   UNL     1      -8.286   3.708  66.208  1.00  0.00    -0.105 C  
HETATM   38  C   UNL     1      -7.667   5.710  64.892  1.00  0.00    -0.099 C  
HETATM   39  O   UNL     1      -9.248   3.257  67.038  1.00  0.00    -0.164 OA 
HETATM   40  O   UNL     1      -7.692   2.970  65.438  1.00  0.00    -0.079 OA 
ENDBRANCH  30  35
ENDBRANCH  24  27
ENDBRANCH  21  23
ENDBRANCH  13  18
ENDBRANCH   8  10
ENDBRANCH   7   8
ENDBRANCH   6   7
ENDBRANCH   5   6
ENDBRANCH   4   5
ENDBRANCH   3   4
ENDBRANCH   2   3
TORSDOF 12
ENDMDL
MODEL       21
REMARK 921   NORMALIZED FREE ENERGY PREDICTED BY IDOCK:   -4.32 KCAL/MOL
REMARK 922        TOTAL FREE ENERGY PREDICTED BY IDOCK:   -8.96 KCAL/MOL
REMARK 923 INTER-LIGAND FREE ENERGY PREDICTED BY IDOCK:   -8.69 KCAL/MOL
REMARK 924 INTRA-LIGAND FREE ENERGY PREDICTED BY IDOCK:   -0.27 KCAL/MOL
REMARK 927      BINDING AFFINITY PREDICTED BY RF-SCORE:    0.00 PKD
ROOT
HETATM    1  C   UNL     1      -7.822   2.735  73.528  1.00  0.00    -0.056 C  
HETATM    2  C   UNL     1      -8.299   4.155  73.747  1.00  0.00    -0.092 C  
ENDROOT
BRANCH   2   3
HETATM    3  C   UNL     1      -7.638   5.133  72.769  1.00  0.00    -0.097 C  
BRANCH   3   4
HETATM    4  C   UNL     1      -7.889   6.571  73.203  1.00  0.00    -0.100 C  
BRANCH   4   5
HETATM    5  C   UNL     1      -9.040   6.682  74.192  1.00  0.00    -0.203 C  
BRANCH   5   6
HETATM    6  C   UNL     1     -10.214   7.407  73.545  1.00  0.00    -0.349 C  
BRANCH   6   7
HETATM    7  O   UNL     1     -11.210   6.445  73.234  1.00  0.00    -0.175 OA 
BRANCH   7   8
HETATM    8  C   UNL     1     -11.995   6.750  72.067  1.00  0.00    -0.317 C  
HETATM    9  C   UNL     1     -12.521   8.183  72.136  1.00  0.00    -0.364 C  
BRANCH   8  10
HETATM   10  C   UNL     1     -11.132   6.534  70.826  1.00  0.00    -0.354 A  
HETATM   11  C   UNL     1     -10.896   7.507  69.818  1.00  0.00    -0.225 A  
HETATM   12  C   UNL     1      -9.683   4.966  69.617  1.00  0.00    -0.266 A  
HETATM   13  C   UNL     1     -10.051   7.196  68.712  1.00  0.00    -0.175 A  
HETATM   14  C   UNL     1      -9.483   5.911  68.623  1.00  0.00    -0.137 A  
HETATM   15  C   UNL     1     -10.486   5.281  70.705  1.00  0.00    -0.306 A  
BRANCH  11  16
HETATM   16  O   UNL     1     -11.324   8.809  69.913  1.00  0.00    -0.124 OA 
HETATM   17  C   UNL     1     -10.472   9.743  70.564  1.00  0.00    -0.301 C  
ENDBRANCH  11  16
BRANCH  13  18
HETATM   18  C   UNL     1      -9.728   8.118  67.612  1.00  0.00    -0.159 A  
HETATM   19  C   UNL     1      -9.900   7.867  66.263  1.00  0.00    -0.069 A  
HETATM   20  S   UNL     1      -9.373   9.224  65.335  1.00  0.00    -0.185 SA 
HETATM   21  C   UNL     1      -9.088  10.080  66.782  1.00  0.00    -0.139 A  
HETATM   22  N   UNL     1      -9.284   9.409  67.886  1.00  0.00    -0.130 NA 
BRANCH  21  23
HETATM   23  N   UNL     1      -8.664  11.383  66.621  1.00  0.00    -0.173 N  
HETATM   24  C   UNL     1      -9.578  12.418  66.698  1.00  0.00    -0.229 C  
HETATM   25  H   UNL     1      -7.680  11.582  66.446  1.00  0.00     0.000 HD 
HETATM   26  O   UNL     1     -10.798  12.301  66.772  1.00  0.00    -0.237 OA 
BRANCH  24  27
HETATM   27  C   UNL     1      -9.062  13.816  66.699  1.00  0.00    -0.196 A  
HETATM   28  C   UNL     1      -7.881  14.237  67.305  1.00  0.00    -0.170 A  
HETATM   29  C   UNL     1      -7.461  15.579  67.162  1.00  0.00    -0.209 A  
HETATM   30  C   UNL     1      -8.209  16.553  66.441  1.00  0.00    -0.364 A  
HETATM   31 CL   UNL     1      -5.959  15.979  67.944  1.00  0.00    -0.135 Cl 
HETATM   32  C   UNL     1      -9.821  14.764  65.998  1.00  0.00    -0.350 A  
HETATM   33  C   UNL     1      -9.435  16.111  65.913  1.00  0.00    -0.302 A  
HETATM   34 CL   UNL     1     -10.626  17.170  65.238  1.00  0.00    -0.179 Cl 
BRANCH  30  35
HETATM   35  C   UNL     1      -7.720  17.969  66.390  1.00  0.00    -0.304 C  
HETATM   36  C   UNL     1      -8.029  19.063  67.125  1.00  0.00    -0.271 C  
HETATM   37  C   UNL     1      -7.384  20.383  66.827  1.00  0.00    -0.278 C  
HETATM   38  C   UNL     1      -8.945  19.168  68.313  1.00  0.00    -0.379 C  
HETATM   39  O   UNL     1      -7.148  20.614  65.520  1.00  0.00    -0.167 OA 
HETATM   40  O   UNL     1      -7.154  21.219  67.688  1.00  0.00    -0.425 OA 
ENDBRANCH  30  35
ENDBRANCH  24  27
ENDBRANCH  21  23
ENDBRANCH  13  18
ENDBRANCH   8  10
ENDBRANCH   7   8
ENDBRANCH   6   7
ENDBRANCH   5   6
ENDBRANCH   4   5
ENDBRANCH   3   4
ENDBRANCH   2   3
TORSDOF 12
ENDMDL
MODEL       22
REMARK 921   NORMALIZED FREE ENERGY PREDICTED BY IDOCK:   -4.32 KCAL/MOL
REMARK 922        TOTAL FREE ENERGY PREDICTED BY IDOCK:   -8.94 KCAL/MOL
REMARK 923 INTER-LIGAND FREE ENERGY PREDICTED BY IDOCK:   -7.31 KCAL/MOL
REMARK 924 INTRA-LIGAND FREE ENERGY PREDICTED BY IDOCK:   -1.63 KCAL/MOL
REMARK 927      BINDING AFFINITY PREDICTED BY RF-SCORE:    0.00 PKD
ROOT
HETATM    1  C   UNL     1     -11.309   6.236  70.334  1.00  0.00    -0.440 C  
HETATM    2  C   UNL     1     -11.468   6.832  71.716  1.00  0.00    -0.320 C  
ENDROOT
BRANCH   2   3
HETATM    3  C   UNL     1     -11.876   5.773  72.747  1.00  0.00    -0.152 C  
BRANCH   3   4
HETATM    4  C   UNL     1     -10.775   5.588  73.783  1.00  0.00    -0.300 C  
BRANCH   4   5
HETATM    5  C   UNL     1     -10.493   4.121  74.070  1.00  0.00    -0.279 C  
BRANCH   5   6
HETATM    6  C   UNL     1     -11.150   3.248  73.008  1.00  0.00     0.022 C  
BRANCH   6   7
HETATM    7  O   UNL     1     -10.170   2.357  72.499  1.00  0.00    -0.149 OA 
BRANCH   7   8
HETATM    8  C   UNL     1      -8.856   2.927  72.359  1.00  0.00    -0.075 C  
HETATM    9  C   UNL     1      -7.787   1.843  72.492  1.00  0.00    -0.045 C  
BRANCH   8  10
HETATM   10  C   UNL     1      -8.769   3.630  71.006  1.00  0.00    -0.123 A  
HETATM   11  C   UNL     1      -8.107   4.865  70.770  1.00  0.00    -0.087 A  
HETATM   12  C   UNL     1      -9.346   3.513  68.624  1.00  0.00    -0.230 A  
HETATM   13  C   UNL     1      -8.074   5.417  69.456  1.00  0.00    -0.096 A  
HETATM   14  C   UNL     1      -8.725   4.735  68.410  1.00  0.00    -0.112 A  
HETATM   15  C   UNL     1      -9.355   2.969  69.902  1.00  0.00    -0.221 A  
BRANCH  11  16
HETATM   16  O   UNL     1      -7.357   5.512  71.723  1.00  0.00    -0.086 OA 
HETATM   17  C   UNL     1      -6.015   5.081  71.916  1.00  0.00    -0.024 C  
ENDBRANCH  11  16
BRANCH  13  18
HETATM   18  C   UNL     1      -7.420   6.681  69.087  1.00  0.00    -0.095 A  
HETATM   19  C   UNL     1      -6.108   6.829  68.678  1.00  0.00    -0.026 A  
HETATM   20  S   UNL     1      -5.768   8.492  68.363  1.00  0.00    -0.038 SA 
HETATM   21  C   UNL     1      -7.406   8.864  68.658  1.00  0.00    -0.077 A  
HETATM   22  N   UNL     1      -8.154   7.864  69.041  1.00  0.00    -0.122 NA 
BRANCH  21  23
HETATM   23  N   UNL     1      -7.751  10.187  68.475  1.00  0.00    -0.087 N  
HETATM   24  C   UNL     1      -7.330  10.858  67.342  1.00  0.00    -0.099 C  
HETATM   25  H   UNL     1      -8.316  10.669  69.174  1.00  0.00     0.000 HD 
HETATM   26  O   UNL     1      -6.545  10.432  66.500  1.00  0.00    -0.081 OA 
BRANCH  24  27
HETATM   27  C   UNL     1      -7.868  12.225  67.090  1.00  0.00    -0.149 A  
HETATM   28  C   UNL     1      -9.070  12.510  66.447  1.00  0.00    -0.129 A  
HETATM   29  C   UNL     1      -9.507  13.850  66.345  1.00  0.00    -0.250 A  
HETATM   30  C   UNL     1      -8.758  14.951  66.848  1.00  0.00    -0.276 A  
HETATM   31 CL   UNL     1     -11.034  14.078  65.541  1.00  0.00    -0.301 Cl 
HETATM   32  C   UNL     1      -7.108  13.296  67.579  1.00  0.00    -0.156 A  
HETATM   33  C   UNL     1      -7.513  14.631  67.417  1.00  0.00    -0.186 A  
HETATM   34 CL   UNL     1      -6.323  15.811  67.848  1.00  0.00    -0.143 Cl 
BRANCH  30  35
HETATM   35  C   UNL     1      -9.268  16.345  66.643  1.00  0.00    -0.279 C  
HETATM   36  C   UNL     1     -10.037  17.153  67.411  1.00  0.00    -0.301 C  
HETATM   37  C   UNL     1     -10.417  18.521  66.929  1.00  0.00    -0.396 C  
HETATM   38  C   UNL     1     -10.570  16.902  68.794  1.00  0.00    -0.355 C  
HETATM   39  O   UNL     1     -10.632  18.612  65.602  1.00  0.00    -0.610 OA 
HETATM   40  O   UNL     1     -10.590  19.465  67.683  1.00  0.00    -0.436 OA 
ENDBRANCH  30  35
ENDBRANCH  24  27
ENDBRANCH  21  23
ENDBRANCH  13  18
ENDBRANCH   8  10
ENDBRANCH   7   8
ENDBRANCH   6   7
ENDBRANCH   5   6
ENDBRANCH   4   5
ENDBRANCH   3   4
ENDBRANCH   2   3
TORSDOF 12
ENDMDL
MODEL       23
REMARK 921   NORMALIZED FREE ENERGY PREDICTED BY IDOCK:   -4.31 KCAL/MOL
REMARK 922        TOTAL FREE ENERGY PREDICTED BY IDOCK:   -8.94 KCAL/MOL
REMARK 923 INTER-LIGAND FREE ENERGY PREDICTED BY IDOCK:   -8.64 KCAL/MOL
REMARK 924 INTRA-LIGAND FREE ENERGY PREDICTED BY IDOCK:   -0.30 KCAL/MOL
REMARK 927      BINDING AFFINITY PREDICTED BY RF-SCORE:    0.00 PKD
ROOT
HETATM    1  C   UNL     1     -12.460  13.627  71.041  1.00  0.00    -0.456 C  
HETATM    2  C   UNL     1     -12.402  13.609  69.529  1.00  0.00    -0.232 C  
ENDROOT
BRANCH   2   3
HETATM    3  C   UNL     1     -11.739  14.874  68.971  1.00  0.00    -0.347 C  
BRANCH   3   4
HETATM    4  C   UNL     1     -10.816  15.494  70.011  1.00  0.00    -0.330 C  
BRANCH   4   5
HETATM    5  C   UNL     1     -10.464  16.938  69.684  1.00  0.00    -0.158 C  
BRANCH   5   6
HETATM    6  C   UNL     1     -10.499  17.152  68.176  1.00  0.00    -0.366 C  
BRANCH   6   7
HETATM    7  O   UNL     1      -9.253  17.702  67.779  1.00  0.00    -0.246 OA 
BRANCH   7   8
HETATM    8  C   UNL     1      -8.939  17.532  66.384  1.00  0.00    -0.238 C  
HETATM    9  C   UNL     1      -7.458  17.197  66.208  1.00  0.00    -0.344 C  
BRANCH   8  10
HETATM   10  C   UNL     1      -9.829  16.432  65.813  1.00  0.00    -0.303 A  
HETATM   11  C   UNL     1      -9.518  15.045  65.819  1.00  0.00    -0.225 A  
HETATM   12  C   UNL     1     -11.970  15.920  64.728  1.00  0.00     0.186 A  
HETATM   13  C   UNL     1     -10.440  14.105  65.273  1.00  0.00    -0.402 A  
HETATM   14  C   UNL     1     -11.642  14.573  64.710  1.00  0.00    -0.414 A  
HETATM   15  C   UNL     1     -11.078  16.829  65.282  1.00  0.00     0.005 A  
BRANCH  11  16
HETATM   16  O   UNL     1      -8.419  14.522  66.459  1.00  0.00    -0.075 OA 
HETATM   17  C   UNL     1      -8.580  14.084  67.802  1.00  0.00    -0.183 C  
ENDBRANCH  11  16
BRANCH  13  18
HETATM   18  C   UNL     1     -10.233  12.649  65.225  1.00  0.00    -0.284 A  
HETATM   19  C   UNL     1      -9.982  11.900  64.091  1.00  0.00    -0.262 A  
HETATM   20  S   UNL     1      -9.821  10.232  64.504  1.00  0.00    -0.262 SA 
HETATM   21  C   UNL     1      -9.961  10.646  66.153  1.00  0.00    -0.228 A  
HETATM   22  N   UNL     1     -10.189  11.908  66.403  1.00  0.00    -0.205 NA 
BRANCH  21  23
HETATM   23  N   UNL     1      -9.833   9.595  67.037  1.00  0.00    -0.183 N  
HETATM   24  C   UNL     1     -10.734   9.458  68.077  1.00  0.00    -0.190 C  
HETATM   25  H   UNL     1      -9.077   8.921  66.923  1.00  0.00     0.000 HD 
HETATM   26  O   UNL     1     -11.599  10.268  68.395  1.00  0.00    -0.221 OA 
BRANCH  24  27
HETATM   27  C   UNL     1     -10.675   8.218  68.902  1.00  0.00    -0.089 A  
HETATM   28  C   UNL     1     -10.445   6.935  68.411  1.00  0.00    -0.235 A  
HETATM   29  C   UNL     1     -10.331   5.852  69.311  1.00  0.00    -0.246 A  
HETATM   30  C   UNL     1     -10.470   5.996  70.721  1.00  0.00    -0.298 A  
HETATM   31 CL   UNL     1     -10.020   4.303  68.581  1.00  0.00    -0.108 Cl 
HETATM   32  C   UNL     1     -10.831   8.379  70.286  1.00  0.00    -0.244 A  
HETATM   33  C   UNL     1     -10.783   7.291  71.172  1.00  0.00    -0.228 A  
HETATM   34 CL   UNL     1     -11.257   7.652  72.797  1.00  0.00    -0.415 Cl 
BRANCH  30  35
HETATM   35  C   UNL     1     -10.394   4.783  71.598  1.00  0.00    -0.215 C  
HETATM   36  C   UNL     1      -9.345   4.072  72.075  1.00  0.00    -0.187 C  
HETATM   37  C   UNL     1      -9.576   2.863  72.930  1.00  0.00    -0.104 C  
HETATM   38  C   UNL     1      -7.876   4.346  71.914  1.00  0.00    -0.085 C  
HETATM   39  O   UNL     1     -10.663   2.137  72.602  1.00  0.00    -0.144 OA 
HETATM   40  O   UNL     1      -8.804   2.516  73.811  1.00  0.00    -0.073 OA 
ENDBRANCH  30  35
ENDBRANCH  24  27
ENDBRANCH  21  23
ENDBRANCH  13  18
ENDBRANCH   8  10
ENDBRANCH   7   8
ENDBRANCH   6   7
ENDBRANCH   5   6
ENDBRANCH   4   5
ENDBRANCH   3   4
ENDBRANCH   2   3
TORSDOF 12
ENDMDL
MODEL       24
REMARK 921   NORMALIZED FREE ENERGY PREDICTED BY IDOCK:   -4.10 KCAL/MOL
REMARK 922        TOTAL FREE ENERGY PREDICTED BY IDOCK:   -8.57 KCAL/MOL
REMARK 923 INTER-LIGAND FREE ENERGY PREDICTED BY IDOCK:   -7.56 KCAL/MOL
REMARK 924 INTRA-LIGAND FREE ENERGY PREDICTED BY IDOCK:   -1.01 KCAL/MOL
REMARK 927      BINDING AFFINITY PREDICTED BY RF-SCORE:    0.00 PKD
ROOT
HETATM    1  C   UNL     1      -5.632  18.799  69.109  1.00  0.00    -0.213 C  
HETATM    2  C   UNL     1      -6.464  20.063  69.066  1.00  0.00    -0.358 C  
ENDROOT
BRANCH   2   3
HETATM    3  C   UNL     1      -6.445  20.707  67.674  1.00  0.00    -0.346 C  
BRANCH   3   4
HETATM    4  C   UNL     1      -7.653  20.256  66.863  1.00  0.00    -0.341 C  
BRANCH   4   5
HETATM    5  C   UNL     1      -7.263  19.363  65.694  1.00  0.00    -0.258 C  
BRANCH   5   6
HETATM    6  C   UNL     1      -7.527  17.904  66.045  1.00  0.00    -0.244 C  
BRANCH   6   7
HETATM    7  O   UNL     1      -8.828  17.568  65.589  1.00  0.00    -0.416 OA 
BRANCH   7   8
HETATM    8  C   UNL     1      -9.645  16.884  66.556  1.00  0.00    -0.278 C  
HETATM    9  C   UNL     1     -10.725  17.819  67.099  1.00  0.00    -0.222 C  
BRANCH   8  10
HETATM   10  C   UNL     1     -10.257  15.651  65.896  1.00  0.00    -0.372 A  
HETATM   11  C   UNL     1      -9.802  14.317  66.079  1.00  0.00    -0.314 A  
HETATM   12  C   UNL     1     -12.030  14.816  64.419  1.00  0.00    -0.433 A  
HETATM   13  C   UNL     1     -10.469  13.240  65.424  1.00  0.00    -0.306 A  
HETATM   14  C   UNL     1     -11.559  13.522  64.580  1.00  0.00    -0.410 A  
HETATM   15  C   UNL     1     -11.392  15.859  65.078  1.00  0.00    -0.195 A  
BRANCH  11  16
HETATM   16  O   UNL     1      -8.824  13.972  66.981  1.00  0.00    -0.217 OA 
HETATM   17  C   UNL     1      -9.117  14.114  68.365  1.00  0.00    -0.191 C  
ENDBRANCH  11  16
BRANCH  13  18
HETATM   18  C   UNL     1     -10.096  11.822  65.539  1.00  0.00    -0.249 A  
HETATM   19  C   UNL     1     -10.042  10.909  64.503  1.00  0.00    -0.341 A  
HETATM   20  S   UNL     1      -9.571   9.359  65.100  1.00  0.00    -0.003 SA 
HETATM   21  C   UNL     1      -9.345  10.044  66.645  1.00  0.00    -0.166 A  
HETATM   22  N   UNL     1      -9.663  11.307  66.758  1.00  0.00    -0.191 NA 
BRANCH  21  23
HETATM   23  N   UNL     1      -8.866   9.180  67.608  1.00  0.00    -0.120 N  
HETATM   24  C   UNL     1      -9.679   8.172  68.093  1.00  0.00    -0.161 C  
HETATM   25  H   UNL     1      -7.915   9.285  67.961  1.00  0.00     0.000 HD 
HETATM   26  O   UNL     1     -10.872   8.025  67.847  1.00  0.00    -0.118 OA 
BRANCH  24  27
HETATM   27  C   UNL     1      -9.075   7.151  68.996  1.00  0.00    -0.132 A  
HETATM   28  C   UNL     1      -9.785   6.316  69.854  1.00  0.00    -0.191 A  
HETATM   29  C   UNL     1      -9.098   5.331  70.599  1.00  0.00    -0.142 A  
HETATM   30  C   UNL     1      -7.685   5.160  70.542  1.00  0.00    -0.071 A  
HETATM   31 CL   UNL     1     -10.095   4.332  71.617  1.00  0.00    -0.245 Cl 
HETATM   32  C   UNL     1      -7.681   7.010  68.937  1.00  0.00    -0.110 A  
HETATM   33  C   UNL     1      -6.994   6.075  69.727  1.00  0.00    -0.067 A  
HETATM   34 CL   UNL     1      -5.271   6.232  69.710  1.00  0.00    -0.012 Cl 
BRANCH  30  35
HETATM   35  C   UNL     1      -7.031   4.130  71.411  1.00  0.00    -0.035 C  
HETATM   36  C   UNL     1      -6.474   4.202  72.643  1.00  0.00    -0.025 C  
HETATM   37  C   UNL     1      -5.861   2.987  73.270  1.00  0.00    -0.004 C  
HETATM   38  C   UNL     1      -6.409   5.380  73.575  1.00  0.00    -0.062 C  
HETATM   39  O   UNL     1      -5.244   2.156  72.407  1.00  0.00     0.000 OA 
HETATM   40  O   UNL     1      -5.854   2.795  74.476  1.00  0.00    -0.003 OA 
ENDBRANCH  30  35
ENDBRANCH  24  27
ENDBRANCH  21  23
ENDBRANCH  13  18
ENDBRANCH   8  10
ENDBRANCH   7   8
ENDBRANCH   6   7
ENDBRANCH   5   6
ENDBRANCH   4   5
ENDBRANCH   3   4
ENDBRANCH   2   3
TORSDOF 12
ENDMDL
MODEL       25
REMARK 921   NORMALIZED FREE ENERGY PREDICTED BY IDOCK:   -4.07 KCAL/MOL
REMARK 922        TOTAL FREE ENERGY PREDICTED BY IDOCK:   -8.53 KCAL/MOL
REMARK 923 INTER-LIGAND FREE ENERGY PREDICTED BY IDOCK:   -7.73 KCAL/MOL
REMARK 924 INTRA-LIGAND FREE ENERGY PREDICTED BY IDOCK:   -0.80 KCAL/MOL
REMARK 927      BINDING AFFINITY PREDICTED BY RF-SCORE:    0.00 PKD
ROOT
HETATM    1  C   UNL     1     -12.016  12.715  66.456  1.00  0.00    -0.401 C  
HETATM    2  C   UNL     1     -12.535  12.452  65.059  1.00  0.00    -0.393 C  
ENDROOT
BRANCH   2   3
HETATM    3  C   UNL     1     -11.901  13.396  64.031  1.00  0.00    -0.498 C  
BRANCH   3   4
HETATM    4  C   UNL     1     -10.945  14.365  64.716  1.00  0.00    -0.409 C  
BRANCH   4   5
HETATM    5  C   UNL     1     -11.240  15.814  64.359  1.00  0.00    -0.249 C  
BRANCH   5   6
HETATM    6  C   UNL     1     -11.123  16.689  65.601  1.00  0.00     0.117 C  
BRANCH   6   7
HETATM    7  O   UNL     1     -10.424  17.872  65.244  1.00  0.00    -0.585 OA 
BRANCH   7   8
HETATM    8  C   UNL     1      -9.770  18.536  66.341  1.00  0.00    -0.336 C  
HETATM    9  C   UNL     1     -10.621  18.444  67.606  1.00  0.00    -0.437 C  
BRANCH   8  10
HETATM   10  C   UNL     1      -8.396  17.902  66.547  1.00  0.00    -0.290 A  
HETATM   11  C   UNL     1      -8.165  16.634  67.145  1.00  0.00    -0.179 A  
HETATM   12  C   UNL     1      -5.980  18.148  66.196  1.00  0.00    -0.228 A  
HETATM   13  C   UNL     1      -6.835  16.134  67.265  1.00  0.00    -0.236 A  
HETATM   14  C   UNL     1      -5.763  16.924  66.810  1.00  0.00    -0.177 A  
HETATM   15  C   UNL     1      -7.279  18.620  66.060  1.00  0.00    -0.293 A  
BRANCH  11  16
HETATM   16  O   UNL     1      -9.176  15.772  67.498  1.00  0.00    -0.201 OA 
HETATM   17  C   UNL     1      -9.508  15.667  68.876  1.00  0.00    -0.228 C  
ENDBRANCH  11  16
BRANCH  13  18
HETATM   18  C   UNL     1      -6.471  14.839  67.860  1.00  0.00    -0.162 A  
HETATM   19  C   UNL     1      -5.837  14.651  69.074  1.00  0.00    -0.088 A  
HETATM   20  S   UNL     1      -5.595  12.966  69.363  1.00  0.00    -0.090 SA 
HETATM   21  C   UNL     1      -6.461  12.616  67.936  1.00  0.00    -0.113 A  
HETATM   22  N   UNL     1      -6.844  13.651  67.236  1.00  0.00    -0.160 NA 
BRANCH  21  23
HETATM   23  N   UNL     1      -6.644  11.274  67.672  1.00  0.00    -0.068 N  
HETATM   24  C   UNL     1      -7.921  10.742  67.667  1.00  0.00    -0.110 C  
HETATM   25  H   UNL     1      -5.841  10.676  67.482  1.00  0.00     0.000 HD 
HETATM   26  O   UNL     1      -8.947  11.324  68.007  1.00  0.00    -0.144 OA 
BRANCH  24  27
HETATM   27  C   UNL     1      -8.098   9.336  67.205  1.00  0.00    -0.109 A  
HETATM   28  C   UNL     1      -9.224   8.551  67.432  1.00  0.00    -0.163 A  
HETATM   29  C   UNL     1      -9.301   7.257  66.868  1.00  0.00    -0.156 A  
HETATM   30  C   UNL     1      -8.255   6.689  66.086  1.00  0.00    -0.124 A  
HETATM   31 CL   UNL     1     -10.767   6.381  67.202  1.00  0.00    -0.382 Cl 
HETATM   32  C   UNL     1      -7.050   8.789  66.452  1.00  0.00    -0.083 A  
HETATM   33  C   UNL     1      -7.100   7.480  65.947  1.00  0.00    -0.065 A  
HETATM   34 CL   UNL     1      -5.615   6.899  65.276  1.00  0.00    -0.030 Cl 
BRANCH  30  35
HETATM   35  C   UNL     1      -8.394   5.287  65.576  1.00  0.00    -0.130 C  
HETATM   36  C   UNL     1      -8.472   4.780  64.323  1.00  0.00    -0.135 C  
HETATM   37  C   UNL     1      -8.635   3.305  64.110  1.00  0.00    -0.089 C  
HETATM   38  C   UNL     1      -8.366   5.505  63.010  1.00  0.00    -0.081 C  
HETATM   39  O   UNL     1      -9.394   2.682  65.033  1.00  0.00    -0.150 OA 
HETATM   40  O   UNL     1      -8.178   2.721  63.140  1.00  0.00    -0.075 OA 
ENDBRANCH  30  35
ENDBRANCH  24  27
ENDBRANCH  21  23
ENDBRANCH  13  18
ENDBRANCH   8  10
ENDBRANCH   7   8
ENDBRANCH   6   7
ENDBRANCH   5   6
ENDBRANCH   4   5
ENDBRANCH   3   4
ENDBRANCH   2   3
TORSDOF 12
ENDMDL
MODEL       26
REMARK 921   NORMALIZED FREE ENERGY PREDICTED BY IDOCK:   -3.80 KCAL/MOL
REMARK 922        TOTAL FREE ENERGY PREDICTED BY IDOCK:   -8.07 KCAL/MOL
REMARK 923 INTER-LIGAND FREE ENERGY PREDICTED BY IDOCK:   -7.43 KCAL/MOL
REMARK 924 INTRA-LIGAND FREE ENERGY PREDICTED BY IDOCK:   -0.63 KCAL/MOL
REMARK 927      BINDING AFFINITY PREDICTED BY RF-SCORE:    0.00 PKD
ROOT
HETATM    1  C   UNL     1      -7.287   2.619  74.024  1.00  0.00    -0.042 C  
HETATM    2  C   UNL     1      -7.261   4.096  74.351  1.00  0.00    -0.070 C  
ENDROOT
BRANCH   2   3
HETATM    3  C   UNL     1      -6.802   4.934  73.151  1.00  0.00    -0.069 C  
BRANCH   3   4
HETATM    4  C   UNL     1      -7.448   6.313  73.188  1.00  0.00    -0.092 C  
BRANCH   4   5
HETATM    5  C   UNL     1      -8.427   6.461  74.343  1.00  0.00    -0.140 C  
BRANCH   5   6
HETATM    6  C   UNL     1      -9.858   6.388  73.824  1.00  0.00    -0.212 C  
BRANCH   6   7
HETATM    7  O   UNL     1     -10.352   5.082  74.073  1.00  0.00    -0.210 OA 
BRANCH   7   8
HETATM    8  C   UNL     1     -11.179   4.543  73.025  1.00  0.00    -0.187 C  
HETATM    9  C   UNL     1     -12.525   5.265  72.982  1.00  0.00     0.549 C  
BRANCH   8  10
HETATM   10  C   UNL     1     -10.435   4.674  71.699  1.00  0.00    -0.123 A  
HETATM   11  C   UNL     1     -10.565   5.763  70.795  1.00  0.00    -0.269 A  
HETATM   12  C   UNL     1      -8.784   3.656  70.195  1.00  0.00    -0.122 A  
HETATM   13  C   UNL     1      -9.800   5.786  69.592  1.00  0.00    -0.230 A  
HETATM   14  C   UNL     1      -8.942   4.708  69.305  1.00  0.00    -0.140 A  
HETATM   15  C   UNL     1      -9.514   3.650  71.376  1.00  0.00    -0.227 A  
BRANCH  11  16
HETATM   16  O   UNL     1     -11.293   6.894  71.078  1.00  0.00    -0.268 OA 
HETATM   17  C   UNL     1     -12.578   7.022  70.482  1.00  0.00     0.061 C  
ENDBRANCH  11  16
BRANCH  13  18
HETATM   18  C   UNL     1      -9.844   6.856  68.583  1.00  0.00    -0.145 A  
HETATM   19  C   UNL     1     -10.219   6.713  67.261  1.00  0.00    -0.198 A  
HETATM   20  S   UNL     1     -10.107   8.229  66.444  1.00  0.00    -0.021 SA 
HETATM   21  C   UNL     1      -9.705   8.976  67.923  1.00  0.00    -0.155 A  
HETATM   22  N   UNL     1      -9.579   8.174  68.947  1.00  0.00    -0.152 NA 
BRANCH  21  23
HETATM   23  N   UNL     1      -9.541  10.345  67.867  1.00  0.00    -0.142 N  
HETATM   24  C   UNL     1     -10.629  11.176  68.061  1.00  0.00    -0.198 C  
HETATM   25  H   UNL     1      -8.621  10.742  67.682  1.00  0.00     0.000 HD 
HETATM   26  O   UNL     1     -11.800  10.822  68.160  1.00  0.00    -0.533 OA 
BRANCH  24  27
HETATM   27  C   UNL     1     -10.386  12.642  68.172  1.00  0.00    -0.238 A  
HETATM   28  C   UNL     1      -9.270  13.312  67.675  1.00  0.00    -0.209 A  
HETATM   29  C   UNL     1      -9.199  14.720  67.772  1.00  0.00    -0.194 A  
HETATM   30  C   UNL     1     -10.212  15.507  68.390  1.00  0.00    -0.215 A  
HETATM   31 CL   UNL     1      -7.768  15.444  67.095  1.00  0.00    -0.242 Cl 
HETATM   32  C   UNL     1     -11.387  13.398  68.797  1.00  0.00    -0.332 A  
HETATM   33  C   UNL     1     -11.283  14.789  68.952  1.00  0.00    -0.266 A  
HETATM   34 CL   UNL     1     -12.483  15.502  69.975  1.00  0.00    -0.355 Cl 
BRANCH  30  35
HETATM   35  C   UNL     1     -10.027  16.990  68.504  1.00  0.00    -0.293 C  
HETATM   36  C   UNL     1     -10.053  17.982  67.582  1.00  0.00    -0.352 C  
HETATM   37  C   UNL     1      -9.806  19.403  67.991  1.00  0.00    -0.369 C  
HETATM   38  C   UNL     1     -10.361  17.889  66.113  1.00  0.00    -0.352 C  
HETATM   39  O   UNL     1      -8.903  19.558  68.979  1.00  0.00    -0.340 OA 
HETATM   40  O   UNL     1     -10.325  20.354  67.428  1.00  0.00    -0.344 OA 
ENDBRANCH  30  35
ENDBRANCH  24  27
ENDBRANCH  21  23
ENDBRANCH  13  18
ENDBRANCH   8  10
ENDBRANCH   7   8
ENDBRANCH   6   7
ENDBRANCH   5   6
ENDBRANCH   4   5
ENDBRANCH   3   4
ENDBRANCH   2   3
TORSDOF 12
ENDMDL
MODEL       27
REMARK 921   NORMALIZED FREE ENERGY PREDICTED BY IDOCK:   -3.65 KCAL/MOL
REMARK 922        TOTAL FREE ENERGY PREDICTED BY IDOCK:   -7.82 KCAL/MOL
REMARK 923 INTER-LIGAND FREE ENERGY PREDICTED BY IDOCK:   -7.07 KCAL/MOL
REMARK 924 INTRA-LIGAND FREE ENERGY PREDICTED BY IDOCK:   -0.75 KCAL/MOL
REMARK 927      BINDING AFFINITY PREDICTED BY RF-SCORE:    0.00 PKD
ROOT
HETATM    1  C   UNL     1     -10.890   5.986  66.874  1.00  0.00    -0.396 C  
HETATM    2  C   UNL     1     -10.257   4.623  66.692  1.00  0.00    -0.250 C  
ENDROOT
BRANCH   2   3
HETATM    3  C   UNL     1     -10.190   4.222  65.214  1.00  0.00    -0.234 C  
BRANCH   3   4
HETATM    4  C   UNL     1      -9.275   3.018  65.030  1.00  0.00    -0.149 C  
BRANCH   4   5
HETATM    5  C   UNL     1      -8.117   3.311  64.088  1.00  0.00    -0.082 C  
BRANCH   5   6
HETATM    6  C   UNL     1      -8.366   4.620  63.350  1.00  0.00    -0.109 C  
BRANCH   6   7
HETATM    7  O   UNL     1      -7.558   5.623  63.944  1.00  0.00    -0.063 OA 
BRANCH   7   8
HETATM    8  C   UNL     1      -6.417   5.126  64.666  1.00  0.00    -0.035 C  
HETATM    9  C   UNL     1      -5.132   5.765  64.140  1.00  0.00    -0.010 C  
BRANCH   8  10
HETATM   10  C   UNL     1      -6.614   5.415  66.152  1.00  0.00    -0.048 A  
HETATM   11  C   UNL     1      -7.245   6.573  66.681  1.00  0.00    -0.073 A  
HETATM   12  C   UNL     1      -6.292   4.579  68.436  1.00  0.00    -0.036 A  
HETATM   13  C   UNL     1      -7.391   6.724  68.091  1.00  0.00    -0.097 A  
HETATM   14  C   UNL     1      -6.880   5.727  68.943  1.00  0.00    -0.066 A  
HETATM   15  C   UNL     1      -6.173   4.425  67.061  1.00  0.00    -0.036 A  
BRANCH  11  16
HETATM   16  O   UNL     1      -7.866   7.517  65.898  1.00  0.00    -0.097 OA 
HETATM   17  C   UNL     1      -7.056   8.523  65.303  1.00  0.00    -0.082 C  
ENDBRANCH  11  16
BRANCH  13  18
HETATM   18  C   UNL     1      -8.028   7.872  68.756  1.00  0.00    -0.124 A  
HETATM   19  C   UNL     1      -8.704   7.841  69.960  1.00  0.00    -0.141 A  
HETATM   20  S   UNL     1      -9.298   9.416  70.348  1.00  0.00    -0.267 SA 
HETATM   21  C   UNL     1      -8.504  10.034  68.972  1.00  0.00    -0.147 A  
HETATM   22  N   UNL     1      -7.902   9.151  68.219  1.00  0.00    -0.101 NA 
BRANCH  21  23
HETATM   23  N   UNL     1      -8.601  11.399  68.799  1.00  0.00    -0.311 N  
HETATM   24  C   UNL     1      -8.055  11.991  67.675  1.00  0.00    -0.155 C  
HETATM   25  H   UNL     1      -9.076  11.970  69.498  1.00  0.00     0.000 HD 
HETATM   26  O   UNL     1      -7.352  11.436  66.836  1.00  0.00    -0.135 OA 
BRANCH  24  27
HETATM   27  C   UNL     1      -8.333  13.435  67.433  1.00  0.00    -0.193 A  
HETATM   28  C   UNL     1      -7.388  14.456  67.483  1.00  0.00    -0.208 A  
HETATM   29  C   UNL     1      -7.766  15.777  67.150  1.00  0.00    -0.219 A  
HETATM   30  C   UNL     1      -9.095  16.135  66.787  1.00  0.00    -0.257 A  
HETATM   31 CL   UNL     1      -6.492  16.961  67.227  1.00  0.00    -0.180 Cl 
HETATM   32  C   UNL     1      -9.651  13.770  67.093  1.00  0.00    -0.244 A  
HETATM   33  C   UNL     1     -10.038  15.093  66.827  1.00  0.00    -0.258 A  
HETATM   34 CL   UNL     1     -11.746  15.339  66.688  1.00  0.00    -0.049 Cl 
BRANCH  30  35
HETATM   35  C   UNL     1      -9.422  17.571  66.508  1.00  0.00    -0.285 C  
HETATM   36  C   UNL     1      -9.520  18.653  67.316  1.00  0.00    -0.313 C  
HETATM   37  C   UNL     1      -9.894  19.990  66.749  1.00  0.00    -0.445 C  
HETATM   38  C   UNL     1      -9.247  18.750  68.791  1.00  0.00    -0.342 C  
HETATM   39  O   UNL     1     -10.780  19.945  65.734  1.00  0.00    -0.479 OA 
HETATM   40  O   UNL     1      -9.489  21.044  67.214  1.00  0.00    -0.354 OA 
ENDBRANCH  30  35
ENDBRANCH  24  27
ENDBRANCH  21  23
ENDBRANCH  13  18
ENDBRANCH   8  10
ENDBRANCH   7   8
ENDBRANCH   6   7
ENDBRANCH   5   6
ENDBRANCH   4   5
ENDBRANCH   3   4
ENDBRANCH   2   3
TORSDOF 12
ENDMDL
MODEL       28
REMARK 921   NORMALIZED FREE ENERGY PREDICTED BY IDOCK:   -3.40 KCAL/MOL
REMARK 922        TOTAL FREE ENERGY PREDICTED BY IDOCK:   -7.39 KCAL/MOL
REMARK 923 INTER-LIGAND FREE ENERGY PREDICTED BY IDOCK:   -6.99 KCAL/MOL
REMARK 924 INTRA-LIGAND FREE ENERGY PREDICTED BY IDOCK:   -0.40 KCAL/MOL
REMARK 927      BINDING AFFINITY PREDICTED BY RF-SCORE:    0.00 PKD
ROOT
HETATM    1  C   UNL     1     -14.405   6.896  71.920  1.00  0.00    -0.365 C  
HETATM    2  C   UNL     1     -13.084   7.393  71.373  1.00  0.00    -0.401 C  
ENDROOT
BRANCH   2   3
HETATM    3  C   UNL     1     -12.240   8.072  72.458  1.00  0.00    -0.294 C  
BRANCH   3   4
HETATM    4  C   UNL     1     -10.811   7.545  72.428  1.00  0.00    -0.323 C  
BRANCH   4   5
HETATM    5  C   UNL     1     -10.637   6.300  73.286  1.00  0.00    -0.284 C  
BRANCH   5   6
HETATM    6  C   UNL     1     -11.140   5.075  72.532  1.00  0.00    -0.150 C  
BRANCH   6   7
HETATM    7  O   UNL     1     -10.105   4.634  71.667  1.00  0.00    -0.188 OA 
BRANCH   7   8
HETATM    8  C   UNL     1      -8.821   4.479  72.298  1.00  0.00    -0.121 C  
HETATM    9  C   UNL     1      -8.652   3.054  72.823  1.00  0.00    -0.083 C  
BRANCH   8  10
HETATM   10  C   UNL     1      -7.733   4.830  71.286  1.00  0.00    -0.083 A  
HETATM   11  C   UNL     1      -7.846   5.829  70.282  1.00  0.00    -0.100 A  
HETATM   12  C   UNL     1      -5.447   4.362  70.528  1.00  0.00    -0.011 A  
HETATM   13  C   UNL     1      -6.752   6.084  69.404  1.00  0.00    -0.060 A  
HETATM   14  C   UNL     1      -5.578   5.317  69.531  1.00  0.00    -0.012 A  
HETATM   15  C   UNL     1      -6.507   4.134  71.395  1.00  0.00    -0.019 A  
BRANCH  11  16
HETATM   16  O   UNL     1      -8.917   6.686  70.188  1.00  0.00    -0.150 OA 
HETATM   17  C   UNL     1      -9.875   6.441  69.166  1.00  0.00    -0.140 C  
ENDBRANCH  11  16
BRANCH  13  18
HETATM   18  C   UNL     1      -6.746   7.091  68.331  1.00  0.00    -0.064 A  
HETATM   19  C   UNL     1      -6.574   6.843  66.983  1.00  0.00    -0.047 A  
HETATM   20  S   UNL     1      -6.625   8.322  66.094  1.00  0.00    -0.050 SA 
HETATM   21  C   UNL     1      -7.004   9.152  67.535  1.00  0.00    -0.078 A  
HETATM   22  N   UNL     1      -7.019   8.426  68.621  1.00  0.00    -0.067 NA 
BRANCH  21  23
HETATM   23  N   UNL     1      -7.234  10.505  67.392  1.00  0.00    -0.090 N  
HETATM   24  C   UNL     1      -8.351  10.944  66.705  1.00  0.00    -0.143 C  
HETATM   25  H   UNL     1      -6.582  11.179  67.792  1.00  0.00     0.000 HD 
HETATM   26  O   UNL     1      -9.132  10.240  66.071  1.00  0.00    -0.153 OA 
BRANCH  24  27
HETATM   27  C   UNL     1      -8.664  12.401  66.723  1.00  0.00    -0.160 A  
HETATM   28  C   UNL     1      -9.904  12.961  66.429  1.00  0.00    -0.268 A  
HETATM   29  C   UNL     1     -10.092  14.355  66.564  1.00  0.00    -0.276 A  
HETATM   30  C   UNL     1      -9.053  15.243  66.964  1.00  0.00    -0.245 A  
HETATM   31 CL   UNL     1     -11.690  14.934  66.191  1.00  0.00    -0.247 Cl 
HETATM   32  C   UNL     1      -7.623  13.259  67.104  1.00  0.00     0.014 A  
HETATM   33  C   UNL     1      -7.794  14.651  67.174  1.00  0.00    -0.124 A  
HETATM   34 CL   UNL     1      -6.336  15.554  67.402  1.00  0.00    -0.162 Cl 
BRANCH  30  35
HETATM   35  C   UNL     1      -9.322  16.715  67.024  1.00  0.00    -0.236 C  
HETATM   36  C   UNL     1     -10.049  17.472  67.880  1.00  0.00    -0.330 C  
HETATM   37  C   UNL     1     -10.162  18.952  67.675  1.00  0.00    -0.394 C  
HETATM   38  C   UNL     1     -10.775  17.043  69.125  1.00  0.00    -0.253 C  
HETATM   39  O   UNL     1     -10.201  19.343  66.385  1.00  0.00    -0.389 OA 
HETATM   40  O   UNL     1     -10.283  19.742  68.598  1.00  0.00    -0.445 OA 
ENDBRANCH  30  35
ENDBRANCH  24  27
ENDBRANCH  21  23
ENDBRANCH  13  18
ENDBRANCH   8  10
ENDBRANCH   7   8
ENDBRANCH   6   7
ENDBRANCH   5   6
ENDBRANCH   4   5
ENDBRANCH   3   4
ENDBRANCH   2   3
TORSDOF 12
ENDMDL
MODEL       29
REMARK 921   NORMALIZED FREE ENERGY PREDICTED BY IDOCK:   -3.39 KCAL/MOL
REMARK 922        TOTAL FREE ENERGY PREDICTED BY IDOCK:   -7.37 KCAL/MOL
REMARK 923 INTER-LIGAND FREE ENERGY PREDICTED BY IDOCK:   -7.93 KCAL/MOL
REMARK 924 INTRA-LIGAND FREE ENERGY PREDICTED BY IDOCK:    0.56 KCAL/MOL
REMARK 927      BINDING AFFINITY PREDICTED BY RF-SCORE:    0.00 PKD
ROOT
HETATM    1  C   UNL     1     -12.089  13.734  66.705  1.00  0.00    -0.460 C  
HETATM    2  C   UNL     1     -12.847  13.571  65.406  1.00  0.00    -0.420 C  
ENDROOT
BRANCH   2   3
HETATM    3  C   UNL     1     -12.110  14.229  64.233  1.00  0.00    -0.467 C  
BRANCH   3   4
HETATM    4  C   UNL     1     -10.848  14.927  64.722  1.00  0.00    -0.382 C  
BRANCH   4   5
HETATM    5  C   UNL     1     -10.985  16.442  64.712  1.00  0.00    -0.246 C  
BRANCH   5   6
HETATM    6  C   UNL     1     -10.173  17.045  65.852  1.00  0.00    -0.296 C  
BRANCH   6   7
HETATM    7  O   UNL     1     -10.227  18.458  65.733  1.00  0.00    -0.571 OA 
BRANCH   7   8
HETATM    8  C   UNL     1      -9.342  19.169  66.619  1.00  0.00    -0.337 C  
HETATM    9  C   UNL     1     -10.045  19.477  67.941  1.00  0.00    -0.531 C  
BRANCH   8  10
HETATM   10  C   UNL     1      -8.089  18.326  66.839  1.00  0.00    -0.259 A  
HETATM   11  C   UNL     1      -7.911  17.387  67.891  1.00  0.00    -0.218 A  
HETATM   12  C   UNL     1      -5.859  17.756  65.988  1.00  0.00    -0.241 A  
HETATM   13  C   UNL     1      -6.701  16.639  67.982  1.00  0.00    -0.152 A  
HETATM   14  C   UNL     1      -5.683  16.866  67.037  1.00  0.00    -0.205 A  
HETATM   15  C   UNL     1      -7.049  18.464  65.890  1.00  0.00    -0.290 A  
BRANCH  11  16
HETATM   16  O   UNL     1      -8.911  17.040  68.767  1.00  0.00    -0.266 OA 
HETATM   17  C   UNL     1      -9.542  15.778  68.588  1.00  0.00    -0.207 C  
ENDBRANCH  11  16
BRANCH  13  18
HETATM   18  C   UNL     1      -6.402  15.640  69.019  1.00  0.00    -0.123 A  
HETATM   19  C   UNL     1      -5.906  15.901  70.282  1.00  0.00    -0.122 A  
HETATM   20  S   UNL     1      -5.696  14.426  71.155  1.00  0.00    -0.158 SA 
HETATM   21  C   UNL     1      -6.399  13.578  69.854  1.00  0.00    -0.071 A  
HETATM   22  N   UNL     1      -6.704  14.297  68.806  1.00  0.00    -0.089 NA 
BRANCH  21  23
HETATM   23  N   UNL     1      -6.551  12.220  70.049  1.00  0.00    -0.360 N  
HETATM   24  C   UNL     1      -7.341  11.485  69.185  1.00  0.00    -0.057 C  
HETATM   25  H   UNL     1      -6.082  11.761  70.829  1.00  0.00     0.000 HD 
HETATM   26  O   UNL     1      -8.056  11.939  68.296  1.00  0.00    -0.141 OA 
BRANCH  24  27
HETATM   27  C   UNL     1      -7.340  10.001  69.318  1.00  0.00    -0.091 A  
HETATM   28  C   UNL     1      -6.363   9.253  69.971  1.00  0.00    -0.044 A  
HETATM   29  C   UNL     1      -6.522   7.854  70.098  1.00  0.00    -0.037 A  
HETATM   30  C   UNL     1      -7.635   7.147  69.559  1.00  0.00    -0.101 A  
HETATM   31 CL   UNL     1      -5.249   7.032  70.954  1.00  0.00    -0.023 Cl 
HETATM   32  C   UNL     1      -8.435   9.322  68.766  1.00  0.00    -0.129 A  
HETATM   33  C   UNL     1      -8.557   7.925  68.836  1.00  0.00    -0.132 A  
HETATM   34 CL   UNL     1      -9.831   7.255  67.875  1.00  0.00    -0.160 Cl 
BRANCH  30  35
HETATM   35  C   UNL     1      -7.694   5.656  69.688  1.00  0.00    -0.083 C  
HETATM   36  C   UNL     1      -8.369   4.843  70.535  1.00  0.00    -0.098 C  
HETATM   37  C   UNL     1      -8.213   3.355  70.443  1.00  0.00    -0.052 C  
HETATM   38  C   UNL     1      -9.361   5.217  71.601  1.00  0.00    -0.183 C  
HETATM   39  O   UNL     1      -6.978   2.936  70.104  1.00  0.00    -0.033 OA 
HETATM   40  O   UNL     1      -9.111   2.576  70.723  1.00  0.00    -0.094 OA 
ENDBRANCH  30  35
ENDBRANCH  24  27
ENDBRANCH  21  23
ENDBRANCH  13  18
ENDBRANCH   8  10
ENDBRANCH   7   8
ENDBRANCH   6   7
ENDBRANCH   5   6
ENDBRANCH   4   5
ENDBRANCH   3   4
ENDBRANCH   2   3
TORSDOF 12
ENDMDL
MODEL       30
REMARK 921   NORMALIZED FREE ENERGY PREDICTED BY IDOCK:   -3.39 KCAL/MOL
REMARK 922        TOTAL FREE ENERGY PREDICTED BY IDOCK:   -7.36 KCAL/MOL
REMARK 923 INTER-LIGAND FREE ENERGY PREDICTED BY IDOCK:   -7.17 KCAL/MOL
REMARK 924 INTRA-LIGAND FREE ENERGY PREDICTED BY IDOCK:   -0.19 KCAL/MOL
REMARK 927      BINDING AFFINITY PREDICTED BY RF-SCORE:    0.00 PKD
ROOT
HETATM    1  C   UNL     1      -8.688  18.543  69.149  1.00  0.00     0.054 C  
HETATM    2  C   UNL     1      -8.198  17.801  67.925  1.00  0.00    -0.237 C  
ENDROOT
BRANCH   2   3
HETATM    3  C   UNL     1      -8.892  16.443  67.769  1.00  0.00    -0.189 C  
BRANCH   3   4
HETATM    4  C   UNL     1      -9.912  16.493  66.639  1.00  0.00    -0.284 C  
BRANCH   4   5
HETATM    5  C   UNL     1     -11.330  16.240  67.129  1.00  0.00     0.219 C  
BRANCH   5   6
HETATM    6  C   UNL     1     -11.650  14.753  67.051  1.00  0.00    -0.339 C  
BRANCH   6   7
HETATM    7  O   UNL     1     -12.426  14.407  68.187  1.00  0.00    -0.075 OA 
BRANCH   7   8
HETATM    8  C   UNL     1     -11.745  14.553  69.447  1.00  0.00    -0.318 C  
HETATM    9  C   UNL     1     -11.980  15.949  70.021  1.00  0.00    -0.297 C  
BRANCH   8  10
HETATM   10  C   UNL     1     -12.241  13.469  70.400  1.00  0.00    -0.426 A  
HETATM   11  C   UNL     1     -11.904  12.091  70.314  1.00  0.00    -0.270 A  
HETATM   12  C   UNL     1     -13.578  12.991  72.401  1.00  0.00    -0.628 A  
HETATM   13  C   UNL     1     -12.412  11.171  71.278  1.00  0.00    -0.466 A  
HETATM   14  C   UNL     1     -13.269  11.644  72.290  1.00  0.00    -0.120 A  
HETATM   15  C   UNL     1     -13.061  13.886  71.474  1.00  0.00    -0.441 A  
BRANCH  11  16
HETATM   16  O   UNL     1     -10.981  11.595  69.424  1.00  0.00    -0.223 OA 
HETATM   17  C   UNL     1     -11.444  11.209  68.136  1.00  0.00    -0.303 C  
ENDBRANCH  11  16
BRANCH  13  18
HETATM   18  C   UNL     1     -12.132   9.727  71.297  1.00  0.00    -0.382 A  
HETATM   19  C   UNL     1     -12.722   8.795  72.130  1.00  0.00    -0.400 A  
HETATM   20  S   UNL     1     -12.078   7.225  71.814  1.00  0.00    -0.334 SA 
HETATM   21  C   UNL     1     -11.178   7.875  70.519  1.00  0.00    -0.253 A  
HETATM   22  N   UNL     1     -11.266   9.169  70.360  1.00  0.00    -0.247 NA 
BRANCH  21  23
HETATM   23  N   UNL     1     -10.443   6.959  69.796  1.00  0.00    -0.209 N  
HETATM   24  C   UNL     1     -10.707   6.773  68.451  1.00  0.00    -0.232 C  
HETATM   25  H   UNL     1      -9.707   6.421  70.251  1.00  0.00     0.000 HD 
HETATM   26  O   UNL     1     -11.644   7.260  67.825  1.00  0.00     0.471 OA 
BRANCH  24  27
HETATM   27  C   UNL     1      -9.780   5.913  67.662  1.00  0.00    -0.122 A  
HETATM   28  C   UNL     1      -9.496   4.577  67.934  1.00  0.00    -0.200 A  
HETATM   29  C   UNL     1      -8.661   3.847  67.058  1.00  0.00    -0.106 A  
HETATM   30  C   UNL     1      -8.058   4.421  65.903  1.00  0.00    -0.102 A  
HETATM   31 CL   UNL     1      -8.398   2.182  67.491  1.00  0.00    -0.075 Cl 
HETATM   32  C   UNL     1      -9.184   6.501  66.538  1.00  0.00    -0.179 A  
HETATM   33  C   UNL     1      -8.302   5.792  65.707  1.00  0.00    -0.134 A  
HETATM   34 CL   UNL     1      -7.469   6.756  64.536  1.00  0.00    -0.091 Cl 
BRANCH  30  35
HETATM   35  C   UNL     1      -7.137   3.590  65.062  1.00  0.00    -0.065 C  
HETATM   36  C   UNL     1      -7.371   2.612  64.155  1.00  0.00    -0.062 C  
HETATM   37  C   UNL     1      -6.228   1.926  63.469  1.00  0.00    -0.013 C  
HETATM   38  C   UNL     1      -8.690   2.097  63.651  1.00  0.00    -0.085 C  
HETATM   39  O   UNL     1      -5.131   1.754  64.234  1.00  0.00    -0.004 OA 
HETATM   40  O   UNL     1      -6.303   1.490  62.331  1.00  0.00    -0.008 OA 
ENDBRANCH  30  35
ENDBRANCH  24  27
ENDBRANCH  21  23
ENDBRANCH  13  18
ENDBRANCH   8  10
ENDBRANCH   7   8
ENDBRANCH   6   7
ENDBRANCH   5   6
ENDBRANCH   4   5
ENDBRANCH   3   4
ENDBRANCH   2   3
TORSDOF 12
ENDMDL
MODEL       31
REMARK 921   NORMALIZED FREE ENERGY PREDICTED BY IDOCK:   -3.32 KCAL/MOL
REMARK 922        TOTAL FREE ENERGY PREDICTED BY IDOCK:   -7.25 KCAL/MOL
REMARK 923 INTER-LIGAND FREE ENERGY PREDICTED BY IDOCK:   -6.08 KCAL/MOL
REMARK 924 INTRA-LIGAND FREE ENERGY PREDICTED BY IDOCK:   -1.17 KCAL/MOL
REMARK 927      BINDING AFFINITY PREDICTED BY RF-SCORE:    0.00 PKD
ROOT
HETATM    1  C   UNL     1     -10.634   5.991  66.645  1.00  0.00    -0.312 C  
HETATM    2  C   UNL     1     -10.345   4.534  66.353  1.00  0.00    -0.194 C  
ENDROOT
BRANCH   2   3
HETATM    3  C   UNL     1     -10.108   4.291  64.858  1.00  0.00    -0.184 C  
BRANCH   3   4
HETATM    4  C   UNL     1      -9.236   3.059  64.651  1.00  0.00    -0.144 C  
BRANCH   4   5
HETATM    5  C   UNL     1      -8.413   3.143  63.373  1.00  0.00    -0.086 C  
BRANCH   5   6
HETATM    6  C   UNL     1      -8.781   4.403  62.600  1.00  0.00    -0.111 C  
BRANCH   6   7
HETATM    7  O   UNL     1      -7.827   5.406  62.911  1.00  0.00    -0.071 OA 
BRANCH   7   8
HETATM    8  C   UNL     1      -6.547   4.906  63.338  1.00  0.00    -0.027 C  
HETATM    9  C   UNL     1      -5.420   5.604  62.578  1.00  0.00    -0.014 C  
BRANCH   8  10
HETATM   10  C   UNL     1      -6.416   5.119  64.844  1.00  0.00    -0.035 A  
HETATM   11  C   UNL     1      -7.010   6.185  65.572  1.00  0.00    -0.060 A  
HETATM   12  C   UNL     1      -5.491   4.239  66.940  1.00  0.00    -0.013 A  
HETATM   13  C   UNL     1      -6.835   6.269  66.984  1.00  0.00    -0.062 A  
HETATM   14  C   UNL     1      -6.049   5.300  67.636  1.00  0.00    -0.030 A  
HETATM   15  C   UNL     1      -5.684   4.148  65.568  1.00  0.00    -0.022 A  
BRANCH  11  16
HETATM   16  O   UNL     1      -7.882   7.087  65.009  1.00  0.00    -0.111 OA 
HETATM   17  C   UNL     1      -7.331   8.220  64.349  1.00  0.00    -0.092 C  
ENDBRANCH  11  16
BRANCH  13  18
HETATM   18  C   UNL     1      -7.402   7.320  67.844  1.00  0.00    -0.097 A  
HETATM   19  C   UNL     1      -7.924   7.140  69.111  1.00  0.00    -0.119 A  
HETATM   20  S   UNL     1      -8.488   8.646  69.740  1.00  0.00    -0.133 SA 
HETATM   21  C   UNL     1      -7.879   9.432  68.355  1.00  0.00    -0.090 A  
HETATM   22  N   UNL     1      -7.362   8.653  67.442  1.00  0.00    -0.088 NA 
BRANCH  21  23
HETATM   23  N   UNL     1      -8.017  10.804  68.348  1.00  0.00    -0.117 N  
HETATM   24  C   UNL     1      -9.125  11.381  67.752  1.00  0.00    -0.158 C  
HETATM   25  H   UNL     1      -7.305  11.392  68.780  1.00  0.00     0.000 HD 
HETATM   26  O   UNL     1      -9.976  10.795  67.090  1.00  0.00    -0.184 OA 
BRANCH  24  27
HETATM   27  C   UNL     1      -9.332  12.847  67.919  1.00  0.00    -0.208 A  
HETATM   28  C   UNL     1     -10.473  13.443  68.449  1.00  0.00    -0.257 A  
HETATM   29  C   UNL     1     -10.511  14.844  68.631  1.00  0.00    -0.242 A  
HETATM   30  C   UNL     1      -9.435  15.703  68.267  1.00  0.00    -0.200 A  
HETATM   31 CL   UNL     1     -11.981  15.469  69.323  1.00  0.00    -0.358 Cl 
HETATM   32  C   UNL     1      -8.268  13.677  67.540  1.00  0.00    -0.189 A  
HETATM   33  C   UNL     1      -8.334  15.074  67.660  1.00  0.00    -0.164 A  
HETATM   34 CL   UNL     1      -7.039  15.934  66.899  1.00  0.00    -0.201 Cl 
BRANCH  30  35
HETATM   35  C   UNL     1      -9.584  17.184  68.438  1.00  0.00    -0.281 C  
HETATM   36  C   UNL     1      -9.842  18.179  67.557  1.00  0.00    -0.317 C  
HETATM   37  C   UNL     1      -9.912  19.603  68.021  1.00  0.00    -0.427 C  
HETATM   38  C   UNL     1     -10.142  18.075  66.088  1.00  0.00    -0.334 C  
HETATM   39  O   UNL     1      -9.052  19.918  69.010  1.00  0.00    -0.165 OA 
HETATM   40  O   UNL     1     -10.637  20.435  67.499  1.00  0.00    -0.181 OA 
ENDBRANCH  30  35
ENDBRANCH  24  27
ENDBRANCH  21  23
ENDBRANCH  13  18
ENDBRANCH   8  10
ENDBRANCH   7   8
ENDBRANCH   6   7
ENDBRANCH   5   6
ENDBRANCH   4   5
ENDBRANCH   3   4
ENDBRANCH   2   3
TORSDOF 12
ENDMDL
MODEL       32
REMARK 921   NORMALIZED FREE ENERGY PREDICTED BY IDOCK:   -3.21 KCAL/MOL
REMARK 922        TOTAL FREE ENERGY PREDICTED BY IDOCK:   -7.06 KCAL/MOL
REMARK 923 INTER-LIGAND FREE ENERGY PREDICTED BY IDOCK:   -7.54 KCAL/MOL
REMARK 924 INTRA-LIGAND FREE ENERGY PREDICTED BY IDOCK:    0.48 KCAL/MOL
REMARK 927      BINDING AFFINITY PREDICTED BY RF-SCORE:    0.00 PKD
ROOT
HETATM    1  C   UNL     1     -12.035  12.675  66.288  1.00  0.00    -0.439 C  
HETATM    2  C   UNL     1     -12.554  13.980  65.724  1.00  0.00    -0.512 C  
ENDROOT
BRANCH   2   3
HETATM    3  C   UNL     1     -11.891  14.323  64.384  1.00  0.00    -0.444 C  
BRANCH   3   4
HETATM    4  C   UNL     1     -10.624  15.138  64.610  1.00  0.00    -0.167 C  
BRANCH   4   5
HETATM    5  C   UNL     1     -10.872  16.358  65.486  1.00  0.00    -0.224 C  
BRANCH   5   6
HETATM    6  C   UNL     1      -9.569  16.805  66.136  1.00  0.00    -0.274 C  
BRANCH   6   7
HETATM    7  O   UNL     1      -9.851  17.913  66.976  1.00  0.00    -0.290 OA 
BRANCH   7   8
HETATM    8  C   UNL     1      -9.648  17.670  68.380  1.00  0.00    -0.310 C  
HETATM    9  C   UNL     1     -10.837  16.909  68.967  1.00  0.00    -0.255 C  
BRANCH   8  10
HETATM   10  C   UNL     1      -8.347  16.892  68.558  1.00  0.00    -0.257 A  
HETATM   11  C   UNL     1      -8.206  15.489  68.387  1.00  0.00    -0.145 A  
HETATM   12  C   UNL     1      -5.951  17.045  69.067  1.00  0.00    -0.172 A  
HETATM   13  C   UNL     1      -6.931  14.874  68.561  1.00  0.00    -0.107 A  
HETATM   14  C   UNL     1      -5.831  15.671  68.928  1.00  0.00    -0.103 A  
HETATM   15  C   UNL     1      -7.190  17.642  68.873  1.00  0.00    -0.256 A  
BRANCH  11  16
HETATM   16  O   UNL     1      -9.213  14.682  67.914  1.00  0.00    -0.189 OA 
HETATM   17  C   UNL     1     -10.064  14.056  68.866  1.00  0.00    -0.126 C  
ENDBRANCH  11  16
BRANCH  13  18
HETATM   18  C   UNL     1      -6.659  13.436  68.407  1.00  0.00    -0.094 A  
HETATM   19  C   UNL     1      -5.758  12.869  67.526  1.00  0.00    -0.099 A  
HETATM   20  S   UNL     1      -5.780  11.149  67.679  1.00  0.00    -0.047 SA 
HETATM   21  C   UNL     1      -6.870  11.298  68.982  1.00  0.00    -0.099 A  
HETATM   22  N   UNL     1      -7.267  12.513  69.253  1.00  0.00     0.072 NA 
BRANCH  21  23
HETATM   23  N   UNL     1      -7.224  10.112  69.592  1.00  0.00    -0.109 N  
HETATM   24  C   UNL     1      -8.554   9.737  69.647  1.00  0.00    -0.191 C  
HETATM   25  H   UNL     1      -6.507   9.514  70.001  1.00  0.00     0.000 HD 
HETATM   26  O   UNL     1      -9.513  10.425  69.311  1.00  0.00    -0.201 OA 
BRANCH  24  27
HETATM   27  C   UNL     1      -8.882   8.373  70.150  1.00  0.00    -0.141 A  
HETATM   28  C   UNL     1      -7.987   7.309  70.230  1.00  0.00    -0.115 A  
HETATM   29  C   UNL     1      -8.404   6.087  70.806  1.00  0.00    -0.126 A  
HETATM   30  C   UNL     1      -9.724   5.868  71.292  1.00  0.00    -0.206 A  
HETATM   31 CL   UNL     1      -7.191   4.840  70.872  1.00  0.00    -0.053 Cl 
HETATM   32  C   UNL     1     -10.191   8.173  70.609  1.00  0.00    -0.211 A  
HETATM   33  C   UNL     1     -10.621   6.938  71.119  1.00  0.00    -0.222 A  
HETATM   34 CL   UNL     1     -12.326   6.812  71.385  1.00  0.00    -0.410 Cl 
BRANCH  30  35
HETATM   35  C   UNL     1     -10.098   4.522  71.832  1.00  0.00    -0.258 C  
HETATM   36  C   UNL     1     -10.458   4.107  73.070  1.00  0.00    -0.247 C  
HETATM   37  C   UNL     1     -10.760   2.662  73.328  1.00  0.00    -0.175 C  
HETATM   38  C   UNL     1     -10.667   4.931  74.310  1.00  0.00    -0.250 C  
HETATM   39  O   UNL     1     -10.005   1.793  72.626  1.00  0.00    -0.099 OA 
HETATM   40  O   UNL     1     -11.574   2.293  74.160  1.00  0.00     0.009 OA 
ENDBRANCH  30  35
ENDBRANCH  24  27
ENDBRANCH  21  23
ENDBRANCH  13  18
ENDBRANCH   8  10
ENDBRANCH   7   8
ENDBRANCH   6   7
ENDBRANCH   5   6
ENDBRANCH   4   5
ENDBRANCH   3   4
ENDBRANCH   2   3
TORSDOF 12
ENDMDL
MODEL       33
REMARK 921   NORMALIZED FREE ENERGY PREDICTED BY IDOCK:   -3.19 KCAL/MOL
REMARK 922        TOTAL FREE ENERGY PREDICTED BY IDOCK:   -7.03 KCAL/MOL
REMARK 923 INTER-LIGAND FREE ENERGY PREDICTED BY IDOCK:   -7.72 KCAL/MOL
REMARK 924 INTRA-LIGAND FREE ENERGY PREDICTED BY IDOCK:    0.70 KCAL/MOL
REMARK 927      BINDING AFFINITY PREDICTED BY RF-SCORE:    0.00 PKD
ROOT
HETATM    1  C   UNL     1      -9.943  15.883  69.297  1.00  0.00    -0.254 C  
HETATM    2  C   UNL     1     -11.001  16.806  68.734  1.00  0.00    -0.275 C  
ENDROOT
BRANCH   2   3
HETATM    3  C   UNL     1     -10.406  18.148  68.291  1.00  0.00    -0.377 C  
BRANCH   3   4
HETATM    4  C   UNL     1     -10.045  18.107  66.811  1.00  0.00    -0.367 C  
BRANCH   4   5
HETATM    5  C   UNL     1      -8.567  17.828  66.585  1.00  0.00    -0.280 C  
BRANCH   5   6
HETATM    6  C   UNL     1      -8.363  16.362  66.227  1.00  0.00    -0.327 C  
BRANCH   6   7
HETATM    7  O   UNL     1      -9.177  16.063  65.104  1.00  0.00    -0.000 OA 
BRANCH   7   8
HETATM    8  C   UNL     1     -10.553  15.780  65.417  1.00  0.00    -0.421 C  
HETATM    9  C   UNL     1     -11.474  16.796  64.743  1.00  0.00     0.318 C  
BRANCH   8  10
HETATM   10  C   UNL     1     -10.873  14.356  64.971  1.00  0.00    -0.420 A  
HETATM   11  C   UNL     1     -10.168  13.193  65.384  1.00  0.00    -0.290 A  
HETATM   12  C   UNL     1     -12.372  12.942  63.639  1.00  0.00    -0.520 A  
HETATM   13  C   UNL     1     -10.574  11.909  64.916  1.00  0.00    -0.333 A  
HETATM   14  C   UNL     1     -11.658  11.817  64.023  1.00  0.00    -0.428 A  
HETATM   15  C   UNL     1     -11.988  14.188  64.117  1.00  0.00    -0.421 A  
BRANCH  11  16
HETATM   16  O   UNL     1      -9.183  13.211  66.343  1.00  0.00    -0.218 OA 
HETATM   17  C   UNL     1      -9.583  13.182  67.707  1.00  0.00    -0.208 C  
ENDBRANCH  11  16
BRANCH  13  18
HETATM   18  C   UNL     1      -9.929  10.637  65.275  1.00  0.00    -0.294 A  
HETATM   19  C   UNL     1      -9.206   9.823  64.423  1.00  0.00    -0.245 A  
HETATM   20  S   UNL     1      -8.645   8.426  65.270  1.00  0.00    -0.112 SA 
HETATM   21  C   UNL     1      -9.282   9.070  66.715  1.00  0.00    -0.157 A  
HETATM   22  N   UNL     1      -9.935  10.195  66.596  1.00  0.00    -0.206 NA 
BRANCH  21  23
HETATM   23  N   UNL     1      -9.049   8.318  67.848  1.00  0.00    -0.133 N  
HETATM   24  C   UNL     1     -10.092   7.637  68.448  1.00  0.00    -0.186 C  
HETATM   25  H   UNL     1      -8.110   8.264  68.241  1.00  0.00     0.000 HD 
HETATM   26  O   UNL     1     -11.279   7.727  68.150  1.00  0.00     0.222 OA 
BRANCH  24  27
HETATM   27  C   UNL     1      -9.774   6.694  69.558  1.00  0.00    -0.156 A  
HETATM   28  C   UNL     1      -9.446   7.066  70.859  1.00  0.00    -0.160 A  
HETATM   29  C   UNL     1      -9.246   6.070  71.842  1.00  0.00    -0.150 A  
HETATM   30  C   UNL     1      -9.334   4.677  71.563  1.00  0.00    -0.202 A  
HETATM   31 CL   UNL     1      -8.864   6.658  73.435  1.00  0.00    -0.134 Cl 
HETATM   32  C   UNL     1      -9.850   5.327  69.259  1.00  0.00    -0.256 A  
HETATM   33  C   UNL     1      -9.586   4.339  70.221  1.00  0.00    -0.199 A  
HETATM   34 CL   UNL     1      -9.473   2.728  69.601  1.00  0.00    -0.189 Cl 
BRANCH  30  35
HETATM   35  C   UNL     1      -9.048   3.687  72.652  1.00  0.00    -0.131 C  
HETATM   36  C   UNL     1      -8.047   2.792  72.825  1.00  0.00    -0.066 C  
HETATM   37  C   UNL     1      -8.031   1.896  74.027  1.00  0.00    -0.046 C  
HETATM   38  C   UNL     1      -6.832   2.567  71.969  1.00  0.00    -0.022 C  
HETATM   39  O   UNL     1      -9.247   1.490  74.445  1.00  0.00    -0.060 OA 
HETATM   40  O   UNL     1      -6.999   1.503  74.547  1.00  0.00    -0.021 OA 
ENDBRANCH  30  35
ENDBRANCH  24  27
ENDBRANCH  21  23
ENDBRANCH  13  18
ENDBRANCH   8  10
ENDBRANCH   7   8
ENDBRANCH   6   7
ENDBRANCH   5   6
ENDBRANCH   4   5
ENDBRANCH   3   4
ENDBRANCH   2   3
TORSDOF 12
ENDMDL
MODEL       34
REMARK 921   NORMALIZED FREE ENERGY PREDICTED BY IDOCK:   -3.14 KCAL/MOL
REMARK 922        TOTAL FREE ENERGY PREDICTED BY IDOCK:   -6.95 KCAL/MOL
REMARK 923 INTER-LIGAND FREE ENERGY PREDICTED BY IDOCK:   -5.85 KCAL/MOL
REMARK 924 INTRA-LIGAND FREE ENERGY PREDICTED BY IDOCK:   -1.10 KCAL/MOL
REMARK 927      BINDING AFFINITY PREDICTED BY RF-SCORE:    0.00 PKD
ROOT
HETATM    1  C   UNL     1     -11.638   6.670  70.040  1.00  0.00    -0.423 C  
HETATM    2  C   UNL     1     -11.888   6.008  71.378  1.00  0.00    -0.042 C  
ENDROOT
BRANCH   2   3
HETATM    3  C   UNL     1     -10.588   5.492  72.007  1.00  0.00    -0.284 C  
BRANCH   3   4
HETATM    4  C   UNL     1      -9.674   4.909  70.937  1.00  0.00    -0.264 C  
BRANCH   4   5
HETATM    5  C   UNL     1      -9.708   3.387  70.917  1.00  0.00    -0.200 C  
BRANCH   5   6
HETATM    6  C   UNL     1      -8.894   2.865  69.740  1.00  0.00    -0.086 C  
BRANCH   6   7
HETATM    7  O   UNL     1      -7.602   2.518  70.214  1.00  0.00    -0.043 OA 
BRANCH   7   8
HETATM    8  C   UNL     1      -6.565   2.557  69.217  1.00  0.00    -0.033 C  
HETATM    9  C   UNL     1      -6.866   1.564  68.096  1.00  0.00    -0.032 C  
BRANCH   8  10
HETATM   10  C   UNL     1      -6.454   3.982  68.682  1.00  0.00    -0.037 A  
HETATM   11  C   UNL     1      -6.399   5.153  69.486  1.00  0.00    -0.034 A  
HETATM   12  C   UNL     1      -6.252   5.381  66.676  1.00  0.00    -0.035 A  
HETATM   13  C   UNL     1      -6.274   6.434  68.872  1.00  0.00    -0.033 A  
HETATM   14  C   UNL     1      -6.232   6.519  67.468  1.00  0.00    -0.032 A  
HETATM   15  C   UNL     1      -6.351   4.135  67.280  1.00  0.00    -0.040 A  
BRANCH  11  16
HETATM   16  O   UNL     1      -6.316   5.122  70.858  1.00  0.00    -0.022 OA 
HETATM   17  C   UNL     1      -5.193   4.473  71.440  1.00  0.00    -0.004 C  
ENDBRANCH  11  16
BRANCH  13  18
HETATM   18  C   UNL     1      -6.203   7.713  69.595  1.00  0.00    -0.031 A  
HETATM   19  C   UNL     1      -5.367   8.003  70.657  1.00  0.00    -0.022 A  
HETATM   20  S   UNL     1      -5.636   9.619  71.202  1.00  0.00    -0.076 SA 
HETATM   21  C   UNL     1      -6.731   9.850  69.915  1.00  0.00    -0.088 A  
HETATM   22  N   UNL     1      -6.960   8.802  69.169  1.00  0.00    -0.058 NA 
BRANCH  21  23
HETATM   23  N   UNL     1      -7.266  11.118  69.819  1.00  0.00    -0.354 N  
HETATM   24  C   UNL     1      -6.767  12.006  68.884  1.00  0.00    -0.093 C  
HETATM   25  H   UNL     1      -8.028  11.399  70.435  1.00  0.00     0.000 HD 
HETATM   26  O   UNL     1      -5.775  11.834  68.182  1.00  0.00    -0.046 OA 
BRANCH  24  27
HETATM   27  C   UNL     1      -7.483  13.298  68.686  1.00  0.00    -0.099 A  
HETATM   28  C   UNL     1      -8.795  13.430  68.241  1.00  0.00    -0.172 A  
HETATM   29  C   UNL     1      -9.386  14.712  68.174  1.00  0.00    -0.197 A  
HETATM   30  C   UNL     1      -8.689  15.906  68.515  1.00  0.00    -0.194 A  
HETATM   31 CL   UNL     1     -11.038  14.747  67.625  1.00  0.00    -0.297 Cl 
HETATM   32  C   UNL     1      -6.774  14.463  69.012  1.00  0.00    -0.107 A  
HETATM   33  C   UNL     1      -7.341  15.740  68.882  1.00  0.00    -0.162 A  
HETATM   34 CL   UNL     1      -6.233  17.055  69.078  1.00  0.00    -0.178 Cl 
BRANCH  30  35
HETATM   35  C   UNL     1      -9.373  17.230  68.358  1.00  0.00    -0.275 C  
HETATM   36  C   UNL     1      -9.145  18.278  67.530  1.00  0.00    -0.256 C  
HETATM   37  C   UNL     1      -9.994  19.509  67.615  1.00  0.00    -0.383 C  
HETATM   38  C   UNL     1      -8.133  18.396  66.425  1.00  0.00    -0.285 C  
HETATM   39  O   UNL     1     -10.396  19.835  68.860  1.00  0.00    -0.396 OA 
HETATM   40  O   UNL     1     -10.247  20.208  66.646  1.00  0.00    -0.442 OA 
ENDBRANCH  30  35
ENDBRANCH  24  27
ENDBRANCH  21  23
ENDBRANCH  13  18
ENDBRANCH   8  10
ENDBRANCH   7   8
ENDBRANCH   6   7
ENDBRANCH   5   6
ENDBRANCH   4   5
ENDBRANCH   3   4
ENDBRANCH   2   3
TORSDOF 12
ENDMDL
MODEL       35
REMARK 921   NORMALIZED FREE ENERGY PREDICTED BY IDOCK:   -3.03 KCAL/MOL
REMARK 922        TOTAL FREE ENERGY PREDICTED BY IDOCK:   -6.75 KCAL/MOL
REMARK 923 INTER-LIGAND FREE ENERGY PREDICTED BY IDOCK:   -6.82 KCAL/MOL
REMARK 924 INTRA-LIGAND FREE ENERGY PREDICTED BY IDOCK:    0.06 KCAL/MOL
REMARK 927      BINDING AFFINITY PREDICTED BY RF-SCORE:    0.00 PKD
ROOT
HETATM    1  C   UNL     1     -11.654   6.743  69.842  1.00  0.00    -0.326 C  
HETATM    2  C   UNL     1     -10.983   6.164  71.068  1.00  0.00    -0.354 C  
ENDROOT
BRANCH   2   3
HETATM    3  C   UNL     1      -9.524   5.785  70.791  1.00  0.00    -0.197 C  
BRANCH   3   4
HETATM    4  C   UNL     1      -9.372   5.252  69.372  1.00  0.00    -0.172 C  
BRANCH   4   5
HETATM    5  C   UNL     1      -9.523   3.739  69.304  1.00  0.00    -0.252 C  
BRANCH   5   6
HETATM    6  C   UNL     1      -9.417   3.271  67.859  1.00  0.00    -0.164 C  
BRANCH   6   7
HETATM    7  O   UNL     1      -8.095   2.802  67.641  1.00  0.00    -0.073 OA 
BRANCH   7   8
HETATM    8  C   UNL     1      -7.760   2.571  66.261  1.00  0.00    -0.076 C  
HETATM    9  C   UNL     1      -8.714   1.548  65.644  1.00  0.00    -0.114 C  
BRANCH   8  10
HETATM   10  C   UNL     1      -7.813   3.901  65.514  1.00  0.00    -0.093 A  
HETATM   11  C   UNL     1      -7.225   5.113  65.966  1.00  0.00    -0.073 A  
HETATM   12  C   UNL     1      -8.576   5.056  63.488  1.00  0.00    -0.108 A  
HETATM   13  C   UNL     1      -7.322   6.293  65.170  1.00  0.00    -0.077 A  
HETATM   14  C   UNL     1      -8.027   6.241  63.953  1.00  0.00    -0.095 A  
HETATM   15  C   UNL     1      -8.459   3.905  64.256  1.00  0.00    -0.096 A  
BRANCH  11  16
HETATM   16  O   UNL     1      -6.427   5.194  67.082  1.00  0.00    -0.045 OA 
HETATM   17  C   UNL     1      -6.788   6.130  68.090  1.00  0.00    -0.067 C  
ENDBRANCH  11  16
BRANCH  13  18
HETATM   18  C   UNL     1      -6.753   7.602  65.527  1.00  0.00    -0.045 A  
HETATM   19  C   UNL     1      -5.444   7.846  65.899  1.00  0.00    -0.029 A  
HETATM   20  S   UNL     1      -5.227   9.523  66.243  1.00  0.00    -0.040 SA 
HETATM   21  C   UNL     1      -6.833   9.813  65.747  1.00  0.00    -0.098 A  
HETATM   22  N   UNL     1      -7.526   8.755  65.421  1.00  0.00    -0.085 NA 
BRANCH  21  23
HETATM   23  N   UNL     1      -7.224  11.136  65.762  1.00  0.00    -0.367 N  
HETATM   24  C   UNL     1      -8.361  11.510  66.456  1.00  0.00    -0.147 C  
HETATM   25  H   UNL     1      -6.676  11.837  65.264  1.00  0.00     0.000 HD 
HETATM   26  O   UNL     1      -9.169  10.749  66.981  1.00  0.00    -0.151 OA 
BRANCH  24  27
HETATM   27  C   UNL     1      -8.653  12.964  66.601  1.00  0.00     0.007 A  
HETATM   28  C   UNL     1      -7.813  13.896  67.205  1.00  0.00    -0.036 A  
HETATM   29  C   UNL     1      -8.172  15.264  67.204  1.00  0.00    -0.219 A  
HETATM   30  C   UNL     1      -9.384  15.748  66.634  1.00  0.00    -0.284 A  
HETATM   31 CL   UNL     1      -7.032  16.336  67.967  1.00  0.00    -0.132 Cl 
HETATM   32  C   UNL     1      -9.859  13.418  66.048  1.00  0.00    -0.273 A  
HETATM   33  C   UNL     1     -10.243  14.767  66.108  1.00  0.00    -0.297 A  
HETATM   34 CL   UNL     1     -11.870  15.084  65.611  1.00  0.00    -0.137 Cl 
BRANCH  30  35
HETATM   35  C   UNL     1      -9.713  17.207  66.731  1.00  0.00    -0.277 C  
HETATM   36  C   UNL     1     -10.164  17.970  67.754  1.00  0.00    -0.385 C  
HETATM   37  C   UNL     1     -10.433  19.430  67.550  1.00  0.00    -0.462 C  
HETATM   38  C   UNL     1     -10.411  17.572  69.183  1.00  0.00    -0.239 C  
HETATM   39  O   UNL     1     -10.920  19.750  66.334  1.00  0.00    -0.377 OA 
HETATM   40  O   UNL     1     -10.293  20.261  68.434  1.00  0.00    -0.361 OA 
ENDBRANCH  30  35
ENDBRANCH  24  27
ENDBRANCH  21  23
ENDBRANCH  13  18
ENDBRANCH   8  10
ENDBRANCH   7   8
ENDBRANCH   6   7
ENDBRANCH   5   6
ENDBRANCH   4   5
ENDBRANCH   3   4
ENDBRANCH   2   3
TORSDOF 12
ENDMDL
MODEL       36
REMARK 921   NORMALIZED FREE ENERGY PREDICTED BY IDOCK:   -2.29 KCAL/MOL
REMARK 922        TOTAL FREE ENERGY PREDICTED BY IDOCK:   -5.50 KCAL/MOL
REMARK 923 INTER-LIGAND FREE ENERGY PREDICTED BY IDOCK:   -6.55 KCAL/MOL
REMARK 924 INTRA-LIGAND FREE ENERGY PREDICTED BY IDOCK:    1.05 KCAL/MOL
REMARK 927      BINDING AFFINITY PREDICTED BY RF-SCORE:    0.00 PKD
ROOT
HETATM    1  C   UNL     1     -11.341   1.472  62.864  1.00  0.00    -0.264 C  
HETATM    2  C   UNL     1     -11.023   2.878  62.406  1.00  0.00    -0.139 C  
ENDROOT
BRANCH   2   3
HETATM    3  C   UNL     1     -10.629   3.782  63.581  1.00  0.00    -0.257 C  
BRANCH   3   4
HETATM    4  C   UNL     1      -9.213   4.311  63.395  1.00  0.00    -0.135 C  
BRANCH   4   5
HETATM    5  C   UNL     1      -8.158   3.281  63.771  1.00  0.00    -0.085 C  
BRANCH   5   6
HETATM    6  C   UNL     1      -8.425   2.752  65.175  1.00  0.00    -0.097 C  
BRANCH   6   7
HETATM    7  O   UNL     1      -7.456   3.310  66.048  1.00  0.00    -0.071 OA 
BRANCH   7   8
HETATM    8  C   UNL     1      -7.625   2.961  67.434  1.00  0.00    -0.065 C  
HETATM    9  C   UNL     1      -6.291   2.532  68.044  1.00  0.00    -0.029 C  
BRANCH   8  10
HETATM   10  C   UNL     1      -8.213   4.160  68.173  1.00  0.00    -0.094 A  
HETATM   11  C   UNL     1      -7.513   5.362  68.464  1.00  0.00    -0.076 A  
HETATM   12  C   UNL     1     -10.217   5.101  69.232  1.00  0.00    -0.276 A  
HETATM   13  C   UNL     1      -8.176   6.427  69.143  1.00  0.00    -0.111 A  
HETATM   14  C   UNL     1      -9.515   6.257  69.540  1.00  0.00    -0.151 A  
HETATM   15  C   UNL     1      -9.574   4.077  68.550  1.00  0.00    -0.184 A  
BRANCH  11  16
HETATM   16  O   UNL     1      -6.247   5.629  67.999  1.00  0.00    -0.033 OA 
HETATM   17  C   UNL     1      -5.239   4.650  68.219  1.00  0.00    -0.007 C  
ENDBRANCH  11  16
BRANCH  13  18
HETATM   18  C   UNL     1      -7.560   7.715  69.496  1.00  0.00    -0.098 A  
HETATM   19  C   UNL     1      -6.602   7.919  70.471  1.00  0.00    -0.037 A  
HETATM   20  S   UNL     1      -6.181   9.592  70.549  1.00  0.00    -0.081 SA 
HETATM   21  C   UNL     1      -7.190   9.889  69.207  1.00  0.00    -0.073 A  
HETATM   22  N   UNL     1      -7.863   8.861  68.764  1.00  0.00    -0.099 NA 
BRANCH  21  23
HETATM   23  N   UNL     1      -7.195  11.192  68.751  1.00  0.00    -0.090 N  
HETATM   24  C   UNL     1      -8.395  11.812  68.453  1.00  0.00    -0.153 C  
HETATM   25  H   UNL     1      -6.316  11.696  68.635  1.00  0.00     0.000 HD 
HETATM   26  O   UNL     1      -9.498  11.275  68.427  1.00  0.00    -0.179 OA 
BRANCH  24  27
HETATM   27  C   UNL     1      -8.377  13.268  68.137  1.00  0.00    -0.161 A  
HETATM   28  C   UNL     1      -7.643  14.231  68.825  1.00  0.00    -0.130 A  
HETATM   29  C   UNL     1      -7.648  15.570  68.372  1.00  0.00    -0.116 A  
HETATM   30  C   UNL     1      -8.402  16.004  67.244  1.00  0.00    -0.205 A  
HETATM   31 CL   UNL     1      -6.675  16.676  69.298  1.00  0.00    -0.213 Cl 
HETATM   32  C   UNL     1      -9.138  13.678  67.034  1.00  0.00    -0.254 A  
HETATM   33  C   UNL     1      -9.193  15.020  66.626  1.00  0.00    -0.276 A  
HETATM   34 CL   UNL     1     -10.384  15.367  65.419  1.00  0.00    -0.399 Cl 
BRANCH  30  35
HETATM   35  C   UNL     1      -8.397  17.455  66.869  1.00  0.00    -0.260 C  
HETATM   36  C   UNL     1      -9.352  18.413  66.934  1.00  0.00    -0.290 C  
HETATM   37  C   UNL     1      -9.064  19.804  66.455  1.00  0.00    -0.382 C  
HETATM   38  C   UNL     1     -10.743  18.313  67.495  1.00  0.00    -0.381 C  
HETATM   39  O   UNL     1      -8.248  19.875  65.385  1.00  0.00    -0.246 OA 
HETATM   40  O   UNL     1      -9.583  20.795  66.946  1.00  0.00    -0.353 OA 
ENDBRANCH  30  35
ENDBRANCH  24  27
ENDBRANCH  21  23
ENDBRANCH  13  18
ENDBRANCH   8  10
ENDBRANCH   7   8
ENDBRANCH   6   7
ENDBRANCH   5   6
ENDBRANCH   4   5
ENDBRANCH   3   4
ENDBRANCH   2   3
TORSDOF 12
ENDMDL
MODEL       37
REMARK 921   NORMALIZED FREE ENERGY PREDICTED BY IDOCK:   -1.88 KCAL/MOL
REMARK 922        TOTAL FREE ENERGY PREDICTED BY IDOCK:   -4.80 KCAL/MOL
REMARK 923 INTER-LIGAND FREE ENERGY PREDICTED BY IDOCK:   -6.00 KCAL/MOL
REMARK 924 INTRA-LIGAND FREE ENERGY PREDICTED BY IDOCK:    1.20 KCAL/MOL
REMARK 927      BINDING AFFINITY PREDICTED BY RF-SCORE:    0.00 PKD
ROOT
HETATM    1  C   UNL     1      -5.516   4.108  71.604  1.00  0.00    -0.007 C  
HETATM    2  C   UNL     1      -6.758   4.891  71.972  1.00  0.00    -0.047 C  
ENDROOT
BRANCH   2   3
HETATM    3  C   UNL     1      -6.441   6.029  72.949  1.00  0.00    -0.064 C  
BRANCH   3   4
HETATM    4  C   UNL     1      -6.703   5.587  74.383  1.00  0.00    -0.077 C  
BRANCH   4   5
HETATM    5  C   UNL     1      -8.097   5.005  74.563  1.00  0.00    -0.098 C  
BRANCH   5   6
HETATM    6  C   UNL     1      -9.104   5.806  73.747  1.00  0.00    -0.127 C  
BRANCH   6   7
HETATM    7  O   UNL     1      -9.787   4.911  72.885  1.00  0.00    -0.146 OA 
BRANCH   7   8
HETATM    8  C   UNL     1     -10.611   5.546  71.890  1.00  0.00    -0.234 C  
HETATM    9  C   UNL     1     -10.825   7.019  72.236  1.00  0.00    -0.262 C  
BRANCH   8  10
HETATM   10  C   UNL     1      -9.943   5.386  70.527  1.00  0.00    -0.288 A  
HETATM   11  C   UNL     1      -9.717   6.440  69.601  1.00  0.00    -0.152 A  
HETATM   12  C   UNL     1      -8.859   3.825  68.975  1.00  0.00    -0.152 A  
HETATM   13  C   UNL     1      -9.062   6.173  68.363  1.00  0.00    -0.113 A  
HETATM   14  C   UNL     1      -8.671   4.854  68.065  1.00  0.00    -0.107 A  
HETATM   15  C   UNL     1      -9.476   4.095  70.189  1.00  0.00    -0.254 A  
BRANCH  11  16
HETATM   16  O   UNL     1      -9.967   7.761  69.887  1.00  0.00    -0.186 OA 
HETATM   17  C   UNL     1      -8.926   8.519  70.490  1.00  0.00    -0.155 C  
ENDBRANCH  11  16
BRANCH  13  18
HETATM   18  C   UNL     1      -8.768   7.178  67.329  1.00  0.00    -0.120 A  
HETATM   19  C   UNL     1      -8.554   6.925  65.987  1.00  0.00    -0.145 A  
HETATM   20  S   UNL     1      -8.230   8.400  65.149  1.00  0.00    -0.161 SA 
HETATM   21  C   UNL     1      -8.531   9.262  66.590  1.00  0.00    -0.126 A  
HETATM   22  N   UNL     1      -8.777   8.534  67.646  1.00  0.00    -0.136 NA 
BRANCH  21  23
HETATM   23  N   UNL     1      -8.463  10.636  66.478  1.00  0.00    -0.139 N  
HETATM   24  C   UNL     1      -9.614  11.393  66.595  1.00  0.00    -0.191 C  
HETATM   25  H   UNL     1      -7.566  11.091  66.311  1.00  0.00     0.000 HD 
HETATM   26  O   UNL     1     -10.760  10.959  66.664  1.00  0.00    -0.255 OA 
BRANCH  24  27
HETATM   27  C   UNL     1      -9.480  12.877  66.649  1.00  0.00    -0.255 A  
HETATM   28  C   UNL     1      -9.940  13.761  65.677  1.00  0.00    -0.275 A  
HETATM   29  C   UNL     1      -9.824  15.154  65.888  1.00  0.00    -0.341 A  
HETATM   30  C   UNL     1      -9.223  15.715  67.051  1.00  0.00    -0.239 A  
HETATM   31 CL   UNL     1     -10.456  16.159  64.615  1.00  0.00     0.095 Cl 
HETATM   32  C   UNL     1      -8.870  13.408  67.794  1.00  0.00    -0.199 A  
HETATM   33  C   UNL     1      -8.697  14.790  67.971  1.00  0.00    -0.168 A  
HETATM   34 CL   UNL     1      -7.695  15.234  69.310  1.00  0.00    -0.199 Cl 
BRANCH  30  35
HETATM   35  C   UNL     1      -9.086  17.203  67.166  1.00  0.00    -0.237 C  
HETATM   36  C   UNL     1      -9.998  18.187  67.347  1.00  0.00    -0.329 C  
HETATM   37  C   UNL     1      -9.566  19.621  67.401  1.00  0.00    -0.343 C  
HETATM   38  C   UNL     1     -11.481  18.063  67.567  1.00  0.00     0.911 C  
HETATM   39  O   UNL     1      -8.536  19.932  66.590  1.00  0.00    -0.309 OA 
HETATM   40  O   UNL     1     -10.143  20.463  68.072  1.00  0.00    -0.369 OA 
ENDBRANCH  30  35
ENDBRANCH  24  27
ENDBRANCH  21  23
ENDBRANCH  13  18
ENDBRANCH   8  10
ENDBRANCH   7   8
ENDBRANCH   6   7
ENDBRANCH   5   6
ENDBRANCH   4   5
ENDBRANCH   3   4
ENDBRANCH   2   3
TORSDOF 12
ENDMDL
MODEL       38
REMARK 921   NORMALIZED FREE ENERGY PREDICTED BY IDOCK:   -1.79 KCAL/MOL
REMARK 922        TOTAL FREE ENERGY PREDICTED BY IDOCK:   -4.64 KCAL/MOL
REMARK 923 INTER-LIGAND FREE ENERGY PREDICTED BY IDOCK:   -4.73 KCAL/MOL
REMARK 924 INTRA-LIGAND FREE ENERGY PREDICTED BY IDOCK:    0.09 KCAL/MOL
REMARK 927      BINDING AFFINITY PREDICTED BY RF-SCORE:    0.00 PKD
ROOT
HETATM    1  C   UNL     1     -11.491   6.672  67.554  1.00  0.00     0.166 C  
HETATM    2  C   UNL     1     -10.708   6.970  68.814  1.00  0.00    -0.226 C  
ENDROOT
BRANCH   2   3
HETATM    3  C   UNL     1     -10.834   5.839  69.841  1.00  0.00    -0.417 C  
BRANCH   3   4
HETATM    4  C   UNL     1      -9.554   5.015  69.885  1.00  0.00    -0.246 C  
BRANCH   4   5
HETATM    5  C   UNL     1      -9.790   3.560  69.507  1.00  0.00     0.094 C  
BRANCH   5   6
HETATM    6  C   UNL     1      -9.770   3.408  67.992  1.00  0.00     0.007 C  
BRANCH   6   7
HETATM    7  O   UNL     1      -8.888   2.345  67.666  1.00  0.00    -0.108 OA 
BRANCH   7   8
HETATM    8  C   UNL     1      -7.492   2.694  67.693  1.00  0.00    -0.057 C  
HETATM    9  C   UNL     1      -6.639   1.521  67.210  1.00  0.00    -0.028 C  
BRANCH   8  10
HETATM   10  C   UNL     1      -7.279   3.931  66.825  1.00  0.00    -0.068 A  
HETATM   11  C   UNL     1      -6.963   5.227  67.316  1.00  0.00    -0.065 A  
HETATM   12  C   UNL     1      -7.192   4.805  64.534  1.00  0.00    -0.062 A  
HETATM   13  C   UNL     1      -6.766   6.306  66.404  1.00  0.00    -0.056 A  
HETATM   14  C   UNL     1      -6.915   6.072  65.024  1.00  0.00    -0.059 A  
HETATM   15  C   UNL     1      -7.359   3.753  65.424  1.00  0.00    -0.072 A  
BRANCH  11  16
HETATM   16  O   UNL     1      -6.689   5.486  68.638  1.00  0.00    -0.053 OA 
HETATM   17  C   UNL     1      -5.671   4.719  69.267  1.00  0.00    -0.016 C  
ENDBRANCH  11  16
BRANCH  13  18
HETATM   18  C   UNL     1      -6.432   7.686  66.789  1.00  0.00    -0.053 A  
HETATM   19  C   UNL     1      -5.196   8.135  67.215  1.00  0.00    -0.032 A  
HETATM   20  S   UNL     1      -5.268   9.822  67.573  1.00  0.00    -0.035 SA 
HETATM   21  C   UNL     1      -6.878   9.853  67.012  1.00  0.00    -0.083 A  
HETATM   22  N   UNL     1      -7.377   8.700  66.654  1.00  0.00    -0.081 NA 
BRANCH  21  23
HETATM   23  N   UNL     1      -7.479  11.095  67.016  1.00  0.00    -0.124 N  
HETATM   24  C   UNL     1      -8.610  11.310  67.782  1.00  0.00    -0.126 C  
HETATM   25  H   UNL     1      -7.090  11.853  66.455  1.00  0.00     0.000 HD 
HETATM   26  O   UNL     1      -9.244  10.452  68.390  1.00  0.00    -0.137 OA 
BRANCH  24  27
HETATM   27  C   UNL     1      -9.127  12.703  67.903  1.00  0.00    -0.200 A  
HETATM   28  C   UNL     1     -10.207  13.094  68.689  1.00  0.00    -0.177 A  
HETATM   29  C   UNL     1     -10.545  14.463  68.781  1.00  0.00    -0.254 A  
HETATM   30  C   UNL     1      -9.846  15.484  68.077  1.00  0.00    -0.212 A  
HETATM   31 CL   UNL     1     -11.898  14.831  69.813  1.00  0.00    -0.336 Cl 
HETATM   32  C   UNL     1      -8.435  13.691  67.188  1.00  0.00    -0.186 A  
HETATM   33  C   UNL     1      -8.814  15.042  67.230  1.00  0.00    -0.201 A  
HETATM   34 CL   UNL     1      -8.011  16.060  66.084  1.00  0.00    -0.050 Cl 
BRANCH  30  35
HETATM   35  C   UNL     1     -10.309  16.905  68.185  1.00  0.00    -0.336 C  
HETATM   36  C   UNL     1     -10.239  17.951  67.328  1.00  0.00    -0.360 C  
HETATM   37  C   UNL     1     -10.778  19.293  67.724  1.00  0.00    -0.371 C  
HETATM   38  C   UNL     1      -9.713  17.976  65.920  1.00  0.00     0.004 C  
HETATM   39  O   UNL     1     -10.621  19.603  69.026  1.00  0.00    -0.059 OA 
HETATM   40  O   UNL     1     -11.257  20.078  66.921  1.00  0.00    -0.055 OA 
ENDBRANCH  30  35
ENDBRANCH  24  27
ENDBRANCH  21  23
ENDBRANCH  13  18
ENDBRANCH   8  10
ENDBRANCH   7   8
ENDBRANCH   6   7
ENDBRANCH   5   6
ENDBRANCH   4   5
ENDBRANCH   3   4
ENDBRANCH   2   3
TORSDOF 12
ENDMDL
MODEL       39
REMARK 921   NORMALIZED FREE ENERGY PREDICTED BY IDOCK:   -1.75 KCAL/MOL
REMARK 922        TOTAL FREE ENERGY PREDICTED BY IDOCK:   -4.58 KCAL/MOL
REMARK 923 INTER-LIGAND FREE ENERGY PREDICTED BY IDOCK:   -6.64 KCAL/MOL
REMARK 924 INTRA-LIGAND FREE ENERGY PREDICTED BY IDOCK:    2.07 KCAL/MOL
REMARK 927      BINDING AFFINITY PREDICTED BY RF-SCORE:    0.00 PKD
ROOT
HETATM    1  C   UNL     1      -6.752  17.314  69.830  1.00  0.00     0.100 C  
HETATM    2  C   UNL     1      -5.963  16.173  69.225  1.00  0.00    -0.135 C  
ENDROOT
BRANCH   2   3
HETATM    3  C   UNL     1      -6.854  14.960  68.933  1.00  0.00    -0.104 C  
BRANCH   3   4
HETATM    4  C   UNL     1      -7.083  14.817  67.434  1.00  0.00    -0.173 C  
BRANCH   4   5
HETATM    5  C   UNL     1      -8.327  15.559  66.967  1.00  0.00    -0.265 C  
BRANCH   5   6
HETATM    6  C   UNL     1      -9.572  14.745  67.297  1.00  0.00    -0.223 C  
BRANCH   6   7
HETATM    7  O   UNL     1     -10.612  15.647  67.639  1.00  0.00    -0.280 OA 
BRANCH   7   8
HETATM    8  C   UNL     1     -10.455  16.287  68.919  1.00  0.00    -0.273 C  
HETATM    9  C   UNL     1     -10.948  17.732  68.856  1.00  0.00     0.477 C  
BRANCH   8  10
HETATM   10  C   UNL     1     -11.221  15.483  69.966  1.00  0.00    -0.325 A  
HETATM   11  C   UNL     1     -11.378  14.071  69.955  1.00  0.00    -0.100 A  
HETATM   12  C   UNL     1     -12.498  15.584  72.059  1.00  0.00    -0.476 A  
HETATM   13  C   UNL     1     -12.100  13.426  71.003  1.00  0.00    -0.192 A  
HETATM   14  C   UNL     1     -12.672  14.209  72.023  1.00  0.00    -0.392 A  
HETATM   15  C   UNL     1     -11.774  16.205  71.050  1.00  0.00    -0.407 A  
BRANCH  11  16
HETATM   16  O   UNL     1     -10.743  13.249  69.055  1.00  0.00    -0.214 OA 
HETATM   17  C   UNL     1     -11.438  12.911  67.861  1.00  0.00    -0.318 C  
ENDBRANCH  11  16
BRANCH  13  18
HETATM   18  C   UNL     1     -12.325  11.976  71.104  1.00  0.00    -0.177 A  
HETATM   19  C   UNL     1     -13.346  11.358  71.800  1.00  0.00    -0.264 A  
HETATM   20  S   UNL     1     -13.211   9.643  71.656  1.00  0.00    -0.424 SA 
HETATM   21  C   UNL     1     -11.904   9.855  70.581  1.00  0.00    -0.303 A  
HETATM   22  N   UNL     1     -11.523  11.090  70.388  1.00  0.00    -0.279 NA 
BRANCH  21  23
HETATM   23  N   UNL     1     -11.384   8.693  70.050  1.00  0.00    -0.448 N  
HETATM   24  C   UNL     1     -10.978   8.662  68.729  1.00  0.00     0.150 C  
HETATM   25  H   UNL     1     -11.300   7.859  70.630  1.00  0.00     0.000 HD 
HETATM   26  O   UNL     1     -11.147   9.551  67.900  1.00  0.00    -0.179 OA 
BRANCH  24  27
HETATM   27  C   UNL     1     -10.259   7.452  68.240  1.00  0.00    -0.213 A  
HETATM   28  C   UNL     1     -10.553   6.761  67.067  1.00  0.00    -0.405 A  
HETATM   29  C   UNL     1      -9.739   5.674  66.673  1.00  0.00    -0.158 A  
HETATM   30  C   UNL     1      -8.630   5.217  67.440  1.00  0.00    -0.104 A  
HETATM   31 CL   UNL     1     -10.192   4.905  65.178  1.00  0.00     0.047 Cl 
HETATM   32  C   UNL     1      -9.180   7.008  69.017  1.00  0.00    -0.137 A  
HETATM   33  C   UNL     1      -8.414   5.888  68.657  1.00  0.00    -0.111 A  
HETATM   34 CL   UNL     1      -7.305   5.343  69.868  1.00  0.00    -0.063 Cl 
BRANCH  30  35
HETATM   35  C   UNL     1      -7.857   4.019  66.978  1.00  0.00    -0.095 C  
HETATM   36  C   UNL     1      -6.924   3.857  66.011  1.00  0.00    -0.062 C  
HETATM   37  C   UNL     1      -6.327   2.507  65.751  1.00  0.00    -0.024 C  
HETATM   38  C   UNL     1      -6.307   4.900  65.120  1.00  0.00    -0.035 C  
HETATM   39  O   UNL     1      -7.177   1.474  65.910  1.00  0.00    -0.052 OA 
HETATM   40  O   UNL     1      -5.181   2.354  65.357  1.00  0.00    -0.007 OA 
ENDBRANCH  30  35
ENDBRANCH  24  27
ENDBRANCH  21  23
ENDBRANCH  13  18
ENDBRANCH   8  10
ENDBRANCH   7   8
ENDBRANCH   6   7
ENDBRANCH   5   6
ENDBRANCH   4   5
ENDBRANCH   3   4
ENDBRANCH   2   3
TORSDOF 12
ENDMDL
MODEL       40
REMARK 921   NORMALIZED FREE ENERGY PREDICTED BY IDOCK:   -1.74 KCAL/MOL
REMARK 922        TOTAL FREE ENERGY PREDICTED BY IDOCK:   -4.57 KCAL/MOL
REMARK 923 INTER-LIGAND FREE ENERGY PREDICTED BY IDOCK:   -2.96 KCAL/MOL
REMARK 924 INTRA-LIGAND FREE ENERGY PREDICTED BY IDOCK:   -1.60 KCAL/MOL
REMARK 927      BINDING AFFINITY PREDICTED BY RF-SCORE:    0.00 PKD
ROOT
HETATM    1  C   UNL     1     -11.792   2.035  63.768  1.00  0.00     1.968 C  
HETATM    2  C   UNL     1     -11.014   2.968  62.865  1.00  0.00    -0.138 C  
ENDROOT
BRANCH   2   3
HETATM    3  C   UNL     1      -9.506   2.890  63.133  1.00  0.00    -0.093 C  
BRANCH   3   4
HETATM    4  C   UNL     1      -9.176   1.657  63.964  1.00  0.00    -0.110 C  
BRANCH   4   5
HETATM    5  C   UNL     1      -8.352   1.995  65.197  1.00  0.00    -0.085 C  
BRANCH   5   6
HETATM    6  C   UNL     1      -8.460   3.484  65.503  1.00  0.00    -0.107 C  
BRANCH   6   7
HETATM    7  O   UNL     1      -7.415   3.829  66.398  1.00  0.00    -0.080 OA 
BRANCH   7   8
HETATM    8  C   UNL     1      -6.398   4.678  65.834  1.00  0.00    -0.036 C  
HETATM    9  C   UNL     1      -5.496   3.878  64.895  1.00  0.00    -0.010 C  
BRANCH   8  10
HETATM   10  C   UNL     1      -7.075   5.834  65.103  1.00  0.00    -0.064 A  
HETATM   11  C   UNL     1      -7.657   6.967  65.733  1.00  0.00    -0.094 A  
HETATM   12  C   UNL     1      -7.667   6.777  62.916  1.00  0.00    -0.102 A  
HETATM   13  C   UNL     1      -8.245   7.999  64.942  1.00  0.00    -0.137 A  
HETATM   14  C   UNL     1      -8.261   7.863  63.541  1.00  0.00    -0.009 A  
HETATM   15  C   UNL     1      -7.075   5.787  63.690  1.00  0.00    -0.051 A  
BRANCH  11  16
HETATM   16  O   UNL     1      -7.565   7.209  67.083  1.00  0.00    -0.099 OA 
HETATM   17  C   UNL     1      -8.492   6.554  67.939  1.00  0.00    -0.118 C  
ENDBRANCH  11  16
BRANCH  13  18
HETATM   18  C   UNL     1      -8.873   9.217  65.476  1.00  0.00    -0.187 A  
HETATM   19  C   UNL     1     -10.124   9.300  66.056  1.00  0.00    -0.192 A  
HETATM   20  S   UNL     1     -10.456  10.928  66.524  1.00  0.00    -0.240 SA 
HETATM   21  C   UNL     1      -8.877  11.366  66.050  1.00  0.00    -0.174 A  
HETATM   22  N   UNL     1      -8.163  10.415  65.509  1.00  0.00    -0.159 NA 
BRANCH  21  23
HETATM   23  N   UNL     1      -8.539  12.684  66.277  1.00  0.00    -0.394 N  
HETATM   24  C   UNL     1      -8.134  13.083  67.538  1.00  0.00    -0.179 C  
HETATM   25  H   UNL     1      -8.587  13.362  65.517  1.00  0.00     0.000 HD 
HETATM   26  O   UNL     1      -8.161  12.398  68.556  1.00  0.00    -0.150 OA 
BRANCH  24  27
HETATM   27  C   UNL     1      -7.607  14.467  67.705  1.00  0.00    -0.198 A  
HETATM   28  C   UNL     1      -7.831  15.524  66.827  1.00  0.00    -0.162 A  
HETATM   29  C   UNL     1      -7.342  16.812  67.143  1.00  0.00    -0.187 A  
HETATM   30  C   UNL     1      -6.591  17.089  68.321  1.00  0.00    -0.156 A  
HETATM   31 CL   UNL     1      -7.705  18.056  65.981  1.00  0.00    -0.254 Cl 
HETATM   32  C   UNL     1      -6.856  14.715  68.862  1.00  0.00    -0.104 A  
HETATM   33  C   UNL     1      -6.316  15.981  69.141  1.00  0.00    -0.151 A  
HETATM   34 CL   UNL     1      -5.208  16.023  70.470  1.00  0.00    -0.169 Cl 
BRANCH  30  35
HETATM   35  C   UNL     1      -6.059  18.471  68.548  1.00  0.00    -0.199 C  
HETATM   36  C   UNL     1      -6.322  19.401  69.497  1.00  0.00    -0.347 C  
HETATM   37  C   UNL     1      -5.642  20.736  69.460  1.00  0.00    -0.371 C  
HETATM   38  C   UNL     1      -7.217  19.286  70.700  1.00  0.00     1.192 C  
HETATM   39  O   UNL     1      -5.419  21.222  68.223  1.00  0.00    -0.311 OA 
HETATM   40  O   UNL     1      -5.372  21.371  70.467  1.00  0.00    -0.504 OA 
ENDBRANCH  30  35
ENDBRANCH  24  27
ENDBRANCH  21  23
ENDBRANCH  13  18
ENDBRANCH   8  10
ENDBRANCH   7   8
ENDBRANCH   6   7
ENDBRANCH   5   6
ENDBRANCH   4   5
ENDBRANCH   3   4
ENDBRANCH   2   3
TORSDOF 12
ENDMDL
MODEL       41
REMARK 921   NORMALIZED FREE ENERGY PREDICTED BY IDOCK:   -1.58 KCAL/MOL
REMARK 922        TOTAL FREE ENERGY PREDICTED BY IDOCK:   -4.29 KCAL/MOL
REMARK 923 INTER-LIGAND FREE ENERGY PREDICTED BY IDOCK:   -7.24 KCAL/MOL
REMARK 924 INTRA-LIGAND FREE ENERGY PREDICTED BY IDOCK:    2.96 KCAL/MOL
REMARK 927      BINDING AFFINITY PREDICTED BY RF-SCORE:    0.00 PKD
ROOT
HETATM    1  C   UNL     1      -7.803   5.394  69.224  1.00  0.00    -0.089 C  
HETATM    2  C   UNL     1      -8.262   6.074  70.496  1.00  0.00    -0.113 C  
ENDROOT
BRANCH   2   3
HETATM    3  C   UNL     1      -7.605   5.457  71.737  1.00  0.00    -0.098 C  
BRANCH   3   4
HETATM    4  C   UNL     1      -8.385   4.232  72.198  1.00  0.00    -0.103 C  
BRANCH   4   5
HETATM    5  C   UNL     1      -9.886   4.481  72.227  1.00  0.00    -0.227 C  
BRANCH   5   6
HETATM    6  C   UNL     1     -10.207   5.804  71.543  1.00  0.00    -0.203 C  
BRANCH   6   7
HETATM    7  O   UNL     1     -11.514   6.197  71.931  1.00  0.00    -0.287 OA 
BRANCH   7   8
HETATM    8  C   UNL     1     -12.016   7.363  71.254  1.00  0.00    -0.313 C  
HETATM    9  C   UNL     1     -11.597   8.632  71.995  1.00  0.00    -0.440 C  
BRANCH   8  10
HETATM   10  C   UNL     1     -11.494   7.359  69.819  1.00  0.00     0.038 A  
HETATM   11  C   UNL     1     -10.973   8.492  69.138  1.00  0.00     0.076 A  
HETATM   12  C   UNL     1     -11.046   5.990  67.833  1.00  0.00    -0.220 A  
HETATM   13  C   UNL     1     -10.493   8.362  67.801  1.00  0.00    -0.284 A  
HETATM   14  C   UNL     1     -10.569   7.108  67.166  1.00  0.00    -0.417 A  
HETATM   15  C   UNL     1     -11.490   6.117  69.142  1.00  0.00    -0.136 A  
BRANCH  11  16
HETATM   16  O   UNL     1     -10.765   9.707  69.746  1.00  0.00    -0.220 OA 
HETATM   17  C   UNL     1     -11.864  10.607  69.824  1.00  0.00    -0.304 C  
ENDBRANCH  11  16
BRANCH  13  18
HETATM   18  C   UNL     1      -9.930   9.457  66.996  1.00  0.00    -0.221 A  
HETATM   19  C   UNL     1      -9.956   9.549  65.618  1.00  0.00    -0.199 A  
HETATM   20  S   UNL     1      -9.163  10.995  65.104  1.00  0.00    -0.181 SA 
HETATM   21  C   UNL     1      -8.970  11.446  66.737  1.00  0.00    -0.176 A  
HETATM   22  N   UNL     1      -9.380  10.575  67.620  1.00  0.00    -0.148 NA 
BRANCH  21  23
HETATM   23  N   UNL     1      -8.383  12.678  66.941  1.00  0.00    -0.356 N  
HETATM   24  C   UNL     1      -9.075  13.666  67.619  1.00  0.00    -0.207 C  
HETATM   25  H   UNL     1      -7.442  12.860  66.594  1.00  0.00     0.000 HD 
HETATM   26  O   UNL     1     -10.251  13.614  67.967  1.00  0.00    -0.235 OA 
BRANCH  24  27
HETATM   27  C   UNL     1      -8.349  14.917  67.977  1.00  0.00    -0.147 A  
HETATM   28  C   UNL     1      -7.480  15.061  69.056  1.00  0.00    -0.156 A  
HETATM   29  C   UNL     1      -6.788  16.280  69.239  1.00  0.00    -0.211 A  
HETATM   30  C   UNL     1      -6.956  17.403  68.380  1.00  0.00    -0.201 A  
HETATM   31 CL   UNL     1      -5.713  16.332  70.607  1.00  0.00    -0.052 Cl 
HETATM   32  C   UNL     1      -8.540  16.016  67.129  1.00  0.00    -0.219 A  
HETATM   33  C   UNL     1      -7.902  17.247  67.351  1.00  0.00    -0.180 A  
HETATM   34 CL   UNL     1      -8.464  18.549  66.360  1.00  0.00    -0.292 Cl 
BRANCH  30  35
HETATM   35  C   UNL     1      -6.228  18.678  68.682  1.00  0.00    -0.228 C  
HETATM   36  C   UNL     1      -6.387  19.606  69.655  1.00  0.00    -0.366 C  
HETATM   37  C   UNL     1      -5.508  20.819  69.697  1.00  0.00    -0.373 C  
HETATM   38  C   UNL     1      -7.342  19.593  70.816  1.00  0.00     1.052 C  
HETATM   39  O   UNL     1      -5.156  21.304  68.490  1.00  0.00    -0.255 OA 
HETATM   40  O   UNL     1      -5.190  21.372  70.739  1.00  0.00    -0.554 OA 
ENDBRANCH  30  35
ENDBRANCH  24  27
ENDBRANCH  21  23
ENDBRANCH  13  18
ENDBRANCH   8  10
ENDBRANCH   7   8
ENDBRANCH   6   7
ENDBRANCH   5   6
ENDBRANCH   4   5
ENDBRANCH   3   4
ENDBRANCH   2   3
TORSDOF 12
ENDMDL
MODEL       42
REMARK 921   NORMALIZED FREE ENERGY PREDICTED BY IDOCK:   -1.50 KCAL/MOL
REMARK 922        TOTAL FREE ENERGY PREDICTED BY IDOCK:   -4.15 KCAL/MOL
REMARK 923 INTER-LIGAND FREE ENERGY PREDICTED BY IDOCK:   -5.21 KCAL/MOL
REMARK 924 INTRA-LIGAND FREE ENERGY PREDICTED BY IDOCK:    1.06 KCAL/MOL
REMARK 927      BINDING AFFINITY PREDICTED BY RF-SCORE:    0.00 PKD
ROOT
HETATM    1  C   UNL     1     -14.133   6.179  72.699  1.00  0.00     0.928 C  
HETATM    2  C   UNL     1     -13.281   6.393  71.467  1.00  0.00     0.318 C  
ENDROOT
BRANCH   2   3
HETATM    3  C   UNL     1     -12.142   7.386  71.730  1.00  0.00    -0.345 C  
BRANCH   3   4
HETATM    4  C   UNL     1     -10.791   6.705  71.554  1.00  0.00    -0.277 C  
BRANCH   4   5
HETATM    5  C   UNL     1     -10.690   5.409  72.346  1.00  0.00    -0.286 C  
BRANCH   5   6
HETATM    6  C   UNL     1      -9.933   4.363  71.538  1.00  0.00    -0.180 C  
BRANCH   6   7
HETATM    7  O   UNL     1      -8.573   4.391  71.943  1.00  0.00    -0.108 OA 
BRANCH   7   8
HETATM    8  C   UNL     1      -8.349   4.931  73.258  1.00  0.00    -0.104 C  
HETATM    9  C   UNL     1      -7.894   3.832  74.217  1.00  0.00    -0.078 C  
BRANCH   8  10
HETATM   10  C   UNL     1      -7.311   6.046  73.159  1.00  0.00    -0.093 A  
HETATM   11  C   UNL     1      -7.185   6.948  72.068  1.00  0.00    -0.082 A  
HETATM   12  C   UNL     1      -5.456   7.190  74.285  1.00  0.00    -0.054 A  
HETATM   13  C   UNL     1      -6.187   7.967  72.096  1.00  0.00    -0.042 A  
HETATM   14  C   UNL     1      -5.320   8.045  73.202  1.00  0.00    -0.041 A  
HETATM   15  C   UNL     1      -6.444   6.215  74.263  1.00  0.00    -0.071 A  
BRANCH  11  16
HETATM   16  O   UNL     1      -8.076   6.994  71.022  1.00  0.00    -0.103 OA 
HETATM   17  C   UNL     1      -7.716   6.335  69.814  1.00  0.00    -0.105 C  
ENDBRANCH  11  16
BRANCH  13  18
HETATM   18  C   UNL     1      -5.963   8.958  71.033  1.00  0.00    -0.045 A  
HETATM   19  C   UNL     1      -5.139   8.800  69.934  1.00  0.00    -0.029 A  
HETATM   20  S   UNL     1      -5.170  10.224  68.958  1.00  0.00    -0.034 SA 
HETATM   21  C   UNL     1      -6.364  10.878  69.985  1.00  0.00    -0.142 A  
HETATM   22  N   UNL     1      -6.678  10.153  71.025  1.00  0.00    -0.331 NA 
BRANCH  21  23
HETATM   23  N   UNL     1      -6.852  12.113  69.608  1.00  0.00    -0.341 N  
HETATM   24  C   UNL     1      -6.306  12.765  68.517  1.00  0.00    -0.075 C  
HETATM   25  H   UNL     1      -7.614  12.543  70.132  1.00  0.00     0.000 HD 
HETATM   26  O   UNL     1      -5.309  12.415  67.892  1.00  0.00    -0.065 OA 
BRANCH  24  27
HETATM   27  C   UNL     1      -6.972  14.006  68.031  1.00  0.00    -0.147 A  
HETATM   28  C   UNL     1      -6.321  15.096  67.459  1.00  0.00    -0.109 A  
HETATM   29  C   UNL     1      -7.079  16.181  66.961  1.00  0.00    -0.213 A  
HETATM   30  C   UNL     1      -8.500  16.236  67.041  1.00  0.00    -0.232 A  
HETATM   31 CL   UNL     1      -6.156  17.473  66.248  1.00  0.00    -0.250 Cl 
HETATM   32  C   UNL     1      -8.369  14.048  68.133  1.00  0.00    -0.164 A  
HETATM   33  C   UNL     1      -9.114  15.155  67.699  1.00  0.00    -0.180 A  
HETATM   34 CL   UNL     1     -10.786  15.131  68.147  1.00  0.00    -0.248 Cl 
BRANCH  30  35
HETATM   35  C   UNL     1      -9.220  17.452  66.543  1.00  0.00    -0.286 C  
HETATM   36  C   UNL     1      -9.622  18.586  67.162  1.00  0.00    -0.302 C  
HETATM   37  C   UNL     1     -10.359  19.646  66.400  1.00  0.00    -0.504 C  
HETATM   38  C   UNL     1      -9.389  19.011  68.586  1.00  0.00    -0.428 C  
HETATM   39  O   UNL     1     -11.195  19.180  65.450  1.00  0.00    -0.211 OA 
HETATM   40  O   UNL     1     -10.269  20.835  66.661  1.00  0.00    -0.145 OA 
ENDBRANCH  30  35
ENDBRANCH  24  27
ENDBRANCH  21  23
ENDBRANCH  13  18
ENDBRANCH   8  10
ENDBRANCH   7   8
ENDBRANCH   6   7
ENDBRANCH   5   6
ENDBRANCH   4   5
ENDBRANCH   3   4
ENDBRANCH   2   3
TORSDOF 12
ENDMDL
MODEL       43
REMARK 921   NORMALIZED FREE ENERGY PREDICTED BY IDOCK:   -0.91 KCAL/MOL
REMARK 922        TOTAL FREE ENERGY PREDICTED BY IDOCK:   -3.16 KCAL/MOL
REMARK 923 INTER-LIGAND FREE ENERGY PREDICTED BY IDOCK:   -6.35 KCAL/MOL
REMARK 924 INTRA-LIGAND FREE ENERGY PREDICTED BY IDOCK:    3.19 KCAL/MOL
REMARK 927      BINDING AFFINITY PREDICTED BY RF-SCORE:    0.00 PKD
ROOT
HETATM    1  C   UNL     1      -6.344  17.569  67.181  1.00  0.00    -0.184 C  
HETATM    2  C   UNL     1      -5.309  18.191  66.269  1.00  0.00    -0.201 C  
ENDROOT
BRANCH   2   3
HETATM    3  C   UNL     1      -5.144  19.691  66.539  1.00  0.00    -0.163 C  
BRANCH   3   4
HETATM    4  C   UNL     1      -6.476  20.411  66.375  1.00  0.00    -0.262 C  
BRANCH   4   5
HETATM    5  C   UNL     1      -7.662  19.466  66.498  1.00  0.00    -0.290 C  
BRANCH   5   6
HETATM    6  C   UNL     1      -8.900  20.240  66.935  1.00  0.00    -0.299 C  
BRANCH   6   7
HETATM    7  O   UNL     1      -9.737  19.357  67.667  1.00  0.00    -0.307 OA 
BRANCH   7   8
HETATM    8  C   UNL     1     -10.877  18.867  66.937  1.00  0.00    -0.267 C  
HETATM    9  C   UNL     1     -11.145  19.745  65.715  1.00  0.00    -0.077 C  
BRANCH   8  10
HETATM   10  C   UNL     1     -10.613  17.419  66.533  1.00  0.00    -0.184 A  
HETATM   11  C   UNL     1      -9.830  16.495  67.277  1.00  0.00    -0.254 A  
HETATM   12  C   UNL     1     -11.070  15.664  64.881  1.00  0.00    -0.414 A  
HETATM   13  C   UNL     1      -9.672  15.157  66.810  1.00  0.00    -0.255 A  
HETATM   14  C   UNL     1     -10.278  14.779  65.597  1.00  0.00    -0.382 A  
HETATM   15  C   UNL     1     -11.240  16.958  65.352  1.00  0.00     0.255 A  
BRANCH  11  16
HETATM   16  O   UNL     1      -9.317  16.772  68.521  1.00  0.00    -0.229 OA 
HETATM   17  C   UNL     1      -9.330  15.733  69.491  1.00  0.00    -0.238 C  
ENDBRANCH  11  16
BRANCH  13  18
HETATM   18  C   UNL     1      -8.892  14.112  67.490  1.00  0.00    -0.201 A  
HETATM   19  C   UNL     1      -7.652  14.276  68.078  1.00  0.00    -0.142 A  
HETATM   20  S   UNL     1      -7.108  12.778  68.744  1.00  0.00    -0.064 SA 
HETATM   21  C   UNL     1      -8.602  12.071  68.325  1.00  0.00    -0.174 A  
HETATM   22  N   UNL     1      -9.430  12.840  67.669  1.00  0.00    -0.184 NA 
BRANCH  21  23
HETATM   23  N   UNL     1      -8.759  10.756  68.712  1.00  0.00    -0.158 N  
HETATM   24  C   UNL     1      -8.815   9.759  67.755  1.00  0.00    -0.129 C  
HETATM   25  H   UNL     1      -8.834  10.520  69.701  1.00  0.00     0.000 HD 
HETATM   26  O   UNL     1      -8.868   9.926  66.540  1.00  0.00    -0.136 OA 
BRANCH  24  27
HETATM   27  C   UNL     1      -8.805   8.341  68.212  1.00  0.00    -0.140 A  
HETATM   28  C   UNL     1      -9.570   7.314  67.665  1.00  0.00    -0.160 A  
HETATM   29  C   UNL     1      -9.406   5.992  68.136  1.00  0.00    -0.115 A  
HETATM   30  C   UNL     1      -8.504   5.648  69.183  1.00  0.00    -0.102 A  
HETATM   31 CL   UNL     1     -10.400   4.792  67.359  1.00  0.00    -0.136 Cl 
HETATM   32  C   UNL     1      -7.923   8.025  69.255  1.00  0.00    -0.116 A  
HETATM   33  C   UNL     1      -7.810   6.723  69.766  1.00  0.00    -0.115 A  
HETATM   34 CL   UNL     1      -6.872   6.586  71.214  1.00  0.00    -0.058 Cl 
BRANCH  30  35
HETATM   35  C   UNL     1      -8.438   4.229  69.663  1.00  0.00    -0.091 C  
HETATM   36  C   UNL     1      -8.526   3.684  70.899  1.00  0.00    -0.101 C  
HETATM   37  C   UNL     1      -8.397   2.202  71.084  1.00  0.00    -0.050 C  
HETATM   38  C   UNL     1      -8.801   4.369  72.209  1.00  0.00    -0.126 C  
HETATM   39  O   UNL     1      -7.525   1.602  70.250  1.00  0.00    -0.036 OA 
HETATM   40  O   UNL     1      -8.979   1.591  71.967  1.00  0.00    -0.065 OA 
ENDBRANCH  30  35
ENDBRANCH  24  27
ENDBRANCH  21  23
ENDBRANCH  13  18
ENDBRANCH   8  10
ENDBRANCH   7   8
ENDBRANCH   6   7
ENDBRANCH   5   6
ENDBRANCH   4   5
ENDBRANCH   3   4
ENDBRANCH   2   3
TORSDOF 12
ENDMDL
MODEL       44
REMARK 921   NORMALIZED FREE ENERGY PREDICTED BY IDOCK:   -0.56 KCAL/MOL
REMARK 922        TOTAL FREE ENERGY PREDICTED BY IDOCK:   -2.55 KCAL/MOL
REMARK 923 INTER-LIGAND FREE ENERGY PREDICTED BY IDOCK:   -4.89 KCAL/MOL
REMARK 924 INTRA-LIGAND FREE ENERGY PREDICTED BY IDOCK:    2.35 KCAL/MOL
REMARK 927      BINDING AFFINITY PREDICTED BY RF-SCORE:    0.00 PKD
ROOT
HETATM    1  C   UNL     1     -10.756   4.432  67.777  1.00  0.00     1.057 C  
HETATM    2  C   UNL     1     -10.760   5.018  66.382  1.00  0.00    -0.242 C  
ENDROOT
BRANCH   2   3
HETATM    3  C   UNL     1      -9.563   4.528  65.558  1.00  0.00    -0.190 C  
BRANCH   3   4
HETATM    4  C   UNL     1      -9.180   3.111  65.967  1.00  0.00    -0.138 C  
BRANCH   4   5
HETATM    5  C   UNL     1      -8.072   3.091  67.009  1.00  0.00    -0.079 C  
BRANCH   5   6
HETATM    6  C   UNL     1      -7.717   4.515  67.418  1.00  0.00    -0.089 C  
BRANCH   6   7
HETATM    7  O   UNL     1      -6.306   4.600  67.545  1.00  0.00    -0.038 OA 
BRANCH   7   8
HETATM    8  C   UNL     1      -5.601   4.770  66.301  1.00  0.00    -0.017 C  
HETATM    9  C   UNL     1      -5.391   3.420  65.617  1.00  0.00    -0.009 C  
BRANCH   8  10
HETATM   10  C   UNL     1      -6.396   5.725  65.415  1.00  0.00    -0.041 A  
HETATM   11  C   UNL     1      -6.995   6.937  65.853  1.00  0.00    -0.064 A  
HETATM   12  C   UNL     1      -7.203   6.178  63.142  1.00  0.00    -0.056 A  
HETATM   13  C   UNL     1      -7.698   7.761  64.926  1.00  0.00    -0.110 A  
HETATM   14  C   UNL     1      -7.810   7.343  63.586  1.00  0.00    -0.108 A  
HETATM   15  C   UNL     1      -6.499   5.391  64.044  1.00  0.00    -0.029 A  
BRANCH  11  16
HETATM   16  O   UNL     1      -6.817   7.452  67.115  1.00  0.00    -0.069 OA 
HETATM   17  C   UNL     1      -5.485   7.606  67.587  1.00  0.00    -0.031 C  
ENDBRANCH  11  16
BRANCH  13  18
HETATM   18  C   UNL     1      -8.354   9.035  65.257  1.00  0.00    -0.149 A  
HETATM   19  C   UNL     1      -9.716   9.268  65.276  1.00  0.00    -0.018 A  
HETATM   20  S   UNL     1     -10.033  10.910  65.705  1.00  0.00    -0.259 SA 
HETATM   21  C   UNL     1      -8.363  11.145  65.961  1.00  0.00    -0.115 A  
HETATM   22  N   UNL     1      -7.597  10.124  65.681  1.00  0.00    -0.137 NA 
BRANCH  21  23
HETATM   23  N   UNL     1      -8.009  12.397  66.420  1.00  0.00    -0.300 N  
HETATM   24  C   UNL     1      -8.892  13.119  67.201  1.00  0.00    -0.222 C  
HETATM   25  H   UNL     1      -7.098  12.789  66.183  1.00  0.00     0.000 HD 
HETATM   26  O   UNL     1     -10.056  12.816  67.443  1.00  0.00    -0.216 OA 
BRANCH  24  27
HETATM   27  C   UNL     1      -8.411  14.384  67.826  1.00  0.00    -0.172 A  
HETATM   28  C   UNL     1      -7.145  14.580  68.371  1.00  0.00    -0.111 A  
HETATM   29  C   UNL     1      -6.783  15.856  68.859  1.00  0.00    -0.134 A  
HETATM   30  C   UNL     1      -7.671  16.970  68.852  1.00  0.00    -0.231 A  
HETATM   31 CL   UNL     1      -5.168  15.984  69.495  1.00  0.00    -0.109 Cl 
HETATM   32  C   UNL     1      -9.305  15.463  67.823  1.00  0.00    -0.195 A  
HETATM   33  C   UNL     1      -8.967  16.711  68.369  1.00  0.00    -0.223 A  
HETATM   34 CL   UNL     1     -10.282  17.827  68.510  1.00  0.00    -0.369 Cl 
BRANCH  30  35
HETATM   35  C   UNL     1      -7.226  18.272  69.445  1.00  0.00     0.002 C  
HETATM   36  C   UNL     1      -6.191  19.095  69.155  1.00  0.00    -0.298 C  
HETATM   37  C   UNL     1      -5.974  20.348  69.949  1.00  0.00    -0.348 C  
HETATM   38  C   UNL     1      -5.176  18.973  68.053  1.00  0.00    -0.173 C  
HETATM   39  O   UNL     1      -6.283  20.249  71.257  1.00  0.00    -0.532 OA 
HETATM   40  O   UNL     1      -5.488  21.360  69.470  1.00  0.00    -0.327 OA 
ENDBRANCH  30  35
ENDBRANCH  24  27
ENDBRANCH  21  23
ENDBRANCH  13  18
ENDBRANCH   8  10
ENDBRANCH   7   8
ENDBRANCH   6   7
ENDBRANCH   5   6
ENDBRANCH   4   5
ENDBRANCH   3   4
ENDBRANCH   2   3
TORSDOF 12
ENDMDL
MODEL       45
REMARK 921   NORMALIZED FREE ENERGY PREDICTED BY IDOCK:    0.20 KCAL/MOL
REMARK 922        TOTAL FREE ENERGY PREDICTED BY IDOCK:   -1.26 KCAL/MOL
REMARK 923 INTER-LIGAND FREE ENERGY PREDICTED BY IDOCK:   -4.14 KCAL/MOL
REMARK 924 INTRA-LIGAND FREE ENERGY PREDICTED BY IDOCK:    2.88 KCAL/MOL
REMARK 927      BINDING AFFINITY PREDICTED BY RF-SCORE:    0.00 PKD
ROOT
HETATM    1  C   UNL     1      -9.744  15.768  69.909  1.00  0.00    -0.089 C  
HETATM    2  C   UNL     1     -10.752  16.797  69.446  1.00  0.00    -0.300 C  
ENDROOT
BRANCH   2   3
HETATM    3  C   UNL     1     -10.192  18.221  69.537  1.00  0.00     0.295 C  
BRANCH   3   4
HETATM    4  C   UNL     1      -9.527  18.617  68.225  1.00  0.00    -0.369 C  
BRANCH   4   5
HETATM    5  C   UNL     1      -8.025  18.375  68.243  1.00  0.00    -0.317 C  
BRANCH   5   6
HETATM    6  C   UNL     1      -7.693  17.111  67.460  1.00  0.00    -0.174 C  
BRANCH   6   7
HETATM    7  O   UNL     1      -8.412  17.148  66.237  1.00  0.00    -0.304 OA 
BRANCH   7   8
HETATM    8  C   UNL     1      -9.842  17.071  66.378  1.00  0.00    -0.299 C  
HETATM    9  C   UNL     1     -10.487  18.408  66.012  1.00  0.00    -0.400 C  
BRANCH   8  10
HETATM   10  C   UNL     1     -10.362  15.942  65.492  1.00  0.00    -0.425 A  
HETATM   11  C   UNL     1     -10.036  14.568  65.647  1.00  0.00    -0.347 A  
HETATM   12  C   UNL     1     -11.809  15.359  63.598  1.00  0.00     0.776 A  
HETATM   13  C   UNL     1     -10.602  13.598  64.769  1.00  0.00    -0.436 A  
HETATM   14  C   UNL     1     -11.460  14.025  63.738  1.00  0.00     0.183 A  
HETATM   15  C   UNL     1     -11.274  16.297  64.471  1.00  0.00    -0.218 A  
BRANCH  11  16
HETATM   16  O   UNL     1      -9.303  14.082  66.704  1.00  0.00    -0.272 OA 
HETATM   17  C   UNL     1      -7.953  13.708  66.458  1.00  0.00     0.895 C  
ENDBRANCH  11  16
BRANCH  13  18
HETATM   18  C   UNL     1     -10.344  12.150  64.832  1.00  0.00    -0.289 A  
HETATM   19  C   UNL     1     -10.129  11.315  63.752  1.00  0.00    -0.361 A  
HETATM   20  S   UNL     1      -9.884   9.694  64.294  1.00  0.00     0.759 SA 
HETATM   21  C   UNL     1      -9.948  10.244  65.907  1.00  0.00    -0.256 A  
HETATM   22  N   UNL     1     -10.208  11.515  66.063  1.00  0.00    -0.233 NA 
BRANCH  21  23
HETATM   23  N   UNL     1      -9.733   9.277  66.867  1.00  0.00    -0.175 N  
HETATM   24  C   UNL     1      -8.453   8.804  67.093  1.00  0.00    -0.110 C  
HETATM   25  H   UNL     1     -10.516   8.912  67.409  1.00  0.00     0.000 HD 
HETATM   26  O   UNL     1      -7.458   9.066  66.424  1.00  0.00    -0.090 OA 
BRANCH  24  27
HETATM   27  C   UNL     1      -8.231   7.896  68.254  1.00  0.00    -0.124 A  
HETATM   28  C   UNL     1      -7.757   6.590  68.173  1.00  0.00    -0.105 A  
HETATM   29  C   UNL     1      -7.511   5.860  69.359  1.00  0.00    -0.087 A  
HETATM   30  C   UNL     1      -7.755   6.388  70.659  1.00  0.00    -0.105 A  
HETATM   31 CL   UNL     1      -6.898   4.247  69.131  1.00  0.00    -0.045 Cl 
HETATM   32  C   UNL     1      -8.492   8.429  69.524  1.00  0.00    -0.124 A  
HETATM   33  C   UNL     1      -8.310   7.680  70.697  1.00  0.00    -0.125 A  
HETATM   34 CL   UNL     1      -8.932   8.414  72.135  1.00  0.00    -0.271 Cl 
BRANCH  30  35
HETATM   35  C   UNL     1      -7.523   5.524  71.861  1.00  0.00    -0.094 C  
HETATM   36  C   UNL     1      -8.352   5.084  72.837  1.00  0.00    -0.108 C  
HETATM   37  C   UNL     1      -7.826   4.232  73.952  1.00  0.00    -0.085 C  
HETATM   38  C   UNL     1      -9.837   5.285  72.967  1.00  0.00    -0.175 C  
HETATM   39  O   UNL     1      -6.575   4.535  74.352  1.00  0.00    -0.059 OA 
HETATM   40  O   UNL     1      -8.498   3.378  74.508  1.00  0.00    -0.082 OA 
ENDBRANCH  30  35
ENDBRANCH  24  27
ENDBRANCH  21  23
ENDBRANCH  13  18
ENDBRANCH   8  10
ENDBRANCH   7   8
ENDBRANCH   6   7
ENDBRANCH   5   6
ENDBRANCH   4   5
ENDBRANCH   3   4
ENDBRANCH   2   3
TORSDOF 12
ENDMDL
MODEL       46
REMARK 921   NORMALIZED FREE ENERGY PREDICTED BY IDOCK:    0.92 KCAL/MOL
REMARK 922        TOTAL FREE ENERGY PREDICTED BY IDOCK:   -0.03 KCAL/MOL
REMARK 923 INTER-LIGAND FREE ENERGY PREDICTED BY IDOCK:   -4.44 KCAL/MOL
REMARK 924 INTRA-LIGAND FREE ENERGY PREDICTED BY IDOCK:    4.42 KCAL/MOL
REMARK 927      BINDING AFFINITY PREDICTED BY RF-SCORE:    0.00 PKD
ROOT
HETATM    1  C   UNL     1      -9.912  18.904  68.705  1.00  0.00    -0.470 C  
HETATM    2  C   UNL     1      -8.806  18.062  69.304  1.00  0.00     0.274 C  
ENDROOT
BRANCH   2   3
HETATM    3  C   UNL     1      -9.188  16.578  69.355  1.00  0.00    -0.013 C  
BRANCH   3   4
HETATM    4  C   UNL     1      -9.105  15.959  67.965  1.00  0.00    -0.184 C  
BRANCH   4   5
HETATM    5  C   UNL     1      -8.613  16.950  66.921  1.00  0.00    -0.241 C  
BRANCH   5   6
HETATM    6  C   UNL     1      -9.284  16.669  65.582  1.00  0.00     0.196 C  
BRANCH   6   7
HETATM    7  O   UNL     1     -10.612  17.165  65.640  1.00  0.00    -0.492 OA 
BRANCH   7   8
HETATM    8  C   UNL     1     -11.625  16.215  65.263  1.00  0.00     0.364 C  
HETATM    9  C   UNL     1     -11.361  15.683  63.855  1.00  0.00     0.514 C  
BRANCH   8  10
HETATM   10  C   UNL     1     -11.642  15.085  66.290  1.00  0.00    -0.160 A  
HETATM   11  C   UNL     1     -11.202  13.756  66.047  1.00  0.00    -0.304 A  
HETATM   12  C   UNL     1     -12.156  14.465  68.608  1.00  0.00    -0.274 A  
HETATM   13  C   UNL     1     -11.246  12.788  67.094  1.00  0.00    -0.336 A  
HETATM   14  C   UNL     1     -11.754  13.163  68.352  1.00  0.00    -0.386 A  
HETATM   15  C   UNL     1     -12.088  15.410  67.593  1.00  0.00     0.335 A  
BRANCH  11  16
HETATM   16  O   UNL     1     -10.590  13.366  64.880  1.00  0.00    -0.340 OA 
HETATM   17  C   UNL     1     -11.397  12.767  63.875  1.00  0.00    -0.442 C  
ENDBRANCH  11  16
BRANCH  13  18
HETATM   18  C   UNL     1     -10.817  11.387  66.967  1.00  0.00    -0.282 A  
HETATM   19  C   UNL     1     -10.426  10.759  65.799  1.00  0.00    -0.188 A  
HETATM   20  S   UNL     1     -10.021   9.111  66.118  1.00  0.00    -0.194 SA 
HETATM   21  C   UNL     1     -10.261   9.394  67.783  1.00  0.00    -0.222 A  
HETATM   22  N   UNL     1     -10.687  10.588  68.100  1.00  0.00    -0.214 NA 
BRANCH  21  23
HETATM   23  N   UNL     1      -9.994   8.320  68.606  1.00  0.00    -0.185 N  
HETATM   24  C   UNL     1      -8.794   7.643  68.487  1.00  0.00    -0.130 C  
HETATM   25  H   UNL     1     -10.680   8.026  69.301  1.00  0.00     0.000 HD 
HETATM   26  O   UNL     1      -7.952   7.815  67.611  1.00  0.00    -0.119 OA 
BRANCH  24  27
HETATM   27  C   UNL     1      -8.464   6.607  69.507  1.00  0.00    -0.132 A  
HETATM   28  C   UNL     1      -7.836   5.392  69.244  1.00  0.00    -0.089 A  
HETATM   29  C   UNL     1      -7.504   4.531  70.315  1.00  0.00    -0.050 A  
HETATM   30  C   UNL     1      -7.809   4.830  71.674  1.00  0.00    -0.098 A  
HETATM   31 CL   UNL     1      -6.702   3.054  69.865  1.00  0.00    -0.033 Cl 
HETATM   32  C   UNL     1      -8.787   6.913  70.836  1.00  0.00    -0.149 A  
HETATM   33  C   UNL     1      -8.515   6.026  71.890  1.00  0.00    -0.133 A  
HETATM   34 CL   UNL     1      -9.220   6.462  73.409  1.00  0.00    -0.136 Cl 
BRANCH  30  35
HETATM   35  C   UNL     1      -7.474   3.832  72.741  1.00  0.00    -0.064 C  
HETATM   36  C   UNL     1      -6.489   2.909  72.845  1.00  0.00    -0.014 C  
HETATM   37  C   UNL     1      -6.413   2.013  74.043  1.00  0.00    -0.020 C  
HETATM   38  C   UNL     1      -5.343   2.651  71.906  1.00  0.00    -0.004 C  
HETATM   39  O   UNL     1      -7.607   1.640  74.546  1.00  0.00    -0.031 OA 
HETATM   40  O   UNL     1      -5.358   1.590  74.490  1.00  0.00     0.000 OA 
ENDBRANCH  30  35
ENDBRANCH  24  27
ENDBRANCH  21  23
ENDBRANCH  13  18
ENDBRANCH   8  10
ENDBRANCH   7   8
ENDBRANCH   6   7
ENDBRANCH   5   6
ENDBRANCH   4   5
ENDBRANCH   3   4
ENDBRANCH   2   3
TORSDOF 12
ENDMDL
MODEL       47
REMARK 921   NORMALIZED FREE ENERGY PREDICTED BY IDOCK:    0.99 KCAL/MOL
REMARK 922        TOTAL FREE ENERGY PREDICTED BY IDOCK:    0.09 KCAL/MOL
REMARK 923 INTER-LIGAND FREE ENERGY PREDICTED BY IDOCK:   -3.47 KCAL/MOL
REMARK 924 INTRA-LIGAND FREE ENERGY PREDICTED BY IDOCK:    3.56 KCAL/MOL
REMARK 927      BINDING AFFINITY PREDICTED BY RF-SCORE:    0.00 PKD
ROOT
HETATM    1  C   UNL     1     -11.269   2.027  64.354  1.00  0.00     1.431 C  
HETATM    2  C   UNL     1      -9.995   2.667  63.846  1.00  0.00    -0.147 C  
ENDROOT
BRANCH   2   3
HETATM    3  C   UNL     1      -9.554   3.836  64.735  1.00  0.00    -0.174 C  
BRANCH   3   4
HETATM    4  C   UNL     1      -8.593   3.352  65.813  1.00  0.00    -0.117 C  
BRANCH   4   5
HETATM    5  C   UNL     1      -9.238   2.344  66.752  1.00  0.00    -0.067 C  
BRANCH   5   6
HETATM    6  C   UNL     1      -9.272   2.901  68.169  1.00  0.00    -0.196 C  
BRANCH   6   7
HETATM    7  O   UNL     1      -8.262   2.251  68.925  1.00  0.00    -0.051 OA 
BRANCH   7   8
HETATM    8  C   UNL     1      -7.273   3.132  69.489  1.00  0.00    -0.045 C  
HETATM    9  C   UNL     1      -5.939   2.972  68.761  1.00  0.00    -0.024 C  
BRANCH   8  10
HETATM   10  C   UNL     1      -7.787   4.566  69.398  1.00  0.00    -0.062 A  
HETATM   11  C   UNL     1      -7.406   5.508  68.405  1.00  0.00    -0.076 A  
HETATM   12  C   UNL     1      -9.287   6.244  70.377  1.00  0.00    -0.171 A  
HETATM   13  C   UNL     1      -7.971   6.818  68.409  1.00  0.00    -0.115 A  
HETATM   14  C   UNL     1      -8.885   7.166  69.422  1.00  0.00    -0.136 A  
HETATM   15  C   UNL     1      -8.752   4.963  70.354  1.00  0.00    -0.123 A  
BRANCH  11  16
HETATM   16  O   UNL     1      -6.614   5.189  67.328  1.00  0.00    -0.050 OA 
HETATM   17  C   UNL     1      -5.234   5.526  67.395  1.00  0.00    -0.005 C  
ENDBRANCH  11  16
BRANCH  13  18
HETATM   18  C   UNL     1      -7.660   7.875  67.435  1.00  0.00    -0.097 A  
HETATM   19  C   UNL     1      -6.997   7.705  66.234  1.00  0.00    -0.066 A  
HETATM   20  S   UNL     1      -6.840   9.220  65.422  1.00  0.00    -0.075 SA 
HETATM   21  C   UNL     1      -7.772   9.952  66.648  1.00  0.00    -0.106 A  
HETATM   22  N   UNL     1      -8.120   9.174  67.638  1.00  0.00    -0.104 NA 
BRANCH  21  23
HETATM   23  N   UNL     1      -8.039  11.293  66.463  1.00  0.00    -0.166 N  
HETATM   24  C   UNL     1      -9.349  11.728  66.374  1.00  0.00    -0.220 C  
HETATM   25  H   UNL     1      -7.273  11.962  66.392  1.00  0.00     0.000 HD 
HETATM   26  O   UNL     1     -10.345  11.012  66.314  1.00  0.00    -0.237 OA 
BRANCH  24  27
HETATM   27  C   UNL     1      -9.606  13.196  66.355  1.00  0.00    -0.259 A  
HETATM   28  C   UNL     1     -10.115  13.909  65.273  1.00  0.00    -0.328 A  
HETATM   29  C   UNL     1     -10.390  15.288  65.411  1.00  0.00    -0.393 A  
HETATM   30  C   UNL     1     -10.144  16.012  66.612  1.00  0.00    -0.287 A  
HETATM   31 CL   UNL     1     -11.045  16.065  63.998  1.00  0.00     0.247 Cl 
HETATM   32  C   UNL     1      -9.342  13.893  67.542  1.00  0.00    -0.217 A  
HETATM   33  C   UNL     1      -9.554  15.276  67.656  1.00  0.00    -0.206 A  
HETATM   34 CL   UNL     1      -8.925  15.994  69.099  1.00  0.00    -0.249 Cl 
BRANCH  30  35
HETATM   35  C   UNL     1     -10.409  17.486  66.653  1.00  0.00    -0.319 C  
HETATM   36  C   UNL     1     -10.440  18.375  67.674  1.00  0.00    -0.445 C  
HETATM   37  C   UNL     1     -10.763  19.816  67.414  1.00  0.00    -0.384 C  
HETATM   38  C   UNL     1     -10.131  18.146  69.127  1.00  0.00    -0.194 C  
HETATM   39  O   UNL     1     -11.671  20.025  66.440  1.00  0.00     0.840 OA 
HETATM   40  O   UNL     1     -10.299  20.730  68.078  1.00  0.00    -0.077 OA 
ENDBRANCH  30  35
ENDBRANCH  24  27
ENDBRANCH  21  23
ENDBRANCH  13  18
ENDBRANCH   8  10
ENDBRANCH   7   8
ENDBRANCH   6   7
ENDBRANCH   5   6
ENDBRANCH   4   5
ENDBRANCH   3   4
ENDBRANCH   2   3
TORSDOF 12
ENDMDL
MODEL       48
REMARK 921   NORMALIZED FREE ENERGY PREDICTED BY IDOCK:    1.38 KCAL/MOL
REMARK 922        TOTAL FREE ENERGY PREDICTED BY IDOCK:    0.75 KCAL/MOL
REMARK 923 INTER-LIGAND FREE ENERGY PREDICTED BY IDOCK:   -2.11 KCAL/MOL
REMARK 924 INTRA-LIGAND FREE ENERGY PREDICTED BY IDOCK:    2.86 KCAL/MOL
REMARK 927      BINDING AFFINITY PREDICTED BY RF-SCORE:    0.00 PKD
ROOT
HETATM    1  C   UNL     1     -10.746   7.660  65.934  1.00  0.00     2.299 C  
HETATM    2  C   UNL     1     -10.179   6.935  67.136  1.00  0.00    -0.308 C  
ENDROOT
BRANCH   2   3
HETATM    3  C   UNL     1     -10.625   5.468  67.175  1.00  0.00    -0.313 C  
BRANCH   3   4
HETATM    4  C   UNL     1      -9.629   4.590  66.428  1.00  0.00    -0.197 C  
BRANCH   4   5
HETATM    5  C   UNL     1     -10.249   3.925  65.207  1.00  0.00    -0.080 C  
BRANCH   5   6
HETATM    6  C   UNL     1      -9.908   4.721  63.954  1.00  0.00     0.384 C  
BRANCH   6   7
HETATM    7  O   UNL     1      -9.145   3.888  63.095  1.00  0.00    -0.102 OA 
BRANCH   7   8
HETATM    8  C   UNL     1      -7.823   3.583  63.573  1.00  0.00    -0.076 C  
HETATM    9  C   UNL     1      -7.163   2.529  62.684  1.00  0.00    -0.036 C  
BRANCH   8  10
HETATM   10  C   UNL     1      -7.005   4.871  63.608  1.00  0.00    -0.047 A  
HETATM   11  C   UNL     1      -6.999   5.805  64.680  1.00  0.00    -0.052 A  
HETATM   12  C   UNL     1      -5.372   6.265  62.420  1.00  0.00    -0.022 A  
HETATM   13  C   UNL     1      -6.176   6.967  64.609  1.00  0.00    -0.036 A  
HETATM   14  C   UNL     1      -5.397   7.185  63.457  1.00  0.00    -0.033 A  
HETATM   15  C   UNL     1      -6.157   5.123  62.504  1.00  0.00    -0.014 A  
BRANCH  11  16
HETATM   16  O   UNL     1      -7.644   5.585  65.874  1.00  0.00    -0.081 OA 
HETATM   17  C   UNL     1      -6.853   5.229  67.000  1.00  0.00    -0.063 C  
ENDBRANCH  11  16
BRANCH  13  18
HETATM   18  C   UNL     1      -6.081   8.000  65.652  1.00  0.00    -0.038 A  
HETATM   19  C   UNL     1      -5.196   8.005  66.713  1.00  0.00    -0.028 A  
HETATM   20  S   UNL     1      -5.452   9.402  67.694  1.00  0.00    -0.037 SA 
HETATM   21  C   UNL     1      -6.612   9.954  66.572  1.00  0.00    -0.072 A  
HETATM   22  N   UNL     1      -6.869   9.146  65.577  1.00  0.00    -0.072 NA 
BRANCH  21  23
HETATM   23  N   UNL     1      -7.163  11.187  66.853  1.00  0.00    -0.130 N  
HETATM   24  C   UNL     1      -6.818  11.845  68.020  1.00  0.00    -0.072 C  
HETATM   25  H   UNL     1      -7.823  11.612  66.202  1.00  0.00     0.000 HD 
HETATM   26  O   UNL     1      -6.144  11.384  68.936  1.00  0.00    -0.047 OA 
BRANCH  24  27
HETATM   27  C   UNL     1      -7.290  13.246  68.205  1.00  0.00    -0.113 A  
HETATM   28  C   UNL     1      -6.704  14.187  69.049  1.00  0.00    -0.107 A  
HETATM   29  C   UNL     1      -7.200  15.510  69.072  1.00  0.00    -0.156 A  
HETATM   30  C   UNL     1      -8.306  15.938  68.284  1.00  0.00    -0.165 A  
HETATM   31 CL   UNL     1      -6.372  16.600  70.148  1.00  0.00    -0.007 Cl 
HETATM   32  C   UNL     1      -8.391  13.643  67.433  1.00  0.00    -0.198 A  
HETATM   33  C   UNL     1      -8.922  14.941  67.507  1.00  0.00    -0.185 A  
HETATM   34 CL   UNL     1     -10.429  15.160  66.685  1.00  0.00    -0.281 Cl 
BRANCH  30  35
HETATM   35  C   UNL     1      -8.804  17.346  68.415  1.00  0.00    -0.271 C  
HETATM   36  C   UNL     1      -8.607  18.452  67.660  1.00  0.00    -0.268 C  
HETATM   37  C   UNL     1      -9.226  19.759  68.054  1.00  0.00    -0.341 C  
HETATM   38  C   UNL     1      -7.852  18.583  66.366  1.00  0.00    -0.296 C  
HETATM   39  O   UNL     1      -9.296  19.973  69.383  1.00  0.00     0.003 OA 
HETATM   40  O   UNL     1      -9.576  20.600  67.241  1.00  0.00    -0.451 OA 
ENDBRANCH  30  35
ENDBRANCH  24  27
ENDBRANCH  21  23
ENDBRANCH  13  18
ENDBRANCH   8  10
ENDBRANCH   7   8
ENDBRANCH   6   7
ENDBRANCH   5   6
ENDBRANCH   4   5
ENDBRANCH   3   4
ENDBRANCH   2   3
TORSDOF 12
ENDMDL
MODEL       49
REMARK 921   NORMALIZED FREE ENERGY PREDICTED BY IDOCK:    2.64 KCAL/MOL
REMARK 922        TOTAL FREE ENERGY PREDICTED BY IDOCK:    2.89 KCAL/MOL
REMARK 923 INTER-LIGAND FREE ENERGY PREDICTED BY IDOCK:   -5.14 KCAL/MOL
REMARK 924 INTRA-LIGAND FREE ENERGY PREDICTED BY IDOCK:    8.04 KCAL/MOL
REMARK 927      BINDING AFFINITY PREDICTED BY RF-SCORE:    0.00 PKD
ROOT
HETATM    1  C   UNL     1      -9.171  14.567  65.912  1.00  0.00    -0.003 C  
HETATM    2  C   UNL     1      -8.136  15.206  66.813  1.00  0.00    -0.113 C  
ENDROOT
BRANCH   2   3
HETATM    3  C   UNL     1      -8.486  15.025  68.295  1.00  0.00    -0.147 C  
BRANCH   3   4
HETATM    4  C   UNL     1      -9.831  15.667  68.607  1.00  0.00    -0.210 C  
BRANCH   4   5
HETATM    5  C   UNL     1     -10.300  15.367  70.023  1.00  0.00    -0.288 C  
BRANCH   5   6
HETATM    6  C   UNL     1     -11.295  16.427  70.477  1.00  0.00    -0.191 C  
BRANCH   6   7
HETATM    7  O   UNL     1     -12.601  15.973  70.157  1.00  0.00    -0.259 OA 
BRANCH   7   8
HETATM    8  C   UNL     1     -12.646  14.710  69.468  1.00  0.00    -0.004 C  
HETATM    9  C   UNL     1     -11.358  14.489  68.675  1.00  0.00    -0.300 C  
BRANCH   8  10
HETATM   10  C   UNL     1     -12.865  13.601  70.493  1.00  0.00    -0.167 A  
HETATM   11  C   UNL     1     -12.435  12.255  70.342  1.00  0.00    -0.141 A  
HETATM   12  C   UNL     1     -13.767  13.038  72.705  1.00  0.00    -0.309 A  
HETATM   13  C   UNL     1     -12.679  11.308  71.381  1.00  0.00    -0.501 A  
HETATM   14  C   UNL     1     -13.371  11.720  72.535  1.00  0.00     0.437 A  
HETATM   15  C   UNL     1     -13.506  13.962  71.701  1.00  0.00    -0.428 A  
BRANCH  11  16
HETATM   16  O   UNL     1     -11.654  11.826  69.296  1.00  0.00    -0.264 OA 
HETATM   17  C   UNL     1     -12.307  11.464  68.085  1.00  0.00     0.652 C  
ENDBRANCH  11  16
BRANCH  13  18
HETATM   18  C   UNL     1     -12.280   9.892  71.343  1.00  0.00    -0.408 A  
HETATM   19  C   UNL     1     -12.568   8.940  72.302  1.00  0.00    -0.385 A  
HETATM   20  S   UNL     1     -11.889   7.418  71.852  1.00  0.00    -0.309 SA 
HETATM   21  C   UNL     1     -11.388   8.101  70.372  1.00  0.00    -0.181 A  
HETATM   22  N   UNL     1     -11.622   9.379  70.228  1.00  0.00    -0.193 NA 
BRANCH  21  23
HETATM   23  N   UNL     1     -10.773   7.227  69.499  1.00  0.00    -0.237 N  
HETATM   24  C   UNL     1     -10.379   7.668  68.249  1.00  0.00    -0.198 C  
HETATM   25  H   UNL     1     -10.611   6.259  69.775  1.00  0.00     0.000 HD 
HETATM   26  O   UNL     1     -10.634   8.762  67.755  1.00  0.00    -0.239 OA 
BRANCH  24  27
HETATM   27  C   UNL     1      -9.562   6.752  67.403  1.00  0.00    -0.158 A  
HETATM   28  C   UNL     1      -9.460   6.815  66.016  1.00  0.00     0.024 A  
HETATM   29  C   UNL     1      -8.583   5.937  65.338  1.00  0.00    -0.137 A  
HETATM   30  C   UNL     1      -7.804   4.951  66.007  1.00  0.00    -0.099 A  
HETATM   31 CL   UNL     1      -8.524   6.127  63.609  1.00  0.00     0.093 Cl 
HETATM   32  C   UNL     1      -8.815   5.777  68.079  1.00  0.00    -0.109 A  
HETATM   33  C   UNL     1      -7.995   4.863  67.397  1.00  0.00    -0.095 A  
HETATM   34 CL   UNL     1      -7.366   3.579  68.373  1.00  0.00    -0.051 Cl 
BRANCH  30  35
HETATM   35  C   UNL     1      -6.946   4.021  65.204  1.00  0.00    -0.058 C  
HETATM   36  C   UNL     1      -7.243   3.101  64.256  1.00  0.00    -0.058 C  
HETATM   37  C   UNL     1      -6.157   2.281  63.628  1.00  0.00    -0.014 C  
HETATM   38  C   UNL     1      -8.581   2.777  63.651  1.00  0.00    -0.086 C  
HETATM   39  O   UNL     1      -5.148   1.949  64.458  1.00  0.00    -0.004 OA 
HETATM   40  O   UNL     1      -6.210   1.882  62.475  1.00  0.00    -0.008 OA 
ENDBRANCH  30  35
ENDBRANCH  24  27
ENDBRANCH  21  23
ENDBRANCH  13  18
ENDBRANCH   8  10
ENDBRANCH   7   8
ENDBRANCH   6   7
ENDBRANCH   5   6
ENDBRANCH   4   5
ENDBRANCH   3   4
ENDBRANCH   2   3
TORSDOF 12
ENDMDL
MODEL       50
REMARK 921   NORMALIZED FREE ENERGY PREDICTED BY IDOCK:    3.59 KCAL/MOL
REMARK 922        TOTAL FREE ENERGY PREDICTED BY IDOCK:    4.50 KCAL/MOL
REMARK 923 INTER-LIGAND FREE ENERGY PREDICTED BY IDOCK:    1.50 KCAL/MOL
REMARK 924 INTRA-LIGAND FREE ENERGY PREDICTED BY IDOCK:    3.00 KCAL/MOL
REMARK 927      BINDING AFFINITY PREDICTED BY RF-SCORE:    0.00 PKD
ROOT
HETATM    1  C   UNL     1     -10.261  14.877  70.853  1.00  0.00     0.804 C  
HETATM    2  C   UNL     1     -11.409  15.754  70.402  1.00  0.00    -0.389 C  
ENDROOT
BRANCH   2   3
HETATM    3  C   UNL     1     -11.149  17.233  70.714  1.00  0.00     1.171 C  
BRANCH   3   4
HETATM    4  C   UNL     1     -10.519  17.927  69.514  1.00  0.00     0.365 C  
BRANCH   4   5
HETATM    5  C   UNL     1      -9.005  18.023  69.632  1.00  0.00     0.927 C  
BRANCH   5   6
HETATM    6  C   UNL     1      -8.345  17.279  68.478  1.00  0.00    -0.267 C  
BRANCH   6   7
HETATM    7  O   UNL     1      -8.890  17.774  67.264  1.00  0.00    -0.233 OA 
BRANCH   7   8
HETATM    8  C   UNL     1     -10.314  17.611  67.135  1.00  0.00    -0.343 C  
HETATM    9  C   UNL     1     -10.974  18.944  66.787  1.00  0.00    -0.149 C  
BRANCH   8  10
HETATM   10  C   UNL     1     -10.591  16.557  66.067  1.00  0.00    -0.259 A  
HETATM   11  C   UNL     1     -10.648  15.156  66.298  1.00  0.00    -0.310 A  
HETATM   12  C   UNL     1     -11.115  16.162  63.702  1.00  0.00     2.159 A  
HETATM   13  C   UNL     1     -10.938  14.267  65.222  1.00  0.00    -0.347 A  
HETATM   14  C   UNL     1     -11.137  14.795  63.932  1.00  0.00     0.831 A  
HETATM   15  C   UNL     1     -10.857  17.025  64.759  1.00  0.00     0.243 A  
BRANCH  11  16
HETATM   16  O   UNL     1     -10.580  14.596  67.552  1.00  0.00    -0.253 OA 
HETATM   17  C   UNL     1      -9.407  13.868  67.891  1.00  0.00    -0.208 C  
ENDBRANCH  11  16
BRANCH  13  18
HETATM   18  C   UNL     1     -11.027  12.803  65.337  1.00  0.00    -0.283 A  
HETATM   19  C   UNL     1     -10.967  11.900  64.292  1.00  0.00    -0.353 A  
HETATM   20  S   UNL     1     -11.130  10.288  64.890  1.00  0.00     1.941 SA 
HETATM   21  C   UNL     1     -11.131  10.899  66.482  1.00  0.00    -0.048 A  
HETATM   22  N   UNL     1     -11.095  12.201  66.591  1.00  0.00    -0.289 NA 
BRANCH  21  23
HETATM   23  N   UNL     1     -11.188   9.946  67.478  1.00  0.00    -0.387 N  
HETATM   24  C   UNL     1     -10.075   9.174  67.756  1.00  0.00    -0.203 C  
HETATM   25  H   UNL     1     -12.049   9.812  68.008  1.00  0.00     0.000 HD 
HETATM   26  O   UNL     1      -9.033   9.150  67.108  1.00  0.00    -0.122 OA 
BRANCH  24  27
HETATM   27  C   UNL     1     -10.114   8.284  68.951  1.00  0.00    -0.208 A  
HETATM   28  C   UNL     1     -10.863   8.515  70.101  1.00  0.00    -0.238 A  
HETATM   29  C   UNL     1     -10.877   7.548  71.133  1.00  0.00    -0.238 A  
HETATM   30  C   UNL     1     -10.128   6.339  71.072  1.00  0.00    -0.221 A  
HETATM   31 CL   UNL     1     -11.869   7.938  72.509  1.00  0.00    -0.402 Cl 
HETATM   32  C   UNL     1      -9.357   7.106  68.879  1.00  0.00    -0.139 A  
HETATM   33  C   UNL     1      -9.321   6.179  69.932  1.00  0.00    -0.149 A  
HETATM   34 CL   UNL     1      -8.133   4.931  69.766  1.00  0.00    -0.069 Cl 
BRANCH  30  35
HETATM   35  C   UNL     1     -10.154   5.397  72.238  1.00  0.00    -0.231 C  
HETATM   36  C   UNL     1     -10.126   4.045  72.314  1.00  0.00    -0.240 C  
HETATM   37  C   UNL     1     -10.189   3.359  73.645  1.00  0.00    -0.138 C  
HETATM   38  C   UNL     1      -9.984   3.046  71.199  1.00  0.00     0.012 C  
HETATM   39  O   UNL     1     -10.965   3.972  74.560  1.00  0.00    -0.151 OA 
HETATM   40  O   UNL     1      -9.640   2.291  73.867  1.00  0.00    -0.082 OA 
ENDBRANCH  30  35
ENDBRANCH  24  27
ENDBRANCH  21  23
ENDBRANCH  13  18
ENDBRANCH   8  10
ENDBRANCH   7   8
ENDBRANCH   6   7
ENDBRANCH   5   6
ENDBRANCH   4   5
ENDBRANCH   3   4
ENDBRANCH   2   3
TORSDOF 12
ENDMDL
MODEL       51
REMARK 921   NORMALIZED FREE ENERGY PREDICTED BY IDOCK:    3.60 KCAL/MOL
REMARK 922        TOTAL FREE ENERGY PREDICTED BY IDOCK:    4.52 KCAL/MOL
REMARK 923 INTER-LIGAND FREE ENERGY PREDICTED BY IDOCK:   -2.14 KCAL/MOL
REMARK 924 INTRA-LIGAND FREE ENERGY PREDICTED BY IDOCK:    6.66 KCAL/MOL
REMARK 927      BINDING AFFINITY PREDICTED BY RF-SCORE:    0.00 PKD
ROOT
HETATM    1  C   UNL     1     -10.502   2.699  65.281  1.00  0.00     1.316 C  
HETATM    2  C   UNL     1      -9.770   3.986  64.969  1.00  0.00    -0.195 C  
ENDROOT
BRANCH   2   3
HETATM    3  C   UNL     1     -10.088   5.082  65.993  1.00  0.00    -0.234 C  
BRANCH   3   4
HETATM    4  C   UNL     1      -9.485   4.735  67.348  1.00  0.00    -0.166 C  
BRANCH   4   5
HETATM    5  C   UNL     1     -10.221   3.591  68.031  1.00  0.00     0.954 C  
BRANCH   5   6
HETATM    6  C   UNL     1     -10.252   3.819  69.537  1.00  0.00     0.804 C  
BRANCH   6   7
HETATM    7  O   UNL     1      -9.423   2.844  70.150  1.00  0.00    -0.160 OA 
BRANCH   7   8
HETATM    8  C   UNL     1      -8.045   3.232  70.294  1.00  0.00    -0.045 C  
HETATM    9  C   UNL     1      -7.221   2.725  69.112  1.00  0.00    -0.044 C  
BRANCH   8  10
HETATM   10  C   UNL     1      -7.975   4.752  70.410  1.00  0.00    -0.065 A  
HETATM   11  C   UNL     1      -7.783   5.645  69.321  1.00  0.00    -0.088 A  
HETATM   12  C   UNL     1      -8.112   6.675  71.928  1.00  0.00    -0.103 A  
HETATM   13  C   UNL     1      -7.756   7.052  69.549  1.00  0.00    -0.107 A  
HETATM   14  C   UNL     1      -7.893   7.536  70.864  1.00  0.00    -0.094 A  
HETATM   15  C   UNL     1      -8.162   5.307  71.698  1.00  0.00    -0.118 A  
BRANCH  11  16
HETATM   16  O   UNL     1      -7.763   5.238  68.008  1.00  0.00    -0.083 OA 
HETATM   17  C   UNL     1      -6.504   5.187  67.348  1.00  0.00    -0.049 C  
ENDBRANCH  11  16
BRANCH  13  18
HETATM   18  C   UNL     1      -7.569   8.073  68.506  1.00  0.00    -0.104 A  
HETATM   19  C   UNL     1      -7.540   7.847  67.143  1.00  0.00    -0.100 A  
HETATM   20  S   UNL     1      -7.284   9.332  66.300  1.00  0.00    -0.089 SA 
HETATM   21  C   UNL     1      -7.367  10.167  67.784  1.00  0.00    -0.088 A  
HETATM   22  N   UNL     1      -7.494   9.421  68.849  1.00  0.00    -0.074 NA 
BRANCH  21  23
HETATM   23  N   UNL     1      -7.271  11.541  67.693  1.00  0.00    -0.097 N  
HETATM   24  C   UNL     1      -8.291  12.335  68.184  1.00  0.00    -0.174 C  
HETATM   25  H   UNL     1      -6.451  11.968  67.264  1.00  0.00     0.000 HD 
HETATM   26  O   UNL     1      -9.377  11.942  68.599  1.00  0.00    -0.165 OA 
BRANCH  24  27
HETATM   27  C   UNL     1      -8.077  13.809  68.232  1.00  0.00    -0.150 A  
HETATM   28  C   UNL     1      -8.767  14.747  67.470  1.00  0.00    -0.195 A  
HETATM   29  C   UNL     1      -8.526  16.126  67.670  1.00  0.00    -0.168 A  
HETATM   30  C   UNL     1      -7.575  16.619  68.608  1.00  0.00    -0.214 A  
HETATM   31 CL   UNL     1      -9.466  17.201  66.675  1.00  0.00    -0.265 Cl 
HETATM   32  C   UNL     1      -7.124  14.273  69.150  1.00  0.00    -0.117 A  
HETATM   33  C   UNL     1      -6.839  15.640  69.300  1.00  0.00    -0.164 A  
HETATM   34 CL   UNL     1      -5.459  15.994  70.282  1.00  0.00    -0.159 Cl 
BRANCH  30  35
HETATM   35  C   UNL     1      -7.340  18.095  68.713  1.00  0.00    -0.286 C  
HETATM   36  C   UNL     1      -6.409  18.908  68.160  1.00  0.00    -0.231 C  
HETATM   37  C   UNL     1      -6.403  20.374  68.469  1.00  0.00    -0.314 C  
HETATM   38  C   UNL     1      -5.328  18.561  67.173  1.00  0.00    -0.134 C  
HETATM   39  O   UNL     1      -6.766  20.687  69.729  1.00  0.00    -0.052 OA 
HETATM   40  O   UNL     1      -6.030  21.219  67.670  1.00  0.00    -0.320 OA 
ENDBRANCH  30  35
ENDBRANCH  24  27
ENDBRANCH  21  23
ENDBRANCH  13  18
ENDBRANCH   8  10
ENDBRANCH   7   8
ENDBRANCH   6   7
ENDBRANCH   5   6
ENDBRANCH   4   5
ENDBRANCH   3   4
ENDBRANCH   2   3
TORSDOF 12
ENDMDL
MODEL       52
REMARK 921   NORMALIZED FREE ENERGY PREDICTED BY IDOCK:    3.63 KCAL/MOL
REMARK 922        TOTAL FREE ENERGY PREDICTED BY IDOCK:    4.57 KCAL/MOL
REMARK 923 INTER-LIGAND FREE ENERGY PREDICTED BY IDOCK:    2.68 KCAL/MOL
REMARK 924 INTRA-LIGAND FREE ENERGY PREDICTED BY IDOCK:    1.90 KCAL/MOL
REMARK 927      BINDING AFFINITY PREDICTED BY RF-SCORE:    0.00 PKD
ROOT
HETATM    1  C   UNL     1      -9.428  20.498  67.433  1.00  0.00    -0.551 C  
HETATM    2  C   UNL     1     -10.902  20.158  67.392  1.00  0.00    -0.116 C  
ENDROOT
BRANCH   2   3
HETATM    3  C   UNL     1     -11.358  19.783  65.977  1.00  0.00     0.460 C  
BRANCH   3   4
HETATM    4  C   UNL     1     -10.633  18.533  65.498  1.00  0.00     0.009 C  
BRANCH   4   5
HETATM    5  C   UNL     1     -11.153  17.271  66.170  1.00  0.00     0.437 C  
BRANCH   5   6
HETATM    6  C   UNL     1     -10.148  16.780  67.204  1.00  0.00    -0.282 C  
BRANCH   6   7
HETATM    7  O   UNL     1     -10.868  16.217  68.289  1.00  0.00    -0.297 OA 
BRANCH   7   8
HETATM    8  C   UNL     1     -10.283  16.448  69.584  1.00  0.00    -0.198 C  
HETATM    9  C   UNL     1     -11.313  16.205  70.686  1.00  0.00    -0.394 C  
BRANCH   8  10
HETATM   10  C   UNL     1      -9.071  15.534  69.743  1.00  0.00    -0.062 A  
HETATM   11  C   UNL     1      -8.551  14.686  68.729  1.00  0.00    -0.160 A  
HETATM   12  C   UNL     1      -7.283  14.788  71.249  1.00  0.00     1.754 A  
HETATM   13  C   UNL     1      -7.396  13.890  68.988  1.00  0.00    -0.055 A  
HETATM   14  C   UNL     1      -6.802  13.940  70.263  1.00  0.00     0.313 A  
HETATM   15  C   UNL     1      -8.394  15.579  70.984  1.00  0.00     3.046 A  
BRANCH  11  16
HETATM   16  O   UNL     1      -9.014  14.686  67.435  1.00  0.00    -0.178 OA 
HETATM   17  C   UNL     1      -9.795  13.576  67.010  1.00  0.00    -0.251 C  
ENDBRANCH  11  16
BRANCH  13  18
HETATM   18  C   UNL     1      -6.764  12.979  68.021  1.00  0.00    -0.114 A  
HETATM   19  C   UNL     1      -5.484  13.093  67.513  1.00  0.00    -0.011 A  
HETATM   20  S   UNL     1      -5.170  11.812  66.399  1.00  0.00     0.234 SA 
HETATM   21  C   UNL     1      -6.690  11.137  66.777  1.00  0.00    -0.135 A  
HETATM   22  N   UNL     1      -7.429  11.829  67.603  1.00  0.00    -0.115 NA 
BRANCH  21  23
HETATM   23  N   UNL     1      -6.975   9.941  66.151  1.00  0.00    -0.097 N  
HETATM   24  C   UNL     1      -7.118   8.789  66.902  1.00  0.00    -0.078 C  
HETATM   25  H   UNL     1      -7.078   9.907  65.137  1.00  0.00     0.000 HD 
HETATM   26  O   UNL     1      -6.890   8.676  68.103  1.00  0.00    -0.067 OA 
BRANCH  24  27
HETATM   27  C   UNL     1      -7.600   7.556  66.218  1.00  0.00    -0.088 A  
HETATM   28  C   UNL     1      -8.047   6.403  66.858  1.00  0.00    -0.109 A  
HETATM   29  C   UNL     1      -8.557   5.330  66.092  1.00  0.00    -0.120 A  
HETATM   30  C   UNL     1      -8.614   5.351  64.669  1.00  0.00    -0.097 A  
HETATM   31 CL   UNL     1      -9.106   3.954  67.005  1.00  0.00    -0.151 Cl 
HETATM   32  C   UNL     1      -7.633   7.590  64.817  1.00  0.00    -0.102 A  
HETATM   33  C   UNL     1      -8.079   6.498  64.056  1.00  0.00    -0.029 A  
HETATM   34 CL   UNL     1      -7.798   6.632  62.353  1.00  0.00    -0.097 Cl 
BRANCH  30  35
HETATM   35  C   UNL     1      -9.115   4.146  63.933  1.00  0.00    -0.140 C  
HETATM   36  C   UNL     1     -10.334   3.561  63.871  1.00  0.00    -0.244 C  
HETATM   37  C   UNL     1     -10.541   2.322  63.053  1.00  0.00    -0.179 C  
HETATM   38  C   UNL     1     -11.624   4.014  64.498  1.00  0.00     1.249 C  
HETATM   39  O   UNL     1      -9.493   1.474  63.039  1.00  0.00    -0.088 OA 
HETATM   40  O   UNL     1     -11.597   2.061  62.500  1.00  0.00    -0.218 OA 
ENDBRANCH  30  35
ENDBRANCH  24  27
ENDBRANCH  21  23
ENDBRANCH  13  18
ENDBRANCH   8  10
ENDBRANCH   7   8
ENDBRANCH   6   7
ENDBRANCH   5   6
ENDBRANCH   4   5
ENDBRANCH   3   4
ENDBRANCH   2   3
TORSDOF 12
ENDMDL
MODEL       53
REMARK 921   NORMALIZED FREE ENERGY PREDICTED BY IDOCK:    4.29 KCAL/MOL
REMARK 922        TOTAL FREE ENERGY PREDICTED BY IDOCK:    5.70 KCAL/MOL
REMARK 923 INTER-LIGAND FREE ENERGY PREDICTED BY IDOCK:    2.43 KCAL/MOL
REMARK 924 INTRA-LIGAND FREE ENERGY PREDICTED BY IDOCK:    3.27 KCAL/MOL
REMARK 927      BINDING AFFINITY PREDICTED BY RF-SCORE:    0.00 PKD
ROOT
HETATM    1  C   UNL     1      -9.746  15.766  69.904  1.00  0.00    -0.089 C  
HETATM    2  C   UNL     1     -10.754  16.801  69.456  1.00  0.00    -0.273 C  
ENDROOT
BRANCH   2   3
HETATM    3  C   UNL     1     -10.178  18.221  69.524  1.00  0.00     0.295 C  
BRANCH   3   4
HETATM    4  C   UNL     1      -9.556  18.607  68.189  1.00  0.00    -0.364 C  
BRANCH   4   5
HETATM    5  C   UNL     1      -8.070  18.285  68.130  1.00  0.00    -0.297 C  
BRANCH   5   6
HETATM    6  C   UNL     1      -7.839  17.050  67.268  1.00  0.00    -0.174 C  
BRANCH   6   7
HETATM    7  O   UNL     1      -8.578  17.205  66.067  1.00  0.00    -0.479 OA 
BRANCH   7   8
HETATM    8  C   UNL     1     -10.007  17.230  66.239  1.00  0.00    -0.300 C  
HETATM    9  C   UNL     1     -10.546  18.643  66.023  1.00  0.00    -0.410 C  
BRANCH   8  10
HETATM   10  C   UNL     1     -10.634  16.239  65.261  1.00  0.00    -0.357 A  
HETATM   11  C   UNL     1     -10.427  14.834  65.279  1.00  0.00    -0.404 A  
HETATM   12  C   UNL     1     -12.152  15.966  63.352  1.00  0.00     2.142 A  
HETATM   13  C   UNL     1     -11.086  14.004  64.325  1.00  0.00    -0.198 A  
HETATM   14  C   UNL     1     -11.918  14.600  63.358  1.00  0.00     0.953 A  
HETATM   15  C   UNL     1     -11.526  16.767  64.298  1.00  0.00     0.641 A  
BRANCH  11  16
HETATM   16  O   UNL     1      -9.725  14.188  66.268  1.00  0.00    -0.284 OA 
HETATM   17  C   UNL     1      -8.417  13.722  65.958  1.00  0.00     1.254 C  
ENDBRANCH  11  16
BRANCH  13  18
HETATM   18  C   UNL     1     -10.955  12.541  64.245  1.00  0.00    -0.360 A  
HETATM   19  C   UNL     1     -10.840  11.797  63.086  1.00  0.00    -0.223 A  
HETATM   20  S   UNL     1     -10.725  10.117  63.467  1.00  0.00     2.454 SA 
HETATM   21  C   UNL     1     -10.700  10.514  65.125  1.00  0.00     0.073 A  
HETATM   22  N   UNL     1     -10.844  11.782  65.407  1.00  0.00    -0.290 NA 
BRANCH  21  23
HETATM   23  N   UNL     1     -10.547   9.446  65.984  1.00  0.00     0.038 N  
HETATM   24  C   UNL     1      -9.309   8.843  66.119  1.00  0.00    -0.239 C  
HETATM   25  H   UNL     1     -11.344   9.101  66.518  1.00  0.00     0.000 HD 
HETATM   26  O   UNL     1      -8.314   9.078  65.441  1.00  0.00    -0.128 OA 
BRANCH  24  27
HETATM   27  C   UNL     1      -9.138   7.814  67.183  1.00  0.00    -0.154 A  
HETATM   28  C   UNL     1     -10.173   7.122  67.806  1.00  0.00    -0.234 A  
HETATM   29  C   UNL     1      -9.872   6.108  68.744  1.00  0.00    -0.136 A  
HETATM   30  C   UNL     1      -8.540   5.767  69.116  1.00  0.00    -0.110 A  
HETATM   31 CL   UNL     1     -11.247   5.299  69.439  1.00  0.00     0.582 Cl 
HETATM   32  C   UNL     1      -7.820   7.503  67.547  1.00  0.00    -0.116 A  
HETATM   33  C   UNL     1      -7.526   6.542  68.526  1.00  0.00    -0.088 A  
HETATM   34 CL   UNL     1      -5.869   6.490  69.022  1.00  0.00    -0.020 Cl 
BRANCH  30  35
HETATM   35  C   UNL     1      -8.313   4.719  70.163  1.00  0.00    -0.079 C  
HETATM   36  C   UNL     1      -7.405   3.720  70.266  1.00  0.00    -0.041 C  
HETATM   37  C   UNL     1      -7.432   2.790  71.441  1.00  0.00    -0.040 C  
HETATM   38  C   UNL     1      -6.258   3.396  69.349  1.00  0.00    -0.028 C  
HETATM   39  O   UNL     1      -8.663   2.499  71.905  1.00  0.00    -0.070 OA 
HETATM   40  O   UNL     1      -6.425   2.275  71.902  1.00  0.00    -0.014 OA 
ENDBRANCH  30  35
ENDBRANCH  24  27
ENDBRANCH  21  23
ENDBRANCH  13  18
ENDBRANCH   8  10
ENDBRANCH   7   8
ENDBRANCH   6   7
ENDBRANCH   5   6
ENDBRANCH   4   5
ENDBRANCH   3   4
ENDBRANCH   2   3
TORSDOF 12
ENDMDL
MODEL       54
REMARK 921   NORMALIZED FREE ENERGY PREDICTED BY IDOCK:    8.73 KCAL/MOL
REMARK 922        TOTAL FREE ENERGY PREDICTED BY IDOCK:   13.26 KCAL/MOL
REMARK 923 INTER-LIGAND FREE ENERGY PREDICTED BY IDOCK:   -4.24 KCAL/MOL
REMARK 924 INTRA-LIGAND FREE ENERGY PREDICTED BY IDOCK:   17.50 KCAL/MOL
REMARK 927      BINDING AFFINITY PREDICTED BY RF-SCORE:    0.00 PKD
ROOT
HETATM    1  C   UNL     1      -9.075   6.043  69.922  1.00  0.00    -0.147 C  
HETATM    2  C   UNL     1      -8.745   6.054  71.399  1.00  0.00    -0.132 C  
ENDROOT
BRANCH   2   3
HETATM    3  C   UNL     1      -9.519   4.972  72.161  1.00  0.00    -0.175 C  
BRANCH   3   4
HETATM    4  C   UNL     1      -9.915   5.476  73.543  1.00  0.00    -0.188 C  
BRANCH   4   5
HETATM    5  C   UNL     1     -11.380   5.209  73.857  1.00  0.00     0.348 C  
BRANCH   5   6
HETATM    6  C   UNL     1     -12.178   5.105  72.563  1.00  0.00     0.464 C  
BRANCH   6   7
HETATM    7  O   UNL     1     -11.433   5.735  71.533  1.00  0.00    -0.203 OA 
BRANCH   7   8
HETATM    8  C   UNL     1     -10.939   7.045  71.864  1.00  0.00    -0.233 C  
HETATM    9  C   UNL     1      -9.692   7.369  71.041  1.00  0.00    -0.164 C  
BRANCH   8  10
HETATM   10  C   UNL     1     -12.048   8.064  71.615  1.00  0.00    -0.339 A  
HETATM   11  C   UNL     1     -11.897   9.474  71.712  1.00  0.00    -0.360 A  
HETATM   12  C   UNL     1     -14.393   8.384  70.966  1.00  0.00    -0.093 A  
HETATM   13  C   UNL     1     -13.004  10.330  71.435  1.00  0.00    -0.540 A  
HETATM   14  C   UNL     1     -14.244   9.757  71.094  1.00  0.00     0.399 A  
HETATM   15  C   UNL     1     -13.306   7.557  71.213  1.00  0.00    -0.312 A  
BRANCH  11  16
HETATM   16  O   UNL     1     -10.687  10.090  71.922  1.00  0.00     0.652 OA 
HETATM   17  C   UNL     1      -9.635   9.817  71.005  1.00  0.00     0.301 C  
ENDBRANCH  11  16
BRANCH  13  18
HETATM   18  C   UNL     1     -12.971  11.799  71.497  1.00  0.00    -0.341 A  
HETATM   19  C   UNL     1     -13.602  12.588  72.440  1.00  0.00    -0.250 A  
HETATM   20  S   UNL     1     -13.302  14.257  72.116  1.00  0.00    -0.461 SA 
HETATM   21  C   UNL     1     -12.259  13.803  70.845  1.00  0.00    -0.349 A  
HETATM   22  N   UNL     1     -12.182  12.521  70.604  1.00  0.00    -0.351 NA 
BRANCH  21  23
HETATM   23  N   UNL     1     -11.627  14.847  70.201  1.00  0.00    -0.274 N  
HETATM   24  C   UNL     1     -10.476  14.609  69.471  1.00  0.00    -0.107 C  
HETATM   25  H   UNL     1     -12.007  15.790  70.262  1.00  0.00     0.000 HD 
HETATM   26  O   UNL     1      -9.853  13.552  69.429  1.00  0.00     0.375 OA 
BRANCH  24  27
HETATM   27  C   UNL     1      -9.923  15.719  68.645  1.00  0.00    -0.208 A  
HETATM   28  C   UNL     1      -9.067  16.716  69.107  1.00  0.00    -0.157 A  
HETATM   29  C   UNL     1      -8.546  17.666  68.200  1.00  0.00    -0.261 A  
HETATM   30  C   UNL     1      -8.878  17.680  66.815  1.00  0.00    -0.275 A  
HETATM   31 CL   UNL     1      -7.470  18.847  68.890  1.00  0.00    -0.351 Cl 
HETATM   32  C   UNL     1     -10.274  15.724  67.288  1.00  0.00    -0.268 A  
HETATM   33  C   UNL     1      -9.808  16.709  66.402  1.00  0.00    -0.292 A  
HETATM   34 CL   UNL     1     -10.556  16.700  64.842  1.00  0.00    -0.143 Cl 
BRANCH  30  35
HETATM   35  C   UNL     1      -8.327  18.761  65.935  1.00  0.00     0.069 C  
HETATM   36  C   UNL     1      -7.061  19.089  65.585  1.00  0.00    -0.250 C  
HETATM   37  C   UNL     1      -6.803  20.262  64.688  1.00  0.00    -0.051 C  
HETATM   38  C   UNL     1      -5.778  18.388  65.936  1.00  0.00    -0.222 C  
HETATM   39  O   UNL     1      -7.641  21.303  64.863  1.00  0.00     0.894 OA 
HETATM   40  O   UNL     1      -5.865  20.306  63.907  1.00  0.00    -0.245 OA 
ENDBRANCH  30  35
ENDBRANCH  24  27
ENDBRANCH  21  23
ENDBRANCH  13  18
ENDBRANCH   8  10
ENDBRANCH   7   8
ENDBRANCH   6   7
ENDBRANCH   5   6
ENDBRANCH   4   5
ENDBRANCH   3   4
ENDBRANCH   2   3
TORSDOF 12
ENDMDL
MODEL       55
REMARK 921   NORMALIZED FREE ENERGY PREDICTED BY IDOCK:    9.40 KCAL/MOL
REMARK 922        TOTAL FREE ENERGY PREDICTED BY IDOCK:   14.40 KCAL/MOL
REMARK 923 INTER-LIGAND FREE ENERGY PREDICTED BY IDOCK:    0.01 KCAL/MOL
REMARK 924 INTRA-LIGAND FREE ENERGY PREDICTED BY IDOCK:   14.39 KCAL/MOL
REMARK 927      BINDING AFFINITY PREDICTED BY RF-SCORE:    0.00 PKD
ROOT
HETATM    1  C   UNL     1      -9.916  18.538  69.546  1.00  0.00     0.207 C  
HETATM    2  C   UNL     1      -9.264  17.340  70.202  1.00  0.00     2.115 C  
ENDROOT
BRANCH   2   3
HETATM    3  C   UNL     1      -9.763  16.022  69.598  1.00  0.00    -0.164 C  
BRANCH   3   4
HETATM    4  C   UNL     1      -9.434  15.960  68.112  1.00  0.00    -0.203 C  
BRANCH   4   5
HETATM    5  C   UNL     1      -8.548  17.115  67.668  1.00  0.00    -0.214 C  
BRANCH   5   6
HETATM    6  C   UNL     1      -8.877  17.499  66.230  1.00  0.00    -0.184 C  
BRANCH   6   7
HETATM    7  O   UNL     1     -10.074  18.261  66.239  1.00  0.00    -0.364 OA 
BRANCH   7   8
HETATM    8  C   UNL     1     -11.226  17.575  65.717  1.00  0.00     0.712 C  
HETATM    9  C   UNL     1     -11.037  17.268  64.232  1.00  0.00     1.881 C  
BRANCH   8  10
HETATM   10  C   UNL     1     -11.443  16.299  66.525  1.00  0.00     0.609 A  
HETATM   11  C   UNL     1     -10.992  15.006  66.145  1.00  0.00    -0.334 A  
HETATM   12  C   UNL     1     -12.366  15.342  68.588  1.00  0.00     0.173 A  
HETATM   13  C   UNL     1     -11.237  13.887  66.995  1.00  0.00    -0.327 A  
HETATM   14  C   UNL     1     -11.949  14.080  68.193  1.00  0.00    -0.382 A  
HETATM   15  C   UNL     1     -12.105  16.432  67.768  1.00  0.00     1.074 A  
BRANCH  11  16
HETATM   16  O   UNL     1     -10.192  14.779  65.051  1.00  0.00    -0.389 OA 
HETATM   17  C   UNL     1     -10.324  13.532  64.379  1.00  0.00    -0.281 C  
ENDBRANCH  11  16
BRANCH  13  18
HETATM   18  C   UNL     1     -10.817  12.505  66.713  1.00  0.00    -0.249 A  
HETATM   19  C   UNL     1     -10.455  12.001  65.478  1.00  0.00    -0.269 A  
HETATM   20  S   UNL     1     -10.051  10.328  65.615  1.00  0.00    -0.243 SA 
HETATM   21  C   UNL     1     -10.254  10.437  67.304  1.00  0.00    -0.211 A  
HETATM   22  N   UNL     1     -10.667  11.592  67.753  1.00  0.00    -0.197 NA 
BRANCH  21  23
HETATM   23  N   UNL     1      -9.975   9.282  68.006  1.00  0.00    -0.173 N  
HETATM   24  C   UNL     1      -9.840   9.328  69.382  1.00  0.00    -0.174 C  
HETATM   25  H   UNL     1      -9.868   8.397  67.511  1.00  0.00     0.000 HD 
HETATM   26  O   UNL     1      -9.816  10.343  70.071  1.00  0.00    -0.121 OA 
BRANCH  24  27
HETATM   27  C   UNL     1      -9.718   8.041  70.122  1.00  0.00    -0.176 A  
HETATM   28  C   UNL     1     -10.202   7.803  71.406  1.00  0.00    -0.211 A  
HETATM   29  C   UNL     1     -10.094   6.509  71.965  1.00  0.00    -0.184 A  
HETATM   30  C   UNL     1      -9.478   5.419  71.286  1.00  0.00    -0.191 A  
HETATM   31 CL   UNL     1     -10.756   6.328  73.565  1.00  0.00    -0.278 Cl 
HETATM   32  C   UNL     1      -9.094   6.985  69.443  1.00  0.00    -0.145 A  
HETATM   33  C   UNL     1      -8.929   5.719  70.027  1.00  0.00    -0.139 A  
HETATM   34 CL   UNL     1      -7.909   4.636  69.143  1.00  0.00    -0.070 Cl 
BRANCH  30  35
HETATM   35  C   UNL     1      -9.353   4.096  71.978  1.00  0.00    -0.184 C  
HETATM   36  C   UNL     1      -9.896   3.613  73.120  1.00  0.00    -0.183 C  
HETATM   37  C   UNL     1      -9.566   2.228  73.590  1.00  0.00    -0.082 C  
HETATM   38  C   UNL     1     -10.889   4.271  74.037  1.00  0.00    -0.301 C  
HETATM   39  O   UNL     1      -8.302   1.834  73.342  1.00  0.00    -0.049 OA 
HETATM   40  O   UNL     1     -10.354   1.534  74.214  1.00  0.00    -0.089 OA 
ENDBRANCH  30  35
ENDBRANCH  24  27
ENDBRANCH  21  23
ENDBRANCH  13  18
ENDBRANCH   8  10
ENDBRANCH   7   8
ENDBRANCH   6   7
ENDBRANCH   5   6
ENDBRANCH   4   5
ENDBRANCH   3   4
ENDBRANCH   2   3
TORSDOF 12
ENDMDL
MODEL       56
REMARK 921   NORMALIZED FREE ENERGY PREDICTED BY IDOCK:    9.46 KCAL/MOL
REMARK 922        TOTAL FREE ENERGY PREDICTED BY IDOCK:   14.49 KCAL/MOL
REMARK 923 INTER-LIGAND FREE ENERGY PREDICTED BY IDOCK:   -1.92 KCAL/MOL
REMARK 924 INTRA-LIGAND FREE ENERGY PREDICTED BY IDOCK:   16.42 KCAL/MOL
REMARK 927      BINDING AFFINITY PREDICTED BY RF-SCORE:    0.00 PKD
ROOT
HETATM    1  C   UNL     1      -8.213  13.919  65.886  1.00  0.00     2.133 C  
HETATM    2  C   UNL     1      -7.156  14.865  66.414  1.00  0.00     2.300 C  
ENDROOT
BRANCH   2   3
HETATM    3  C   UNL     1      -7.525  15.410  67.799  1.00  0.00    -0.173 C  
BRANCH   3   4
HETATM    4  C   UNL     1      -8.704  16.368  67.698  1.00  0.00    -0.188 C  
BRANCH   4   5
HETATM    5  C   UNL     1      -9.007  17.054  69.022  1.00  0.00    -0.139 C  
BRANCH   5   6
HETATM    6  C   UNL     1      -9.756  18.357  68.773  1.00  0.00    -0.343 C  
BRANCH   6   7
HETATM    7  O   UNL     1     -10.932  18.057  68.037  1.00  0.00    -0.265 OA 
BRANCH   7   8
HETATM    8  C   UNL     1     -10.978  16.724  67.496  1.00  0.00    -0.134 C  
HETATM    9  C   UNL     1      -9.594  16.299  67.006  1.00  0.00    -0.240 C  
BRANCH   8  10
HETATM   10  C   UNL     1     -11.502  15.776  68.571  1.00  0.00    -0.381 A  
HETATM   11  C   UNL     1     -11.264  14.376  68.611  1.00  0.00    -0.259 A  
HETATM   12  C   UNL     1     -12.776  15.593  70.660  1.00  0.00    -0.443 A  
HETATM   13  C   UNL     1     -11.790  13.593  69.680  1.00  0.00    -0.396 A  
HETATM   14  C   UNL     1     -12.564  14.222  70.673  1.00  0.00    -0.424 A  
HETATM   15  C   UNL     1     -12.242  16.354  69.629  1.00  0.00     0.658 A  
BRANCH  11  16
HETATM   16  O   UNL     1     -10.420  13.730  67.739  1.00  0.00    -0.235 OA 
HETATM   17  C   UNL     1     -10.904  13.449  66.432  1.00  0.00    -0.289 C  
ENDBRANCH  11  16
BRANCH  13  18
HETATM   18  C   UNL     1     -11.608  12.141  69.833  1.00  0.00    -0.221 A  
HETATM   19  C   UNL     1     -12.008  11.381  70.915  1.00  0.00    -0.166 A  
HETATM   20  S   UNL     1     -11.577   9.727  70.671  1.00  0.00    -0.329 SA 
HETATM   21  C   UNL     1     -11.022  10.122  69.107  1.00  0.00    -0.230 A  
HETATM   22  N   UNL     1     -11.067  11.389  68.793  1.00  0.00    -0.215 NA 
BRANCH  21  23
HETATM   23  N   UNL     1     -10.571   9.056  68.356  1.00  0.00    -0.347 N  
HETATM   24  C   UNL     1      -9.874   9.287  67.184  1.00  0.00    -0.195 C  
HETATM   25  H   UNL     1     -10.751   8.101  68.665  1.00  0.00     0.000 HD 
HETATM   26  O   UNL     1      -9.709  10.377  66.644  1.00  0.00    -0.177 OA 
BRANCH  24  27
HETATM   27  C   UNL     1      -9.249   8.123  66.495  1.00  0.00    -0.237 A  
HETATM   28  C   UNL     1      -9.092   6.853  67.043  1.00  0.00    -0.146 A  
HETATM   29  C   UNL     1      -8.556   5.811  66.252  1.00  0.00    -0.130 A  
HETATM   30  C   UNL     1      -8.132   5.998  64.906  1.00  0.00    -0.133 A  
HETATM   31 CL   UNL     1      -8.430   4.264  67.040  1.00  0.00    -0.104 Cl 
HETATM   32  C   UNL     1      -8.822   8.332  65.176  1.00  0.00    -0.024 A  
HETATM   33  C   UNL     1      -8.230   7.312  64.414  1.00  0.00     0.010 A  
HETATM   34 CL   UNL     1      -7.535   7.830  62.916  1.00  0.00    -0.106 Cl 
BRANCH  30  35
HETATM   35  C   UNL     1      -7.519   4.852  64.159  1.00  0.00    -0.064 C  
HETATM   36  C   UNL     1      -7.980   3.616  63.857  1.00  0.00    -0.085 C  
HETATM   37  C   UNL     1      -7.119   2.650  63.101  1.00  0.00    -0.037 C  
HETATM   38  C   UNL     1      -9.335   3.026  64.134  1.00  0.00    -0.127 C  
HETATM   39  O   UNL     1      -5.804   2.721  63.389  1.00  0.00    -0.009 OA 
HETATM   40  O   UNL     1      -7.573   1.813  62.337  1.00  0.00    -0.036 OA 
ENDBRANCH  30  35
ENDBRANCH  24  27
ENDBRANCH  21  23
ENDBRANCH  13  18
ENDBRANCH   8  10
ENDBRANCH   7   8
ENDBRANCH   6   7
ENDBRANCH   5   6
ENDBRANCH   4   5
ENDBRANCH   3   4
ENDBRANCH   2   3
TORSDOF 12
ENDMDL
MODEL       57
REMARK 921   NORMALIZED FREE ENERGY PREDICTED BY IDOCK:   12.24 KCAL/MOL
REMARK 922        TOTAL FREE ENERGY PREDICTED BY IDOCK:   19.23 KCAL/MOL
REMARK 923 INTER-LIGAND FREE ENERGY PREDICTED BY IDOCK:   13.78 KCAL/MOL
REMARK 924 INTRA-LIGAND FREE ENERGY PREDICTED BY IDOCK:    5.45 KCAL/MOL
REMARK 927      BINDING AFFINITY PREDICTED BY RF-SCORE:    0.00 PKD
ROOT
HETATM    1  C   UNL     1      -9.445  19.686  65.787  1.00  0.00    -0.066 C  
HETATM    2  C   UNL     1     -10.900  19.506  66.164  1.00  0.00    -0.429 C  
ENDROOT
BRANCH   2   3
HETATM    3  C   UNL     1     -11.740  19.031  64.972  1.00  0.00     3.559 C  
BRANCH   3   4
HETATM    4  C   UNL     1     -11.528  17.542  64.732  1.00  0.00     1.631 C  
BRANCH   4   5
HETATM    5  C   UNL     1     -11.948  16.699  65.927  1.00  0.00     2.182 C  
BRANCH   5   6
HETATM    6  C   UNL     1     -10.781  16.551  66.894  1.00  0.00    -0.175 C  
BRANCH   6   7
HETATM    7  O   UNL     1     -11.299  16.542  68.215  1.00  0.00    -0.331 OA 
BRANCH   7   8
HETATM    8  C   UNL     1     -10.494  17.241  69.181  1.00  0.00    -0.263 C  
HETATM    9  C   UNL     1     -11.245  17.376  70.505  1.00  0.00     1.501 C  
BRANCH   8  10
HETATM   10  C   UNL     1      -9.180  16.485  69.362  1.00  0.00    -0.013 A  
HETATM   11  C   UNL     1      -8.643  15.550  68.437  1.00  0.00    -0.168 A  
HETATM   12  C   UNL     1      -7.218  16.152  70.798  1.00  0.00     2.290 A  
HETATM   13  C   UNL     1      -7.393  14.919  68.704  1.00  0.00    -0.120 A  
HETATM   14  C   UNL     1      -6.718  15.217  69.904  1.00  0.00    -0.149 A  
HETATM   15  C   UNL     1      -8.425  16.781  70.521  1.00  0.00     3.559 A  
BRANCH  11  16
HETATM   16  O   UNL     1      -9.196  15.311  67.201  1.00  0.00    -0.196 OA 
HETATM   17  C   UNL     1      -9.727  14.016  66.950  1.00  0.00    -0.271 C  
ENDBRANCH  11  16
BRANCH  13  18
HETATM   18  C   UNL     1      -6.735  13.941  67.824  1.00  0.00    -0.176 A  
HETATM   19  C   UNL     1      -5.500  14.090  67.222  1.00  0.00     0.602 A  
HETATM   20  S   UNL     1      -5.133  12.700  66.266  1.00  0.00     2.226 SA 
HETATM   21  C   UNL     1      -6.563  11.960  66.828  1.00  0.00    -0.019 A  
HETATM   22  N   UNL     1      -7.315  12.694  67.604  1.00  0.00    -0.125 NA 
BRANCH  21  23
HETATM   23  N   UNL     1      -6.773  10.671  66.383  1.00  0.00    -0.116 N  
HETATM   24  C   UNL     1      -7.865   9.955  66.839  1.00  0.00    -0.102 C  
HETATM   25  H   UNL     1      -6.124  10.247  65.721  1.00  0.00     0.000 HD 
HETATM   26  O   UNL     1      -8.637  10.302  67.728  1.00  0.00    -0.118 OA 
BRANCH  24  27
HETATM   27  C   UNL     1      -8.160   8.639  66.205  1.00  0.00    -0.108 A  
HETATM   28  C   UNL     1      -8.229   8.404  64.834  1.00  0.00    -0.155 A  
HETATM   29  C   UNL     1      -8.435   7.088  64.360  1.00  0.00     0.242 A  
HETATM   30  C   UNL     1      -8.609   5.970  65.224  1.00  0.00    -0.103 A  
HETATM   31 CL   UNL     1      -8.479   6.917  62.628  1.00  0.00     0.076 Cl 
HETATM   32  C   UNL     1      -8.345   7.554  67.073  1.00  0.00    -0.121 A  
HETATM   33  C   UNL     1      -8.615   6.260  66.600  1.00  0.00    -0.119 A  
HETATM   34 CL   UNL     1      -9.071   5.118  67.818  1.00  0.00    -0.114 Cl 
BRANCH  30  35
HETATM   35  C   UNL     1      -8.883   4.619  64.636  1.00  0.00    -0.153 C  
HETATM   36  C   UNL     1      -8.292   3.928  63.633  1.00  0.00    -0.092 C  
HETATM   37  C   UNL     1      -8.805   2.577  63.237  1.00  0.00    -0.085 C  
HETATM   38  C   UNL     1      -7.083   4.304  62.822  1.00  0.00    -0.040 C  
HETATM   39  O   UNL     1     -10.142   2.432  63.327  1.00  0.00    -0.110 OA 
HETATM   40  O   UNL     1      -8.083   1.695  62.799  1.00  0.00    -0.054 OA 
ENDBRANCH  30  35
ENDBRANCH  24  27
ENDBRANCH  21  23
ENDBRANCH  13  18
ENDBRANCH   8  10
ENDBRANCH   7   8
ENDBRANCH   6   7
ENDBRANCH   5   6
ENDBRANCH   4   5
ENDBRANCH   3   4
ENDBRANCH   2   3
TORSDOF 12
ENDMDL
MODEL       58
REMARK 921   NORMALIZED FREE ENERGY PREDICTED BY IDOCK:   12.76 KCAL/MOL
REMARK 922        TOTAL FREE ENERGY PREDICTED BY IDOCK:   20.11 KCAL/MOL
REMARK 923 INTER-LIGAND FREE ENERGY PREDICTED BY IDOCK:    7.04 KCAL/MOL
REMARK 924 INTRA-LIGAND FREE ENERGY PREDICTED BY IDOCK:   13.07 KCAL/MOL
REMARK 927      BINDING AFFINITY PREDICTED BY RF-SCORE:    0.00 PKD
ROOT
HETATM    1  C   UNL     1     -11.118   4.531  66.400  1.00  0.00     1.214 C  
HETATM    2  C   UNL     1     -11.796   5.149  65.197  1.00  0.00     2.282 C  
ENDROOT
BRANCH   2   3
HETATM    3  C   UNL     1     -11.097   4.758  63.889  1.00  0.00     1.226 C  
BRANCH   3   4
HETATM    4  C   UNL     1     -10.439   3.392  64.025  1.00  0.00    -0.219 C  
BRANCH   4   5
HETATM    5  C   UNL     1      -9.659   3.254  65.324  1.00  0.00    -0.088 C  
BRANCH   5   6
HETATM    6  C   UNL     1      -9.940   4.447  66.228  1.00  0.00    -0.235 C  
BRANCH   6   7
HETATM    7  O   UNL     1      -8.713   4.859  66.811  1.00  0.00    -0.109 OA 
BRANCH   7   8
HETATM    8  C   UNL     1      -7.625   5.005  65.880  1.00  0.00    -0.090 C  
HETATM    9  C   UNL     1      -7.211   3.643  65.324  1.00  0.00    -0.067 C  
BRANCH   8  10
HETATM   10  C   UNL     1      -8.060   5.952  64.764  1.00  0.00    -0.132 A  
HETATM   11  C   UNL     1      -8.600   7.251  64.962  1.00  0.00     0.114 A  
HETATM   12  C   UNL     1      -8.225   6.280  62.338  1.00  0.00    -0.079 A  
HETATM   13  C   UNL     1      -8.952   8.056  63.838  1.00  0.00     0.929 A  
HETATM   14  C   UNL     1      -8.781   7.534  62.542  1.00  0.00     0.322 A  
HETATM   15  C   UNL     1      -7.862   5.510  63.435  1.00  0.00    -0.096 A  
BRANCH  11  16
HETATM   16  O   UNL     1      -8.678   7.856  66.194  1.00  0.00    -0.143 OA 
HETATM   17  C   UNL     1      -9.904   7.753  66.907  1.00  0.00    -0.235 C  
ENDBRANCH  11  16
BRANCH  13  18
HETATM   18  C   UNL     1      -9.514   9.413  63.914  1.00  0.00     0.438 A  
HETATM   19  C   UNL     1     -10.683   9.844  63.316  1.00  0.00     2.969 A  
HETATM   20  S   UNL     1     -10.946  11.515  63.660  1.00  0.00    -0.359 SA 
HETATM   21  C   UNL     1      -9.576  11.502  64.676  1.00  0.00    -0.162 A  
HETATM   22  N   UNL     1      -8.909  10.379  64.714  1.00  0.00    -0.183 NA 
BRANCH  21  23
HETATM   23  N   UNL     1      -9.318  12.688  65.332  1.00  0.00    -0.430 N  
HETATM   24  C   UNL     1     -10.303  13.654  65.420  1.00  0.00    -0.332 C  
HETATM   25  H   UNL     1      -8.402  12.852  65.750  1.00  0.00     0.000 HD 
HETATM   26  O   UNL     1     -11.390  13.631  64.850  1.00  0.00    -0.322 OA 
BRANCH  24  27
HETATM   27  C   UNL     1     -10.051  14.842  66.284  1.00  0.00    -0.299 A  
HETATM   28  C   UNL     1      -9.694  14.796  67.629  1.00  0.00    -0.213 A  
HETATM   29  C   UNL     1      -9.402  15.997  68.316  1.00  0.00    -0.199 A  
HETATM   30  C   UNL     1      -9.483  17.280  67.704  1.00  0.00    -0.246 A  
HETATM   31 CL   UNL     1      -8.944  15.810  69.985  1.00  0.00     0.232 Cl 
HETATM   32  C   UNL     1     -10.153  16.097  65.667  1.00  0.00    -0.366 A  
HETATM   33  C   UNL     1      -9.926  17.291  66.370  1.00  0.00    -0.311 A  
HETATM   34 CL   UNL     1     -10.355  18.733  65.514  1.00  0.00    -0.044 Cl 
BRANCH  30  35
HETATM   35  C   UNL     1      -9.214  18.506  68.524  1.00  0.00    -0.360 C  
HETATM   36  C   UNL     1      -8.121  18.920  69.207  1.00  0.00     0.026 C  
HETATM   37  C   UNL     1      -8.149  20.208  69.972  1.00  0.00     1.041 C  
HETATM   38  C   UNL     1      -6.766  18.274  69.288  1.00  0.00    -0.228 C  
HETATM   39  O   UNL     1      -9.332  20.498  70.549  1.00  0.00     1.035 OA 
HETATM   40  O   UNL     1      -7.161  20.909  70.126  1.00  0.00     0.760 OA 
ENDBRANCH  30  35
ENDBRANCH  24  27
ENDBRANCH  21  23
ENDBRANCH  13  18
ENDBRANCH   8  10
ENDBRANCH   7   8
ENDBRANCH   6   7
ENDBRANCH   5   6
ENDBRANCH   4   5
ENDBRANCH   3   4
ENDBRANCH   2   3
TORSDOF 12
ENDMDL
MODEL       59
REMARK 921   NORMALIZED FREE ENERGY PREDICTED BY IDOCK:   13.96 KCAL/MOL
REMARK 922        TOTAL FREE ENERGY PREDICTED BY IDOCK:   22.16 KCAL/MOL
REMARK 923 INTER-LIGAND FREE ENERGY PREDICTED BY IDOCK:    9.36 KCAL/MOL
REMARK 924 INTRA-LIGAND FREE ENERGY PREDICTED BY IDOCK:   12.80 KCAL/MOL
REMARK 927      BINDING AFFINITY PREDICTED BY RF-SCORE:    0.00 PKD
ROOT
HETATM    1  C   UNL     1     -12.823  12.727  70.422  1.00  0.00     0.144 C  
HETATM    2  C   UNL     1     -13.327  12.660  68.997  1.00  0.00     3.605 C  
ENDROOT
BRANCH   2   3
HETATM    3  C   UNL     1     -12.519  13.573  68.066  1.00  0.00     0.313 C  
BRANCH   3   4
HETATM    4  C   UNL     1     -11.084  13.700  68.560  1.00  0.00    -0.301 C  
BRANCH   4   5
HETATM    5  C   UNL     1     -10.909  14.857  69.533  1.00  0.00    -0.272 C  
BRANCH   5   6
HETATM    6  C   UNL     1     -11.869  15.985  69.177  1.00  0.00    -0.261 C  
BRANCH   6   7
HETATM    7  O   UNL     1     -12.375  16.533  70.385  1.00  0.00     0.348 OA 
BRANCH   7   8
HETATM    8  C   UNL     1     -11.403  17.238  71.178  1.00  0.00     1.464 C  
HETATM    9  C   UNL     1     -10.905  16.355  72.321  1.00  0.00     1.777 C  
BRANCH   8  10
HETATM   10  C   UNL     1     -10.255  17.673  70.271  1.00  0.00     1.232 A  
HETATM   11  C   UNL     1      -9.332  16.793  69.643  1.00  0.00     0.409 A  
HETATM   12  C   UNL     1      -9.130  19.573  69.201  1.00  0.00    -0.171 A  
HETATM   13  C   UNL     1      -8.310  17.316  68.797  1.00  0.00    -0.228 A  
HETATM   14  C   UNL     1      -8.216  18.709  68.618  1.00  0.00    -0.348 A  
HETATM   15  C   UNL     1     -10.138  19.057  70.004  1.00  0.00     0.823 A  
BRANCH  11  16
HETATM   16  O   UNL     1      -9.449  15.424  69.686  1.00  0.00    -0.264 OA 
HETATM   17  C   UNL     1      -8.258  14.661  69.831  1.00  0.00     0.483 C  
ENDBRANCH  11  16
BRANCH  13  18
HETATM   18  C   UNL     1      -7.303  16.508  68.092  1.00  0.00    -0.160 A  
HETATM   19  C   UNL     1      -6.113  16.972  67.563  1.00  0.00    -0.140 A  
HETATM   20  S   UNL     1      -5.252  15.678  66.813  1.00  0.00     1.400 SA 
HETATM   21  C   UNL     1      -6.446  14.591  67.360  1.00  0.00     0.104 A  
HETATM   22  N   UNL     1      -7.459  15.128  67.986  1.00  0.00    -0.111 NA 
BRANCH  21  23
HETATM   23  N   UNL     1      -6.214  13.263  67.063  1.00  0.00     0.098 N  
HETATM   24  C   UNL     1      -7.277  12.429  66.766  1.00  0.00     0.237 C  
HETATM   25  H   UNL     1      -5.262  12.899  67.062  1.00  0.00     0.000 HD 
HETATM   26  O   UNL     1      -8.467  12.714  66.861  1.00  0.00    -0.184 OA 
BRANCH  24  27
HETATM   27  C   UNL     1      -6.978  11.054  66.276  1.00  0.00    -0.095 A  
HETATM   28  C   UNL     1      -6.463  10.741  65.021  1.00  0.00     0.145 A  
HETATM   29  C   UNL     1      -6.146   9.399  64.710  1.00  0.00    -0.072 A  
HETATM   30  C   UNL     1      -6.356   8.322  65.617  1.00  0.00    -0.049 A  
HETATM   31 CL   UNL     1      -5.487   9.136  63.120  1.00  0.00    -0.068 Cl 
HETATM   32  C   UNL     1      -7.207  10.005  67.178  1.00  0.00    -0.090 A  
HETATM   33  C   UNL     1      -6.953   8.666  66.843  1.00  0.00    -0.077 A  
HETATM   34 CL   UNL     1      -7.543   7.504  67.982  1.00  0.00    -0.108 Cl 
BRANCH  30  35
HETATM   35  C   UNL     1      -6.047   6.921  65.183  1.00  0.00    -0.036 C  
HETATM   36  C   UNL     1      -6.818   5.946  64.646  1.00  0.00    -0.047 C  
HETATM   37  C   UNL     1      -6.231   4.605  64.327  1.00  0.00    -0.026 C  
HETATM   38  C   UNL     1      -8.266   6.010  64.243  1.00  0.00    -0.069 C  
HETATM   39  O   UNL     1      -5.284   4.182  65.188  1.00  0.00    -0.008 OA 
HETATM   40  O   UNL     1      -6.625   3.912  63.401  1.00  0.00    -0.032 OA 
ENDBRANCH  30  35
ENDBRANCH  24  27
ENDBRANCH  21  23
ENDBRANCH  13  18
ENDBRANCH   8  10
ENDBRANCH   7   8
ENDBRANCH   6   7
ENDBRANCH   5   6
ENDBRANCH   4   5
ENDBRANCH   3   4
ENDBRANCH   2   3
TORSDOF 12
ENDMDL
MODEL       60
REMARK 921   NORMALIZED FREE ENERGY PREDICTED BY IDOCK:   14.22 KCAL/MOL
REMARK 922        TOTAL FREE ENERGY PREDICTED BY IDOCK:   22.60 KCAL/MOL
REMARK 923 INTER-LIGAND FREE ENERGY PREDICTED BY IDOCK:   13.42 KCAL/MOL
REMARK 924 INTRA-LIGAND FREE ENERGY PREDICTED BY IDOCK:    9.18 KCAL/MOL
REMARK 927      BINDING AFFINITY PREDICTED BY RF-SCORE:    0.00 PKD
ROOT
HETATM    1  C   UNL     1     -12.840  12.734  70.432  1.00  0.00     0.144 C  
HETATM    2  C   UNL     1     -13.413  12.690  69.032  1.00  0.00     4.398 C  
ENDROOT
BRANCH   2   3
HETATM    3  C   UNL     1     -12.615  13.573  68.064  1.00  0.00     0.636 C  
BRANCH   3   4
HETATM    4  C   UNL     1     -11.138  13.571  68.438  1.00  0.00    -0.298 C  
BRANCH   4   5
HETATM    5  C   UNL     1     -10.789  14.684  69.415  1.00  0.00    -0.261 C  
BRANCH   5   6
HETATM    6  C   UNL     1     -11.705  15.881  69.190  1.00  0.00    -0.363 C  
BRANCH   6   7
HETATM    7  O   UNL     1     -11.949  16.493  70.446  1.00  0.00     0.139 OA 
BRANCH   7   8
HETATM    8  C   UNL     1     -10.782  17.050  71.080  1.00  0.00     1.289 C  
HETATM    9  C   UNL     1     -10.358  16.188  72.268  1.00  0.00     3.499 C  
BRANCH   8  10
HETATM   10  C   UNL     1      -9.666  17.156  70.044  1.00  0.00     1.068 A  
HETATM   11  C   UNL     1      -8.885  16.067  69.572  1.00  0.00    -0.052 A  
HETATM   12  C   UNL     1      -8.440  18.655  68.537  1.00  0.00    -0.367 A  
HETATM   13  C   UNL     1      -7.881  16.285  68.583  1.00  0.00    -0.202 A  
HETATM   14  C   UNL     1      -7.662  17.591  68.106  1.00  0.00    -0.231 A  
HETATM   15  C   UNL     1      -9.432  18.433  69.482  1.00  0.00     0.397 A  
BRANCH  11  16
HETATM   16  O   UNL     1      -9.134  14.758  69.911  1.00  0.00     0.194 OA 
HETATM   17  C   UNL     1      -8.192  14.099  70.748  1.00  0.00     3.439 C  
ENDBRANCH  11  16
BRANCH  13  18
HETATM   18  C   UNL     1      -7.014  15.241  68.016  1.00  0.00    -0.133 A  
HETATM   19  C   UNL     1      -5.814  15.447  67.362  1.00  0.00     0.096 A  
HETATM   20  S   UNL     1      -5.148  13.938  66.853  1.00  0.00     1.885 SA 
HETATM   21  C   UNL     1      -6.422  13.129  67.648  1.00  0.00    -0.163 A  
HETATM   22  N   UNL     1      -7.329  13.896  68.191  1.00  0.00    -0.107 NA 
BRANCH  21  23
HETATM   23  N   UNL     1      -6.357  11.751  67.612  1.00  0.00    -0.072 N  
HETATM   24  C   UNL     1      -7.364  11.000  68.192  1.00  0.00    -0.086 C  
HETATM   25  H   UNL     1      -5.570  11.288  67.159  1.00  0.00     0.000 HD 
HETATM   26  O   UNL     1      -8.287  11.434  68.874  1.00  0.00    -0.130 OA 
BRANCH  24  27
HETATM   27  C   UNL     1      -7.355   9.525  67.979  1.00  0.00    -0.082 A  
HETATM   28  C   UNL     1      -6.940   8.581  68.914  1.00  0.00    -0.062 A  
HETATM   29  C   UNL     1      -7.060   7.203  68.618  1.00  0.00    -0.085 A  
HETATM   30  C   UNL     1      -7.564   6.718  67.378  1.00  0.00    -0.105 A  
HETATM   31 CL   UNL     1      -6.531   6.120  69.874  1.00  0.00    -0.041 Cl 
HETATM   32  C   UNL     1      -7.839   9.068  66.746  1.00  0.00    -0.104 A  
HETATM   33  C   UNL     1      -7.895   7.701  66.429  1.00  0.00    -0.094 A  
HETATM   34 CL   UNL     1      -8.270   7.350  64.776  1.00  0.00    -0.100 Cl 
BRANCH  30  35
HETATM   35  C   UNL     1      -7.600   5.241  67.124  1.00  0.00    -0.092 C  
HETATM   36  C   UNL     1      -8.615   4.346  67.114  1.00  0.00    -0.104 C  
HETATM   37  C   UNL     1      -8.346   2.896  66.846  1.00  0.00    -0.093 C  
HETATM   38  C   UNL     1     -10.087   4.596  67.293  1.00  0.00    -0.169 C  
HETATM   39  O   UNL     1      -7.178   2.438  67.340  1.00  0.00    -0.051 OA 
HETATM   40  O   UNL     1      -9.148   2.165  66.287  1.00  0.00    -0.121 OA 
ENDBRANCH  30  35
ENDBRANCH  24  27
ENDBRANCH  21  23
ENDBRANCH  13  18
ENDBRANCH   8  10
ENDBRANCH   7   8
ENDBRANCH   6   7
ENDBRANCH   5   6
ENDBRANCH   4   5
ENDBRANCH   3   4
ENDBRANCH   2   3
TORSDOF 12
ENDMDL
MODEL       61
REMARK 921   NORMALIZED FREE ENERGY PREDICTED BY IDOCK:   21.62 KCAL/MOL
REMARK 922        TOTAL FREE ENERGY PREDICTED BY IDOCK:   35.18 KCAL/MOL
REMARK 923 INTER-LIGAND FREE ENERGY PREDICTED BY IDOCK:   11.91 KCAL/MOL
REMARK 924 INTRA-LIGAND FREE ENERGY PREDICTED BY IDOCK:   23.27 KCAL/MOL
REMARK 927      BINDING AFFINITY PREDICTED BY RF-SCORE:    0.00 PKD
ROOT
HETATM    1  C   UNL     1      -9.975  18.606  69.500  1.00  0.00     0.182 C  
HETATM    2  C   UNL     1      -9.484  17.208  69.808  1.00  0.00     0.766 C  
ENDROOT
BRANCH   2   3
HETATM    3  C   UNL     1     -10.088  16.172  68.853  1.00  0.00    -0.238 C  
BRANCH   3   4
HETATM    4  C   UNL     1      -9.758  16.524  67.408  1.00  0.00    -0.246 C  
BRANCH   4   5
HETATM    5  C   UNL     1      -8.795  17.698  67.306  1.00  0.00    -0.240 C  
BRANCH   5   6
HETATM    6  C   UNL     1      -9.058  18.475  66.022  1.00  0.00     0.033 C  
BRANCH   6   7
HETATM    7  O   UNL     1     -10.228  19.256  66.210  1.00  0.00    -0.398 OA 
BRANCH   7   8
HETATM    8  C   UNL     1     -11.442  18.644  65.736  1.00  0.00     1.745 C  
HETATM    9  C   UNL     1     -11.403  18.488  64.217  1.00  0.00     5.325 C  
BRANCH   8  10
HETATM   10  C   UNL     1     -11.612  17.295  66.430  1.00  0.00     1.690 A  
HETATM   11  C   UNL     1     -11.107  16.059  65.943  1.00  0.00    -0.002 A  
HETATM   12  C   UNL     1     -12.507  16.128  68.394  1.00  0.00     1.215 A  
HETATM   13  C   UNL     1     -11.311  14.862  66.691  1.00  0.00    -0.326 A  
HETATM   14  C   UNL     1     -12.038  14.922  67.895  1.00  0.00    -0.089 A  
HETATM   15  C   UNL     1     -12.285  17.294  67.674  1.00  0.00     2.627 A  
BRANCH  11  16
HETATM   16  O   UNL     1     -10.293  15.959  64.841  1.00  0.00    -0.517 OA 
HETATM   17  C   UNL     1     -10.719  16.592  63.641  1.00  0.00     4.075 C  
ENDBRANCH  11  16
BRANCH  13  18
HETATM   18  C   UNL     1     -10.835  13.527  66.294  1.00  0.00    -0.289 A  
HETATM   19  C   UNL     1     -10.428  13.152  65.028  1.00  0.00    -0.342 A  
HETATM   20  S   UNL     1      -9.966  11.489  65.021  1.00  0.00    -0.271 SA 
HETATM   21  C   UNL     1     -10.211  11.433  66.708  1.00  0.00    -0.223 A  
HETATM   22  N   UNL     1     -10.676  12.527  67.250  1.00  0.00    -0.230 NA 
BRANCH  21  23
HETATM   23  N   UNL     1      -9.905  10.229  67.308  1.00  0.00    -0.176 N  
HETATM   24  C   UNL     1      -9.806  10.152  68.685  1.00  0.00    -0.162 C  
HETATM   25  H   UNL     1      -9.754   9.398  66.737  1.00  0.00     0.000 HD 
HETATM   26  O   UNL     1      -9.836  11.099  69.465  1.00  0.00     0.024 OA 
BRANCH  24  27
HETATM   27  C   UNL     1      -9.653   8.806  69.307  1.00  0.00    -0.162 A  
HETATM   28  C   UNL     1     -10.049   7.603  68.729  1.00  0.00    -0.202 A  
HETATM   29  C   UNL     1      -9.771   6.385  69.389  1.00  0.00    -0.145 A  
HETATM   30  C   UNL     1      -9.122   6.318  70.655  1.00  0.00    -0.153 A  
HETATM   31 CL   UNL     1     -10.293   4.948  68.557  1.00  0.00    -0.104 Cl 
HETATM   32  C   UNL     1      -9.026   8.764  70.560  1.00  0.00    -0.203 A  
HETATM   33  C   UNL     1      -8.811   7.557  71.244  1.00  0.00    -0.133 A  
HETATM   34 CL   UNL     1      -8.268   7.731  72.879  1.00  0.00    -0.160 Cl 
BRANCH  30  35
HETATM   35  C   UNL     1      -8.921   4.987  71.312  1.00  0.00    -0.164 C  
HETATM   36  C   UNL     1      -9.080   3.719  70.863  1.00  0.00    -0.180 C  
HETATM   37  C   UNL     1      -8.821   2.555  71.771  1.00  0.00    -0.075 C  
HETATM   38  C   UNL     1      -9.454   3.253  69.483  1.00  0.00    -0.205 C  
HETATM   39  O   UNL     1      -9.162   2.758  73.059  1.00  0.00    -0.087 OA 
HETATM   40  O   UNL     1      -8.402   1.481  71.369  1.00  0.00    -0.046 OA 
ENDBRANCH  30  35
ENDBRANCH  24  27
ENDBRANCH  21  23
ENDBRANCH  13  18
ENDBRANCH   8  10
ENDBRANCH   7   8
ENDBRANCH   6   7
ENDBRANCH   5   6
ENDBRANCH   4   5
ENDBRANCH   3   4
ENDBRANCH   2   3
TORSDOF 12
ENDMDL
MODEL       62
REMARK 921   NORMALIZED FREE ENERGY PREDICTED BY IDOCK:   28.16 KCAL/MOL
REMARK 922        TOTAL FREE ENERGY PREDICTED BY IDOCK:   46.31 KCAL/MOL
REMARK 923 INTER-LIGAND FREE ENERGY PREDICTED BY IDOCK:   16.55 KCAL/MOL
REMARK 924 INTRA-LIGAND FREE ENERGY PREDICTED BY IDOCK:   29.75 KCAL/MOL
REMARK 927      BINDING AFFINITY PREDICTED BY RF-SCORE:    0.00 PKD
ROOT
HETATM    1  C   UNL     1     -10.539   2.691  65.286  1.00  0.00     1.609 C  
HETATM    2  C   UNL     1      -9.830   4.020  65.137  1.00  0.00    -0.203 C  
ENDROOT
BRANCH   2   3
HETATM    3  C   UNL     1     -10.320   5.043  66.170  1.00  0.00    -0.309 C  
BRANCH   3   4
HETATM    4  C   UNL     1     -10.003   4.567  67.582  1.00  0.00    -0.138 C  
BRANCH   4   5
HETATM    5  C   UNL     1     -10.867   3.387  68.001  1.00  0.00     4.255 C  
BRANCH   5   6
HETATM    6  C   UNL     1     -11.206   3.491  69.483  1.00  0.00     6.709 C  
BRANCH   6   7
HETATM    7  O   UNL     1     -10.465   2.499  70.176  1.00  0.00     1.248 OA 
BRANCH   7   8
HETATM    8  C   UNL     1      -9.133   2.897  70.551  1.00  0.00    -0.120 C  
HETATM    9  C   UNL     1      -8.132   2.496  69.469  1.00  0.00    -0.061 C  
BRANCH   8  10
HETATM   10  C   UNL     1      -9.122   4.404  70.789  1.00  0.00    -0.182 A  
HETATM   11  C   UNL     1      -8.923   5.387  69.783  1.00  0.00    -0.124 A  
HETATM   12  C   UNL     1      -9.382   6.193  72.449  1.00  0.00    -0.146 A  
HETATM   13  C   UNL     1      -8.955   6.772  70.122  1.00  0.00    -0.149 A  
HETATM   14  C   UNL     1      -9.157   7.143  71.465  1.00  0.00    -0.143 A  
HETATM   15  C   UNL     1      -9.375   4.847  72.109  1.00  0.00    -0.167 A  
BRANCH  11  16
HETATM   16  O   UNL     1      -8.842   5.089  68.443  1.00  0.00    -0.101 OA 
HETATM   17  C   UNL     1      -9.804   4.192  67.903  1.00  0.00    -0.036 C  
ENDBRANCH  11  16
BRANCH  13  18
HETATM   18  C   UNL     1      -8.768   7.879  69.171  1.00  0.00    -0.138 A  
HETATM   19  C   UNL     1      -8.675   7.764  67.797  1.00  0.00    -0.123 A  
HETATM   20  S   UNL     1      -8.445   9.319  67.085  1.00  0.00    -0.124 SA 
HETATM   21  C   UNL     1      -8.620  10.030  68.625  1.00  0.00    -0.123 A  
HETATM   22  N   UNL     1      -8.761   9.197  69.622  1.00  0.00    -0.136 NA 
BRANCH  21  23
HETATM   23  N   UNL     1      -8.577  11.409  68.646  1.00  0.00    -0.241 N  
HETATM   24  C   UNL     1      -9.650  12.124  69.144  1.00  0.00     0.467 C  
HETATM   25  H   UNL     1      -7.755  11.899  68.294  1.00  0.00     0.000 HD 
HETATM   26  O   UNL     1     -10.738  11.659  69.471  1.00  0.00    -0.107 OA 
BRANCH  24  27
HETATM   27  C   UNL     1      -9.498  13.596  69.317  1.00  0.00     0.572 A  
HETATM   28  C   UNL     1     -10.320  14.403  70.100  1.00  0.00     0.536 A  
HETATM   29  C   UNL     1     -10.018  15.776  70.246  1.00  0.00     0.152 A  
HETATM   30  C   UNL     1      -8.913  16.400  69.601  1.00  0.00     0.330 A  
HETATM   31 CL   UNL     1     -11.103  16.676  71.267  1.00  0.00     0.153 Cl 
HETATM   32  C   UNL     1      -8.414  14.195  68.661  1.00  0.00    -0.120 A  
HETATM   33  C   UNL     1      -8.154  15.571  68.755  1.00  0.00    -0.170 A  
HETATM   34 CL   UNL     1      -6.941  16.161  67.671  1.00  0.00    -0.158 Cl 
BRANCH  30  35
HETATM   35  C   UNL     1      -8.700  17.875  69.763  1.00  0.00     1.325 C  
HETATM   36  C   UNL     1      -9.050  18.933  68.994  1.00  0.00    -0.198 C  
HETATM   37  C   UNL     1      -8.676  20.325  69.405  1.00  0.00     0.813 C  
HETATM   38  C   UNL     1      -9.856  18.943  67.725  1.00  0.00    -0.389 C  
HETATM   39  O   UNL     1      -7.482  20.430  70.021  1.00  0.00     0.329 OA 
HETATM   40  O   UNL     1      -9.360  21.301  69.140  1.00  0.00     1.963 OA 
ENDBRANCH  30  35
ENDBRANCH  24  27
ENDBRANCH  21  23
ENDBRANCH  13  18
ENDBRANCH   8  10
ENDBRANCH   7   8
ENDBRANCH   6   7
ENDBRANCH   5   6
ENDBRANCH   4   5
ENDBRANCH   3   4
ENDBRANCH   2   3
TORSDOF 12
ENDMDL
MODEL       63
REMARK 921   NORMALIZED FREE ENERGY PREDICTED BY IDOCK:   32.86 KCAL/MOL
REMARK 922        TOTAL FREE ENERGY PREDICTED BY IDOCK:   54.32 KCAL/MOL
REMARK 923 INTER-LIGAND FREE ENERGY PREDICTED BY IDOCK:   46.56 KCAL/MOL
REMARK 924 INTRA-LIGAND FREE ENERGY PREDICTED BY IDOCK:    7.76 KCAL/MOL
REMARK 927      BINDING AFFINITY PREDICTED BY RF-SCORE:    0.00 PKD
ROOT
HETATM    1  C   UNL     1      -9.375  14.443  72.103  1.00  0.00     7.081 C  
HETATM    2  C   UNL     1      -9.736  15.911  72.019  1.00  0.00     4.969 C  
ENDROOT
BRANCH   2   3
HETATM    3  C   UNL     1      -9.023  16.732  73.100  1.00  0.00    16.721 C  
BRANCH   3   4
HETATM    4  C   UNL     1      -7.781  17.401  72.527  1.00  0.00    13.535 C  
BRANCH   4   5
HETATM    5  C   UNL     1      -6.499  16.708  72.964  1.00  0.00     5.614 C  
BRANCH   5   6
HETATM    6  C   UNL     1      -5.814  16.074  71.760  1.00  0.00     1.087 C  
BRANCH   6   7
HETATM    7  O   UNL     1      -5.732  17.051  70.734  1.00  0.00    -0.082 OA 
BRANCH   7   8
HETATM    8  C   UNL     1      -6.995  17.617  70.340  1.00  0.00     1.709 C  
HETATM    9  C   UNL     1      -6.943  19.142  70.415  1.00  0.00     0.636 C  
BRANCH   8  10
HETATM   10  C   UNL     1      -7.327  17.140  68.929  1.00  0.00    -0.241 A  
HETATM   11  C   UNL     1      -7.959  15.907  68.612  1.00  0.00    -0.156 A  
HETATM   12  C   UNL     1      -7.269  17.695  66.539  1.00  0.00    -0.287 A  
HETATM   13  C   UNL     1      -8.239  15.578  67.253  1.00  0.00    -0.224 A  
HETATM   14  C   UNL     1      -7.857  16.476  66.238  1.00  0.00    -0.266 A  
HETATM   15  C   UNL     1      -7.020  18.021  67.866  1.00  0.00    -0.211 A  
BRANCH  11  16
HETATM   16  O   UNL     1      -8.459  15.051  69.563  1.00  0.00    -0.182 OA 
HETATM   17  C   UNL     1      -9.869  15.012  69.746  1.00  0.00    -0.027 C  
ENDBRANCH  11  16
BRANCH  13  18
HETATM   18  C   UNL     1      -8.890  14.339  66.801  1.00  0.00    -0.182 A  
HETATM   19  C   UNL     1      -9.560  14.161  65.606  1.00  0.00    -0.081 A  
HETATM   20  S   UNL     1     -10.177  12.552  65.504  1.00  0.00    -0.273 SA 
HETATM   21  C   UNL     1      -9.399  12.181  66.975  1.00  0.00    -0.201 A  
HETATM   22  N   UNL     1      -8.787  13.176  67.561  1.00  0.00    -0.188 NA 
BRANCH  21  23
HETATM   23  N   UNL     1      -9.519  10.870  67.390  1.00  0.00    -0.155 N  
HETATM   24  C   UNL     1      -9.218   9.842  66.516  1.00  0.00    -0.156 C  
HETATM   25  H   UNL     1      -9.829  10.661  68.339  1.00  0.00     0.000 HD 
HETATM   26  O   UNL     1      -8.964   9.960  65.322  1.00  0.00    -0.164 OA 
BRANCH  24  27
HETATM   27  C   UNL     1      -9.186   8.450  67.049  1.00  0.00    -0.186 A  
HETATM   28  C   UNL     1      -8.697   8.079  68.299  1.00  0.00    -0.130 A  
HETATM   29  C   UNL     1      -8.800   6.733  68.719  1.00  0.00    -0.131 A  
HETATM   30  C   UNL     1      -9.361   5.708  67.906  1.00  0.00    -0.112 A  
HETATM   31 CL   UNL     1      -8.177   6.396  70.309  1.00  0.00    -0.123 Cl 
HETATM   32  C   UNL     1      -9.727   7.452  66.227  1.00  0.00    -0.083 A  
HETATM   33  C   UNL     1      -9.768   6.105  66.620  1.00  0.00    -0.160 A  
HETATM   34 CL   UNL     1     -10.226   4.996  65.373  1.00  0.00    -0.004 Cl 
BRANCH  30  35
HETATM   35  C   UNL     1      -9.376   4.295  68.406  1.00  0.00    -0.209 C  
HETATM   36  C   UNL     1      -9.515   3.773  69.647  1.00  0.00    -0.258 C  
HETATM   37  C   UNL     1      -9.466   2.289  69.855  1.00  0.00    -0.051 C  
HETATM   38  C   UNL     1      -9.779   4.490  70.942  1.00  0.00    -0.263 C  
HETATM   39  O   UNL     1      -8.610   1.633  69.046  1.00  0.00    -0.052 OA 
HETATM   40  O   UNL     1     -10.095   1.722  70.734  1.00  0.00     0.045 OA 
ENDBRANCH  30  35
ENDBRANCH  24  27
ENDBRANCH  21  23
ENDBRANCH  13  18
ENDBRANCH   8  10
ENDBRANCH   7   8
ENDBRANCH   6   7
ENDBRANCH   5   6
ENDBRANCH   4   5
ENDBRANCH   3   4
ENDBRANCH   2   3
TORSDOF 12
ENDMDL
MODEL       64
REMARK 921   NORMALIZED FREE ENERGY PREDICTED BY IDOCK:   39.12 KCAL/MOL
REMARK 922        TOTAL FREE ENERGY PREDICTED BY IDOCK:   64.97 KCAL/MOL
REMARK 923 INTER-LIGAND FREE ENERGY PREDICTED BY IDOCK:   28.37 KCAL/MOL
REMARK 924 INTRA-LIGAND FREE ENERGY PREDICTED BY IDOCK:   36.60 KCAL/MOL
REMARK 927      BINDING AFFINITY PREDICTED BY RF-SCORE:    0.00 PKD
ROOT
HETATM    1  C   UNL     1     -10.014   3.278  65.506  1.00  0.00     0.204 C  
HETATM    2  C   UNL     1      -9.311   4.618  65.509  1.00  0.00    -0.159 C  
ENDROOT
BRANCH   2   3
HETATM    3  C   UNL     1      -9.973   5.604  66.480  1.00  0.00    -0.210 C  
BRANCH   3   4
HETATM    4  C   UNL     1     -10.073   4.993  67.872  1.00  0.00    -0.173 C  
BRANCH   4   5
HETATM    5  C   UNL     1     -11.148   3.920  67.956  1.00  0.00     4.595 C  
BRANCH   5   6
HETATM    6  C   UNL     1     -12.201   4.318  68.982  1.00  0.00    14.520 C  
BRANCH   6   7
HETATM    7  O   UNL     1     -12.051   3.480  70.118  1.00  0.00    11.232 OA 
BRANCH   7   8
HETATM    8  C   UNL     1     -10.998   3.870  71.018  1.00  0.00     1.991 C  
HETATM    9  C   UNL     1      -9.712   3.110  70.696  1.00  0.00    -0.137 C  
BRANCH   8  10
HETATM   10  C   UNL     1     -10.794   5.379  70.907  1.00  0.00    -0.190 A  
HETATM   11  C   UNL     1     -10.023   6.027  69.905  1.00  0.00    -0.176 A  
HETATM   12  C   UNL     1     -11.354   7.571  71.857  1.00  0.00    -0.298 A  
HETATM   13  C   UNL     1      -9.922   7.449  69.891  1.00  0.00    -0.188 A  
HETATM   14  C   UNL     1     -10.573   8.192  70.894  1.00  0.00    -0.236 A  
HETATM   15  C   UNL     1     -11.468   6.187  71.853  1.00  0.00    -0.355 A  
BRANCH  11  16
HETATM   16  O   UNL     1      -9.467   5.364  68.836  1.00  0.00    -0.122 OA 
HETATM   17  C   UNL     1     -10.286   4.441  68.129  1.00  0.00     0.197 C  
ENDBRANCH  11  16
BRANCH  13  18
HETATM   18  C   UNL     1      -9.160   8.232  68.906  1.00  0.00    -0.147 A  
HETATM   19  C   UNL     1      -8.564   7.739  67.760  1.00  0.00    -0.121 A  
HETATM   20  S   UNL     1      -7.765   9.012  66.911  1.00  0.00    -0.098 SA 
HETATM   21  C   UNL     1      -8.380  10.128  68.044  1.00  0.00    -0.117 A  
HETATM   22  N   UNL     1      -9.063   9.615  69.033  1.00  0.00    -0.142 NA 
BRANCH  21  23
HETATM   23  N   UNL     1      -8.070  11.449  67.796  1.00  0.00    -0.116 N  
HETATM   24  C   UNL     1      -9.084  12.378  67.647  1.00  0.00    -0.186 C  
HETATM   25  H   UNL     1      -7.096  11.741  67.722  1.00  0.00     0.000 HD 
HETATM   26  O   UNL     1     -10.285  12.131  67.584  1.00  0.00    -0.193 OA 
BRANCH  24  27
HETATM   27  C   UNL     1      -8.715  13.819  67.560  1.00  0.00    -0.194 A  
HETATM   28  C   UNL     1      -9.585  14.886  67.765  1.00  0.00    -0.208 A  
HETATM   29  C   UNL     1      -9.089  16.209  67.734  1.00  0.00    -0.197 A  
HETATM   30  C   UNL     1      -7.724  16.520  67.471  1.00  0.00    -0.171 A  
HETATM   31 CL   UNL     1     -10.267  17.457  68.027  1.00  0.00    -0.326 Cl 
HETATM   32  C   UNL     1      -7.370  14.104  67.283  1.00  0.00    -0.035 A  
HETATM   33  C   UNL     1      -6.893  15.421  67.188  1.00  0.00     0.006 A  
HETATM   34 CL   UNL     1      -5.279  15.571  66.583  1.00  0.00     1.258 Cl 
BRANCH  30  35
HETATM   35  C   UNL     1      -7.296  17.954  67.397  1.00  0.00    -0.205 C  
HETATM   36  C   UNL     1      -6.608  18.650  66.461  1.00  0.00    -0.219 C  
HETATM   37  C   UNL     1      -6.297  20.101  66.671  1.00  0.00    -0.189 C  
HETATM   38  C   UNL     1      -6.110  18.181  65.122  1.00  0.00    -0.077 C  
HETATM   39  O   UNL     1      -6.039  20.444  67.949  1.00  0.00    -0.219 OA 
HETATM   40  O   UNL     1      -6.211  20.900  65.752  1.00  0.00    -0.236 OA 
ENDBRANCH  30  35
ENDBRANCH  24  27
ENDBRANCH  21  23
ENDBRANCH  13  18
ENDBRANCH   8  10
ENDBRANCH   7   8
ENDBRANCH   6   7
ENDBRANCH   5   6
ENDBRANCH   4   5
ENDBRANCH   3   4
ENDBRANCH   2   3
TORSDOF 12
ENDMDL
MODEL       65
REMARK 921   NORMALIZED FREE ENERGY PREDICTED BY IDOCK:   43.08 KCAL/MOL
REMARK 922        TOTAL FREE ENERGY PREDICTED BY IDOCK:   71.71 KCAL/MOL
REMARK 923 INTER-LIGAND FREE ENERGY PREDICTED BY IDOCK:   53.21 KCAL/MOL
REMARK 924 INTRA-LIGAND FREE ENERGY PREDICTED BY IDOCK:   18.50 KCAL/MOL
REMARK 927      BINDING AFFINITY PREDICTED BY RF-SCORE:    0.00 PKD
ROOT
HETATM    1  C   UNL     1     -12.923  12.797  70.458  1.00  0.00     0.207 C  
HETATM    2  C   UNL     1     -13.462  12.729  69.046  1.00  0.00     4.310 C  
ENDROOT
BRANCH   2   3
HETATM    3  C   UNL     1     -12.849  13.816  68.153  1.00  0.00     1.425 C  
BRANCH   3   4
HETATM    4  C   UNL     1     -11.563  14.350  68.771  1.00  0.00    -0.348 C  
BRANCH   4   5
HETATM    5  C   UNL     1     -11.791  15.629  69.563  1.00  0.00    -0.387 C  
BRANCH   5   6
HETATM    6  C   UNL     1     -12.880  16.464  68.900  1.00  0.00     2.408 C  
BRANCH   6   7
HETATM    7  O   UNL     1     -13.564  17.183  69.914  1.00  0.00     6.888 OA 
BRANCH   7   8
HETATM    8  C   UNL     1     -12.741  18.096  70.662  1.00  0.00    15.322 C  
HETATM    9  C   UNL     1     -12.674  17.674  72.129  1.00  0.00     7.089 C  
BRANCH   8  10
HETATM   10  C   UNL     1     -11.351  18.132  70.031  1.00  0.00     3.390 A  
HETATM   11  C   UNL     1     -10.367  17.117  70.167  1.00  0.00     0.544 A  
HETATM   12  C   UNL     1      -9.816  19.392  68.589  1.00  0.00    -0.522 A  
HETATM   13  C   UNL     1      -9.108  17.252  69.510  1.00  0.00     0.530 A  
HETATM   14  C   UNL     1      -8.851  18.410  68.754  1.00  0.00    -0.239 A  
HETATM   15  C   UNL     1     -11.049  19.245  69.211  1.00  0.00     2.037 A  
BRANCH  11  16
HETATM   16  O   UNL     1     -10.605  15.915  70.791  1.00  0.00    -0.143 OA 
HETATM   17  C   UNL     1      -9.528  14.991  70.883  1.00  0.00     1.864 C  
ENDBRANCH  11  16
BRANCH  13  18
HETATM   18  C   UNL     1      -8.014  16.270  69.572  1.00  0.00     0.073 A  
HETATM   19  C   UNL     1      -6.679  16.523  69.325  1.00  0.00    -0.218 A  
HETATM   20  S   UNL     1      -5.756  15.075  69.499  1.00  0.00    -0.105 SA 
HETATM   21  C   UNL     1      -7.164  14.263  70.016  1.00  0.00     0.262 A  
HETATM   22  N   UNL     1      -8.265  14.966  69.995  1.00  0.00     0.264 NA 
BRANCH  21  23
HETATM   23  N   UNL     1      -6.983  12.945  70.383  1.00  0.00     0.525 N  
HETATM   24  C   UNL     1      -8.029  12.048  70.265  1.00  0.00     3.421 C  
HETATM   25  H   UNL     1      -6.080  12.634  70.739  1.00  0.00     0.000 HD 
HETATM   26  O   UNL     1      -9.189  12.326  69.977  1.00  0.00     2.514 OA 
BRANCH  24  27
HETATM   27  C   UNL     1      -7.749  10.603  70.499  1.00  0.00     1.215 A  
HETATM   28  C   UNL     1      -8.147   9.562  69.665  1.00  0.00    -0.128 A  
HETATM   29  C   UNL     1      -7.745   8.239  69.957  1.00  0.00    -0.095 A  
HETATM   30  C   UNL     1      -6.963   7.900  71.097  1.00  0.00    -0.049 A  
HETATM   31 CL   UNL     1      -8.285   7.027  68.830  1.00  0.00    -0.121 Cl 
HETATM   32  C   UNL     1      -6.991  10.288  71.636  1.00  0.00     1.737 A  
HETATM   33  C   UNL     1      -6.649   8.966  71.959  1.00  0.00    -0.002 A  
HETATM   34 CL   UNL     1      -5.946   8.757  73.526  1.00  0.00    -0.114 Cl 
BRANCH  30  35
HETATM   35  C   UNL     1      -6.632   6.462  71.364  1.00  0.00    -0.054 C  
HETATM   36  C   UNL     1      -7.359   5.326  71.246  1.00  0.00    -0.082 C  
HETATM   37  C   UNL     1      -6.761   4.002  71.615  1.00  0.00    -0.026 C  
HETATM   38  C   UNL     1      -8.757   5.158  70.720  1.00  0.00    -0.142 C  
HETATM   39  O   UNL     1      -5.912   4.037  72.661  1.00  0.00    -0.013 OA 
HETATM   40  O   UNL     1      -7.070   2.958  71.062  1.00  0.00    -0.032 OA 
ENDBRANCH  30  35
ENDBRANCH  24  27
ENDBRANCH  21  23
ENDBRANCH  13  18
ENDBRANCH   8  10
ENDBRANCH   7   8
ENDBRANCH   6   7
ENDBRANCH   5   6
ENDBRANCH   4   5
ENDBRANCH   3   4
ENDBRANCH   2   3
TORSDOF 12
ENDMDL
MODEL       66
REMARK 921   NORMALIZED FREE ENERGY PREDICTED BY IDOCK:   65.33 KCAL/MOL
REMARK 922        TOTAL FREE ENERGY PREDICTED BY IDOCK:  109.56 KCAL/MOL
REMARK 923 INTER-LIGAND FREE ENERGY PREDICTED BY IDOCK:   74.44 KCAL/MOL
REMARK 924 INTRA-LIGAND FREE ENERGY PREDICTED BY IDOCK:   35.12 KCAL/MOL
REMARK 927      BINDING AFFINITY PREDICTED BY RF-SCORE:    0.00 PKD
ROOT
HETATM    1  C   UNL     1     -10.157  18.667  69.354  1.00  0.00     0.083 C  
HETATM    2  C   UNL     1      -9.935  17.208  69.021  1.00  0.00    -0.273 C  
ENDROOT
BRANCH   2   3
HETATM    3  C   UNL     1     -10.892  16.725  67.924  1.00  0.00    -0.311 C  
BRANCH   3   4
HETATM    4  C   UNL     1     -10.961  17.742  66.792  1.00  0.00     0.160 C  
BRANCH   4   5
HETATM    5  C   UNL     1     -10.135  18.986  67.084  1.00  0.00    -0.435 C  
BRANCH   5   6
HETATM    6  C   UNL     1     -10.717  20.183  66.342  1.00  0.00    -0.116 C  
BRANCH   6   7
HETATM    7  O   UNL     1     -11.955  20.519  66.948  1.00  0.00     2.382 OA 
BRANCH   7   8
HETATM    8  C   UNL     1     -13.104  19.878  66.364  1.00  0.00     7.602 C  
HETATM    9  C   UNL     1     -13.334  20.387  64.942  1.00  0.00    13.800 C  
BRANCH   8  10
HETATM   10  C   UNL     1     -12.885  18.368  66.385  1.00  0.00     9.178 A  
HETATM   11  C   UNL     1     -12.007  17.659  65.522  1.00  0.00     3.918 A  
HETATM   12  C   UNL     1     -13.465  16.254  67.488  1.00  0.00     6.185 A  
HETATM   13  C   UNL     1     -11.868  16.245  65.649  1.00  0.00     1.168 A  
HETATM   14  C   UNL     1     -12.630  15.567  66.620  1.00  0.00     1.746 A  
HETATM   15  C   UNL     1     -13.579  17.633  67.375  1.00  0.00     9.536 A  
BRANCH  11  16
HETATM   16  O   UNL     1     -11.154  18.279  64.640  1.00  0.00    -0.407 OA 
HETATM   17  C   UNL     1      -9.937  18.805  65.154  1.00  0.00     1.700 C  
ENDBRANCH  11  16
BRANCH  13  18
HETATM   18  C   UNL     1     -10.992  15.404  64.819  1.00  0.00    -0.393 A  
HETATM   19  C   UNL     1     -10.363  15.791  63.651  1.00  0.00     4.953 A  
HETATM   20  S   UNL     1      -9.446  14.476  63.007  1.00  0.00    14.208 SA 
HETATM   21  C   UNL     1      -9.841  13.551  64.384  1.00  0.00     0.396 A  
HETATM   22  N   UNL     1     -10.654  14.119  65.235  1.00  0.00    -0.349 NA 
BRANCH  21  23
HETATM   23  N   UNL     1      -9.269  12.297  64.434  1.00  0.00    -0.134 N  
HETATM   24  C   UNL     1     -10.039  11.203  64.786  1.00  0.00    -0.295 C  
HETATM   25  H   UNL     1      -8.281  12.177  64.213  1.00  0.00     0.000 HD 
HETATM   26  O   UNL     1     -11.195  11.236  65.198  1.00  0.00    -0.144 OA 
BRANCH  24  27
HETATM   27  C   UNL     1      -9.438   9.846  64.657  1.00  0.00    -0.343 A  
HETATM   28  C   UNL     1      -8.372   9.515  63.824  1.00  0.00    -0.176 A  
HETATM   29  C   UNL     1      -7.840   8.206  63.855  1.00  0.00    -0.147 A  
HETATM   30  C   UNL     1      -8.363   7.176  64.688  1.00  0.00     0.048 A  
HETATM   31 CL   UNL     1      -6.496   7.919  62.787  1.00  0.00    -0.079 Cl 
HETATM   32  C   UNL     1      -9.977   8.842  65.473  1.00  0.00     0.461 A  
HETATM   33  C   UNL     1      -9.489   7.526  65.454  1.00  0.00     0.781 A  
HETATM   34 CL   UNL     1     -10.448   6.380  66.327  1.00  0.00     0.002 Cl 
BRANCH  30  35
HETATM   35  C   UNL     1      -7.776   5.799  64.614  1.00  0.00    -0.098 C  
HETATM   36  C   UNL     1      -6.673   5.313  63.998  1.00  0.00    -0.046 C  
HETATM   37  C   UNL     1      -6.338   3.855  64.079  1.00  0.00    -0.030 C  
HETATM   38  C   UNL     1      -5.622   6.065  63.228  1.00  0.00    -0.018 C  
HETATM   39  O   UNL     1      -7.405   3.030  64.086  1.00  0.00    -0.062 OA 
HETATM   40  O   UNL     1      -5.192   3.435  64.069  1.00  0.00    -0.008 OA 
ENDBRANCH  30  35
ENDBRANCH  24  27
ENDBRANCH  21  23
ENDBRANCH  13  18
ENDBRANCH   8  10
ENDBRANCH   7   8
ENDBRANCH   6   7
ENDBRANCH   5   6
ENDBRANCH   4   5
ENDBRANCH   3   4
ENDBRANCH   2   3
TORSDOF 12
ENDMDL
