MODEL        1
REMARK 921   NORMALIZED FREE ENERGY PREDICTED BY IDOCK:   -9.02 KCAL/MOL
REMARK 922        TOTAL FREE ENERGY PREDICTED BY IDOCK:  -15.16 KCAL/MOL
REMARK 923 INTER-LIGAND FREE ENERGY PREDICTED BY IDOCK:  -13.76 KCAL/MOL
REMARK 924 INTRA-LIGAND FREE ENERGY PREDICTED BY IDOCK:   -1.39 KCAL/MOL
REMARK 927      BINDING AFFINITY PREDICTED BY RF-SCORE:    0.00 PKD
ROOT
HETATM    1  C   UNK     1      -9.788   8.587  69.330  1.00  0.00    -0.185 C  
HETATM    2  C   UNK     1      -9.959  10.078  69.104  1.00  0.00    -0.213 C  
HETATM    3  C   UNK     1     -10.800  10.414  67.837  1.00  0.00    -0.331 C  
HETATM    4  C   UNK     1     -10.273   9.673  66.630  1.00  0.00    -0.302 C  
HETATM    5  C   UNK     1     -10.267  10.376  65.300  1.00  0.00    -0.262 C  
HETATM    6  C   UNK     1      -9.760   8.435  66.745  1.00  0.00    -0.242 C  
HETATM    7  O   UNK     1      -9.162   7.778  65.660  1.00  0.00    -0.390 OA 
HETATM    8  C   UNK     1      -9.462   7.741  68.075  1.00  0.00    -0.144 C  
HETATM    9  C   UNK     1     -10.962  11.680  65.159  1.00  0.00    -0.326 A  
HETATM   10  O   UNK     1      -9.701   9.886  64.321  1.00  0.00    -0.252 OA 
HETATM   11  C   UNK     1     -11.161  12.249  63.890  1.00  0.00    -0.421 A  
HETATM   12  O   UNK     1      -8.046   7.552  67.975  1.00  0.00    -0.120 OA 
HETATM   13  C   UNK     1     -10.228   6.370  68.447  1.00  0.00    -0.175 C  
HETATM   14  H   UNK     1      -8.799   6.904  65.741  1.00  0.00     0.000 HD 
HETATM   15  C   UNK     1     -10.202   5.977  69.929  1.00  0.00    -0.265 C  
HETATM   16  O   UNK     1     -10.756   5.616  67.634  1.00  0.00    -0.235 OA 
HETATM   17  C   UNK     1     -11.865  13.444  63.735  1.00  0.00    -0.483 A  
HETATM   18  H   UNK     1      -7.846   7.033  67.205  1.00  0.00     0.000 HD 
HETATM   19  O   UNK     1     -10.669  11.705  62.733  1.00  0.00    -0.607 OA 
HETATM   20  H   UNK     1     -11.990  13.307  68.554  1.00  0.00     0.000 HD 
HETATM   21  H   UNK     1     -10.803  12.089  61.875  1.00  0.00     0.000 HD 
HETATM   22  C   UNK     1     -12.380  14.089  64.851  1.00  0.00    -0.447 A  
HETATM   23  C   UNK     1      -9.051   6.461  70.453  1.00  0.00    -0.155 C  
HETATM   24  C   UNK     1      -8.962   8.046  70.578  1.00  0.00    -0.152 C  
HETATM   25  C   UNK     1      -9.612  12.704  67.976  1.00  0.00    -0.213 C  
HETATM   26  O   UNK     1     -11.910  12.365  68.649  1.00  0.00    -0.309 OA 
HETATM   27  O   UNK     1      -7.839   5.842  70.126  1.00  0.00    -0.094 OA 
HETATM   28  C   UNK     1     -12.141  13.566  66.122  1.00  0.00    -0.482 A  
HETATM   29  C   UNK     1     -10.931  11.958  67.682  1.00  0.00    -0.235 C  
HETATM   30  C   UNK     1     -11.402  12.375  66.301  1.00  0.00    -0.388 A  
HETATM   31  H   UNK     1      -7.032   6.181  70.493  1.00  0.00     0.000 HD 
ENDROOT
BRANCH  15  32
HETATM   32  C   UNK     1     -11.309   6.238  70.931  1.00  0.00    -0.325 C  
HETATM   33  H   UNK     1     -12.513   7.444  69.714  1.00  0.00     0.000 HD 
HETATM   34  O   UNK     1     -11.254   5.711  72.048  1.00  0.00    -0.257 OA 
HETATM   35  N   UNK     1     -12.388   7.033  70.639  1.00  0.00    -0.271 N  
BRANCH  35  36
HETATM   36  C   UNK     1     -13.339   7.261  71.703  1.00  0.00    -0.358 C  
BRANCH  36  37
HETATM   37  N   UNK     1     -12.816   8.320  72.540  1.00  0.00    -0.587 NA 
HETATM   38  H   UNK     1     -12.021   8.010  73.100  1.00  0.00     0.000 HD 
BRANCH  37  39
HETATM   39  C   UNK     1     -12.485   9.495  71.712  1.00  0.00    -0.401 C  
BRANCH  39  40
HETATM   40  C   UNK     1     -13.462  10.665  71.928  1.00  0.00    -0.341 C  
BRANCH  40  41
HETATM   41  C   UNK     1     -12.853  12.039  71.628  1.00  0.00    -0.399 C  
BRANCH  41  42
HETATM   42  C   UNK     1     -13.574  13.163  72.392  1.00  0.00    -0.667 C  
BRANCH  42  43
HETATM   43  C   UNK     1     -13.673  14.492  71.629  1.00  0.00    -0.407 C  
HETATM   44  C   UNK     1     -13.226  15.668  72.512  1.00  0.00    -0.497 C  
HETATM   45  N   UNK     1     -12.845  14.484  70.388  1.00  0.00    -0.501 NA 
HETATM   46  O   UNK     1     -13.893  16.177  73.396  1.00  0.00    -0.558 OA 
HETATM   47  O   UNK     1     -11.965  16.064  72.195  1.00  0.00    -0.454 OA 
HETATM   48  H2  UNK     1     -13.083  13.694  69.789  1.00  0.00     0.000 HD 
HETATM   49  H1  UNK     1     -12.912  15.367  69.881  1.00  0.00     0.000 HD 
ENDBRANCH  42  43
ENDBRANCH  41  42
ENDBRANCH  40  41
ENDBRANCH  39  40
ENDBRANCH  37  39
ENDBRANCH  36  37
ENDBRANCH  35  36
ENDBRANCH  15  32
BRANCH  24  50
HETATM   50  N   UNK     1      -7.556   8.436  70.839  1.00  0.00    -0.072 NA 
HETATM   51  C   UNK     1      -7.106   9.721  70.348  1.00  0.00    -0.141 C  
HETATM   52  C   UNK     1      -7.237   8.302  72.265  1.00  0.00    -0.100 C  
ENDBRANCH  24  50
TORSDOF 9
ENDMDL
MODEL        2
REMARK 921   NORMALIZED FREE ENERGY PREDICTED BY IDOCK:   -8.46 KCAL/MOL
REMARK 922        TOTAL FREE ENERGY PREDICTED BY IDOCK:  -14.30 KCAL/MOL
REMARK 923 INTER-LIGAND FREE ENERGY PREDICTED BY IDOCK:  -13.93 KCAL/MOL
REMARK 924 INTRA-LIGAND FREE ENERGY PREDICTED BY IDOCK:   -0.37 KCAL/MOL
REMARK 927      BINDING AFFINITY PREDICTED BY RF-SCORE:    0.00 PKD
ROOT
HETATM    1  C   UNK     1      -9.077  12.261  66.576  1.00  0.00    -0.188 C  
HETATM    2  C   UNK     1      -8.295  13.458  67.086  1.00  0.00    -0.149 C  
HETATM    3  C   UNK     1      -9.182  14.719  67.310  1.00  0.00    -0.211 C  
HETATM    4  C   UNK     1     -10.015  15.015  66.085  1.00  0.00    -0.313 C  
HETATM    5  C   UNK     1     -10.235  16.451  65.693  1.00  0.00    -0.324 C  
HETATM    6  C   UNK     1     -10.502  14.022  65.320  1.00  0.00    -0.382 C  
HETATM    7  O   UNK     1     -11.179  14.276  64.119  1.00  0.00    -0.599 OA 
HETATM    8  C   UNK     1     -10.114  12.549  65.463  1.00  0.00    -0.265 C  
HETATM    9  C   UNK     1      -9.815  17.533  66.618  1.00  0.00    -0.308 A  
HETATM   10  O   UNK     1     -10.762  16.746  64.619  1.00  0.00    -0.778 OA 
HETATM   11  C   UNK     1     -10.202  18.864  66.382  1.00  0.00    -0.426 A  
HETATM   12  O   UNK     1      -9.529  12.294  64.181  1.00  0.00    -0.501 OA 
HETATM   13  C   UNK     1     -11.244  11.460  65.837  1.00  0.00    -0.107 C  
HETATM   14  H   UNK     1     -11.522  13.575  63.578  1.00  0.00     0.000 HD 
HETATM   15  C   UNK     1     -10.724  10.119  66.370  1.00  0.00    -0.077 C  
HETATM   16  O   UNK     1     -12.451  11.610  65.664  1.00  0.00     0.242 OA 
HETATM   17  C   UNK     1      -9.868  19.884  67.273  1.00  0.00    -0.536 A  
HETATM   18  H   UNK     1     -10.165  12.470  63.498  1.00  0.00     0.000 HD 
HETATM   19  O   UNK     1     -10.898  19.261  65.271  1.00  0.00    -0.503 OA 
HETATM   20  H   UNK     1      -7.529  16.328  69.542  1.00  0.00     0.000 HD 
HETATM   21  H   UNK     1     -11.159  20.161  65.110  1.00  0.00     0.000 HD 
HETATM   22  C   UNK     1      -9.137  19.587  68.416  1.00  0.00    -0.410 A  
HETATM   23  C   UNK     1      -9.511   9.907  65.806  1.00  0.00    -0.222 C  
HETATM   24  C   UNK     1      -8.345  10.877  66.291  1.00  0.00    -0.164 C  
HETATM   25  C   UNK     1      -6.948  16.002  67.111  1.00  0.00    -0.242 C  
HETATM   26  O   UNK     1      -8.063  15.610  69.221  1.00  0.00    -0.217 OA 
HETATM   27  O   UNK     1      -9.439   9.553  64.454  1.00  0.00    -0.426 OA 
HETATM   28  C   UNK     1      -8.699  18.281  68.635  1.00  0.00    -0.290 A  
HETATM   29  C   UNK     1      -8.307  15.896  67.836  1.00  0.00    -0.153 C  
HETATM   30  C   UNK     1      -8.999  17.241  67.726  1.00  0.00    -0.234 A  
HETATM   31  H   UNK     1      -8.588   9.404  64.059  1.00  0.00     0.000 HD 
ENDROOT
BRANCH  15  32
HETATM   32  C   UNK     1     -10.627   9.728  67.830  1.00  0.00    -0.259 C  
HETATM   33  H   UNK     1     -11.715  11.333  68.625  1.00  0.00     0.000 HD 
HETATM   34  O   UNK     1     -10.049   8.681  68.142  1.00  0.00    -0.181 OA 
HETATM   35  N   UNK     1     -11.176  10.491  68.830  1.00  0.00    -0.258 N  
BRANCH  35  36
HETATM   36  C   UNK     1     -10.955  10.048  70.188  1.00  0.00    -0.310 C  
BRANCH  36  37
HETATM   37  N   UNK     1     -12.090   9.235  70.575  1.00  0.00    -0.478 NA 
HETATM   38  H   UNK     1     -11.885   8.649  71.384  1.00  0.00     0.000 HD 
BRANCH  37  39
HETATM   39  C   UNK     1     -13.267  10.096  70.798  1.00  0.00    -0.226 C  
BRANCH  39  40
HETATM   40  C   UNK     1     -13.059  11.095  71.950  1.00  0.00    -0.513 C  
BRANCH  40  41
HETATM   41  C   UNK     1     -13.017  12.558  71.496  1.00  0.00    -0.379 C  
BRANCH  41  42
HETATM   42  C   UNK     1     -13.665  13.496  72.529  1.00  0.00    -0.664 C  
BRANCH  42  43
HETATM   43  C   UNK     1     -13.866  14.940  72.043  1.00  0.00    -0.460 C  
HETATM   44  C   UNK     1     -12.987  15.916  72.841  1.00  0.00    -0.499 C  
HETATM   45  N   UNK     1     -13.550  15.088  70.593  1.00  0.00    -0.668 NA 
HETATM   46  O   UNK     1     -13.221  16.311  73.971  1.00  0.00    -0.651 OA 
HETATM   47  O   UNK     1     -11.886  16.276  72.129  1.00  0.00    -0.507 OA 
HETATM   48  H2  UNK     1     -14.085  14.428  70.028  1.00  0.00     0.000 HD 
HETATM   49  H1  UNK     1     -13.684  16.046  70.271  1.00  0.00     0.000 HD 
ENDBRANCH  42  43
ENDBRANCH  41  42
ENDBRANCH  40  41
ENDBRANCH  39  40
ENDBRANCH  37  39
ENDBRANCH  36  37
ENDBRANCH  35  36
ENDBRANCH  15  32
BRANCH  24  50
HETATM   50  N   UNK     1      -7.193  10.756  65.366  1.00  0.00    -0.002 NA 
HETATM   51  C   UNK     1      -5.901  11.215  65.826  1.00  0.00     0.013 C  
HETATM   52  C   UNK     1      -7.087   9.386  64.849  1.00  0.00    -0.105 C  
ENDBRANCH  24  50
TORSDOF 9
ENDMDL
MODEL        3
REMARK 921   NORMALIZED FREE ENERGY PREDICTED BY IDOCK:   -8.04 KCAL/MOL
REMARK 922        TOTAL FREE ENERGY PREDICTED BY IDOCK:  -13.66 KCAL/MOL
REMARK 923 INTER-LIGAND FREE ENERGY PREDICTED BY IDOCK:  -12.55 KCAL/MOL
REMARK 924 INTRA-LIGAND FREE ENERGY PREDICTED BY IDOCK:   -1.11 KCAL/MOL
REMARK 927      BINDING AFFINITY PREDICTED BY RF-SCORE:    0.00 PKD
ROOT
HETATM    1  C   UNK     1      -8.998  13.210  67.503  1.00  0.00    -0.197 C  
HETATM    2  C   UNK     1      -7.763  13.936  68.005  1.00  0.00    -0.151 C  
HETATM    3  C   UNK     1      -8.017  15.443  68.303  1.00  0.00    -0.128 C  
HETATM    4  C   UNK     1      -8.684  16.119  67.127  1.00  0.00    -0.216 C  
HETATM    5  C   UNK     1      -8.281  17.527  66.783  1.00  0.00    -0.244 C  
HETATM    6  C   UNK     1      -9.574  15.462  66.362  1.00  0.00    -0.293 C  
HETATM    7  O   UNK     1     -10.116  16.032  65.202  1.00  0.00    -0.485 OA 
HETATM    8  C   UNK     1      -9.848  13.959  66.449  1.00  0.00    -0.295 C  
HETATM    9  C   UNK     1      -7.410  18.286  67.713  1.00  0.00    -0.218 A  
HETATM   10  O   UNK     1      -8.667  18.065  65.743  1.00  0.00    -0.482 OA 
HETATM   11  C   UNK     1      -7.198  19.664  67.529  1.00  0.00    -0.232 A  
HETATM   12  O   UNK     1      -9.470  13.535  65.134  1.00  0.00    -0.453 OA 
HETATM   13  C   UNK     1     -11.322  13.440  66.849  1.00  0.00    -0.323 C  
HETATM   14  H   UNK     1     -10.744  15.568  64.661  1.00  0.00     0.000 HD 
HETATM   15  C   UNK     1     -11.408  11.984  67.323  1.00  0.00    -0.394 C  
HETATM   16  O   UNK     1     -12.354  14.098  66.739  1.00  0.00    -0.438 OA 
HETATM   17  C   UNK     1      -6.431  20.405  68.429  1.00  0.00    -0.340 A  
HETATM   18  H   UNK     1      -9.992  13.995  64.487  1.00  0.00     0.000 HD 
HETATM   19  O   UNK     1      -7.694  20.368  66.463  1.00  0.00    -0.410 OA 
HETATM   20  H   UNK     1      -5.763  16.097  70.492  1.00  0.00     0.000 HD 
HETATM   21  H   UNK     1      -7.551  21.299  66.339  1.00  0.00     0.000 HD 
HETATM   22  C   UNK     1      -5.860  19.776  69.528  1.00  0.00    -0.304 A  
HETATM   23  C   UNK     1     -10.421  11.300  66.696  1.00  0.00    -0.247 C  
HETATM   24  C   UNK     1      -8.937  11.659  67.148  1.00  0.00    -0.173 C  
HETATM   25  C   UNK     1      -5.457  15.660  68.028  1.00  0.00    -0.135 C  
HETATM   26  O   UNK     1      -6.562  15.689  70.180  1.00  0.00    -0.104 OA 
HETATM   27  O   UNK     1     -10.552  11.009  65.334  1.00  0.00    -0.258 OA 
HETATM   28  C   UNK     1      -6.015  18.400  69.692  1.00  0.00    -0.261 A  
HETATM   29  C   UNK     1      -6.706  16.111  68.815  1.00  0.00    -0.136 C  
HETATM   30  C   UNK     1      -6.761  17.626  68.773  1.00  0.00    -0.230 A  
HETATM   31  H   UNK     1      -9.860  10.529  64.894  1.00  0.00     0.000 HD 
ENDROOT
BRANCH  15  32
HETATM   32  C   UNK     1     -11.439  11.526  68.767  1.00  0.00    -0.287 C  
HETATM   33  H   UNK     1     -11.162   9.480  68.421  1.00  0.00     0.000 HD 
HETATM   34  O   UNK     1     -11.559  12.365  69.668  1.00  0.00    -0.285 OA 
HETATM   35  N   UNK     1     -11.323  10.206  69.119  1.00  0.00    -0.185 N  
BRANCH  35  36
HETATM   36  C   UNK     1     -11.439   9.890  70.525  1.00  0.00    -0.318 C  
BRANCH  36  37
HETATM   37  N   UNK     1     -12.849   9.878  70.857  1.00  0.00    -0.492 NA 
HETATM   38  H   UNK     1     -13.238   8.935  70.843  1.00  0.00     0.000 HD 
BRANCH  37  39
HETATM   39  C   UNK     1     -13.063  10.547  72.154  1.00  0.00    -0.308 C  
BRANCH  39  40
HETATM   40  C   UNK     1     -13.894  11.836  72.024  1.00  0.00     0.240 C  
BRANCH  40  41
HETATM   41  C   UNK     1     -13.057  13.118  72.090  1.00  0.00    -0.481 C  
BRANCH  41  42
HETATM   42  C   UNK     1     -13.919  14.375  71.878  1.00  0.00    -0.574 C  
BRANCH  42  43
HETATM   43  C   UNK     1     -13.186  15.544  71.202  1.00  0.00    -0.507 C  
HETATM   44  C   UNK     1     -11.920  15.926  71.983  1.00  0.00    -0.513 C  
HETATM   45  N   UNK     1     -12.802  15.222  69.797  1.00  0.00    -0.608 NA 
HETATM   46  O   UNK     1     -11.899  16.570  73.019  1.00  0.00    -0.507 OA 
HETATM   47  O   UNK     1     -10.806  15.431  71.381  1.00  0.00    -0.264 OA 
HETATM   48  H2  UNK     1     -13.610  14.925  69.250  1.00  0.00     0.000 HD 
HETATM   49  H1  UNK     1     -12.317  15.999  69.348  1.00  0.00     0.000 HD 
ENDBRANCH  42  43
ENDBRANCH  41  42
ENDBRANCH  40  41
ENDBRANCH  39  40
ENDBRANCH  37  39
ENDBRANCH  36  37
ENDBRANCH  35  36
ENDBRANCH  15  32
BRANCH  24  50
HETATM   50  N   UNK     1      -7.979  11.099  66.166  1.00  0.00    -0.132 NA 
HETATM   51  C   UNK     1      -6.565  11.281  66.416  1.00  0.00    -0.069 C  
HETATM   52  C   UNK     1      -8.268   9.682  65.910  1.00  0.00    -0.119 C  
ENDBRANCH  24  50
TORSDOF 9
ENDMDL
MODEL        4
REMARK 921   NORMALIZED FREE ENERGY PREDICTED BY IDOCK:   -7.82 KCAL/MOL
REMARK 922        TOTAL FREE ENERGY PREDICTED BY IDOCK:  -13.33 KCAL/MOL
REMARK 923 INTER-LIGAND FREE ENERGY PREDICTED BY IDOCK:  -12.76 KCAL/MOL
REMARK 924 INTRA-LIGAND FREE ENERGY PREDICTED BY IDOCK:   -0.57 KCAL/MOL
REMARK 927      BINDING AFFINITY PREDICTED BY RF-SCORE:    0.00 PKD
ROOT
HETATM    1  C   UNK     1      -9.511  12.771  66.759  1.00  0.00    -0.243 C  
HETATM    2  C   UNK     1      -8.781  13.981  67.313  1.00  0.00    -0.227 C  
HETATM    3  C   UNK     1      -9.669  15.260  67.368  1.00  0.00    -0.208 C  
HETATM    4  C   UNK     1     -10.336  15.509  66.035  1.00  0.00    -0.342 C  
HETATM    5  C   UNK     1     -10.481  16.929  65.557  1.00  0.00    -0.204 C  
HETATM    6  C   UNK     1     -10.736  14.488  65.257  1.00  0.00    -0.376 C  
HETATM    7  O   UNK     1     -11.251  14.695  63.970  1.00  0.00    -0.553 OA 
HETATM    8  C   UNK     1     -10.392  13.019  65.512  1.00  0.00    -0.294 C  
HETATM    9  C   UNK     1     -10.166  18.047  66.481  1.00  0.00    -0.383 A  
HETATM   10  O   UNK     1     -10.862  17.181  64.413  1.00  0.00    -0.662 OA 
HETATM   11  C   UNK     1     -10.499  19.369  66.140  1.00  0.00    -0.508 A  
HETATM   12  O   UNK     1      -9.653  12.701  64.327  1.00  0.00    -0.539 OA 
HETATM   13  C   UNK     1     -11.578  11.959  65.784  1.00  0.00    -0.215 C  
HETATM   14  H   UNK     1     -11.534  13.974  63.420  1.00  0.00     0.000 HD 
HETATM   15  C   UNK     1     -11.151  10.638  66.437  1.00  0.00     0.039 C  
HETATM   16  O   UNK     1     -12.751  12.113  65.453  1.00  0.00    -0.384 OA 
HETATM   17  C   UNK     1     -10.264  20.424  67.022  1.00  0.00    -0.421 A  
HETATM   18  H   UNK     1     -10.194  12.854  63.561  1.00  0.00     0.000 HD 
HETATM   19  O   UNK     1     -11.041  19.724  64.933  1.00  0.00    -0.154 OA 
HETATM   20  H   UNK     1      -8.289  16.950  69.722  1.00  0.00     0.000 HD 
HETATM   21  H   UNK     1     -11.266  20.617  64.703  1.00  0.00     0.000 HD 
HETATM   22  C   UNK     1      -9.690  20.171  68.261  1.00  0.00    -0.375 A  
HETATM   23  C   UNK     1      -9.879  10.389  66.042  1.00  0.00    -0.232 C  
HETATM   24  C   UNK     1      -8.769  11.368  66.630  1.00  0.00    -0.178 C  
HETATM   25  C   UNK     1      -7.409  16.511  67.401  1.00  0.00    -0.176 C  
HETATM   26  O   UNK     1      -8.789  16.224  69.367  1.00  0.00    -0.204 OA 
HETATM   27  O   UNK     1      -9.642   9.975  64.727  1.00  0.00    -0.283 OA 
HETATM   28  C   UNK     1      -9.303  18.872  68.590  1.00  0.00    -0.415 A  
HETATM   29  C   UNK     1      -8.850  16.450  67.951  1.00  0.00    -0.184 C  
HETATM   30  C   UNK     1      -9.501  17.796  67.696  1.00  0.00    -0.255 A  
HETATM   31  H   UNK     1      -8.750   9.800  64.450  1.00  0.00     0.000 HD 
ENDROOT
BRANCH  15  32
HETATM   32  C   UNK     1     -11.247  10.312  67.913  1.00  0.00    -0.220 C  
HETATM   33  H   UNK     1     -12.445  11.932  68.483  1.00  0.00     0.000 HD 
HETATM   34  O   UNK     1     -10.706   9.288  68.345  1.00  0.00    -0.211 OA 
HETATM   35  N   UNK     1     -11.931  11.108  68.796  1.00  0.00    -0.323 N  
BRANCH  35  36
HETATM   36  C   UNK     1     -11.889  10.727  70.189  1.00  0.00    -0.343 C  
BRANCH  36  37
HETATM   37  N   UNK     1     -13.101   9.987  70.478  1.00  0.00    -0.599 NA 
HETATM   38  H   UNK     1     -13.132   9.095  69.984  1.00  0.00     0.000 HD 
BRANCH  37  39
HETATM   39  C   UNK     1     -13.248   9.820  71.936  1.00  0.00    -0.449 C  
BRANCH  39  40
HETATM   40  C   UNK     1     -14.080   8.579  72.307  1.00  0.00    -0.446 C  
BRANCH  40  41
HETATM   41  C   UNK     1     -13.756   7.344  71.459  1.00  0.00    -0.467 C  
BRANCH  41  42
HETATM   42  C   UNK     1     -12.434   6.686  71.891  1.00  0.00    -0.334 C  
BRANCH  42  43
HETATM   43  C   UNK     1     -11.283   6.847  70.886  1.00  0.00    -0.289 C  
HETATM   44  C   UNK     1     -10.244   5.728  71.057  1.00  0.00    -0.217 C  
HETATM   45  N   UNK     1     -11.770   6.835  69.476  1.00  0.00    -0.637 NA 
HETATM   46  O   UNK     1      -9.405   5.676  71.941  1.00  0.00    -0.145 OA 
HETATM   47  O   UNK     1     -10.388   4.776  70.098  1.00  0.00    -0.242 OA 
HETATM   48  H2  UNK     1     -12.493   7.539  69.328  1.00  0.00     0.000 HD 
HETATM   49  H1  UNK     1     -11.006   6.943  68.809  1.00  0.00     0.000 HD 
ENDBRANCH  42  43
ENDBRANCH  41  42
ENDBRANCH  40  41
ENDBRANCH  39  40
ENDBRANCH  37  39
ENDBRANCH  36  37
ENDBRANCH  35  36
ENDBRANCH  15  32
BRANCH  24  50
HETATM   50  N   UNK     1      -7.512  11.194  65.866  1.00  0.00     0.020 NA 
HETATM   51  C   UNK     1      -6.296  11.745  66.424  1.00  0.00     0.225 C  
HETATM   52  C   UNK     1      -7.311   9.783  65.513  1.00  0.00    -0.112 C  
ENDBRANCH  24  50
TORSDOF 9
ENDMDL
MODEL        5
REMARK 921   NORMALIZED FREE ENERGY PREDICTED BY IDOCK:   -7.33 KCAL/MOL
REMARK 922        TOTAL FREE ENERGY PREDICTED BY IDOCK:  -12.57 KCAL/MOL
REMARK 923 INTER-LIGAND FREE ENERGY PREDICTED BY IDOCK:  -12.00 KCAL/MOL
REMARK 924 INTRA-LIGAND FREE ENERGY PREDICTED BY IDOCK:   -0.58 KCAL/MOL
REMARK 927      BINDING AFFINITY PREDICTED BY RF-SCORE:    0.00 PKD
ROOT
HETATM    1  C   UNK     1      -9.473  12.632  66.817  1.00  0.00    -0.237 C  
HETATM    2  C   UNK     1      -8.704  13.840  67.320  1.00  0.00    -0.226 C  
HETATM    3  C   UNK     1      -9.569  15.134  67.383  1.00  0.00    -0.208 C  
HETATM    4  C   UNK     1     -10.281  15.369  66.071  1.00  0.00    -0.343 C  
HETATM    5  C   UNK     1     -10.421  16.782  65.572  1.00  0.00    -0.237 C  
HETATM    6  C   UNK     1     -10.727  14.340  65.329  1.00  0.00    -0.366 C  
HETATM    7  O   UNK     1     -11.286  14.532  64.058  1.00  0.00    -0.591 OA 
HETATM    8  C   UNK     1     -10.397  12.871  65.599  1.00  0.00    -0.282 C  
HETATM    9  C   UNK     1     -10.054  17.911  66.461  1.00  0.00    -0.370 A  
HETATM   10  O   UNK     1     -10.842  17.019  64.438  1.00  0.00    -0.738 OA 
HETATM   11  C   UNK     1     -10.378  19.232  66.107  1.00  0.00    -0.494 A  
HETATM   12  O   UNK     1      -9.708  12.519  64.393  1.00  0.00    -0.524 OA 
HETATM   13  C   UNK     1     -11.588  11.836  65.936  1.00  0.00    -0.130 C  
HETATM   14  H   UNK     1     -11.601  13.805  63.533  1.00  0.00     0.000 HD 
HETATM   15  C   UNK     1     -11.158  10.521  66.597  1.00  0.00    -0.006 C  
HETATM   16  O   UNK     1     -12.770  12.004  65.646  1.00  0.00     0.010 OA 
HETATM   17  C   UNK     1     -10.094  20.300  66.959  1.00  0.00    -0.567 A  
HETATM   18  H   UNK     1     -10.275  12.665  63.646  1.00  0.00     0.000 HD 
HETATM   19  O   UNK     1     -10.960  19.573  64.915  1.00  0.00    -0.251 OA 
HETATM   20  H   UNK     1      -8.074  16.845  69.650  1.00  0.00     0.000 HD 
HETATM   21  H   UNK     1     -11.179  20.466  64.675  1.00  0.00     0.000 HD 
HETATM   22  C   UNK     1      -9.478  20.061  68.180  1.00  0.00    -0.385 A  
HETATM   23  C   UNK     1      -9.906  10.243  66.161  1.00  0.00    -0.225 C  
HETATM   24  C   UNK     1      -8.759  11.215  66.687  1.00  0.00    -0.166 C  
HETATM   25  C   UNK     1      -7.289  16.347  67.307  1.00  0.00    -0.209 C  
HETATM   26  O   UNK     1      -8.598  16.120  69.328  1.00  0.00    -0.250 OA 
HETATM   27  O   UNK     1      -9.725   9.800  64.845  1.00  0.00    -0.364 OA 
HETATM   28  C   UNK     1      -9.099  18.762  68.519  1.00  0.00    -0.377 A  
HETATM   29  C   UNK     1      -8.709  16.321  67.911  1.00  0.00    -0.175 C  
HETATM   30  C   UNK     1      -9.348  17.672  67.654  1.00  0.00    -0.246 A  
HETATM   31  H   UNK     1      -8.847   9.606  64.539  1.00  0.00     0.000 HD 
ENDROOT
BRANCH  15  32
HETATM   32  C   UNK     1     -11.203  10.224  68.082  1.00  0.00    -0.229 C  
HETATM   33  H   UNK     1     -12.321  11.894  68.670  1.00  0.00     0.000 HD 
HETATM   34  O   UNK     1     -10.680   9.190  68.512  1.00  0.00    -0.196 OA 
HETATM   35  N   UNK     1     -11.823  11.059  68.977  1.00  0.00    -0.331 N  
BRANCH  35  36
HETATM   36  C   UNK     1     -11.736  10.701  70.375  1.00  0.00    -0.353 C  
BRANCH  36  37
HETATM   37  N   UNK     1     -13.005  10.117  70.758  1.00  0.00    -0.525 NA 
HETATM   38  H   UNK     1     -13.460   9.642  69.978  1.00  0.00     0.000 HD 
BRANCH  37  39
HETATM   39  C   UNK     1     -12.815   9.225  71.917  1.00  0.00    -0.404 C  
BRANCH  39  40
HETATM   40  C   UNK     1     -13.128   7.754  71.589  1.00  0.00    -0.378 C  
BRANCH  40  41
HETATM   41  C   UNK     1     -11.932   6.815  71.774  1.00  0.00    -0.382 C  
BRANCH  41  42
HETATM   42  C   UNK     1     -11.440   6.244  70.432  1.00  0.00    -0.414 C  
BRANCH  42  43
HETATM   43  C   UNK     1      -9.932   5.952  70.377  1.00  0.00    -0.192 C  
HETATM   44  C   UNK     1      -9.597   5.010  69.211  1.00  0.00    -0.162 C  
HETATM   45  N   UNK     1      -9.129   7.200  70.229  1.00  0.00    -0.155 NA 
HETATM   46  O   UNK     1      -9.786   3.804  69.203  1.00  0.00    -0.168 OA 
HETATM   47  O   UNK     1      -9.075   5.697  68.161  1.00  0.00    -0.111 OA 
HETATM   48  H2  UNK     1      -9.350   7.872  70.964  1.00  0.00     0.000 HD 
HETATM   49  H1  UNK     1      -8.128   7.006  70.193  1.00  0.00     0.000 HD 
ENDBRANCH  42  43
ENDBRANCH  41  42
ENDBRANCH  40  41
ENDBRANCH  39  40
ENDBRANCH  37  39
ENDBRANCH  36  37
ENDBRANCH  35  36
ENDBRANCH  15  32
BRANCH  24  50
HETATM   50  N   UNK     1      -7.535  11.005  65.880  1.00  0.00    -0.046 NA 
HETATM   51  C   UNK     1      -6.304  11.608  66.344  1.00  0.00     0.099 C  
HETATM   52  C   UNK     1      -7.327   9.577  65.614  1.00  0.00    -0.094 C  
ENDBRANCH  24  50
TORSDOF 9
ENDMDL
MODEL        6
REMARK 921   NORMALIZED FREE ENERGY PREDICTED BY IDOCK:   -7.28 KCAL/MOL
REMARK 922        TOTAL FREE ENERGY PREDICTED BY IDOCK:  -12.50 KCAL/MOL
REMARK 923 INTER-LIGAND FREE ENERGY PREDICTED BY IDOCK:  -11.18 KCAL/MOL
REMARK 924 INTRA-LIGAND FREE ENERGY PREDICTED BY IDOCK:   -1.32 KCAL/MOL
REMARK 927      BINDING AFFINITY PREDICTED BY RF-SCORE:    0.00 PKD
ROOT
HETATM    1  C   UNK     1      -9.852  10.227  69.315  1.00  0.00    -0.244 C  
HETATM    2  C   UNK     1      -9.715   9.676  70.722  1.00  0.00    -0.192 C  
HETATM    3  C   UNK     1      -9.041   8.273  70.767  1.00  0.00    -0.168 C  
HETATM    4  C   UNK     1      -9.714   7.322  69.805  1.00  0.00    -0.166 C  
HETATM    5  C   UNK     1      -9.888   5.884  70.217  1.00  0.00    -0.185 C  
HETATM    6  C   UNK     1     -10.205   7.754  68.630  1.00  0.00    -0.201 C  
HETATM    7  O   UNK     1     -10.933   6.913  67.777  1.00  0.00    -0.415 OA 
HETATM    8  C   UNK     1     -10.331   9.227  68.235  1.00  0.00    -0.217 C  
HETATM    9  C   UNK     1      -9.220   5.390  71.446  1.00  0.00    -0.171 A  
HETATM   10  O   UNK     1     -10.572   5.108  69.548  1.00  0.00    -0.239 OA 
HETATM   11  C   UNK     1      -9.183   4.015  71.734  1.00  0.00    -0.128 A  
HETATM   12  O   UNK     1     -11.749   9.344  68.063  1.00  0.00     0.081 OA 
HETATM   13  C   UNK     1      -9.521   9.780  66.953  1.00  0.00    -0.160 C  
HETATM   14  H   UNK     1     -11.281   7.219  66.947  1.00  0.00     0.000 HD 
HETATM   15  C   UNK     1      -9.359  11.303  66.877  1.00  0.00    -0.190 C  
HETATM   16  O   UNK     1      -9.098   9.084  66.034  1.00  0.00    -0.178 OA 
HETATM   17  C   UNK     1      -8.507   3.528  72.853  1.00  0.00    -0.082 A  
HETATM   18  H   UNK     1     -12.042   8.731  67.400  1.00  0.00     0.000 HD 
HETATM   19  O   UNK     1      -9.816   3.067  70.973  1.00  0.00    -0.152 OA 
HETATM   20  H   UNK     1      -7.777   8.216  73.717  1.00  0.00     0.000 HD 
HETATM   21  H   UNK     1      -9.792   2.137  71.168  1.00  0.00     0.000 HD 
HETATM   22  C   UNK     1      -7.858   4.412  73.704  1.00  0.00    -0.086 A  
HETATM   23  C   UNK     1     -10.437  11.852  67.487  1.00  0.00    -0.209 C  
HETATM   24  C   UNK     1     -10.513  11.653  69.065  1.00  0.00    -0.128 C  
HETATM   25  C   UNK     1     -10.207   8.075  73.064  1.00  0.00    -0.357 C  
HETATM   26  O   UNK     1      -7.842   8.515  72.817  1.00  0.00    -0.309 OA 
HETATM   27  O   UNK     1     -11.679  11.814  66.842  1.00  0.00    -0.557 OA 
HETATM   28  C   UNK     1      -7.933   5.784  73.461  1.00  0.00    -0.108 A  
HETATM   29  C   UNK     1      -8.934   7.783  72.242  1.00  0.00    -0.145 C  
HETATM   30  C   UNK     1      -8.642   6.298  72.351  1.00  0.00    -0.121 A  
HETATM   31  H   UNK     1     -12.434  12.199  67.270  1.00  0.00     0.000 HD 
ENDROOT
BRANCH  15  32
HETATM   32  C   UNK     1      -8.137  12.083  67.314  1.00  0.00    -0.174 C  
HETATM   33  H   UNK     1      -8.982  13.998  67.242  1.00  0.00     0.000 HD 
HETATM   34  O   UNK     1      -7.101  11.476  67.607  1.00  0.00    -0.087 OA 
HETATM   35  N   UNK     1      -8.138  13.452  67.413  1.00  0.00    -0.176 N  
BRANCH  35  36
HETATM   36  C   UNK     1      -6.889  14.083  67.773  1.00  0.00    -0.175 C  
BRANCH  36  37
HETATM   37  N   UNK     1      -6.733  15.255  66.935  1.00  0.00    -0.230 NA 
HETATM   38  H   UNK     1      -6.870  15.041  65.947  1.00  0.00     0.000 HD 
BRANCH  37  39
HETATM   39  C   UNK     1      -7.634  16.325  67.401  1.00  0.00    -0.155 C  
BRANCH  39  40
HETATM   40  C   UNK     1      -8.534  16.871  66.279  1.00  0.00    -0.322 C  
BRANCH  40  41
HETATM   41  C   UNK     1     -10.032  16.787  66.595  1.00  0.00    -0.300 C  
BRANCH  41  42
HETATM   42  C   UNK     1     -10.642  15.456  66.121  1.00  0.00    -0.321 C  
BRANCH  42  43
HETATM   43  C   UNK     1     -10.798  15.331  64.598  1.00  0.00    -0.257 C  
HETATM   44  C   UNK     1     -11.419  13.979  64.218  1.00  0.00    -0.297 C  
HETATM   45  N   UNK     1     -11.645  16.422  64.035  1.00  0.00    -1.542 NA 
HETATM   46  O   UNK     1     -10.827  12.912  64.199  1.00  0.00    -0.370 OA 
HETATM   47  O   UNK     1     -12.739  14.113  63.919  1.00  0.00    -0.715 OA 
HETATM   48  H2  UNK     1     -11.290  17.341  64.297  1.00  0.00     0.000 HD 
HETATM   49  H1  UNK     1     -11.748  16.339  63.023  1.00  0.00     0.000 HD 
ENDBRANCH  42  43
ENDBRANCH  41  42
ENDBRANCH  40  41
ENDBRANCH  39  40
ENDBRANCH  37  39
ENDBRANCH  36  37
ENDBRANCH  35  36
ENDBRANCH  15  32
BRANCH  24  50
HETATM   50  N   UNK     1     -11.876  11.998  69.534  1.00  0.00    -0.323 NA 
HETATM   51  C   UNK     1     -12.407  11.273  70.668  1.00  0.00    -0.383 C  
HETATM   52  C   UNK     1     -11.996  13.444  69.759  1.00  0.00    -0.330 C  
ENDBRANCH  24  50
TORSDOF 9
ENDMDL
MODEL        7
REMARK 921   NORMALIZED FREE ENERGY PREDICTED BY IDOCK:   -7.28 KCAL/MOL
REMARK 922        TOTAL FREE ENERGY PREDICTED BY IDOCK:  -12.50 KCAL/MOL
REMARK 923 INTER-LIGAND FREE ENERGY PREDICTED BY IDOCK:  -11.22 KCAL/MOL
REMARK 924 INTRA-LIGAND FREE ENERGY PREDICTED BY IDOCK:   -1.28 KCAL/MOL
REMARK 927      BINDING AFFINITY PREDICTED BY RF-SCORE:    0.00 PKD
ROOT
HETATM    1  C   UNK     1      -9.154  13.494  67.612  1.00  0.00    -0.205 C  
HETATM    2  C   UNK     1      -7.904  14.202  68.104  1.00  0.00    -0.142 C  
HETATM    3  C   UNK     1      -8.117  15.726  68.342  1.00  0.00    -0.143 C  
HETATM    4  C   UNK     1      -8.747  16.376  67.132  1.00  0.00    -0.207 C  
HETATM    5  C   UNK     1      -8.296  17.758  66.741  1.00  0.00    -0.248 C  
HETATM    6  C   UNK     1      -9.646  15.718  66.379  1.00  0.00    -0.285 C  
HETATM    7  O   UNK     1     -10.154  16.260  65.190  1.00  0.00    -0.518 OA 
HETATM    8  C   UNK     1      -9.967  14.229  66.519  1.00  0.00    -0.281 C  
HETATM    9  C   UNK     1      -7.414  18.525  67.655  1.00  0.00    -0.236 A  
HETATM   10  O   UNK     1      -8.651  18.268  65.677  1.00  0.00    -0.308 OA 
HETATM   11  C   UNK     1      -7.158  19.888  67.423  1.00  0.00    -0.235 A  
HETATM   12  O   UNK     1      -9.585  13.744  65.225  1.00  0.00    -0.545 OA 
HETATM   13  C   UNK     1     -11.462  13.771  66.916  1.00  0.00    -0.347 C  
HETATM   14  H   UNK     1     -10.789  15.795  64.658  1.00  0.00     0.000 HD 
HETATM   15  C   UNK     1     -11.598  12.336  67.443  1.00  0.00    -0.425 C  
HETATM   16  O   UNK     1     -12.471  14.454  66.767  1.00  0.00    -0.331 OA 
HETATM   17  C   UNK     1      -6.380  20.638  68.305  1.00  0.00    -0.352 A  
HETATM   18  H   UNK     1     -10.084  14.195  64.554  1.00  0.00     0.000 HD 
HETATM   19  O   UNK     1      -7.617  20.565  66.324  1.00  0.00    -0.472 OA 
HETATM   20  H   UNK     1      -5.873  16.394  70.538  1.00  0.00     0.000 HD 
HETATM   21  H   UNK     1      -7.444  21.486  66.167  1.00  0.00     0.000 HD 
HETATM   22  C   UNK     1      -5.844  20.035  69.435  1.00  0.00    -0.326 A  
HETATM   23  C   UNK     1     -10.625  11.599  66.856  1.00  0.00    -0.241 C  
HETATM   24  C   UNK     1      -9.136  11.931  67.316  1.00  0.00    -0.178 C  
HETATM   25  C   UNK     1      -5.548  15.855  68.097  1.00  0.00    -0.119 C  
HETATM   26  O   UNK     1      -6.680  15.999  70.229  1.00  0.00     0.089 OA 
HETATM   27  O   UNK     1     -10.746  11.261  65.504  1.00  0.00    -0.267 OA 
HETATM   28  C   UNK     1      -6.043  18.671  69.648  1.00  0.00    -0.271 A  
HETATM   29  C   UNK     1      -6.793  16.373  68.848  1.00  0.00    -0.180 C  
HETATM   30  C   UNK     1      -6.800  17.886  68.748  1.00  0.00    -0.255 A  
HETATM   31  H   UNK     1     -10.063  10.744  65.093  1.00  0.00     0.000 HD 
ENDROOT
BRANCH  15  32
HETATM   32  C   UNK     1     -11.663  11.935  68.902  1.00  0.00    -0.323 C  
HETATM   33  H   UNK     1     -11.694   9.859  68.623  1.00  0.00     0.000 HD 
HETATM   34  O   UNK     1     -11.640  12.810  69.775  1.00  0.00    -0.278 OA 
HETATM   35  N   UNK     1     -11.732  10.623  69.298  1.00  0.00    -0.280 N  
BRANCH  35  36
HETATM   36  C   UNK     1     -11.861  10.374  70.716  1.00  0.00    -0.368 C  
BRANCH  36  37
HETATM   37  N   UNK     1     -11.297   9.067  70.984  1.00  0.00    -0.278 NA 
HETATM   38  H   UNK     1     -11.333   8.458  70.167  1.00  0.00     0.000 HD 
BRANCH  37  39
HETATM   39  C   UNK     1      -9.924   9.213  71.506  1.00  0.00    -0.287 C  
BRANCH  39  40
HETATM   40  C   UNK     1      -8.853   8.941  70.435  1.00  0.00    -0.204 C  
BRANCH  40  41
HETATM   41  C   UNK     1      -9.312   7.974  69.337  1.00  0.00    -0.155 C  
BRANCH  41  42
HETATM   42  C   UNK     1      -9.140   6.505  69.762  1.00  0.00    -0.142 C  
BRANCH  42  43
HETATM   43  C   UNK     1     -10.456   5.726  69.913  1.00  0.00    -0.290 C  
HETATM   44  C   UNK     1     -10.720   5.373  71.384  1.00  0.00    -0.188 C  
HETATM   45  N   UNK     1     -11.621   6.495  69.388  1.00  0.00    -0.653 NA 
HETATM   46  O   UNK     1     -10.171   4.478  72.004  1.00  0.00    -0.192 OA 
HETATM   47  O   UNK     1     -11.643   6.210  71.929  1.00  0.00    -0.301 OA 
HETATM   48  H2  UNK     1     -11.469   6.784  68.422  1.00  0.00     0.000 HD 
HETATM   49  H1  UNK     1     -12.494   5.977  69.488  1.00  0.00     0.000 HD 
ENDBRANCH  42  43
ENDBRANCH  41  42
ENDBRANCH  40  41
ENDBRANCH  39  40
ENDBRANCH  37  39
ENDBRANCH  36  37
ENDBRANCH  35  36
ENDBRANCH  15  32
BRANCH  24  50
HETATM   50  N   UNK     1      -8.183  11.305  66.370  1.00  0.00    -0.166 NA 
HETATM   51  C   UNK     1      -6.782  11.642  66.495  1.00  0.00     0.039 C  
HETATM   52  C   UNK     1      -8.351   9.847  66.353  1.00  0.00    -0.125 C  
ENDBRANCH  24  50
TORSDOF 9
ENDMDL
MODEL        8
REMARK 921   NORMALIZED FREE ENERGY PREDICTED BY IDOCK:   -7.24 KCAL/MOL
REMARK 922        TOTAL FREE ENERGY PREDICTED BY IDOCK:  -12.44 KCAL/MOL
REMARK 923 INTER-LIGAND FREE ENERGY PREDICTED BY IDOCK:  -11.83 KCAL/MOL
REMARK 924 INTRA-LIGAND FREE ENERGY PREDICTED BY IDOCK:   -0.61 KCAL/MOL
REMARK 927      BINDING AFFINITY PREDICTED BY RF-SCORE:    0.00 PKD
ROOT
HETATM    1  C   UNK     1      -9.152  13.304  67.670  1.00  0.00    -0.204 C  
HETATM    2  C   UNK     1      -7.919  14.030  68.176  1.00  0.00    -0.149 C  
HETATM    3  C   UNK     1      -8.142  15.560  68.363  1.00  0.00    -0.136 C  
HETATM    4  C   UNK     1      -8.739  16.172  67.117  1.00  0.00    -0.216 C  
HETATM    5  C   UNK     1      -8.281  17.543  66.698  1.00  0.00    -0.256 C  
HETATM    6  C   UNK     1      -9.614  15.489  66.358  1.00  0.00    -0.291 C  
HETATM    7  O   UNK     1     -10.090  15.994  65.140  1.00  0.00    -0.485 OA 
HETATM    8  C   UNK     1      -9.935  14.003  66.532  1.00  0.00    -0.284 C  
HETATM    9  C   UNK     1      -7.427  18.340  67.614  1.00  0.00    -0.216 A  
HETATM   10  O   UNK     1      -8.606  18.019  65.609  1.00  0.00    -0.345 OA 
HETATM   11  C   UNK     1      -7.168  19.695  67.348  1.00  0.00    -0.224 A  
HETATM   12  O   UNK     1      -9.515  13.481  65.265  1.00  0.00    -0.492 OA 
HETATM   13  C   UNK     1     -11.439  13.551  66.900  1.00  0.00    -0.344 C  
HETATM   14  H   UNK     1     -10.708  15.510  64.603  1.00  0.00     0.000 HD 
HETATM   15  C   UNK     1     -11.587  12.133  67.465  1.00  0.00    -0.413 C  
HETATM   16  O   UNK     1     -12.446  14.226  66.702  1.00  0.00    -0.407 OA 
HETATM   17  C   UNK     1      -6.418  20.475  68.230  1.00  0.00    -0.338 A  
HETATM   18  H   UNK     1      -9.995  13.910  64.567  1.00  0.00     0.000 HD 
HETATM   19  O   UNK     1      -7.597  20.339  66.218  1.00  0.00    -0.376 OA 
HETATM   20  H   UNK     1      -5.964  16.300  70.601  1.00  0.00     0.000 HD 
HETATM   21  H   UNK     1      -7.422  21.255  66.038  1.00  0.00     0.000 HD 
HETATM   22  C   UNK     1      -5.913  19.907  69.392  1.00  0.00    -0.325 A  
HETATM   23  C   UNK     1     -10.595  11.382  66.929  1.00  0.00    -0.252 C  
HETATM   24  C   UNK     1      -9.121  11.732  67.421  1.00  0.00    -0.175 C  
HETATM   25  C   UNK     1      -5.567  15.691  68.187  1.00  0.00    -0.126 C  
HETATM   26  O   UNK     1      -6.761  15.893  70.281  1.00  0.00     0.052 OA 
HETATM   27  O   UNK     1     -10.677  11.003  65.584  1.00  0.00    -0.231 OA 
HETATM   28  C   UNK     1      -6.114  18.549  69.640  1.00  0.00    -0.269 A  
HETATM   29  C   UNK     1      -6.835  16.226  68.887  1.00  0.00    -0.165 C  
HETATM   30  C   UNK     1      -6.843  17.736  68.742  1.00  0.00    -0.247 A  
HETATM   31  H   UNK     1      -9.981  10.477  65.208  1.00  0.00     0.000 HD 
ENDROOT
BRANCH  15  32
HETATM   32  C   UNK     1     -11.693  11.774  68.933  1.00  0.00    -0.323 C  
HETATM   33  H   UNK     1     -11.646   9.691  68.720  1.00  0.00     0.000 HD 
HETATM   34  O   UNK     1     -11.730  12.676  69.778  1.00  0.00    -0.309 OA 
HETATM   35  N   UNK     1     -11.734  10.474  69.368  1.00  0.00    -0.249 N  
BRANCH  35  36
HETATM   36  C   UNK     1     -11.907  10.264  70.788  1.00  0.00    -0.365 C  
BRANCH  36  37
HETATM   37  N   UNK     1     -13.228   9.705  70.991  1.00  0.00    -0.554 NA 
HETATM   38  H   UNK     1     -13.607   9.295  70.137  1.00  0.00     0.000 HD 
BRANCH  37  39
HETATM   39  C   UNK     1     -13.194   8.736  72.103  1.00  0.00    -0.414 C  
BRANCH  39  40
HETATM   40  C   UNK     1     -13.207   7.276  71.615  1.00  0.00    -0.421 C  
BRANCH  40  41
HETATM   41  C   UNK     1     -11.844   6.583  71.712  1.00  0.00    -0.384 C  
BRANCH  41  42
HETATM   42  C   UNK     1     -11.051   7.051  72.945  1.00  0.00    -0.314 C  
BRANCH  42  43
HETATM   43  C   UNK     1      -9.528   6.883  72.828  1.00  0.00    -0.142 C  
HETATM   44  C   UNK     1      -8.830   8.248  72.738  1.00  0.00    -0.239 C  
HETATM   45  N   UNK     1      -8.961   6.130  73.984  1.00  0.00    -0.126 NA 
HETATM   46  O   UNK     1      -8.784   8.952  71.743  1.00  0.00    -0.312 OA 
HETATM   47  O   UNK     1      -8.276   8.593  73.931  1.00  0.00    -0.379 OA 
HETATM   48  H2  UNK     1      -9.426   5.230  74.104  1.00  0.00     0.000 HD 
HETATM   49  H1  UNK     1      -7.950   6.018  73.905  1.00  0.00     0.000 HD 
ENDBRANCH  42  43
ENDBRANCH  41  42
ENDBRANCH  40  41
ENDBRANCH  39  40
ENDBRANCH  37  39
ENDBRANCH  36  37
ENDBRANCH  35  36
ENDBRANCH  15  32
BRANCH  24  50
HETATM   50  N   UNK     1      -8.140  11.082  66.521  1.00  0.00    -0.157 NA 
HETATM   51  C   UNK     1      -6.746  11.444  66.662  1.00  0.00    -0.112 C  
HETATM   52  C   UNK     1      -8.288   9.622  66.561  1.00  0.00    -0.120 C  
ENDBRANCH  24  50
TORSDOF 9
ENDMDL
MODEL        9
REMARK 921   NORMALIZED FREE ENERGY PREDICTED BY IDOCK:   -7.07 KCAL/MOL
REMARK 922        TOTAL FREE ENERGY PREDICTED BY IDOCK:  -12.18 KCAL/MOL
REMARK 923 INTER-LIGAND FREE ENERGY PREDICTED BY IDOCK:  -11.10 KCAL/MOL
REMARK 924 INTRA-LIGAND FREE ENERGY PREDICTED BY IDOCK:   -1.07 KCAL/MOL
REMARK 927      BINDING AFFINITY PREDICTED BY RF-SCORE:    0.00 PKD
ROOT
HETATM    1  C   UNK     1      -8.590   8.697  68.718  1.00  0.00    -0.130 C  
HETATM    2  C   UNK     1      -8.117   7.286  69.013  1.00  0.00    -0.124 C  
HETATM    3  C   UNK     1      -9.201   6.408  69.704  1.00  0.00    -0.143 C  
HETATM    4  C   UNK     1      -9.783   7.117  70.905  1.00  0.00    -0.170 C  
HETATM    5  C   UNK     1     -10.115   6.307  72.129  1.00  0.00    -0.182 C  
HETATM    6  C   UNK     1      -9.946   8.452  70.911  1.00  0.00    -0.191 C  
HETATM    7  O   UNK     1     -10.375   9.140  72.054  1.00  0.00    -0.307 OA 
HETATM    8  C   UNK     1      -9.391   9.396  69.842  1.00  0.00    -0.214 C  
HETATM    9  C   UNK     1     -10.065   4.825  72.061  1.00  0.00    -0.258 A  
HETATM   10  O   UNK     1     -10.433   6.852  73.187  1.00  0.00    -0.235 OA 
HETATM   11  C   UNK     1     -10.577   4.045  73.111  1.00  0.00    -0.183 A  
HETATM   12  O   UNK     1      -8.512  10.211  70.627  1.00  0.00    -0.325 OA 
HETATM   13  C   UNK     1     -10.408  10.285  68.960  1.00  0.00    -0.211 C  
HETATM   14  H   UNK     1     -10.489  10.084  72.059  1.00  0.00     0.000 HD 
HETATM   15  C   UNK     1      -9.830  10.863  67.662  1.00  0.00    -0.192 C  
HETATM   16  O   UNK     1     -11.558  10.571  69.285  1.00  0.00    -0.261 OA 
HETATM   17  C   UNK     1     -10.593   2.652  73.037  1.00  0.00    -0.247 A  
HETATM   18  H   UNK     1      -9.003  10.640  71.317  1.00  0.00     0.000 HD 
HETATM   19  O   UNK     1     -11.065   4.575  74.277  1.00  0.00    -0.277 OA 
HETATM   20  H   UNK     1      -8.319   3.440  68.858  1.00  0.00     0.000 HD 
HETATM   21  H   UNK     1     -11.411   4.048  74.987  1.00  0.00     0.000 HD 
HETATM   22  C   UNK     1     -10.093   2.017  71.907  1.00  0.00    -0.203 A  
HETATM   23  C   UNK     1      -8.506  11.062  67.867  1.00  0.00    -0.128 C  
HETATM   24  C   UNK     1      -7.624   9.744  68.009  1.00  0.00    -0.082 C  
HETATM   25  C   UNK     1      -7.184   4.994  70.486  1.00  0.00    -0.054 C  
HETATM   26  O   UNK     1      -8.662   4.311  68.697  1.00  0.00    -0.091 OA 
HETATM   27  O   UNK     1      -8.093  12.121  68.684  1.00  0.00    -0.244 OA 
HETATM   28  C   UNK     1      -9.531   2.777  70.882  1.00  0.00    -0.224 A  
HETATM   29  C   UNK     1      -8.638   4.979  69.967  1.00  0.00    -0.098 C  
HETATM   30  C   UNK     1      -9.475   4.187  70.954  1.00  0.00    -0.232 A  
HETATM   31  H   UNK     1      -7.165  12.260  68.828  1.00  0.00     0.000 HD 
ENDROOT
BRANCH  15  32
HETATM   32  C   UNK     1      -9.998  10.268  66.279  1.00  0.00    -0.235 C  
HETATM   33  H   UNK     1      -9.176  11.855  65.187  1.00  0.00     0.000 HD 
HETATM   34  O   UNK     1     -10.471   9.132  66.160  1.00  0.00    -0.141 OA 
HETATM   35  N   UNK     1      -9.626  10.940  65.143  1.00  0.00    -0.227 N  
BRANCH  35  36
HETATM   36  C   UNK     1      -9.902  10.294  63.880  1.00  0.00    -0.183 C  
BRANCH  36  37
HETATM   37  N   UNK     1     -10.417  11.300  62.975  1.00  0.00    -0.728 NA 
HETATM   38  H   UNK     1     -10.270  11.049  61.997  1.00  0.00     0.000 HD 
BRANCH  37  39
HETATM   39  C   UNK     1     -11.839  11.559  63.272  1.00  0.00     0.016 C  
BRANCH  39  40
HETATM   40  C   UNK     1     -12.086  12.990  63.781  1.00  0.00    -0.574 C  
BRANCH  40  41
HETATM   41  C   UNK     1     -12.443  13.061  65.270  1.00  0.00    -0.555 C  
BRANCH  41  42
HETATM   42  C   UNK     1     -11.613  14.127  66.006  1.00  0.00    -0.364 C  
BRANCH  42  43
HETATM   43  C   UNK     1     -10.489  14.753  65.167  1.00  0.00    -0.418 C  
HETATM   44  C   UNK     1     -10.799  16.223  64.842  1.00  0.00    -0.296 C  
HETATM   45  N   UNK     1      -9.171  14.685  65.862  1.00  0.00    -0.514 NA 
HETATM   46  O   UNK     1     -11.586  16.605  63.992  1.00  0.00    -1.197 OA 
HETATM   47  O   UNK     1     -10.093  17.061  65.646  1.00  0.00    -0.554 OA 
HETATM   48  H2  UNK     1      -8.944  13.728  66.132  1.00  0.00     0.000 HD 
HETATM   49  H1  UNK     1      -8.425  15.100  65.304  1.00  0.00     0.000 HD 
ENDBRANCH  42  43
ENDBRANCH  41  42
ENDBRANCH  40  41
ENDBRANCH  39  40
ENDBRANCH  37  39
ENDBRANCH  36  37
ENDBRANCH  35  36
ENDBRANCH  15  32
BRANCH  24  50
HETATM   50  N   UNK     1      -6.294  10.104  68.555  1.00  0.00    -0.048 NA 
HETATM   51  C   UNK     1      -5.571   9.098  69.301  1.00  0.00    -0.035 C  
HETATM   52  C   UNK     1      -5.436  10.664  67.503  1.00  0.00    -0.043 C  
ENDBRANCH  24  50
TORSDOF 9
ENDMDL
MODEL       10
REMARK 921   NORMALIZED FREE ENERGY PREDICTED BY IDOCK:   -7.06 KCAL/MOL
REMARK 922        TOTAL FREE ENERGY PREDICTED BY IDOCK:  -12.17 KCAL/MOL
REMARK 923 INTER-LIGAND FREE ENERGY PREDICTED BY IDOCK:  -11.82 KCAL/MOL
REMARK 924 INTRA-LIGAND FREE ENERGY PREDICTED BY IDOCK:   -0.35 KCAL/MOL
REMARK 927      BINDING AFFINITY PREDICTED BY RF-SCORE:    0.00 PKD
ROOT
HETATM    1  C   UNK     1      -9.585  12.760  67.047  1.00  0.00    -0.229 C  
HETATM    2  C   UNK     1      -8.883  13.973  67.631  1.00  0.00    -0.190 C  
HETATM    3  C   UNK     1      -9.764  15.257  67.615  1.00  0.00    -0.208 C  
HETATM    4  C   UNK     1     -10.344  15.494  66.240  1.00  0.00    -0.312 C  
HETATM    5  C   UNK     1     -10.449  16.909  65.737  1.00  0.00    -0.268 C  
HETATM    6  C   UNK     1     -10.702  14.466  65.451  1.00  0.00    -0.348 C  
HETATM    7  O   UNK     1     -11.133  14.661  64.131  1.00  0.00    -0.579 OA 
HETATM    8  C   UNK     1     -10.385  12.998  65.744  1.00  0.00    -0.286 C  
HETATM    9  C   UNK     1     -10.185  18.036  66.666  1.00  0.00    -0.375 A  
HETATM   10  O   UNK     1     -10.757  17.149  64.568  1.00  0.00    -0.505 OA 
HETATM   11  C   UNK     1     -10.488  19.356  66.289  1.00  0.00    -0.493 A  
HETATM   12  O   UNK     1      -9.574  12.662  64.611  1.00  0.00    -0.498 OA 
HETATM   13  C   UNK     1     -11.592  11.949  65.953  1.00  0.00    -0.224 C  
HETATM   14  H   UNK     1     -11.386  13.934  63.573  1.00  0.00     0.000 HD 
HETATM   15  C   UNK     1     -11.215  10.633  66.647  1.00  0.00     0.073 C  
HETATM   16  O   UNK     1     -12.741  12.106  65.547  1.00  0.00    -0.315 OA 
HETATM   17  C   UNK     1     -10.302  20.420  67.172  1.00  0.00    -0.322 A  
HETATM   18  H   UNK     1     -10.066  12.808  63.811  1.00  0.00     0.000 HD 
HETATM   19  O   UNK     1     -10.951  19.699  65.046  1.00  0.00    -0.320 OA 
HETATM   20  H   UNK     1      -8.523  16.967  70.031  1.00  0.00     0.000 HD 
HETATM   21  H   UNK     1     -11.155  20.591  64.791  1.00  0.00     0.000 HD 
HETATM   22  C   UNK     1      -9.809  20.179  68.447  1.00  0.00    -0.371 A  
HETATM   23  C   UNK     1      -9.923  10.371  66.336  1.00  0.00    -0.221 C  
HETATM   24  C   UNK     1      -8.846  11.352  66.980  1.00  0.00    -0.168 C  
HETATM   25  C   UNK     1      -7.502  16.495  67.775  1.00  0.00    -0.160 C  
HETATM   26  O   UNK     1      -9.005  16.240  69.654  1.00  0.00    -0.050 OA 
HETATM   27  O   UNK     1      -9.607   9.940  65.043  1.00  0.00    -0.271 OA 
HETATM   28  C   UNK     1      -9.452  18.882  68.815  1.00  0.00    -0.407 A  
HETATM   29  C   UNK     1      -8.975  16.449  68.234  1.00  0.00    -0.206 C  
HETATM   30  C   UNK     1      -9.601  17.795  67.923  1.00  0.00    -0.280 A  
HETATM   31  H   UNK     1      -8.700   9.757  64.825  1.00  0.00     0.000 HD 
ENDROOT
BRANCH  15  32
HETATM   32  C   UNK     1     -11.406  10.325  68.118  1.00  0.00    -0.161 C  
HETATM   33  H   UNK     1      -9.866   8.920  68.314  1.00  0.00     0.000 HD 
HETATM   34  O   UNK     1     -12.274  10.930  68.758  1.00  0.00    -0.518 OA 
HETATM   35  N   UNK     1     -10.635   9.403  68.778  1.00  0.00    -0.222 N  
BRANCH  35  36
HETATM   36  C   UNK     1     -10.962   9.149  70.163  1.00  0.00    -0.239 C  
BRANCH  36  37
HETATM   37  N   UNK     1     -11.558   7.831  70.238  1.00  0.00    -0.476 NA 
HETATM   38  H   UNK     1     -12.036   7.576  69.374  1.00  0.00     0.000 HD 
BRANCH  37  39
HETATM   39  C   UNK     1     -10.533   6.840  70.618  1.00  0.00    -0.215 C  
BRANCH  39  40
HETATM   40  C   UNK     1     -10.722   5.490  69.903  1.00  0.00    -0.358 C  
BRANCH  40  41
HETATM   41  C   UNK     1      -9.616   5.171  68.891  1.00  0.00    -0.201 C  
BRANCH  41  42
HETATM   42  C   UNK     1      -9.222   6.408  68.066  1.00  0.00    -0.110 C  
BRANCH  42  43
HETATM   43  C   UNK     1      -9.871   6.482  66.675  1.00  0.00    -0.148 C  
HETATM   44  C   UNK     1      -9.378   5.336  65.777  1.00  0.00    -0.139 C  
HETATM   45  N   UNK     1     -11.359   6.423  66.752  1.00  0.00    -0.769 NA 
HETATM   46  O   UNK     1      -8.294   5.294  65.220  1.00  0.00    -0.126 OA 
HETATM   47  O   UNK     1     -10.307   4.346  65.695  1.00  0.00    -0.257 OA 
HETATM   48  H2  UNK     1     -11.727   7.145  67.371  1.00  0.00     0.000 HD 
HETATM   49  H1  UNK     1     -11.790   6.473  65.828  1.00  0.00     0.000 HD 
ENDBRANCH  42  43
ENDBRANCH  41  42
ENDBRANCH  40  41
ENDBRANCH  39  40
ENDBRANCH  37  39
ENDBRANCH  36  37
ENDBRANCH  35  36
ENDBRANCH  15  32
BRANCH  24  50
HETATM   50  N   UNK     1      -7.544  11.161  66.299  1.00  0.00    -0.116 NA 
HETATM   51  C   UNK     1      -6.387  11.838  66.842  1.00  0.00    -0.131 C  
HETATM   52  C   UNK     1      -7.255   9.732  66.124  1.00  0.00    -0.100 C  
ENDBRANCH  24  50
TORSDOF 9
ENDMDL
MODEL       11
REMARK 921   NORMALIZED FREE ENERGY PREDICTED BY IDOCK:   -7.06 KCAL/MOL
REMARK 922        TOTAL FREE ENERGY PREDICTED BY IDOCK:  -12.17 KCAL/MOL
REMARK 923 INTER-LIGAND FREE ENERGY PREDICTED BY IDOCK:  -10.12 KCAL/MOL
REMARK 924 INTRA-LIGAND FREE ENERGY PREDICTED BY IDOCK:   -2.05 KCAL/MOL
REMARK 927      BINDING AFFINITY PREDICTED BY RF-SCORE:    0.00 PKD
ROOT
HETATM    1  C   UNK     1      -9.839   7.939  69.769  1.00  0.00    -0.179 C  
HETATM    2  C   UNK     1     -10.271   9.198  69.040  1.00  0.00    -0.219 C  
HETATM    3  C   UNK     1     -10.575  10.387  69.999  1.00  0.00    -0.282 C  
HETATM    4  C   UNK     1     -11.523   9.964  71.097  1.00  0.00    -0.459 C  
HETATM    5  C   UNK     1     -12.574  10.939  71.555  1.00  0.00    -0.375 C  
HETATM    6  C   UNK     1     -11.476   8.724  71.615  1.00  0.00    -0.316 C  
HETATM    7  O   UNK     1     -12.420   8.277  72.551  1.00  0.00    -0.516 OA 
HETATM    8  C   UNK     1     -10.644   7.576  71.040  1.00  0.00    -0.221 C  
HETATM    9  C   UNK     1     -12.526  12.344  71.079  1.00  0.00    -0.353 A  
HETATM   10  O   UNK     1     -13.473  10.593  72.324  1.00  0.00    -0.333 OA 
HETATM   11  C   UNK     1     -13.355  13.321  71.656  1.00  0.00    -0.322 A  
HETATM   12  O   UNK     1     -11.671   6.633  70.709  1.00  0.00    -0.353 OA 
HETATM   13  C   UNK     1      -9.481   6.909  71.937  1.00  0.00    -0.141 C  
HETATM   14  H   UNK     1     -12.387   7.401  72.917  1.00  0.00     0.000 HD 
HETATM   15  C   UNK     1      -8.439   6.087  71.167  1.00  0.00    -0.125 C  
HETATM   16  O   UNK     1      -9.416   6.964  73.162  1.00  0.00    -0.141 OA 
HETATM   17  C   UNK     1     -13.279  14.658  71.263  1.00  0.00    -0.432 A  
HETATM   18  H   UNK     1     -12.165   6.411  71.489  1.00  0.00     0.000 HD 
HETATM   19  O   UNK     1     -14.300  13.043  72.608  1.00  0.00    -0.657 OA 
HETATM   20  H   UNK     1     -10.059  12.933  68.114  1.00  0.00     0.000 HD 
HETATM   21  H   UNK     1     -14.861  13.704  72.998  1.00  0.00     0.000 HD 
HETATM   22  C   UNK     1     -12.372  15.036  70.282  1.00  0.00    -0.392 A  
HETATM   23  C   UNK     1      -9.061   5.568  70.081  1.00  0.00    -0.137 C  
HETATM   24  C   UNK     1      -9.480   6.617  68.959  1.00  0.00    -0.131 C  
HETATM   25  C   UNK     1     -11.966  11.288  68.017  1.00  0.00    -0.132 C  
HETATM   26  O   UNK     1      -9.796  12.171  68.617  1.00  0.00    -0.188 OA 
HETATM   27  O   UNK     1      -9.968   4.516  70.252  1.00  0.00    -0.226 OA 
HETATM   28  C   UNK     1     -11.583  14.068  69.662  1.00  0.00    -0.348 A  
HETATM   29  C   UNK     1     -11.006  11.636  69.174  1.00  0.00    -0.219 C  
HETATM   30  C   UNK     1     -11.669  12.704  70.023  1.00  0.00    -0.289 A  
HETATM   31  H   UNK     1     -10.403   4.152  69.490  1.00  0.00     0.000 HD 
ENDROOT
BRANCH  15  32
HETATM   32  C   UNK     1      -7.076   6.579  70.726  1.00  0.00    -0.069 C  
HETATM   33  H   UNK     1      -7.315   8.590  71.262  1.00  0.00     0.000 HD 
HETATM   34  O   UNK     1      -6.259   5.775  70.264  1.00  0.00    -0.025 OA 
HETATM   35  N   UNK     1      -6.704   7.895  70.834  1.00  0.00    -0.037 N  
BRANCH  35  36
HETATM   36  C   UNK     1      -5.403   8.252  70.313  1.00  0.00    -0.022 C  
BRANCH  36  37
HETATM   37  N   UNK     1      -5.498   8.263  68.868  1.00  0.00    -0.034 NA 
HETATM   38  H   UNK     1      -6.281   7.703  68.530  1.00  0.00     0.000 HD 
BRANCH  37  39
HETATM   39  C   UNK     1      -5.560   9.654  68.382  1.00  0.00    -0.039 C  
BRANCH  39  40
HETATM   40  C   UNK     1      -6.939  10.017  67.803  1.00  0.00    -0.085 C  
BRANCH  40  41
HETATM   41  C   UNK     1      -7.379   9.112  66.647  1.00  0.00    -0.086 C  
BRANCH  41  42
HETATM   42  C   UNK     1      -8.734   9.549  66.063  1.00  0.00    -0.166 C  
BRANCH  42  43
HETATM   43  C   UNK     1      -8.666  10.777  65.141  1.00  0.00    -0.164 C  
HETATM   44  C   UNK     1      -9.475  10.545  63.856  1.00  0.00    -0.292 C  
HETATM   45  N   UNK     1      -9.178  12.005  65.815  1.00  0.00    -0.418 NA 
HETATM   46  O   UNK     1      -9.112   9.869  62.908  1.00  0.00    -0.245 OA 
HETATM   47  O   UNK     1     -10.676  11.179  63.914  1.00  0.00    -0.376 OA 
HETATM   48  H2  UNK     1      -8.693  12.175  66.696  1.00  0.00     0.000 HD 
HETATM   49  H1  UNK     1      -9.132  12.821  65.203  1.00  0.00     0.000 HD 
ENDBRANCH  42  43
ENDBRANCH  41  42
ENDBRANCH  40  41
ENDBRANCH  39  40
ENDBRANCH  37  39
ENDBRANCH  36  37
ENDBRANCH  35  36
ENDBRANCH  15  32
BRANCH  24  50
HETATM   50  N   UNK     1     -10.426   5.972  68.018  1.00  0.00    -0.206 NA 
HETATM   51  C   UNK     1     -11.218   6.826  67.160  1.00  0.00    -0.206 C  
HETATM   52  C   UNK     1      -9.744   4.946  67.219  1.00  0.00    -0.170 C  
ENDBRANCH  24  50
TORSDOF 9
ENDMDL
MODEL       12
REMARK 921   NORMALIZED FREE ENERGY PREDICTED BY IDOCK:   -6.97 KCAL/MOL
REMARK 922        TOTAL FREE ENERGY PREDICTED BY IDOCK:  -12.03 KCAL/MOL
REMARK 923 INTER-LIGAND FREE ENERGY PREDICTED BY IDOCK:  -10.38 KCAL/MOL
REMARK 924 INTRA-LIGAND FREE ENERGY PREDICTED BY IDOCK:   -1.65 KCAL/MOL
REMARK 927      BINDING AFFINITY PREDICTED BY RF-SCORE:    0.00 PKD
ROOT
HETATM    1  C   UNK     1      -9.144   9.260  67.388  1.00  0.00    -0.141 C  
HETATM    2  C   UNK     1      -9.507   7.934  68.030  1.00  0.00    -0.159 C  
HETATM    3  C   UNK     1      -9.949   8.074  69.517  1.00  0.00    -0.186 C  
HETATM    4  C   UNK     1      -8.939   8.875  70.305  1.00  0.00    -0.201 C  
HETATM    5  C   UNK     1      -8.643   8.464  71.722  1.00  0.00    -0.176 C  
HETATM    6  C   UNK     1      -8.270   9.896  69.741  1.00  0.00    -0.180 C  
HETATM    7  O   UNK     1      -7.249  10.576  70.419  1.00  0.00    -0.436 OA 
HETATM    8  C   UNK     1      -8.287  10.221  68.246  1.00  0.00    -0.116 C  
HETATM    9  C   UNK     1      -9.485   7.432  72.376  1.00  0.00    -0.189 A  
HETATM   10  O   UNK     1      -7.715   8.973  72.353  1.00  0.00    -0.346 OA 
HETATM   11  C   UNK     1      -9.373   7.189  73.755  1.00  0.00    -0.232 A  
HETATM   12  O   UNK     1      -6.902  10.060  67.915  1.00  0.00    -0.073 OA 
HETATM   13  C   UNK     1      -8.864  11.643  67.747  1.00  0.00    -0.159 C  
HETATM   14  H   UNK     1      -6.775  11.297  70.020  1.00  0.00     0.000 HD 
HETATM   15  C   UNK     1      -9.237  11.723  66.261  1.00  0.00    -0.227 C  
HETATM   16  O   UNK     1      -8.958  12.649  68.445  1.00  0.00    -0.187 OA 
HETATM   17  C   UNK     1     -10.199   6.265  74.397  1.00  0.00    -0.339 A  
HETATM   18  H   UNK     1      -6.376  10.650  68.442  1.00  0.00     0.000 HD 
HETATM   19  O   UNK     1      -8.448   7.803  74.558  1.00  0.00    -0.326 OA 
HETATM   20  H   UNK     1     -11.818   5.495  69.919  1.00  0.00     0.000 HD 
HETATM   21  H   UNK     1      -8.372   7.638  75.490  1.00  0.00     0.000 HD 
HETATM   22  C   UNK     1     -11.151   5.568  73.664  1.00  0.00    -0.136 A  
HETATM   23  C   UNK     1      -8.421  10.871  65.596  1.00  0.00    -0.139 C  
HETATM   24  C   UNK     1      -8.671   9.322  65.869  1.00  0.00    -0.154 C  
HETATM   25  C   UNK     1      -9.311   5.575  69.669  1.00  0.00    -0.172 C  
HETATM   26  O   UNK     1     -11.600   6.350  69.564  1.00  0.00    -0.404 OA 
HETATM   27  O   UNK     1      -7.076  11.213  65.418  1.00  0.00    -0.349 OA 
HETATM   28  C   UNK     1     -11.235   5.759  72.285  1.00  0.00    -0.333 A  
HETATM   29  C   UNK     1     -10.307   6.673  70.098  1.00  0.00    -0.203 C  
HETATM   30  C   UNK     1     -10.384   6.665  71.612  1.00  0.00    -0.227 A  
HETATM   31  H   UNK     1      -6.504  10.615  64.952  1.00  0.00     0.000 HD 
ENDROOT
BRANCH  15  32
HETATM   32  C   UNK     1     -10.632  11.563  65.692  1.00  0.00    -0.274 C  
HETATM   33  H   UNK     1     -10.118  11.627  63.663  1.00  0.00     0.000 HD 
HETATM   34  O   UNK     1     -11.588  11.410  66.461  1.00  0.00    -0.408 OA 
HETATM   35  N   UNK     1     -10.876  11.565  64.343  1.00  0.00    -0.337 N  
BRANCH  35  36
HETATM   36  C   UNK     1     -12.258  11.475  63.928  1.00  0.00     0.024 C  
BRANCH  36  37
HETATM   37  N   UNK     1     -12.910  12.713  64.301  1.00  0.00    -0.736 NA 
HETATM   38  H   UNK     1     -12.886  12.871  65.309  1.00  0.00     0.000 HD 
BRANCH  37  39
HETATM   39  C   UNK     1     -12.317  13.836  63.550  1.00  0.00    -0.111 C  
BRANCH  39  40
HETATM   40  C   UNK     1     -12.122  15.091  64.419  1.00  0.00    -0.373 C  
BRANCH  40  41
HETATM   41  C   UNK     1     -10.758  15.151  65.115  1.00  0.00    -0.442 C  
BRANCH  41  42
HETATM   42  C   UNK     1     -10.816  15.973  66.415  1.00  0.00    -0.159 C  
BRANCH  42  43
HETATM   43  C   UNK     1     -10.709  15.141  67.702  1.00  0.00    -0.285 C  
HETATM   44  C   UNK     1     -10.848  16.031  68.946  1.00  0.00    -0.286 C  
HETATM   45  N   UNK     1     -11.747  14.071  67.760  1.00  0.00    -0.348 NA 
HETATM   46  O   UNK     1      -9.976  16.756  69.394  1.00  0.00    -0.228 OA 
HETATM   47  O   UNK     1     -12.093  15.929  69.483  1.00  0.00    -0.329 OA 
HETATM   48  H2  UNK     1     -11.715  13.478  66.931  1.00  0.00     0.000 HD 
HETATM   49  H1  UNK     1     -11.675  13.518  68.614  1.00  0.00     0.000 HD 
ENDBRANCH  42  43
ENDBRANCH  41  42
ENDBRANCH  40  41
ENDBRANCH  39  40
ENDBRANCH  37  39
ENDBRANCH  36  37
ENDBRANCH  35  36
ENDBRANCH  15  32
BRANCH  24  50
HETATM   50  N   UNK     1      -7.518   8.544  65.356  1.00  0.00    -0.084 NA 
HETATM   51  C   UNK     1      -7.210   7.284  65.997  1.00  0.00    -0.074 C  
HETATM   52  C   UNK     1      -7.623   8.359  63.904  1.00  0.00    -0.135 C  
ENDBRANCH  24  50
TORSDOF 9
ENDMDL
MODEL       13
REMARK 921   NORMALIZED FREE ENERGY PREDICTED BY IDOCK:   -6.94 KCAL/MOL
REMARK 922        TOTAL FREE ENERGY PREDICTED BY IDOCK:  -11.99 KCAL/MOL
REMARK 923 INTER-LIGAND FREE ENERGY PREDICTED BY IDOCK:  -11.01 KCAL/MOL
REMARK 924 INTRA-LIGAND FREE ENERGY PREDICTED BY IDOCK:   -0.98 KCAL/MOL
REMARK 927      BINDING AFFINITY PREDICTED BY RF-SCORE:    0.00 PKD
ROOT
HETATM    1  C   UNK     1      -9.508  12.743  67.306  1.00  0.00    -0.204 C  
HETATM    2  C   UNK     1      -8.843  13.978  67.884  1.00  0.00    -0.185 C  
HETATM    3  C   UNK     1      -9.757  15.239  67.852  1.00  0.00    -0.211 C  
HETATM    4  C   UNK     1     -10.333  15.449  66.471  1.00  0.00    -0.293 C  
HETATM    5  C   UNK     1     -10.472  16.857  65.957  1.00  0.00    -0.290 C  
HETATM    6  C   UNK     1     -10.659  14.406  65.688  1.00  0.00    -0.329 C  
HETATM    7  O   UNK     1     -11.087  14.579  64.364  1.00  0.00    -0.592 OA 
HETATM    8  C   UNK     1     -10.306  12.950  65.996  1.00  0.00    -0.283 C  
HETATM    9  C   UNK     1     -10.244  17.998  66.877  1.00  0.00    -0.366 A  
HETATM   10  O   UNK     1     -10.778  17.080  64.784  1.00  0.00    -0.760 OA 
HETATM   11  C   UNK     1     -10.578  19.306  66.488  1.00  0.00    -0.446 A  
HETATM   12  O   UNK     1      -9.480  12.625  64.871  1.00  0.00    -0.462 OA 
HETATM   13  C   UNK     1     -11.487  11.871  66.206  1.00  0.00    -0.301 C  
HETATM   14  H   UNK     1     -11.317  13.842  63.811  1.00  0.00     0.000 HD 
HETATM   15  C   UNK     1     -11.081  10.571  66.913  1.00  0.00    -0.124 C  
HETATM   16  O   UNK     1     -12.636  11.995  65.791  1.00  0.00    -0.156 OA 
HETATM   17  C   UNK     1     -10.426  20.383  67.363  1.00  0.00    -0.207 A  
HETATM   18  H   UNK     1      -9.969  12.752  64.067  1.00  0.00     0.000 HD 
HETATM   19  O   UNK     1     -11.041  19.628  65.240  1.00  0.00    -0.409 OA 
HETATM   20  H   UNK     1      -8.576  17.001  70.262  1.00  0.00     0.000 HD 
HETATM   21  H   UNK     1     -11.267  20.512  64.976  1.00  0.00     0.000 HD 
HETATM   22  C   UNK     1      -9.934  20.165  68.644  1.00  0.00    -0.343 A  
HETATM   23  C   UNK     1      -9.780  10.341  66.612  1.00  0.00    -0.185 C  
HETATM   24  C   UNK     1      -8.733  11.354  67.256  1.00  0.00    -0.148 C  
HETATM   25  C   UNK     1      -7.529  16.537  68.017  1.00  0.00    -0.162 C  
HETATM   26  O   UNK     1      -9.036  16.258  69.887  1.00  0.00     0.226 OA 
HETATM   27  O   UNK     1      -9.444   9.908  65.325  1.00  0.00    -0.228 OA 
HETATM   28  C   UNK     1      -9.546  18.880  69.024  1.00  0.00    -0.327 A  
HETATM   29  C   UNK     1      -9.003  16.456  68.466  1.00  0.00    -0.224 C  
HETATM   30  C   UNK     1      -9.661  17.783  68.140  1.00  0.00    -0.313 A  
HETATM   31  H   UNK     1      -8.532   9.746  65.114  1.00  0.00     0.000 HD 
ENDROOT
BRANCH  15  32
HETATM   32  C   UNK     1     -11.273  10.271  68.385  1.00  0.00    -0.224 C  
HETATM   33  H   UNK     1     -12.505  11.900  68.848  1.00  0.00     0.000 HD 
HETATM   34  O   UNK     1     -10.762   9.254  68.869  1.00  0.00    -0.215 OA 
HETATM   35  N   UNK     1     -12.013  11.082  69.207  1.00  0.00    -0.340 N  
BRANCH  35  36
HETATM   36  C   UNK     1     -12.062  10.724  70.607  1.00  0.00    -0.370 C  
BRANCH  36  37
HETATM   37  N   UNK     1     -12.877   9.533  70.727  1.00  0.00    -0.535 NA 
HETATM   38  H   UNK     1     -12.714   8.878  69.961  1.00  0.00     0.000 HD 
BRANCH  37  39
HETATM   39  C   UNK     1     -12.657   8.908  72.045  1.00  0.00    -0.394 C  
BRANCH  39  40
HETATM   40  C   UNK     1     -11.631   7.763  71.994  1.00  0.00    -0.347 C  
BRANCH  40  41
HETATM   41  C   UNK     1     -10.475   7.928  72.988  1.00  0.00    -0.410 C  
BRANCH  41  42
HETATM   42  C   UNK     1      -9.252   8.597  72.336  1.00  0.00    -0.257 C  
BRANCH  42  43
HETATM   43  C   UNK     1      -8.448   7.682  71.399  1.00  0.00    -0.115 C  
HETATM   44  C   UNK     1      -7.277   8.443  70.759  1.00  0.00    -0.055 C  
HETATM   45  N   UNK     1      -7.910   6.489  72.114  1.00  0.00    -0.098 NA 
HETATM   46  O   UNK     1      -7.372   9.233  69.834  1.00  0.00    -0.059 OA 
HETATM   47  O   UNK     1      -6.103   8.141  71.375  1.00  0.00    -0.034 OA 
HETATM   48  H2  UNK     1      -8.652   5.974  72.588  1.00  0.00     0.000 HD 
HETATM   49  H1  UNK     1      -7.376   5.881  71.492  1.00  0.00     0.000 HD 
ENDBRANCH  42  43
ENDBRANCH  41  42
ENDBRANCH  40  41
ENDBRANCH  39  40
ENDBRANCH  37  39
ENDBRANCH  36  37
ENDBRANCH  35  36
ENDBRANCH  15  32
BRANCH  24  50
HETATM   50  N   UNK     1      -7.422  11.192  66.584  1.00  0.00    -0.144 NA 
HETATM   51  C   UNK     1      -6.384  12.155  66.879  1.00  0.00    -0.007 C  
HETATM   52  C   UNK     1      -6.911   9.828  66.768  1.00  0.00    -0.084 C  
ENDBRANCH  24  50
TORSDOF 9
ENDMDL
MODEL       14
REMARK 921   NORMALIZED FREE ENERGY PREDICTED BY IDOCK:   -6.93 KCAL/MOL
REMARK 922        TOTAL FREE ENERGY PREDICTED BY IDOCK:  -11.97 KCAL/MOL
REMARK 923 INTER-LIGAND FREE ENERGY PREDICTED BY IDOCK:  -11.66 KCAL/MOL
REMARK 924 INTRA-LIGAND FREE ENERGY PREDICTED BY IDOCK:   -0.31 KCAL/MOL
REMARK 927      BINDING AFFINITY PREDICTED BY RF-SCORE:    0.00 PKD
ROOT
HETATM    1  C   UNK     1      -8.675  12.355  67.308  1.00  0.00    -0.191 C  
HETATM    2  C   UNK     1      -7.872  13.619  67.557  1.00  0.00    -0.185 C  
HETATM    3  C   UNK     1      -8.759  14.891  67.701  1.00  0.00    -0.181 C  
HETATM    4  C   UNK     1      -9.728  15.004  66.547  1.00  0.00    -0.285 C  
HETATM    5  C   UNK     1     -10.024  16.369  65.986  1.00  0.00    -0.345 C  
HETATM    6  C   UNK     1     -10.271  13.909  65.986  1.00  0.00    -0.310 C  
HETATM    7  O   UNK     1     -11.080  13.985  64.844  1.00  0.00    -0.340 OA 
HETATM    8  C   UNK     1      -9.833  12.474  66.289  1.00  0.00    -0.252 C  
HETATM    9  C   UNK     1      -9.533  17.574  66.699  1.00  0.00    -0.285 A  
HETATM   10  O   UNK     1     -10.672  16.505  64.947  1.00  0.00    -0.702 OA 
HETATM   11  C   UNK     1      -9.976  18.854  66.325  1.00  0.00    -0.388 A  
HETATM   12  O   UNK     1      -9.385  12.046  64.997  1.00  0.00    -0.433 OA 
HETATM   13  C   UNK     1     -10.890  11.438  66.933  1.00  0.00    -0.285 C  
HETATM   14  H   UNK     1     -11.463  13.211  64.447  1.00  0.00     0.000 HD 
HETATM   15  C   UNK     1     -10.282  10.191  67.586  1.00  0.00    -0.246 C  
HETATM   16  O   UNK     1     -12.112  11.552  66.877  1.00  0.00    -0.393 OA 
HETATM   17  C   UNK     1      -9.571  19.993  67.023  1.00  0.00    -0.542 A  
HETATM   18  H   UNK     1     -10.096  12.119  64.371  1.00  0.00     0.000 HD 
HETATM   19  O   UNK     1     -10.798  19.085  65.253  1.00  0.00    -0.540 OA 
HETATM   20  H   UNK     1      -6.913  16.813  69.490  1.00  0.00     0.000 HD 
HETATM   21  H   UNK     1     -11.097  19.951  65.000  1.00  0.00     0.000 HD 
HETATM   22  C   UNK     1      -8.714  19.866  68.108  1.00  0.00    -0.292 A  
HETATM   23  C   UNK     1      -9.132   9.912  66.926  1.00  0.00    -0.142 C  
HETATM   24  C   UNK     1      -7.945  10.952  67.138  1.00  0.00    -0.127 C  
HETATM   25  C   UNK     1      -6.593  16.153  67.078  1.00  0.00    -0.150 C  
HETATM   26  O   UNK     1      -7.461  16.052  69.334  1.00  0.00    -0.226 OA 
HETATM   27  O   UNK     1      -9.200   9.372  65.637  1.00  0.00    -0.193 OA 
HETATM   28  C   UNK     1      -8.223  18.608  68.456  1.00  0.00    -0.370 A  
HETATM   29  C   UNK     1      -7.861  16.137  67.958  1.00  0.00    -0.144 C  
HETATM   30  C   UNK     1      -8.594  17.447  67.740  1.00  0.00    -0.227 A  
HETATM   31  H   UNK     1      -8.393   9.177  65.174  1.00  0.00     0.000 HD 
ENDROOT
BRANCH  15  32
HETATM   32  C   UNK     1     -10.018  10.010  69.067  1.00  0.00    -0.196 C  
HETATM   33  H   UNK     1      -8.340   8.767  68.905  1.00  0.00     0.000 HD 
HETATM   34  O   UNK     1     -10.732  10.597  69.888  1.00  0.00    -0.259 OA 
HETATM   35  N   UNK     1      -8.996   9.225  69.538  1.00  0.00    -0.144 N  
BRANCH  35  36
HETATM   36  C   UNK     1      -8.891   9.078  70.972  1.00  0.00    -0.230 C  
BRANCH  36  37
HETATM   37  N   UNK     1      -7.956   8.004  71.235  1.00  0.00    -0.087 NA 
HETATM   38  H   UNK     1      -7.257   8.265  71.931  1.00  0.00     0.000 HD 
BRANCH  37  39
HETATM   39  C   UNK     1      -8.692   6.784  71.620  1.00  0.00    -0.126 C  
BRANCH  39  40
HETATM   40  C   UNK     1      -9.111   5.939  70.404  1.00  0.00    -0.157 C  
BRANCH  40  41
HETATM   41  C   UNK     1     -10.590   5.537  70.414  1.00  0.00    -0.350 C  
BRANCH  41  42
HETATM   42  C   UNK     1     -11.514   6.757  70.250  1.00  0.00    -0.414 C  
BRANCH  42  43
HETATM   43  C   UNK     1     -12.568   6.913  71.357  1.00  0.00    -0.353 C  
HETATM   44  C   UNK     1     -12.035   7.786  72.504  1.00  0.00    -0.253 C  
HETATM   45  N   UNK     1     -13.830   7.519  70.842  1.00  0.00    -0.585 NA 
HETATM   46  O   UNK     1     -11.252   7.418  73.363  1.00  0.00    -0.285 OA 
HETATM   47  O   UNK     1     -12.536   9.048  72.431  1.00  0.00    -0.361 OA 
HETATM   48  H2  UNK     1     -14.199   6.991  70.051  1.00  0.00     0.000 HD 
HETATM   49  H1  UNK     1     -14.530   7.622  71.577  1.00  0.00     0.000 HD 
ENDBRANCH  42  43
ENDBRANCH  41  42
ENDBRANCH  40  41
ENDBRANCH  39  40
ENDBRANCH  37  39
ENDBRANCH  36  37
ENDBRANCH  35  36
ENDBRANCH  15  32
BRANCH  24  50
HETATM   50  N   UNK     1      -6.898  10.711  66.117  1.00  0.00    -0.130 NA 
HETATM   51  C   UNK     1      -5.713  11.541  66.151  1.00  0.00     0.119 C  
HETATM   52  C   UNK     1      -6.520   9.293  66.087  1.00  0.00    -0.069 C  
ENDBRANCH  24  50
TORSDOF 9
ENDMDL
MODEL       15
REMARK 921   NORMALIZED FREE ENERGY PREDICTED BY IDOCK:   -6.90 KCAL/MOL
REMARK 922        TOTAL FREE ENERGY PREDICTED BY IDOCK:  -11.93 KCAL/MOL
REMARK 923 INTER-LIGAND FREE ENERGY PREDICTED BY IDOCK:  -11.30 KCAL/MOL
REMARK 924 INTRA-LIGAND FREE ENERGY PREDICTED BY IDOCK:   -0.63 KCAL/MOL
REMARK 927      BINDING AFFINITY PREDICTED BY RF-SCORE:    0.00 PKD
ROOT
HETATM    1  C   UNK     1      -8.214  12.088  67.517  1.00  0.00    -0.159 C  
HETATM    2  C   UNK     1      -7.485  13.407  67.700  1.00  0.00    -0.182 C  
HETATM    3  C   UNK     1      -8.446  14.624  67.843  1.00  0.00    -0.158 C  
HETATM    4  C   UNK     1      -9.462  14.641  66.725  1.00  0.00    -0.275 C  
HETATM    5  C   UNK     1      -9.864  15.968  66.138  1.00  0.00    -0.325 C  
HETATM    6  C   UNK     1      -9.953  13.498  66.215  1.00  0.00    -0.298 C  
HETATM    7  O   UNK     1     -10.807  13.490  65.103  1.00  0.00    -0.303 OA 
HETATM    8  C   UNK     1      -9.414  12.103  66.540  1.00  0.00    -0.231 C  
HETATM    9  C   UNK     1      -9.426  17.222  66.799  1.00  0.00    -0.274 A  
HETATM   10  O   UNK     1     -10.557  16.032  65.121  1.00  0.00    -0.485 OA 
HETATM   11  C   UNK     1      -9.963  18.460  66.406  1.00  0.00    -0.386 A  
HETATM   12  O   UNK     1      -8.987  11.666  65.244  1.00  0.00    -0.407 OA 
HETATM   13  C   UNK     1     -10.378  11.023  67.252  1.00  0.00    -0.211 C  
HETATM   14  H   UNK     1     -11.154  12.682  64.743  1.00  0.00     0.000 HD 
HETATM   15  C   UNK     1      -9.668   9.836  67.916  1.00  0.00    -0.168 C  
HETATM   16  O   UNK     1     -11.605  11.058  67.240  1.00  0.00    -0.496 OA 
HETATM   17  C   UNK     1      -9.607  19.642  67.057  1.00  0.00    -0.462 A  
HETATM   18  H   UNK     1      -9.723  11.676  64.644  1.00  0.00     0.000 HD 
HETATM   19  O   UNK     1     -10.836  18.607  65.362  1.00  0.00    -0.569 OA 
HETATM   20  H   UNK     1      -6.663  16.711  69.507  1.00  0.00     0.000 HD 
HETATM   21  H   UNK     1     -11.199  19.444  65.096  1.00  0.00     0.000 HD 
HETATM   22  C   UNK     1      -8.704  19.602  68.112  1.00  0.00    -0.359 A  
HETATM   23  C   UNK     1      -8.527   9.611  67.220  1.00  0.00    -0.132 C  
HETATM   24  C   UNK     1      -7.402  10.729  67.358  1.00  0.00    -0.094 C  
HETATM   25  C   UNK     1      -6.389  16.001  67.104  1.00  0.00    -0.114 C  
HETATM   26  O   UNK     1      -7.166  15.913  69.392  1.00  0.00    -0.205 OA 
HETATM   27  O   UNK     1      -8.607   9.030  65.950  1.00  0.00    -0.138 OA 
HETATM   28  C   UNK     1      -8.121  18.389  68.475  1.00  0.00    -0.340 A  
HETATM   29  C   UNK     1      -7.621  15.932  68.031  1.00  0.00    -0.129 C  
HETATM   30  C   UNK     1      -8.443  17.186  67.805  1.00  0.00    -0.207 A  
HETATM   31  H   UNK     1      -7.808   8.872  65.462  1.00  0.00     0.000 HD 
ENDROOT
BRANCH  15  32
HETATM   32  C   UNK     1      -9.338   9.717  69.390  1.00  0.00    -0.202 C  
HETATM   33  H   UNK     1      -7.831   8.272  69.227  1.00  0.00     0.000 HD 
HETATM   34  O   UNK     1      -9.928  10.436  70.204  1.00  0.00    -0.105 OA 
HETATM   35  N   UNK     1      -8.390   8.845  69.860  1.00  0.00    -0.120 N  
BRANCH  35  36
HETATM   36  C   UNK     1      -8.218   8.775  71.293  1.00  0.00    -0.167 C  
BRANCH  36  37
HETATM   37  N   UNK     1      -9.529   8.882  71.898  1.00  0.00    -0.324 NA 
HETATM   38  H   UNK     1     -10.181   9.404  71.311  1.00  0.00     0.000 HD 
BRANCH  37  39
HETATM   39  C   UNK     1     -10.038   7.538  72.232  1.00  0.00    -0.199 C  
BRANCH  39  40
HETATM   40  C   UNK     1     -11.512   7.556  72.672  1.00  0.00    -0.369 C  
BRANCH  40  41
HETATM   41  C   UNK     1     -12.431   8.325  71.716  1.00  0.00    -0.367 C  
BRANCH  41  42
HETATM   42  C   UNK     1     -12.701   9.757  72.211  1.00  0.00    -0.333 C  
BRANCH  42  43
HETATM   43  C   UNK     1     -13.403  10.664  71.189  1.00  0.00    -0.092 C  
HETATM   44  C   UNK     1     -13.108  12.145  71.474  1.00  0.00    -0.257 C  
HETATM   45  N   UNK     1     -12.985  10.354  69.791  1.00  0.00    -0.538 NA 
HETATM   46  O   UNK     1     -13.629  12.809  72.355  1.00  0.00    -0.565 OA 
HETATM   47  O   UNK     1     -12.163  12.628  70.624  1.00  0.00    -0.374 OA 
HETATM   48  H2  UNK     1     -13.127   9.368  69.571  1.00  0.00     0.000 HD 
HETATM   49  H1  UNK     1     -13.452  10.956  69.112  1.00  0.00     0.000 HD 
ENDBRANCH  42  43
ENDBRANCH  41  42
ENDBRANCH  40  41
ENDBRANCH  39  40
ENDBRANCH  37  39
ENDBRANCH  36  37
ENDBRANCH  35  36
ENDBRANCH  15  32
BRANCH  24  50
HETATM   50  N   UNK     1      -6.380  10.525  66.305  1.00  0.00    -0.096 NA 
HETATM   51  C   UNK     1      -5.303  11.486  66.207  1.00  0.00    -0.028 C  
HETATM   52  C   UNK     1      -5.835   9.163  66.369  1.00  0.00    -0.058 C  
ENDBRANCH  24  50
TORSDOF 9
ENDMDL
MODEL       16
REMARK 921   NORMALIZED FREE ENERGY PREDICTED BY IDOCK:   -6.70 KCAL/MOL
REMARK 922        TOTAL FREE ENERGY PREDICTED BY IDOCK:  -11.62 KCAL/MOL
REMARK 923 INTER-LIGAND FREE ENERGY PREDICTED BY IDOCK:  -10.36 KCAL/MOL
REMARK 924 INTRA-LIGAND FREE ENERGY PREDICTED BY IDOCK:   -1.26 KCAL/MOL
REMARK 927      BINDING AFFINITY PREDICTED BY RF-SCORE:    0.00 PKD
ROOT
HETATM    1  C   UNK     1     -10.006  10.933  68.935  1.00  0.00    -0.208 C  
HETATM    2  C   UNK     1      -9.645  10.239  70.236  1.00  0.00     0.235 C  
HETATM    3  C   UNK     1      -8.924   8.875  70.022  1.00  0.00    -0.172 C  
HETATM    4  C   UNK     1      -9.699   8.002  69.062  1.00  0.00    -0.159 C  
HETATM    5  C   UNK     1      -9.762   6.522  69.326  1.00  0.00    -0.144 C  
HETATM    6  C   UNK     1     -10.372   8.535  68.027  1.00  0.00    -0.217 C  
HETATM    7  O   UNK     1     -11.188   7.757  67.195  1.00  0.00    -0.421 OA 
HETATM    8  C   UNK     1     -10.604  10.034  67.826  1.00  0.00    -0.261 C  
HETATM    9  C   UNK     1      -8.904   5.930  70.383  1.00  0.00    -0.146 A  
HETATM   10  O   UNK     1     -10.510   5.789  68.676  1.00  0.00    -0.198 OA 
HETATM   11  C   UNK     1      -8.779   4.535  70.502  1.00  0.00    -0.093 A  
HETATM   12  O   UNK     1     -12.035  10.098  67.872  1.00  0.00    -0.373 OA 
HETATM   13  C   UNK     1     -10.011  10.763  66.515  1.00  0.00    -0.213 C  
HETATM   14  H   UNK     1     -11.664   8.134  66.464  1.00  0.00     0.000 HD 
HETATM   15  C   UNK     1      -9.914  12.292  66.592  1.00  0.00    -0.229 C  
HETATM   16  O   UNK     1      -9.703  10.194  65.471  1.00  0.00    -0.238 OA 
HETATM   17  C   UNK     1      -7.930   3.964  71.450  1.00  0.00    -0.068 A  
HETATM   18  H   UNK     1     -12.402   9.546  67.191  1.00  0.00     0.000 HD 
HETATM   19  O   UNK     1      -9.484   3.646  69.735  1.00  0.00    -0.168 OA 
HETATM   20  H   UNK     1      -7.240   8.560  72.736  1.00  0.00     0.000 HD 
HETATM   21  H   UNK     1      -9.400   2.703  69.816  1.00  0.00     0.000 HD 
HETATM   22  C   UNK     1      -7.193   4.782  72.297  1.00  0.00    -0.080 A  
HETATM   23  C   UNK     1     -10.908  12.717  67.408  1.00  0.00    -0.243 C  
HETATM   24  C   UNK     1     -10.745  12.343  68.948  1.00  0.00    -0.164 C  
HETATM   25  C   UNK     1      -9.734   8.370  72.423  1.00  0.00    -0.376 C  
HETATM   26  O   UNK     1      -7.446   8.952  71.895  1.00  0.00    -0.294 OA 
HETATM   27  O   UNK     1     -12.229  12.686  66.946  1.00  0.00    -0.489 OA 
HETATM   28  C   UNK     1      -7.350   6.166  72.227  1.00  0.00    -0.093 A  
HETATM   29  C   UNK     1      -8.586   8.233  71.401  1.00  0.00    -0.149 C  
HETATM   30  C   UNK     1      -8.230   6.762  71.296  1.00  0.00    -0.119 A  
HETATM   31  H   UNK     1     -12.926  12.984  67.519  1.00  0.00     0.000 HD 
ENDROOT
BRANCH  15  32
HETATM   32  C   UNK     1      -8.667  13.080  66.938  1.00  0.00    -0.152 C  
HETATM   33  H   UNK     1      -9.553  14.975  67.051  1.00  0.00     0.000 HD 
HETATM   34  O   UNK     1      -7.594  12.485  67.090  1.00  0.00    -0.148 OA 
HETATM   35  N   UNK     1      -8.685  14.442  67.106  1.00  0.00    -0.216 N  
BRANCH  35  36
HETATM   36  C   UNK     1      -7.417  15.086  67.364  1.00  0.00    -0.205 C  
BRANCH  36  37
HETATM   37  N   UNK     1      -7.674  16.242  68.199  1.00  0.00    -0.153 NA 
HETATM   38  H   UNK     1      -7.779  15.989  69.182  1.00  0.00     0.000 HD 
BRANCH  37  39
HETATM   39  C   UNK     1      -6.617  17.250  67.996  1.00  0.00    -0.165 C  
BRANCH  39  40
HETATM   40  C   UNK     1      -6.949  18.597  68.662  1.00  0.00    -0.297 C  
BRANCH  40  41
HETATM   41  C   UNK     1      -8.016  19.406  67.917  1.00  0.00    -0.335 C  
BRANCH  41  42
HETATM   42  C   UNK     1      -9.372  19.368  68.644  1.00  0.00    -0.448 C  
BRANCH  42  43
HETATM   43  C   UNK     1     -10.455  18.542  67.932  1.00  0.00    -0.384 C  
HETATM   44  C   UNK     1     -10.279  18.601  66.407  1.00  0.00    -0.425 C  
HETATM   45  N   UNK     1     -10.435  17.113  68.361  1.00  0.00    -0.356 NA 
HETATM   46  O   UNK     1     -10.594  19.542  65.698  1.00  0.00    -0.486 OA 
HETATM   47  O   UNK     1      -9.698  17.465  65.938  1.00  0.00    -0.507 OA 
HETATM   48  H2  UNK     1     -10.510  17.029  69.375  1.00  0.00     0.000 HD 
HETATM   49  H1  UNK     1     -11.155  16.565  67.889  1.00  0.00     0.000 HD 
ENDBRANCH  42  43
ENDBRANCH  41  42
ENDBRANCH  40  41
ENDBRANCH  39  40
ENDBRANCH  37  39
ENDBRANCH  36  37
ENDBRANCH  35  36
ENDBRANCH  15  32
BRANCH  24  50
HETATM   50  N   UNK     1     -12.035  12.566  69.642  1.00  0.00    -0.296 NA 
HETATM   51  C   UNK     1     -12.370  11.694  70.748  1.00  0.00    -0.358 C  
HETATM   52  C   UNK     1     -12.169  13.970  70.049  1.00  0.00    -0.352 C  
ENDBRANCH  24  50
TORSDOF 9
ENDMDL
MODEL       17
REMARK 921   NORMALIZED FREE ENERGY PREDICTED BY IDOCK:   -6.70 KCAL/MOL
REMARK 922        TOTAL FREE ENERGY PREDICTED BY IDOCK:  -11.62 KCAL/MOL
REMARK 923 INTER-LIGAND FREE ENERGY PREDICTED BY IDOCK:  -10.79 KCAL/MOL
REMARK 924 INTRA-LIGAND FREE ENERGY PREDICTED BY IDOCK:   -0.83 KCAL/MOL
REMARK 927      BINDING AFFINITY PREDICTED BY RF-SCORE:    0.00 PKD
ROOT
HETATM    1  C   UNK     1      -8.900   9.346  67.349  1.00  0.00    -0.135 C  
HETATM    2  C   UNK     1      -9.319   8.007  67.928  1.00  0.00    -0.148 C  
HETATM    3  C   UNK     1      -9.847   8.109  69.389  1.00  0.00    -0.182 C  
HETATM    4  C   UNK     1      -8.874   8.870  70.260  1.00  0.00    -0.191 C  
HETATM    5  C   UNK     1      -8.667   8.412  71.679  1.00  0.00    -0.183 C  
HETATM    6  C   UNK     1      -8.158   9.896  69.768  1.00  0.00    -0.176 C  
HETATM    7  O   UNK     1      -7.169  10.539  70.526  1.00  0.00    -0.462 OA 
HETATM    8  C   UNK     1      -8.082  10.267  68.285  1.00  0.00    -0.107 C  
HETATM    9  C   UNK     1      -9.562   7.374  72.249  1.00  0.00    -0.186 A  
HETATM   10  O   UNK     1      -7.771   8.887  72.378  1.00  0.00    -0.360 OA 
HETATM   11  C   UNK     1      -9.535   7.088  73.625  1.00  0.00    -0.204 A  
HETATM   12  O   UNK     1      -6.683  10.094  68.031  1.00  0.00    -0.062 OA 
HETATM   13  C   UNK     1      -8.608  11.712  67.798  1.00  0.00    -0.144 C  
HETATM   14  H   UNK     1      -6.663  11.264  70.178  1.00  0.00     0.000 HD 
HETATM   15  C   UNK     1      -8.892  11.843  66.296  1.00  0.00    -0.111 C  
HETATM   16  O   UNK     1      -8.729  12.698  68.520  1.00  0.00    -0.147 OA 
HETATM   17  C   UNK     1     -10.410   6.158  74.188  1.00  0.00    -0.308 A  
HETATM   18  H   UNK     1      -6.181  10.659  68.606  1.00  0.00     0.000 HD 
HETATM   19  O   UNK     1      -8.650   7.662  74.499  1.00  0.00    -0.335 OA 
HETATM   20  H   UNK     1     -11.773   5.550  69.601  1.00  0.00     0.000 HD 
HETATM   21  H   UNK     1      -8.631   7.468  75.428  1.00  0.00     0.000 HD 
HETATM   22  C   UNK     1     -11.327   5.499  73.379  1.00  0.00    -0.117 A  
HETATM   23  C   UNK     1      -8.051  10.998  65.653  1.00  0.00     0.004 C  
HETATM   24  C   UNK     1      -8.338   9.445  65.863  1.00  0.00    -0.120 C  
HETATM   25  C   UNK     1      -9.255   5.597  69.501  1.00  0.00    -0.154 C  
HETATM   26  O   UNK     1     -11.522   6.411  69.287  1.00  0.00    -0.381 OA 
HETATM   27  O   UNK     1      -6.693  11.324  65.565  1.00  0.00    -0.346 OA 
HETATM   28  C   UNK     1     -11.327   5.733  72.004  1.00  0.00    -0.289 A  
HETATM   29  C   UNK     1     -10.258   6.698  69.905  1.00  0.00    -0.187 C  
HETATM   30  C   UNK     1     -10.425   6.645  71.411  1.00  0.00    -0.241 A  
HETATM   31  H   UNK     1      -6.103  10.731  65.115  1.00  0.00     0.000 HD 
ENDROOT
BRANCH  15  32
HETATM   32  C   UNK     1     -10.253  11.722  65.642  1.00  0.00    -0.246 C  
HETATM   33  H   UNK     1      -9.673  12.216  63.691  1.00  0.00     0.000 HD 
HETATM   34  O   UNK     1     -11.224  11.368  66.319  1.00  0.00    -0.270 OA 
HETATM   35  N   UNK     1     -10.449  11.979  64.308  1.00  0.00    -0.303 N  
BRANCH  35  36
HETATM   36  C   UNK     1     -11.807  11.897  63.819  1.00  0.00    -0.458 C  
BRANCH  36  37
HETATM   37  N   UNK     1     -12.163  13.199  63.294  1.00  0.00    -0.842 NA 
HETATM   38  H   UNK     1     -12.896  13.140  62.586  1.00  0.00     0.000 HD 
BRANCH  37  39
HETATM   39  C   UNK     1     -12.535  14.100  64.401  1.00  0.00    -0.293 C  
BRANCH  39  40
HETATM   40  C   UNK     1     -11.531  15.251  64.589  1.00  0.00    -0.356 C  
BRANCH  40  41
HETATM   41  C   UNK     1     -10.805  15.221  65.938  1.00  0.00    -0.345 C  
BRANCH  41  42
HETATM   42  C   UNK     1      -9.710  16.298  66.022  1.00  0.00    -0.370 C  
BRANCH  42  43
HETATM   43  C   UNK     1     -10.188  17.656  66.559  1.00  0.00    -0.355 C  
HETATM   44  C   UNK     1     -10.057  17.719  68.088  1.00  0.00    -0.362 C  
HETATM   45  N   UNK     1      -9.422  18.790  65.966  1.00  0.00    -0.482 NA 
HETATM   46  O   UNK     1     -10.816  17.188  68.882  1.00  0.00    -0.289 OA 
HETATM   47  O   UNK     1      -8.962  18.435  68.456  1.00  0.00    -0.312 OA 
HETATM   48  H2  UNK     1      -9.449  18.763  64.946  1.00  0.00     0.000 HD 
HETATM   49  H1  UNK     1      -9.740  19.691  66.322  1.00  0.00     0.000 HD 
ENDBRANCH  42  43
ENDBRANCH  41  42
ENDBRANCH  40  41
ENDBRANCH  39  40
ENDBRANCH  37  39
ENDBRANCH  36  37
ENDBRANCH  35  36
ENDBRANCH  15  32
BRANCH  24  50
HETATM   50  N   UNK     1      -7.168   8.666  65.395  1.00  0.00    -0.082 NA 
HETATM   51  C   UNK     1      -6.817   7.465  66.123  1.00  0.00    -0.057 C  
HETATM   52  C   UNK     1      -7.282   8.371  63.961  1.00  0.00    -0.093 C  
ENDBRANCH  24  50
TORSDOF 9
ENDMDL
MODEL       18
REMARK 921   NORMALIZED FREE ENERGY PREDICTED BY IDOCK:   -6.67 KCAL/MOL
REMARK 922        TOTAL FREE ENERGY PREDICTED BY IDOCK:  -11.57 KCAL/MOL
REMARK 923 INTER-LIGAND FREE ENERGY PREDICTED BY IDOCK:  -10.52 KCAL/MOL
REMARK 924 INTRA-LIGAND FREE ENERGY PREDICTED BY IDOCK:   -1.05 KCAL/MOL
REMARK 927      BINDING AFFINITY PREDICTED BY RF-SCORE:    0.00 PKD
ROOT
HETATM    1  C   UNK     1     -10.175  14.115  68.125  1.00  0.00    -0.241 C  
HETATM    2  C   UNK     1      -9.695  12.678  68.213  1.00  0.00    -0.216 C  
HETATM    3  C   UNK     1      -9.038  12.169  66.896  1.00  0.00    -0.203 C  
HETATM    4  C   UNK     1      -9.934  12.440  65.709  1.00  0.00    -0.270 C  
HETATM    5  C   UNK     1     -10.008  11.410  64.614  1.00  0.00    -0.268 C  
HETATM    6  C   UNK     1     -10.700  13.543  65.654  1.00  0.00    -0.281 C  
HETATM    7  O   UNK     1     -11.621  13.755  64.619  1.00  0.00    -0.349 OA 
HETATM    8  C   UNK     1     -10.912  14.508  66.822  1.00  0.00    -0.316 C  
HETATM    9  C   UNK     1      -9.058  10.270  64.617  1.00  0.00    -0.265 A  
HETATM   10  O   UNK     1     -10.841  11.498  63.710  1.00  0.00    -0.364 OA 
HETATM   11  C   UNK     1      -8.958   9.422  63.501  1.00  0.00    -0.115 A  
HETATM   12  O   UNK     1     -12.328  14.397  67.016  1.00  0.00    -0.579 OA 
HETATM   13  C   UNK     1     -10.444  16.046  66.681  1.00  0.00    -0.304 C  
HETATM   14  H   UNK     1     -12.163  14.535  64.580  1.00  0.00     0.000 HD 
HETATM   15  C   UNK     1     -10.298  16.819  67.997  1.00  0.00    -0.317 C  
HETATM   16  O   UNK     1     -10.265  16.633  65.617  1.00  0.00    -0.496 OA 
HETATM   17  C   UNK     1      -8.028   8.382  63.462  1.00  0.00    -0.159 A  
HETATM   18  H   UNK     1     -12.780  14.638  66.217  1.00  0.00     0.000 HD 
HETATM   19  O   UNK     1      -9.765   9.526  62.398  1.00  0.00    -0.547 OA 
HETATM   20  H   UNK     1      -7.081   9.857  67.956  1.00  0.00     0.000 HD 
HETATM   21  H   UNK     1      -9.698   8.953  61.644  1.00  0.00     0.000 HD 
HETATM   22  C   UNK     1      -7.183   8.175  64.545  1.00  0.00    -0.084 A  
HETATM   23  C   UNK     1     -11.187  16.292  68.873  1.00  0.00    -0.337 C  
HETATM   24  C   UNK     1     -10.870  14.814  69.374  1.00  0.00    -0.255 C  
HETATM   25  C   UNK     1      -9.598   9.826  67.829  1.00  0.00    -0.157 C  
HETATM   26  O   UNK     1      -7.366  10.757  67.849  1.00  0.00    -0.086 OA 
HETATM   27  O   UNK     1     -12.550  16.562  68.706  1.00  0.00     0.196 OA 
HETATM   28  C   UNK     1      -7.309   8.974  65.681  1.00  0.00    -0.086 A  
HETATM   29  C   UNK     1      -8.571  10.694  67.071  1.00  0.00    -0.128 C  
HETATM   30  C   UNK     1      -8.268  10.010  65.752  1.00  0.00    -0.130 A  
HETATM   31  H   UNK     1     -13.174  16.193  69.320  1.00  0.00     0.000 HD 
ENDROOT
BRANCH  15  32
HETATM   32  C   UNK     1      -9.001  17.053  68.744  1.00  0.00    -0.249 C  
HETATM   33  H   UNK     1      -7.866  15.557  67.815  1.00  0.00     0.000 HD 
HETATM   34  O   UNK     1      -8.932  17.970  69.570  1.00  0.00     0.353 OA 
HETATM   35  N   UNK     1      -7.883  16.288  68.527  1.00  0.00    -0.181 N  
BRANCH  35  36
HETATM   36  C   UNK     1      -6.729  16.565  69.353  1.00  0.00    -0.213 C  
BRANCH  36  37
HETATM   37  N   UNK     1      -5.790  17.324  68.554  1.00  0.00    -0.152 NA 
HETATM   38  H   UNK     1      -6.027  17.306  67.562  1.00  0.00     0.000 HD 
BRANCH  37  39
HETATM   39  C   UNK     1      -5.688  18.700  69.075  1.00  0.00    -0.213 C  
BRANCH  39  40
HETATM   40  C   UNK     1      -5.329  19.722  67.981  1.00  0.00    -0.199 C  
BRANCH  40  41
HETATM   41  C   UNK     1      -6.139  21.021  68.062  1.00  0.00    -0.398 C  
BRANCH  41  42
HETATM   42  C   UNK     1      -7.265  21.058  67.014  1.00  0.00    -0.307 C  
BRANCH  42  43
HETATM   43  C   UNK     1      -8.241  19.874  67.083  1.00  0.00    -0.312 C  
HETATM   44  C   UNK     1      -9.698  20.362  67.086  1.00  0.00    -0.460 C  
HETATM   45  N   UNK     1      -8.054  18.932  65.942  1.00  0.00    -0.469 NA 
HETATM   46  O   UNK     1     -10.279  20.839  68.046  1.00  0.00    -0.137 OA 
HETATM   47  O   UNK     1     -10.265  20.214  65.859  1.00  0.00    -0.464 OA 
HETATM   48  H2  UNK     1      -7.088  18.613  65.878  1.00  0.00     0.000 HD 
HETATM   49  H1  UNK     1      -8.702  18.145  65.988  1.00  0.00     0.000 HD 
ENDBRANCH  42  43
ENDBRANCH  41  42
ENDBRANCH  40  41
ENDBRANCH  39  40
ENDBRANCH  37  39
ENDBRANCH  36  37
ENDBRANCH  35  36
ENDBRANCH  15  32
BRANCH  24  50
HETATM   50  N   UNK     1     -12.071  14.257  70.039  1.00  0.00    -0.320 NA 
HETATM   51  C   UNK     1     -12.348  12.847  69.871  1.00  0.00    -0.088 C  
HETATM   52  C   UNK     1     -12.084  14.606  71.465  1.00  0.00    -0.348 C  
ENDBRANCH  24  50
TORSDOF 9
ENDMDL
MODEL       19
REMARK 921   NORMALIZED FREE ENERGY PREDICTED BY IDOCK:   -6.64 KCAL/MOL
REMARK 922        TOTAL FREE ENERGY PREDICTED BY IDOCK:  -11.53 KCAL/MOL
REMARK 923 INTER-LIGAND FREE ENERGY PREDICTED BY IDOCK:   -9.84 KCAL/MOL
REMARK 924 INTRA-LIGAND FREE ENERGY PREDICTED BY IDOCK:   -1.69 KCAL/MOL
REMARK 927      BINDING AFFINITY PREDICTED BY RF-SCORE:    0.00 PKD
ROOT
HETATM    1  C   UNK     1      -9.782  13.350  67.664  1.00  0.00    -0.222 C  
HETATM    2  C   UNK     1     -10.128  11.892  67.420  1.00  0.00    -0.211 C  
HETATM    3  C   UNK     1      -9.355  10.914  68.353  1.00  0.00    -0.172 C  
HETATM    4  C   UNK     1      -7.871  11.201  68.320  1.00  0.00    -0.123 C  
HETATM    5  C   UNK     1      -6.913  10.040  68.366  1.00  0.00    -0.067 C  
HETATM    6  C   UNK     1      -7.409  12.457  68.191  1.00  0.00    -0.111 C  
HETATM    7  O   UNK     1      -6.042  12.731  68.043  1.00  0.00    -0.076 OA 
HETATM    8  C   UNK     1      -8.281  13.670  67.860  1.00  0.00    -0.171 C  
HETATM    9  C   UNK     1      -7.428   8.678  68.650  1.00  0.00    -0.096 A  
HETATM   10  O   UNK     1      -5.707  10.202  68.176  1.00  0.00    -0.039 OA 
HETATM   11  C   UNK     1      -6.540   7.621  68.915  1.00  0.00    -0.049 A  
HETATM   12  O   UNK     1      -7.709  14.087  66.614  1.00  0.00    -0.159 OA 
HETATM   13  C   UNK     1      -8.383  14.888  68.914  1.00  0.00    -0.178 C  
HETATM   14  H   UNK     1      -5.716  13.619  67.951  1.00  0.00     0.000 HD 
HETATM   15  C   UNK     1      -9.571  15.838  68.717  1.00  0.00    -0.216 C  
HETATM   16  O   UNK     1      -7.560  15.129  69.793  1.00  0.00    -0.206 OA 
HETATM   17  C   UNK     1      -7.008   6.348  69.243  1.00  0.00    -0.067 A  
HETATM   18  H   UNK     1      -6.787  14.283  66.735  1.00  0.00     0.000 HD 
HETATM   19  O   UNK     1      -5.177   7.744  68.846  1.00  0.00    -0.021 OA 
HETATM   20  H   UNK     1     -11.313   8.373  68.455  1.00  0.00     0.000 HD 
HETATM   21  H   UNK     1      -4.577   7.030  69.024  1.00  0.00     0.000 HD 
HETATM   22  C   UNK     1      -8.375   6.114  69.311  1.00  0.00    -0.116 A  
HETATM   23  C   UNK     1      -9.860  15.849  67.393  1.00  0.00    -0.234 C  
HETATM   24  C   UNK     1     -10.475  14.500  66.810  1.00  0.00    -0.270 C  
HETATM   25  C   UNK     1      -9.892   9.165  66.529  1.00  0.00    -0.333 C  
HETATM   26  O   UNK     1     -11.061   9.270  68.644  1.00  0.00    -0.054 OA 
HETATM   27  O   UNK     1      -9.003  16.518  66.513  1.00  0.00    -0.232 OA 
HETATM   28  C   UNK     1      -9.267   7.138  68.996  1.00  0.00    -0.135 A  
HETATM   29  C   UNK     1      -9.769   9.445  68.042  1.00  0.00    -0.145 C  
HETATM   30  C   UNK     1      -8.812   8.425  68.628  1.00  0.00    -0.136 A  
HETATM   31  H   UNK     1      -9.206  16.525  65.585  1.00  0.00     0.000 HD 
ENDROOT
BRANCH  15  32
HETATM   32  C   UNK     1     -10.881  15.780  69.474  1.00  0.00    -0.287 C  
HETATM   33  H   UNK     1     -10.148  14.937  71.245  1.00  0.00     0.000 HD 
HETATM   34  O   UNK     1     -11.908  16.226  68.948  1.00  0.00    -0.284 OA 
HETATM   35  N   UNK     1     -10.972  15.262  70.741  1.00  0.00    -0.303 N  
BRANCH  35  36
HETATM   36  C   UNK     1     -12.291  15.199  71.329  1.00  0.00    -0.336 C  
BRANCH  36  37
HETATM   37  N   UNK     1     -12.984  14.075  70.734  1.00  0.00    -0.274 NA 
HETATM   38  H   UNK     1     -12.617  13.843  69.811  1.00  0.00     0.000 HD 
BRANCH  37  39
HETATM   39  C   UNK     1     -12.944  12.921  71.653  1.00  0.00    -0.313 C  
BRANCH  39  40
HETATM   40  C   UNK     1     -12.310  11.675  71.009  1.00  0.00    -0.405 C  
BRANCH  40  41
HETATM   41  C   UNK     1     -13.284  10.502  70.850  1.00  0.00    -0.281 C  
BRANCH  41  42
HETATM   42  C   UNK     1     -13.196   9.522  72.033  1.00  0.00    -0.539 C  
BRANCH  42  43
HETATM   43  C   UNK     1     -12.413   8.233  71.738  1.00  0.00    -0.332 C  
HETATM   44  C   UNK     1     -11.018   8.277  72.382  1.00  0.00    -0.368 C  
HETATM   45  N   UNK     1     -13.130   7.022  72.232  1.00  0.00    -0.516 NA 
HETATM   46  O   UNK     1     -10.064   8.903  71.951  1.00  0.00    -0.321 OA 
HETATM   47  O   UNK     1     -10.983   7.538  73.522  1.00  0.00    -0.339 OA 
HETATM   48  H2  UNK     1     -14.078   6.974  71.859  1.00  0.00     0.000 HD 
HETATM   49  H1  UNK     1     -12.610   6.166  72.036  1.00  0.00     0.000 HD 
ENDBRANCH  42  43
ENDBRANCH  41  42
ENDBRANCH  40  41
ENDBRANCH  39  40
ENDBRANCH  37  39
ENDBRANCH  36  37
ENDBRANCH  35  36
ENDBRANCH  15  32
BRANCH  24  50
HETATM   50  N   UNK     1     -10.423  14.542  65.330  1.00  0.00    -0.363 NA 
HETATM   51  C   UNK     1     -10.463  13.285  64.613  1.00  0.00    -0.402 C  
HETATM   52  C   UNK     1     -11.442  15.457  64.800  1.00  0.00    -0.336 C  
ENDBRANCH  24  50
TORSDOF 9
ENDMDL
MODEL       20
REMARK 921   NORMALIZED FREE ENERGY PREDICTED BY IDOCK:   -6.63 KCAL/MOL
REMARK 922        TOTAL FREE ENERGY PREDICTED BY IDOCK:  -11.52 KCAL/MOL
REMARK 923 INTER-LIGAND FREE ENERGY PREDICTED BY IDOCK:  -11.27 KCAL/MOL
REMARK 924 INTRA-LIGAND FREE ENERGY PREDICTED BY IDOCK:   -0.25 KCAL/MOL
REMARK 927      BINDING AFFINITY PREDICTED BY RF-SCORE:    0.00 PKD
ROOT
HETATM    1  C   UNK     1      -9.226  12.528  66.612  1.00  0.00    -0.223 C  
HETATM    2  C   UNK     1      -8.356  13.661  67.122  1.00  0.00    -0.151 C  
HETATM    3  C   UNK     1      -9.145  14.983  67.354  1.00  0.00    -0.194 C  
HETATM    4  C   UNK     1      -9.960  15.345  66.134  1.00  0.00    -0.330 C  
HETATM    5  C   UNK     1     -10.073  16.795  65.748  1.00  0.00    -0.253 C  
HETATM    6  C   UNK     1     -10.522  14.393  65.368  1.00  0.00    -0.373 C  
HETATM    7  O   UNK     1     -11.183  14.702  64.170  1.00  0.00    -0.603 OA 
HETATM    8  C   UNK     1     -10.243  12.895  65.505  1.00  0.00    -0.287 C  
HETATM    9  C   UNK     1      -9.571  17.840  66.674  1.00  0.00    -0.311 A  
HETATM   10  O   UNK     1     -10.582  17.132  64.677  1.00  0.00    -0.443 OA 
HETATM   11  C   UNK     1      -9.859  19.196  66.444  1.00  0.00    -0.381 A  
HETATM   12  O   UNK     1      -9.684  12.602  64.218  1.00  0.00    -0.561 OA 
HETATM   13  C   UNK     1     -11.450  11.892  65.879  1.00  0.00    -0.278 C  
HETATM   14  H   UNK     1     -11.580  14.029  63.629  1.00  0.00     0.000 HD 
HETATM   15  C   UNK     1     -11.028  10.514  66.406  1.00  0.00    -0.019 C  
HETATM   16  O   UNK     1     -12.643  12.132  65.713  1.00  0.00    -0.344 OA 
HETATM   17  C   UNK     1      -9.446  20.185  67.337  1.00  0.00    -0.531 A  
HETATM   18  H   UNK     1     -10.308  12.828  63.539  1.00  0.00     0.000 HD 
HETATM   19  O   UNK     1     -10.528  19.648  65.337  1.00  0.00    -0.427 OA 
HETATM   20  H   UNK     1      -7.368  16.458  69.584  1.00  0.00     0.000 HD 
HETATM   21  H   UNK     1     -10.723  20.565  65.181  1.00  0.00     0.000 HD 
HETATM   22  C   UNK     1      -8.735  19.831  68.476  1.00  0.00    -0.275 A  
HETATM   23  C   UNK     1      -9.836  10.214  65.836  1.00  0.00    -0.245 C  
HETATM   24  C   UNK     1      -8.600  11.094  66.319  1.00  0.00    -0.180 C  
HETATM   25  C   UNK     1      -6.824  16.099  67.149  1.00  0.00    -0.240 C  
HETATM   26  O   UNK     1      -7.955  15.782  69.263  1.00  0.00    -0.219 OA 
HETATM   27  O   UNK     1      -9.797   9.861  64.483  1.00  0.00    -0.395 OA 
HETATM   28  C   UNK     1      -8.394  18.496  68.688  1.00  0.00    -0.330 A  
HETATM   29  C   UNK     1      -8.183  16.090  67.880  1.00  0.00    -0.148 C  
HETATM   30  C   UNK     1      -8.774  17.483  67.777  1.00  0.00    -0.230 A  
HETATM   31  H   UNK     1      -8.961   9.651  64.083  1.00  0.00     0.000 HD 
ENDROOT
BRANCH  15  32
HETATM   32  C   UNK     1     -10.955  10.112  67.865  1.00  0.00    -0.277 C  
HETATM   33  H   UNK     1     -11.756  11.866  68.682  1.00  0.00     0.000 HD 
HETATM   34  O   UNK     1     -10.539   8.987  68.165  1.00  0.00    -0.219 OA 
HETATM   35  N   UNK     1     -11.350  10.951  68.876  1.00  0.00    -0.264 N  
BRANCH  35  36
HETATM   36  C   UNK     1     -11.165  10.477  70.229  1.00  0.00    -0.313 C  
BRANCH  36  37
HETATM   37  N   UNK     1      -9.748  10.250  70.424  1.00  0.00    -0.280 NA 
HETATM   38  H   UNK     1      -9.233  11.122  70.549  1.00  0.00     0.000 HD 
BRANCH  37  39
HETATM   39  C   UNK     1      -9.541   9.319  71.549  1.00  0.00    -0.092 C  
BRANCH  39  40
HETATM   40  C   UNK     1      -8.389   8.330  71.296  1.00  0.00    -0.156 C  
BRANCH  40  41
HETATM   41  C   UNK     1      -8.587   6.968  71.970  1.00  0.00    -0.123 C  
BRANCH  41  42
HETATM   42  C   UNK     1      -8.943   5.872  70.951  1.00  0.00    -0.152 C  
BRANCH  42  43
HETATM   43  C   UNK     1     -10.447   5.585  70.820  1.00  0.00    -0.260 C  
HETATM   44  C   UNK     1     -11.149   5.700  72.182  1.00  0.00    -0.241 C  
HETATM   45  N   UNK     1     -11.109   6.516  69.861  1.00  0.00    -0.336 NA 
HETATM   46  O   UNK     1     -11.111   4.861  73.067  1.00  0.00    -0.262 OA 
HETATM   47  O   UNK     1     -11.812   6.882  72.293  1.00  0.00    -0.279 OA 
HETATM   48  H2  UNK     1     -10.648   6.501  68.952  1.00  0.00     0.000 HD 
HETATM   49  H1  UNK     1     -12.107   6.325  69.774  1.00  0.00     0.000 HD 
ENDBRANCH  42  43
ENDBRANCH  41  42
ENDBRANCH  40  41
ENDBRANCH  39  40
ENDBRANCH  37  39
ENDBRANCH  36  37
ENDBRANCH  35  36
ENDBRANCH  15  32
BRANCH  24  50
HETATM   50  N   UNK     1      -7.465  10.891  65.388  1.00  0.00     0.061 NA 
HETATM   51  C   UNK     1      -6.131  11.182  65.870  1.00  0.00     0.006 C  
HETATM   52  C   UNK     1      -7.507   9.544  64.805  1.00  0.00    -0.112 C  
ENDBRANCH  24  50
TORSDOF 9
ENDMDL
MODEL       21
REMARK 921   NORMALIZED FREE ENERGY PREDICTED BY IDOCK:   -6.57 KCAL/MOL
REMARK 922        TOTAL FREE ENERGY PREDICTED BY IDOCK:  -11.42 KCAL/MOL
REMARK 923 INTER-LIGAND FREE ENERGY PREDICTED BY IDOCK:  -11.32 KCAL/MOL
REMARK 924 INTRA-LIGAND FREE ENERGY PREDICTED BY IDOCK:   -0.10 KCAL/MOL
REMARK 927      BINDING AFFINITY PREDICTED BY RF-SCORE:    0.00 PKD
ROOT
HETATM    1  C   UNK     1      -9.248  13.349  67.531  1.00  0.00    -0.219 C  
HETATM    2  C   UNK     1      -7.997  14.068  68.003  1.00  0.00    -0.152 C  
HETATM    3  C   UNK     1      -8.221  15.590  68.246  1.00  0.00    -0.142 C  
HETATM    4  C   UNK     1      -8.878  16.235  67.048  1.00  0.00    -0.228 C  
HETATM    5  C   UNK     1      -8.448  17.622  66.650  1.00  0.00    -0.259 C  
HETATM    6  C   UNK     1      -9.783  15.569  66.309  1.00  0.00    -0.302 C  
HETATM    7  O   UNK     1     -10.317  16.106  65.130  1.00  0.00    -0.560 OA 
HETATM    8  C   UNK     1     -10.086  14.076  66.453  1.00  0.00    -0.294 C  
HETATM    9  C   UNK     1      -7.558  18.397  67.550  1.00  0.00    -0.226 A  
HETATM   10  O   UNK     1      -8.826  18.128  65.593  1.00  0.00    -0.285 OA 
HETATM   11  C   UNK     1      -7.320  19.762  67.315  1.00  0.00    -0.248 A  
HETATM   12  O   UNK     1      -9.722  13.596  65.153  1.00  0.00    -0.559 OA 
HETATM   13  C   UNK     1     -11.570  13.602  66.875  1.00  0.00    -0.367 C  
HETATM   14  H   UNK     1     -10.956  15.635  64.608  1.00  0.00     0.000 HD 
HETATM   15  C   UNK     1     -11.683  12.166  67.402  1.00  0.00    -0.374 C  
HETATM   16  O   UNK     1     -12.588  14.275  66.744  1.00  0.00    -0.276 OA 
HETATM   17  C   UNK     1      -6.535  20.520  68.185  1.00  0.00    -0.340 A  
HETATM   18  H   UNK     1     -10.236  14.042  64.491  1.00  0.00     0.000 HD 
HETATM   19  O   UNK     1      -7.804  20.436  66.225  1.00  0.00    -0.477 OA 
HETATM   20  H   UNK     1      -5.946  16.278  70.404  1.00  0.00     0.000 HD 
HETATM   21  H   UNK     1      -7.643  21.359  66.066  1.00  0.00     0.000 HD 
HETATM   22  C   UNK     1      -5.973  19.920  69.305  1.00  0.00    -0.318 A  
HETATM   23  C   UNK     1     -10.712  11.439  66.799  1.00  0.00    -0.271 C  
HETATM   24  C   UNK     1      -9.219  11.785  67.234  1.00  0.00    -0.173 C  
HETATM   25  C   UNK     1      -5.658  15.745  67.957  1.00  0.00    -0.140 C  
HETATM   26  O   UNK     1      -6.755  15.875  70.109  1.00  0.00    -0.042 OA 
HETATM   27  O   UNK     1     -10.853  11.101  65.448  1.00  0.00    -0.234 OA 
HETATM   28  C   UNK     1      -6.155  18.555  69.520  1.00  0.00    -0.277 A  
HETATM   29  C   UNK     1      -6.895  16.250  68.730  1.00  0.00    -0.151 C  
HETATM   30  C   UNK     1      -6.919  17.763  68.632  1.00  0.00    -0.247 A  
HETATM   31  H   UNK     1     -10.172  10.591  65.025  1.00  0.00     0.000 HD 
ENDROOT
BRANCH  15  32
HETATM   32  C   UNK     1     -11.719  11.763  68.862  1.00  0.00    -0.323 C  
HETATM   33  H   UNK     1     -11.089   9.779  68.623  1.00  0.00     0.000 HD 
HETATM   34  O   UNK     1     -12.025  12.601  69.717  1.00  0.00    -0.319 OA 
HETATM   35  N   UNK     1     -11.406  10.493  69.279  1.00  0.00    -0.254 N  
BRANCH  35  36
HETATM   36  C   UNK     1     -11.547  10.215  70.690  1.00  0.00    -0.343 C  
BRANCH  36  37
HETATM   37  N   UNK     1     -12.831   9.574  70.885  1.00  0.00    -0.527 NA 
HETATM   38  H   UNK     1     -13.439   9.677  70.072  1.00  0.00     0.000 HD 
BRANCH  37  39
HETATM   39  C   UNK     1     -12.632   8.159  71.252  1.00  0.00    -0.229 C  
BRANCH  39  40
HETATM   40  C   UNK     1     -11.712   7.988  72.474  1.00  0.00    -0.446 C  
BRANCH  40  41
HETATM   41  C   UNK     1     -11.086   6.593  72.582  1.00  0.00    -0.291 C  
BRANCH  41  42
HETATM   42  C   UNK     1     -10.520   6.329  73.989  1.00  0.00    -0.279 C  
BRANCH  42  43
HETATM   43  C   UNK     1      -9.738   5.014  74.126  1.00  0.00    -0.145 C  
HETATM   44  C   UNK     1     -10.405   3.891  73.316  1.00  0.00    -0.166 C  
HETATM   45  N   UNK     1      -8.324   5.157  73.672  1.00  0.00    -0.109 NA 
HETATM   46  O   UNK     1     -11.406   3.280  73.651  1.00  0.00    -0.224 OA 
HETATM   47  O   UNK     1      -9.744   3.673  72.148  1.00  0.00    -0.144 OA 
HETATM   48  H2  UNK     1      -7.854   5.920  74.158  1.00  0.00     0.000 HD 
HETATM   49  H1  UNK     1      -7.806   4.283  73.763  1.00  0.00     0.000 HD 
ENDBRANCH  42  43
ENDBRANCH  41  42
ENDBRANCH  40  41
ENDBRANCH  39  40
ENDBRANCH  37  39
ENDBRANCH  36  37
ENDBRANCH  35  36
ENDBRANCH  15  32
BRANCH  24  50
HETATM   50  N   UNK     1      -8.276  11.170  66.270  1.00  0.00    -0.169 NA 
HETATM   51  C   UNK     1      -6.861  11.405  66.461  1.00  0.00    -0.064 C  
HETATM   52  C   UNK     1      -8.535   9.731  66.139  1.00  0.00    -0.124 C  
ENDBRANCH  24  50
TORSDOF 9
ENDMDL
MODEL       22
REMARK 921   NORMALIZED FREE ENERGY PREDICTED BY IDOCK:   -6.56 KCAL/MOL
REMARK 922        TOTAL FREE ENERGY PREDICTED BY IDOCK:  -11.40 KCAL/MOL
REMARK 923 INTER-LIGAND FREE ENERGY PREDICTED BY IDOCK:   -9.86 KCAL/MOL
REMARK 924 INTRA-LIGAND FREE ENERGY PREDICTED BY IDOCK:   -1.54 KCAL/MOL
REMARK 927      BINDING AFFINITY PREDICTED BY RF-SCORE:    0.00 PKD
ROOT
HETATM    1  C   UNK     1      -9.908  12.950  68.070  1.00  0.00    -0.223 C  
HETATM    2  C   UNK     1      -9.480  11.578  68.560  1.00  0.00    -0.175 C  
HETATM    3  C   UNK     1     -10.677  10.682  68.995  1.00  0.00    -0.257 C  
HETATM    4  C   UNK     1     -11.577  11.419  69.959  1.00  0.00    -0.382 C  
HETATM    5  C   UNK     1     -12.190  10.652  71.100  1.00  0.00    -0.374 C  
HETATM    6  C   UNK     1     -11.782  12.743  69.846  1.00  0.00    -0.251 C  
HETATM    7  O   UNK     1     -12.519  13.462  70.796  1.00  0.00    -0.354 OA 
HETATM    8  C   UNK     1     -11.000  13.661  68.905  1.00  0.00    -0.249 C  
HETATM    9  C   UNK     1     -12.073   9.173  71.133  1.00  0.00    -0.365 A  
HETATM   10  O   UNK     1     -12.794  11.229  72.006  1.00  0.00    -0.368 OA 
HETATM   11  C   UNK     1     -12.816   8.419  72.058  1.00  0.00    -0.354 A  
HETATM   12  O   UNK     1     -10.385  14.554  69.842  1.00  0.00    -0.435 OA 
HETATM   13  C   UNK     1     -11.780  14.457  67.738  1.00  0.00    -0.376 C  
HETATM   14  H   UNK     1     -12.663  14.398  70.716  1.00  0.00     0.000 HD 
HETATM   15  C   UNK     1     -10.902  15.001  66.604  1.00  0.00    -0.318 C  
HETATM   16  O   UNK     1     -12.984  14.702  67.736  1.00  0.00     1.067 OA 
HETATM   17  C   UNK     1     -12.764   7.025  72.064  1.00  0.00    -0.228 A  
HETATM   18  H   UNK     1     -11.055  14.991  70.355  1.00  0.00     0.000 HD 
HETATM   19  O   UNK     1     -13.610   8.979  73.024  1.00  0.00    -0.915 OA 
HETATM   20  H   UNK     1      -9.502   7.724  68.581  1.00  0.00     0.000 HD 
HETATM   21  H   UNK     1     -14.112   8.470  73.650  1.00  0.00     0.000 HD 
HETATM   22  C   UNK     1     -11.963   6.362  71.142  1.00  0.00    -0.273 A  
HETATM   23  C   UNK     1      -9.685  15.274  67.134  1.00  0.00    -0.217 C  
HETATM   24  C   UNK     1      -8.826  14.008  67.577  1.00  0.00    -0.199 C  
HETATM   25  C   UNK     1      -8.888   9.407  70.354  1.00  0.00    -0.290 C  
HETATM   26  O   UNK     1      -9.821   8.570  68.286  1.00  0.00    -0.159 OA 
HETATM   27  O   UNK     1      -9.538  16.388  67.968  1.00  0.00    -0.221 OA 
HETATM   28  C   UNK     1     -11.178   7.099  70.255  1.00  0.00    -0.309 A  
HETATM   29  C   UNK     1     -10.154   9.297  69.478  1.00  0.00    -0.198 C  
HETATM   30  C   UNK     1     -11.192   8.513  70.257  1.00  0.00    -0.185 A  
HETATM   31  H   UNK     1      -8.685  16.579  68.339  1.00  0.00     0.000 HD 
ENDROOT
BRANCH  15  32
HETATM   32  C   UNK     1     -10.680  14.334  65.262  1.00  0.00    -0.366 C  
HETATM   33  H   UNK     1     -12.136  12.839  65.446  1.00  0.00     0.000 HD 
HETATM   34  O   UNK     1      -9.843  14.801  64.482  1.00  0.00     0.065 OA 
HETATM   35  N   UNK     1     -11.391  13.229  64.868  1.00  0.00    -0.307 N  
BRANCH  35  36
HETATM   36  C   UNK     1     -11.038  12.643  63.595  1.00  0.00    -0.443 C  
BRANCH  36  37
HETATM   37  N   UNK     1      -9.754  11.992  63.753  1.00  0.00    -0.555 NA 
HETATM   38  H   UNK     1      -9.425  12.022  64.718  1.00  0.00     0.000 HD 
BRANCH  37  39
HETATM   39  C   UNK     1      -9.825  10.614  63.233  1.00  0.00    -0.312 C  
BRANCH  39  40
HETATM   40  C   UNK     1      -8.439  10.036  62.895  1.00  0.00    -0.176 C  
BRANCH  40  41
HETATM   41  C   UNK     1      -7.453  10.076  64.069  1.00  0.00    -0.135 C  
BRANCH  41  42
HETATM   42  C   UNK     1      -7.916   9.183  65.234  1.00  0.00    -0.111 C  
BRANCH  42  43
HETATM   43  C   UNK     1      -8.388   7.782  64.816  1.00  0.00    -0.043 C  
HETATM   44  C   UNK     1      -7.215   6.791  64.792  1.00  0.00    -0.082 C  
HETATM   45  N   UNK     1      -9.441   7.254  65.731  1.00  0.00    -0.376 NA 
HETATM   46  O   UNK     1      -6.371   6.720  63.913  1.00  0.00    -0.034 OA 
HETATM   47  O   UNK     1      -7.218   6.002  65.899  1.00  0.00    -0.072 OA 
HETATM   48  H2  UNK     1     -10.225   7.903  65.807  1.00  0.00     0.000 HD 
HETATM   49  H1  UNK     1      -9.755   6.324  65.453  1.00  0.00     0.000 HD 
ENDBRANCH  42  43
ENDBRANCH  41  42
ENDBRANCH  40  41
ENDBRANCH  39  40
ENDBRANCH  37  39
ENDBRANCH  36  37
ENDBRANCH  35  36
ENDBRANCH  15  32
BRANCH  24  50
HETATM   50  N   UNK     1      -7.699  14.457  68.428  1.00  0.00    -0.123 NA 
HETATM   51  C   UNK     1      -7.024  13.468  69.238  1.00  0.00    -0.008 C  
HETATM   52  C   UNK     1      -6.721  15.213  67.636  1.00  0.00    -0.176 C  
ENDBRANCH  24  50
TORSDOF 9
ENDMDL
MODEL       23
REMARK 921   NORMALIZED FREE ENERGY PREDICTED BY IDOCK:   -6.54 KCAL/MOL
REMARK 922        TOTAL FREE ENERGY PREDICTED BY IDOCK:  -11.37 KCAL/MOL
REMARK 923 INTER-LIGAND FREE ENERGY PREDICTED BY IDOCK:  -10.19 KCAL/MOL
REMARK 924 INTRA-LIGAND FREE ENERGY PREDICTED BY IDOCK:   -1.18 KCAL/MOL
REMARK 927      BINDING AFFINITY PREDICTED BY RF-SCORE:    0.00 PKD
ROOT
HETATM    1  C   UNK     1      -8.807  12.354  67.754  1.00  0.00    -0.176 C  
HETATM    2  C   UNK     1      -7.911  13.550  68.023  1.00  0.00    -0.147 C  
HETATM    3  C   UNK     1      -8.688  14.897  68.083  1.00  0.00    -0.164 C  
HETATM    4  C   UNK     1      -9.573  15.062  66.869  1.00  0.00    -0.251 C  
HETATM    5  C   UNK     1      -9.711  16.432  66.260  1.00  0.00    -0.308 C  
HETATM    6  C   UNK     1     -10.176  14.004  66.301  1.00  0.00    -0.296 C  
HETATM    7  O   UNK     1     -10.906  14.119  65.109  1.00  0.00    -0.328 OA 
HETATM    8  C   UNK     1      -9.887  12.545  66.662  1.00  0.00    -0.241 C  
HETATM    9  C   UNK     1      -9.158  17.609  66.974  1.00  0.00    -0.256 A  
HETATM   10  O   UNK     1     -10.281  16.595  65.180  1.00  0.00    -0.592 OA 
HETATM   11  C   UNK     1      -9.462  18.912  66.544  1.00  0.00    -0.340 A  
HETATM   12  O   UNK     1      -9.403  12.044  65.411  1.00  0.00    -0.413 OA 
HETATM   13  C   UNK     1     -11.068  11.625  67.263  1.00  0.00    -0.290 C  
HETATM   14  H   UNK     1     -11.332  13.371  64.707  1.00  0.00     0.000 HD 
HETATM   15  C   UNK     1     -10.614  10.348  67.981  1.00  0.00    -0.259 C  
HETATM   16  O   UNK     1     -12.269  11.843  67.129  1.00  0.00    -0.501 OA 
HETATM   17  C   UNK     1      -9.000  20.030  67.240  1.00  0.00    -0.440 A  
HETATM   18  H   UNK     1     -10.066  12.161  64.741  1.00  0.00     0.000 HD 
HETATM   19  O   UNK     1     -10.195  19.184  65.419  1.00  0.00    -0.333 OA 
HETATM   20  H   UNK     1      -6.788  16.700  69.938  1.00  0.00     0.000 HD 
HETATM   21  H   UNK     1     -10.400  20.065  65.127  1.00  0.00     0.000 HD 
HETATM   22  C   UNK     1      -8.224  19.859  68.378  1.00  0.00    -0.223 A  
HETATM   23  C   UNK     1      -9.456   9.951  67.400  1.00  0.00    -0.149 C  
HETATM   24  C   UNK     1      -8.196  10.888  67.662  1.00  0.00    -0.116 C  
HETATM   25  C   UNK     1      -6.384  15.948  67.567  1.00  0.00    -0.198 C  
HETATM   26  O   UNK     1      -7.391  15.986  69.766  1.00  0.00    -0.127 OA 
HETATM   27  O   UNK     1      -9.495   9.383  66.122  1.00  0.00    -0.187 OA 
HETATM   28  C   UNK     1      -7.868  18.574  68.784  1.00  0.00    -0.301 A  
HETATM   29  C   UNK     1      -7.699  16.068  68.366  1.00  0.00    -0.147 C  
HETATM   30  C   UNK     1      -8.298  17.430  68.073  1.00  0.00    -0.231 A  
HETATM   31  H   UNK     1      -8.683   9.105  65.714  1.00  0.00     0.000 HD 
ENDROOT
BRANCH  15  32
HETATM   32  C   UNK     1     -10.455  10.187  69.479  1.00  0.00    -0.241 C  
HETATM   33  H   UNK     1      -9.228   8.490  69.453  1.00  0.00     0.000 HD 
HETATM   34  O   UNK     1     -10.981  11.009  70.238  1.00  0.00    -0.142 OA 
HETATM   35  N   UNK     1      -9.731   9.162  70.033  1.00  0.00    -0.183 N  
BRANCH  35  36
HETATM   36  C   UNK     1      -9.714   9.077  71.476  1.00  0.00    -0.295 C  
BRANCH  36  37
HETATM   37  N   UNK     1      -9.723   7.673  71.833  1.00  0.00    -0.161 NA 
HETATM   38  H   UNK     1      -9.149   7.483  72.654  1.00  0.00     0.000 HD 
BRANCH  37  39
HETATM   39  C   UNK     1     -11.113   7.212  72.009  1.00  0.00    -0.245 C  
BRANCH  39  40
HETATM   40  C   UNK     1     -11.369   5.843  71.354  1.00  0.00    -0.247 C  
BRANCH  40  41
HETATM   41  C   UNK     1     -10.932   5.772  69.887  1.00  0.00    -0.389 C  
BRANCH  41  42
HETATM   42  C   UNK     1      -9.871   4.681  69.659  1.00  0.00    -0.293 C  
BRANCH  42  43
HETATM   43  C   UNK     1      -8.879   4.980  68.524  1.00  0.00    -0.101 C  
HETATM   44  C   UNK     1      -9.616   5.187  67.192  1.00  0.00    -0.146 C  
HETATM   45  N   UNK     1      -8.057   6.192  68.810  1.00  0.00    -0.104 NA 
HETATM   46  O   UNK     1     -10.075   4.297  66.496  1.00  0.00    -0.227 OA 
HETATM   47  O   UNK     1      -9.714   6.508  66.887  1.00  0.00    -0.146 OA 
HETATM   48  H2  UNK     1      -7.580   6.114  69.708  1.00  0.00     0.000 HD 
HETATM   49  H1  UNK     1      -7.399   6.390  68.056  1.00  0.00     0.000 HD 
ENDBRANCH  42  43
ENDBRANCH  41  42
ENDBRANCH  40  41
ENDBRANCH  39  40
ENDBRANCH  37  39
ENDBRANCH  36  37
ENDBRANCH  35  36
ENDBRANCH  15  32
BRANCH  24  50
HETATM   50  N   UNK     1      -7.116  10.528  66.713  1.00  0.00    -0.103 NA 
HETATM   51  C   UNK     1      -6.078  11.505  66.464  1.00  0.00    -0.086 C  
HETATM   52  C   UNK     1      -6.517   9.237  67.075  1.00  0.00    -0.067 C  
ENDBRANCH  24  50
TORSDOF 9
ENDMDL
MODEL       24
REMARK 921   NORMALIZED FREE ENERGY PREDICTED BY IDOCK:   -6.39 KCAL/MOL
REMARK 922        TOTAL FREE ENERGY PREDICTED BY IDOCK:  -11.15 KCAL/MOL
REMARK 923 INTER-LIGAND FREE ENERGY PREDICTED BY IDOCK:   -9.51 KCAL/MOL
REMARK 924 INTRA-LIGAND FREE ENERGY PREDICTED BY IDOCK:   -1.63 KCAL/MOL
REMARK 927      BINDING AFFINITY PREDICTED BY RF-SCORE:    0.00 PKD
ROOT
HETATM    1  C   UNK     1     -10.205  11.264  67.073  1.00  0.00    -0.250 C  
HETATM    2  C   UNK     1     -10.613   9.802  67.104  1.00  0.00    -0.298 C  
HETATM    3  C   UNK     1      -9.788   8.957  68.119  1.00  0.00    -0.193 C  
HETATM    4  C   UNK     1      -8.305   9.169  67.914  1.00  0.00    -0.117 C  
HETATM    5  C   UNK     1      -7.381   7.992  68.071  1.00  0.00    -0.096 C  
HETATM    6  C   UNK     1      -7.821  10.366  67.540  1.00  0.00    -0.106 C  
HETATM    7  O   UNK     1      -6.465  10.553  67.234  1.00  0.00    -0.067 OA 
HETATM    8  C   UNK     1      -8.683  11.546  67.087  1.00  0.00    -0.160 C  
HETATM    9  C   UNK     1      -7.907   6.717  68.620  1.00  0.00    -0.118 A  
HETATM   10  O   UNK     1      -6.192   8.068  67.756  1.00  0.00    -0.048 OA 
HETATM   11  C   UNK     1      -7.030   5.680  68.981  1.00  0.00    -0.063 A  
HETATM   12  O   UNK     1      -8.214  11.729  65.745  1.00  0.00    -0.354 OA 
HETATM   13  C   UNK     1      -8.655  12.922  67.928  1.00  0.00    -0.185 C  
HETATM   14  H   UNK     1      -6.123  11.399  66.969  1.00  0.00     0.000 HD 
HETATM   15  C   UNK     1      -9.828  13.878  67.676  1.00  0.00    -0.236 C  
HETATM   16  O   UNK     1      -7.749  13.268  68.683  1.00  0.00    -0.129 OA 
HETATM   17  C   UNK     1      -7.503   4.499  69.554  1.00  0.00    -0.051 A  
HETATM   18  H   UNK     1      -7.280  11.903  65.754  1.00  0.00     0.000 HD 
HETATM   19  O   UNK     1      -5.676   5.731  68.778  1.00  0.00    -0.010 OA 
HETATM   20  H   UNK     1     -11.802   6.554  68.805  1.00  0.00     0.000 HD 
HETATM   21  H   UNK     1      -5.083   5.030  69.021  1.00  0.00     0.000 HD 
HETATM   22  C   UNK     1      -8.865   4.338  69.774  1.00  0.00    -0.133 A  
HETATM   23  C   UNK     1     -10.235  13.686  66.399  1.00  0.00    -0.292 C  
HETATM   24  C   UNK     1     -10.938  12.289  66.101  1.00  0.00    -0.293 C  
HETATM   25  C   UNK     1     -10.537   6.958  66.662  1.00  0.00    -0.197 C  
HETATM   26  O   UNK     1     -11.507   7.457  68.821  1.00  0.00     0.319 OA 
HETATM   27  O   UNK     1      -9.441  14.165  65.351  1.00  0.00    -0.533 OA 
HETATM   28  C   UNK     1      -9.751   5.336  69.370  1.00  0.00    -0.241 A  
HETATM   29  C   UNK     1     -10.271   7.476  68.092  1.00  0.00    -0.189 C  
HETATM   30  C   UNK     1      -9.294   6.524  68.756  1.00  0.00    -0.130 A  
HETATM   31  H   UNK     1      -9.727  14.030  64.455  1.00  0.00     0.000 HD 
ENDROOT
BRANCH  15  32
HETATM   32  C   UNK     1     -11.066  14.002  68.540  1.00  0.00    -0.257 C  
HETATM   33  H   UNK     1     -10.590  12.510  69.931  1.00  0.00     0.000 HD 
HETATM   34  O   UNK     1     -11.911  14.864  68.272  1.00  0.00    -0.324 OA 
HETATM   35  N   UNK     1     -11.282  13.197  69.630  1.00  0.00    -0.093 N  
BRANCH  35  36
HETATM   36  C   UNK     1     -12.534  13.366  70.331  1.00  0.00    -0.252 C  
BRANCH  36  37
HETATM   37  N   UNK     1     -12.761  12.172  71.119  1.00  0.00    -0.322 NA 
HETATM   38  H   UNK     1     -13.755  11.977  71.242  1.00  0.00     0.000 HD 
BRANCH  37  39
HETATM   39  C   UNK     1     -12.043  11.033  70.517  1.00  0.00    -0.377 C  
BRANCH  39  40
HETATM   40  C   UNK     1     -12.159   9.749  71.358  1.00  0.00    -0.486 C  
BRANCH  40  41
HETATM   41  C   UNK     1     -10.819   9.044  71.594  1.00  0.00    -0.437 C  
BRANCH  41  42
HETATM   42  C   UNK     1     -10.889   8.065  72.779  1.00  0.00    -0.438 C  
BRANCH  42  43
HETATM   43  C   UNK     1     -10.971   6.583  72.378  1.00  0.00    -0.246 C  
HETATM   44  C   UNK     1      -9.959   5.743  73.171  1.00  0.00    -0.176 C  
HETATM   45  N   UNK     1     -12.335   6.023  72.598  1.00  0.00    -0.524 NA 
HETATM   46  O   UNK     1      -8.760   5.690  72.950  1.00  0.00    -0.122 OA 
HETATM   47  O   UNK     1     -10.569   5.068  74.182  1.00  0.00    -0.273 OA 
HETATM   48  H2  UNK     1     -13.045   6.576  72.119  1.00  0.00     0.000 HD 
HETATM   49  H1  UNK     1     -12.389   5.039  72.331  1.00  0.00     0.000 HD 
ENDBRANCH  42  43
ENDBRANCH  41  42
ENDBRANCH  40  41
ENDBRANCH  39  40
ENDBRANCH  37  39
ENDBRANCH  36  37
ENDBRANCH  35  36
ENDBRANCH  15  32
BRANCH  24  50
HETATM   50  N   UNK     1     -11.018  12.086  64.635  1.00  0.00    -0.305 NA 
HETATM   51  C   UNK     1     -10.534  10.834  64.095  1.00  0.00    -0.239 C  
HETATM   52  C   UNK     1     -12.378  12.353  64.149  1.00  0.00    -0.467 C  
ENDBRANCH  24  50
TORSDOF 9
ENDMDL
MODEL       25
REMARK 921   NORMALIZED FREE ENERGY PREDICTED BY IDOCK:   -6.33 KCAL/MOL
REMARK 922        TOTAL FREE ENERGY PREDICTED BY IDOCK:  -11.06 KCAL/MOL
REMARK 923 INTER-LIGAND FREE ENERGY PREDICTED BY IDOCK:  -10.26 KCAL/MOL
REMARK 924 INTRA-LIGAND FREE ENERGY PREDICTED BY IDOCK:   -0.80 KCAL/MOL
REMARK 927      BINDING AFFINITY PREDICTED BY RF-SCORE:    0.00 PKD
ROOT
HETATM    1  C   UNK     1     -10.225   9.448  68.993  1.00  0.00    -0.216 C  
HETATM    2  C   UNK     1     -11.091  10.619  68.564  1.00  0.00    -0.318 C  
HETATM    3  C   UNK     1     -10.350  11.615  67.623  1.00  0.00    -0.210 C  
HETATM    4  C   UNK     1      -9.021  12.026  68.214  1.00  0.00    -0.186 C  
HETATM    5  C   UNK     1      -8.567  13.450  68.042  1.00  0.00    -0.174 C  
HETATM    6  C   UNK     1      -8.284  11.161  68.932  1.00  0.00    -0.104 C  
HETATM    7  O   UNK     1      -7.106  11.555  69.583  1.00  0.00    -0.316 OA 
HETATM    8  C   UNK     1      -8.772   9.789  69.401  1.00  0.00    -0.174 C  
HETATM    9  C   UNK     1      -9.316  14.352  67.132  1.00  0.00    -0.226 A  
HETATM   10  O   UNK     1      -7.579  13.881  68.639  1.00  0.00    -0.127 OA 
HETATM   11  C   UNK     1      -8.793  15.609  66.784  1.00  0.00    -0.272 A  
HETATM   12  O   UNK     1      -8.692   9.941  70.823  1.00  0.00    -0.356 OA 
HETATM   13  C   UNK     1      -8.013   8.458  68.894  1.00  0.00    -0.115 C  
HETATM   14  H   UNK     1      -6.586  10.944  70.091  1.00  0.00     0.000 HD 
HETATM   15  C   UNK     1      -8.794   7.148  69.051  1.00  0.00    -0.131 C  
HETATM   16  O   UNK     1      -6.862   8.424  68.464  1.00  0.00    -0.062 OA 
HETATM   17  C   UNK     1      -9.455  16.444  65.883  1.00  0.00    -0.289 A  
HETATM   18  H   UNK     1      -7.799  10.149  71.073  1.00  0.00     0.000 HD 
HETATM   19  O   UNK     1      -7.633  16.117  67.309  1.00  0.00    -0.149 OA 
HETATM   20  H   UNK     1     -12.775  12.948  65.996  1.00  0.00     0.000 HD 
HETATM   21  H   UNK     1      -7.280  16.966  67.074  1.00  0.00     0.000 HD 
HETATM   22  C   UNK     1     -10.654  16.033  65.317  1.00  0.00    -0.424 A  
HETATM   23  C   UNK     1      -9.605   7.291  70.127  1.00  0.00    -0.168 C  
HETATM   24  C   UNK     1     -10.808   8.320  69.953  1.00  0.00    -0.213 C  
HETATM   25  C   UNK     1     -12.151  13.292  68.414  1.00  0.00    -0.244 C  
HETATM   26  O   UNK     1     -12.192  12.237  66.238  1.00  0.00    -0.628 OA 
HETATM   27  O   UNK     1      -9.046   7.271  71.409  1.00  0.00    -0.142 OA 
HETATM   28  C   UNK     1     -11.213  14.813  65.696  1.00  0.00    -0.343 A  
HETATM   29  C   UNK     1     -11.306  12.781  67.228  1.00  0.00    -0.314 C  
HETATM   30  C   UNK     1     -10.574  13.968  66.633  1.00  0.00    -0.274 A  
HETATM   31  H   UNK     1      -9.614   7.372  72.164  1.00  0.00     0.000 HD 
ENDROOT
BRANCH  15  32
HETATM   32  C   UNK     1      -9.592   6.460  67.962  1.00  0.00    -0.118 C  
HETATM   33  H   UNK     1      -8.205   4.962  67.498  1.00  0.00     0.000 HD 
HETATM   34  O   UNK     1     -10.725   6.871  67.687  1.00  0.00    -0.230 OA 
HETATM   35  N   UNK     1      -9.108   5.378  67.272  1.00  0.00    -0.111 N  
BRANCH  35  36
HETATM   36  C   UNK     1      -9.936   4.856  66.208  1.00  0.00    -0.234 C  
BRANCH  36  37
HETATM   37  N   UNK     1      -9.584   5.559  64.992  1.00  0.00    -0.255 NA 
HETATM   38  H   UNK     1     -10.309   6.218  64.706  1.00  0.00     0.000 HD 
BRANCH  37  39
HETATM   39  C   UNK     1      -8.273   6.214  65.156  1.00  0.00    -0.141 C  
BRANCH  39  40
HETATM   40  C   UNK     1      -8.151   7.507  64.330  1.00  0.00    -0.074 C  
BRANCH  40  41
HETATM   41  C   UNK     1      -8.120   8.781  65.182  1.00  0.00    -0.133 C  
BRANCH  41  42
HETATM   42  C   UNK     1      -9.330   9.688  64.897  1.00  0.00    -0.306 C  
BRANCH  42  43
HETATM   43  C   UNK     1      -9.324  10.341  63.506  1.00  0.00    -0.301 C  
HETATM   44  C   UNK     1     -10.399  11.435  63.408  1.00  0.00    -0.402 C  
HETATM   45  N   UNK     1      -7.999  10.943  63.180  1.00  0.00    -0.369 NA 
HETATM   46  O   UNK     1     -11.594  11.236  63.261  1.00  0.00    -0.125 OA 
HETATM   47  O   UNK     1      -9.850  12.673  63.529  1.00  0.00    -0.297 OA 
HETATM   48  H2  UNK     1      -7.248  10.259  63.272  1.00  0.00     0.000 HD 
HETATM   49  H1  UNK     1      -7.995  11.376  62.256  1.00  0.00     0.000 HD 
ENDBRANCH  42  43
ENDBRANCH  41  42
ENDBRANCH  40  41
ENDBRANCH  39  40
ENDBRANCH  37  39
ENDBRANCH  36  37
ENDBRANCH  35  36
ENDBRANCH  15  32
BRANCH  24  50
HETATM   50  N   UNK     1     -11.388   8.620  71.283  1.00  0.00    -0.266 NA 
HETATM   51  C   UNK     1     -11.971   9.928  71.490  1.00  0.00    -0.390 C  
HETATM   52  C   UNK     1     -12.339   7.576  71.681  1.00  0.00    -0.333 C  
ENDBRANCH  24  50
TORSDOF 9
ENDMDL
MODEL       26
REMARK 921   NORMALIZED FREE ENERGY PREDICTED BY IDOCK:   -6.18 KCAL/MOL
REMARK 922        TOTAL FREE ENERGY PREDICTED BY IDOCK:  -10.83 KCAL/MOL
REMARK 923 INTER-LIGAND FREE ENERGY PREDICTED BY IDOCK:   -9.61 KCAL/MOL
REMARK 924 INTRA-LIGAND FREE ENERGY PREDICTED BY IDOCK:   -1.22 KCAL/MOL
REMARK 927      BINDING AFFINITY PREDICTED BY RF-SCORE:    0.00 PKD
ROOT
HETATM    1  C   UNK     1      -9.669  10.182  69.055  1.00  0.00    -0.212 C  
HETATM    2  C   UNK     1      -9.816   9.674  70.478  1.00  0.00    -0.294 C  
HETATM    3  C   UNK     1      -9.152   8.283  70.703  1.00  0.00    -0.164 C  
HETATM    4  C   UNK     1      -9.607   7.294  69.654  1.00  0.00    -0.155 C  
HETATM    5  C   UNK     1      -9.849   5.867  70.067  1.00  0.00    -0.175 C  
HETATM    6  C   UNK     1      -9.853   7.686  68.392  1.00  0.00    -0.166 C  
HETATM    7  O   UNK     1     -10.385   6.809  67.435  1.00  0.00    -0.171 OA 
HETATM    8  C   UNK     1      -9.909   9.144  67.933  1.00  0.00    -0.169 C  
HETATM    9  C   UNK     1      -9.440   5.419  71.421  1.00  0.00    -0.188 A  
HETATM   10  O   UNK     1     -10.376   5.061  69.298  1.00  0.00    -0.213 OA 
HETATM   11  C   UNK     1      -9.451   4.054  71.754  1.00  0.00    -0.145 A  
HETATM   12  O   UNK     1     -11.263   9.235  67.473  1.00  0.00    -0.410 OA 
HETATM   13  C   UNK     1      -8.861   9.671  66.825  1.00  0.00    -0.135 C  
HETATM   14  H   UNK     1     -10.560   7.086  66.543  1.00  0.00     0.000 HD 
HETATM   15  C   UNK     1      -8.700  11.194  66.735  1.00  0.00    -0.157 C  
HETATM   16  O   UNK     1      -8.253   8.955  66.034  1.00  0.00    -0.111 OA 
HETATM   17  C   UNK     1      -9.013   3.609  73.002  1.00  0.00    -0.106 A  
HETATM   18  H   UNK     1     -11.411   8.598  66.784  1.00  0.00     0.000 HD 
HETATM   19  O   UNK     1      -9.907   3.075  70.911  1.00  0.00    -0.140 OA 
HETATM   20  H   UNK     1      -8.514   8.331  73.848  1.00  0.00     0.000 HD 
HETATM   21  H   UNK     1      -9.915   2.152  71.136  1.00  0.00     0.000 HD 
HETATM   22  C   UNK     1      -8.557   4.528  73.939  1.00  0.00    -0.102 A  
HETATM   23  C   UNK     1      -9.885  11.744  67.096  1.00  0.00    -0.193 C  
HETATM   24  C   UNK     1     -10.278  11.590  68.631  1.00  0.00    -0.208 C  
HETATM   25  C   UNK     1     -10.760   8.135  72.720  1.00  0.00    -0.391 C  
HETATM   26  O   UNK     1      -8.398   8.603  72.945  1.00  0.00    -0.400 OA 
HETATM   27  O   UNK     1     -10.969  11.668  66.214  1.00  0.00    -0.278 OA 
HETATM   28  C   UNK     1      -8.594   5.890  73.643  1.00  0.00    -0.122 A  
HETATM   29  C   UNK     1      -9.344   7.838  72.183  1.00  0.00    -0.153 C  
HETATM   30  C   UNK     1      -9.066   6.362  72.397  1.00  0.00    -0.137 A  
HETATM   31  H   UNK     1     -11.799  12.054  66.467  1.00  0.00     0.000 HD 
ENDROOT
BRANCH  15  32
HETATM   32  C   UNK     1      -7.599  12.005  67.386  1.00  0.00    -0.151 C  
HETATM   33  H   UNK     1      -8.266  13.904  66.807  1.00  0.00     0.000 HD 
HETATM   34  O   UNK     1      -6.726  11.427  68.044  1.00  0.00    -0.057 OA 
HETATM   35  N   UNK     1      -7.540  13.372  67.287  1.00  0.00    -0.115 N  
BRANCH  35  36
HETATM   36  C   UNK     1      -6.401  14.024  67.893  1.00  0.00    -0.161 C  
BRANCH  36  37
HETATM   37  N   UNK     1      -6.879  14.763  69.043  1.00  0.00    -0.105 NA 
HETATM   38  H   UNK     1      -6.330  15.606  69.212  1.00  0.00     0.000 HD 
BRANCH  37  39
HETATM   39  C   UNK     1      -8.315  15.058  68.885  1.00  0.00    -0.183 C  
BRANCH  39  40
HETATM   40  C   UNK     1      -8.608  16.569  68.851  1.00  0.00    -0.241 C  
BRANCH  40  41
HETATM   41  C   UNK     1      -8.399  17.205  67.473  1.00  0.00    -0.199 C  
BRANCH  41  42
HETATM   42  C   UNK     1      -8.942  16.313  66.343  1.00  0.00    -0.343 C  
BRANCH  42  43
HETATM   43  C   UNK     1     -10.474  16.282  66.234  1.00  0.00    -0.308 C  
HETATM   44  C   UNK     1     -10.962  17.173  65.082  1.00  0.00     0.048 C  
HETATM   45  N   UNK     1     -10.988  14.898  66.020  1.00  0.00    -0.329 NA 
HETATM   46  O   UNK     1     -11.034  18.390  65.115  1.00  0.00    -0.604 OA 
HETATM   47  O   UNK     1     -11.290  16.428  63.993  1.00  0.00    -0.964 OA 
HETATM   48  H2  UNK     1     -10.654  14.262  66.744  1.00  0.00     0.000 HD 
HETATM   49  H1  UNK     1     -12.005  14.877  65.948  1.00  0.00     0.000 HD 
ENDBRANCH  42  43
ENDBRANCH  41  42
ENDBRANCH  40  41
ENDBRANCH  39  40
ENDBRANCH  37  39
ENDBRANCH  36  37
ENDBRANCH  35  36
ENDBRANCH  15  32
BRANCH  24  50
HETATM   50  N   UNK     1     -11.711  11.928  68.803  1.00  0.00    -0.302 NA 
HETATM   51  C   UNK     1     -12.496  11.116  69.707  1.00  0.00    -0.162 C  
HETATM   52  C   UNK     1     -11.872  13.349  69.133  1.00  0.00    -0.336 C  
ENDBRANCH  24  50
TORSDOF 9
ENDMDL
MODEL       27
REMARK 921   NORMALIZED FREE ENERGY PREDICTED BY IDOCK:   -6.13 KCAL/MOL
REMARK 922        TOTAL FREE ENERGY PREDICTED BY IDOCK:  -10.75 KCAL/MOL
REMARK 923 INTER-LIGAND FREE ENERGY PREDICTED BY IDOCK:  -10.12 KCAL/MOL
REMARK 924 INTRA-LIGAND FREE ENERGY PREDICTED BY IDOCK:   -0.63 KCAL/MOL
REMARK 927      BINDING AFFINITY PREDICTED BY RF-SCORE:    0.00 PKD
ROOT
HETATM    1  C   UNK     1      -9.690   9.917  68.876  1.00  0.00    -0.176 C  
HETATM    2  C   UNK     1      -9.966   9.518  70.315  1.00  0.00    -0.310 C  
HETATM    3  C   UNK     1      -9.291   8.174  70.718  1.00  0.00    -0.174 C  
HETATM    4  C   UNK     1      -9.610   7.090  69.714  1.00  0.00    -0.151 C  
HETATM    5  C   UNK     1      -9.853   5.692  70.217  1.00  0.00    -0.194 C  
HETATM    6  C   UNK     1      -9.737   7.371  68.405  1.00  0.00    -0.153 C  
HETATM    7  O   UNK     1     -10.145   6.403  67.477  1.00  0.00    -0.133 OA 
HETATM    8  C   UNK     1      -9.786   8.786  67.825  1.00  0.00    -0.174 C  
HETATM    9  C   UNK     1      -9.571   5.368  71.637  1.00  0.00    -0.190 A  
HETATM   10  O   UNK     1     -10.277   4.810  69.469  1.00  0.00    -0.221 OA 
HETATM   11  C   UNK     1      -9.578   4.033  72.078  1.00  0.00    -0.143 A  
HETATM   12  O   UNK     1     -11.089   8.792  67.227  1.00  0.00    -0.379 OA 
HETATM   13  C   UNK     1      -8.646   9.261  66.787  1.00  0.00    -0.127 C  
HETATM   14  H   UNK     1     -10.235   6.602  66.552  1.00  0.00     0.000 HD 
HETATM   15  C   UNK     1      -8.519  10.777  66.589  1.00  0.00    -0.142 C  
HETATM   16  O   UNK     1      -7.941   8.507  66.121  1.00  0.00    -0.098 OA 
HETATM   17  C   UNK     1      -9.257   3.705  73.396  1.00  0.00    -0.112 A  
HETATM   18  H   UNK     1     -11.148   8.097  66.582  1.00  0.00     0.000 HD 
HETATM   19  O   UNK     1      -9.920   2.975  71.278  1.00  0.00    -0.132 OA 
HETATM   20  H   UNK     1      -8.977   8.494  73.896  1.00  0.00     0.000 HD 
HETATM   21  H   UNK     1      -9.925   2.073  71.576  1.00  0.00     0.000 HD 
HETATM   22  C   UNK     1      -8.924   4.711  74.294  1.00  0.00    -0.108 A  
HETATM   23  C   UNK     1      -9.748  11.311  66.784  1.00  0.00    -0.193 C  
HETATM   24  C   UNK     1     -10.291  11.265  68.280  1.00  0.00    -0.183 C  
HETATM   25  C   UNK     1     -11.090   8.129  72.572  1.00  0.00    -0.446 C  
HETATM   26  O   UNK     1      -8.777   8.697  72.989  1.00  0.00    -0.380 OA 
HETATM   27  O   UNK     1     -10.735  11.127  65.808  1.00  0.00    -0.250 OA 
HETATM   28  C   UNK     1      -8.968   6.043  73.885  1.00  0.00    -0.127 A  
HETATM   29  C   UNK     1      -9.619   7.841  72.204  1.00  0.00    -0.176 C  
HETATM   30  C   UNK     1      -9.324   6.397  72.564  1.00  0.00    -0.145 A  
HETATM   31  H   UNK     1     -11.597  11.502  65.946  1.00  0.00     0.000 HD 
ENDROOT
BRANCH  15  32
HETATM   32  C   UNK     1      -7.512  11.675  67.276  1.00  0.00    -0.143 C  
HETATM   33  H   UNK     1      -8.601  13.460  67.161  1.00  0.00     0.000 HD 
HETATM   34  O   UNK     1      -6.463  11.189  67.714  1.00  0.00    -0.060 OA 
HETATM   35  N   UNK     1      -7.728  13.019  67.449  1.00  0.00    -0.169 N  
BRANCH  35  36
HETATM   36  C   UNK     1      -6.660  13.780  68.057  1.00  0.00    -0.142 C  
BRANCH  36  37
HETATM   37  N   UNK     1      -7.250  14.956  68.664  1.00  0.00    -0.111 NA 
HETATM   38  H   UNK     1      -7.001  15.811  68.166  1.00  0.00     0.000 HD 
BRANCH  37  39
HETATM   39  C   UNK     1      -8.711  14.782  68.772  1.00  0.00    -0.178 C  
BRANCH  39  40
HETATM   40  C   UNK     1      -9.372  15.864  69.645  1.00  0.00    -0.114 C  
BRANCH  40  41
HETATM   41  C   UNK     1     -10.903  15.796  69.654  1.00  0.00    -0.300 C  
BRANCH  41  42
HETATM   42  C   UNK     1     -11.479  16.085  71.051  1.00  0.00    -0.460 C  
BRANCH  42  43
HETATM   43  C   UNK     1     -12.625  15.153  71.474  1.00  0.00    -0.353 C  
HETATM   44  C   UNK     1     -12.970  15.345  72.959  1.00  0.00    -0.488 C  
HETATM   45  N   UNK     1     -13.857  15.383  70.665  1.00  0.00    -0.837 NA 
HETATM   46  O   UNK     1     -12.324  14.902  73.895  1.00  0.00    -0.535 OA 
HETATM   47  O   UNK     1     -14.090  16.100  73.108  1.00  0.00    -0.435 OA 
HETATM   48  H2  UNK     1     -13.664  15.305  69.666  1.00  0.00     0.000 HD 
HETATM   49  H1  UNK     1     -14.617  14.764  70.945  1.00  0.00     0.000 HD 
ENDBRANCH  42  43
ENDBRANCH  41  42
ENDBRANCH  40  41
ENDBRANCH  39  40
ENDBRANCH  37  39
ENDBRANCH  36  37
ENDBRANCH  35  36
ENDBRANCH  15  32
BRANCH  24  50
HETATM   50  N   UNK     1     -11.743  11.564  68.281  1.00  0.00    -0.474 NA 
HETATM   51  C   UNK     1     -12.527  11.120  69.413  1.00  0.00    -0.017 C  
HETATM   52  C   UNK     1     -11.978  12.992  68.035  1.00  0.00    -0.290 C  
ENDBRANCH  24  50
TORSDOF 9
ENDMDL
MODEL       28
REMARK 921   NORMALIZED FREE ENERGY PREDICTED BY IDOCK:   -6.13 KCAL/MOL
REMARK 922        TOTAL FREE ENERGY PREDICTED BY IDOCK:  -10.75 KCAL/MOL
REMARK 923 INTER-LIGAND FREE ENERGY PREDICTED BY IDOCK:   -9.20 KCAL/MOL
REMARK 924 INTRA-LIGAND FREE ENERGY PREDICTED BY IDOCK:   -1.55 KCAL/MOL
REMARK 927      BINDING AFFINITY PREDICTED BY RF-SCORE:    0.00 PKD
ROOT
HETATM    1  C   UNK     1      -9.933  11.790  67.045  1.00  0.00    -0.224 C  
HETATM    2  C   UNK     1     -10.456  10.419  67.431  1.00  0.00    -0.299 C  
HETATM    3  C   UNK     1      -9.425   9.575  68.237  1.00  0.00    -0.143 C  
HETATM    4  C   UNK     1      -8.089   9.539  67.531  1.00  0.00    -0.110 C  
HETATM    5  C   UNK     1      -7.295   8.261  67.556  1.00  0.00    -0.093 C  
HETATM    6  C   UNK     1      -7.641  10.602  66.841  1.00  0.00    -0.115 C  
HETATM    7  O   UNK     1      -6.461  10.550  66.085  1.00  0.00    -0.104 OA 
HETATM    8  C   UNK     1      -8.478  11.841  66.519  1.00  0.00    -0.125 C  
HETATM    9  C   UNK     1      -7.731   7.147  68.434  1.00  0.00    -0.120 A  
HETATM   10  O   UNK     1      -6.286   8.123  66.863  1.00  0.00    -0.052 OA 
HETATM   11  C   UNK     1      -6.897   6.035  68.644  1.00  0.00    -0.070 A  
HETATM   12  O   UNK     1      -8.481  11.806  65.086  1.00  0.00    -0.125 OA 
HETATM   13  C   UNK     1      -8.019  13.281  67.084  1.00  0.00    -0.065 C  
HETATM   14  H   UNK     1      -6.144  11.301  65.597  1.00  0.00     0.000 HD 
HETATM   15  C   UNK     1      -9.101  14.369  67.085  1.00  0.00    -0.238 C  
HETATM   16  O   UNK     1      -6.879  13.568  67.440  1.00  0.00    -0.169 OA 
HETATM   17  C   UNK     1      -7.264   5.008  69.513  1.00  0.00    -0.056 A  
HETATM   18  H   UNK     1      -7.589  11.837  64.763  1.00  0.00     0.000 HD 
HETATM   19  O   UNK     1      -5.697   5.861  68.005  1.00  0.00    -0.011 OA 
HETATM   20  H   UNK     1     -11.320   7.589  69.902  1.00  0.00     0.000 HD 
HETATM   21  H   UNK     1      -5.133   5.110  68.146  1.00  0.00     0.000 HD 
HETATM   22  C   UNK     1      -8.477   5.078  70.187  1.00  0.00    -0.097 A  
HETATM   23  C   UNK     1      -9.940  14.103  66.056  1.00  0.00    -0.322 C  
HETATM   24  C   UNK     1     -10.844  12.802  66.221  1.00  0.00    -0.275 C  
HETATM   25  C   UNK     1     -10.833   7.565  67.429  1.00  0.00    -0.272 C  
HETATM   26  O   UNK     1     -10.945   8.435  69.683  1.00  0.00    -0.200 OA 
HETATM   27  O   UNK     1      -9.508  14.340  64.746  1.00  0.00    -0.234 OA 
HETATM   28  C   UNK     1      -9.339   6.147  69.946  1.00  0.00    -0.161 A  
HETATM   29  C   UNK     1     -10.039   8.189  68.596  1.00  0.00    -0.196 C  
HETATM   30  C   UNK     1      -8.999   7.180  69.043  1.00  0.00    -0.134 A  
HETATM   31  H   UNK     1     -10.097  14.153  64.024  1.00  0.00     0.000 HD 
ENDROOT
BRANCH  15  32
HETATM   32  C   UNK     1      -9.947  14.770  68.276  1.00  0.00    -0.222 C  
HETATM   33  H   UNK     1     -10.986  16.345  67.367  1.00  0.00     0.000 HD 
HETATM   34  O   UNK     1      -9.859  14.127  69.329  1.00  0.00    -0.010 OA 
HETATM   35  N   UNK     1     -10.829  15.819  68.227  1.00  0.00    -0.291 N  
BRANCH  35  36
HETATM   36  C   UNK     1     -11.527  16.146  69.451  1.00  0.00    -0.296 C  
BRANCH  36  37
HETATM   37  N   UNK     1     -12.650  15.239  69.571  1.00  0.00    -0.607 NA 
HETATM   38  H   UNK     1     -12.374  14.266  69.437  1.00  0.00     0.000 HD 
BRANCH  37  39
HETATM   39  C   UNK     1     -13.327  15.452  70.864  1.00  0.00    -0.418 C  
BRANCH  39  40
HETATM   40  C   UNK     1     -12.405  15.178  72.066  1.00  0.00    -0.429 C  
BRANCH  40  41
HETATM   41  C   UNK     1     -12.865  14.006  72.939  1.00  0.00    -0.365 C  
BRANCH  41  42
HETATM   42  C   UNK     1     -13.479  12.873  72.098  1.00  0.00    -0.619 C  
BRANCH  42  43
HETATM   43  C   UNK     1     -12.501  11.745  71.734  1.00  0.00     0.094 C  
HETATM   44  C   UNK     1     -13.243  10.413  71.547  1.00  0.00    -0.386 C  
HETATM   45  N   UNK     1     -11.742  12.049  70.487  1.00  0.00    -0.487 NA 
HETATM   46  O   UNK     1     -13.654   9.704  72.450  1.00  0.00    -0.433 OA 
HETATM   47  O   UNK     1     -13.407  10.125  70.229  1.00  0.00    -0.065 OA 
HETATM   48  H2  UNK     1     -11.264  12.948  70.553  1.00  0.00     0.000 HD 
HETATM   49  H1  UNK     1     -11.092  11.301  70.245  1.00  0.00     0.000 HD 
ENDBRANCH  42  43
ENDBRANCH  41  42
ENDBRANCH  40  41
ENDBRANCH  39  40
ENDBRANCH  37  39
ENDBRANCH  36  37
ENDBRANCH  35  36
ENDBRANCH  15  32
BRANCH  24  50
HETATM   50  N   UNK     1     -11.443  12.455  64.911  1.00  0.00    -0.322 NA 
HETATM   51  C   UNK     1     -11.160  11.148  64.359  1.00  0.00    -0.104 C  
HETATM   52  C   UNK     1     -12.891  12.694  64.924  1.00  0.00    -0.228 C  
ENDBRANCH  24  50
TORSDOF 9
ENDMDL
MODEL       29
REMARK 921   NORMALIZED FREE ENERGY PREDICTED BY IDOCK:   -6.09 KCAL/MOL
REMARK 922        TOTAL FREE ENERGY PREDICTED BY IDOCK:  -10.69 KCAL/MOL
REMARK 923 INTER-LIGAND FREE ENERGY PREDICTED BY IDOCK:   -9.04 KCAL/MOL
REMARK 924 INTRA-LIGAND FREE ENERGY PREDICTED BY IDOCK:   -1.65 KCAL/MOL
REMARK 927      BINDING AFFINITY PREDICTED BY RF-SCORE:    0.00 PKD
ROOT
HETATM    1  C   UNK     1      -9.196   9.541  67.897  1.00  0.00    -0.134 C  
HETATM    2  C   UNK     1      -9.954   8.294  68.315  1.00  0.00    -0.217 C  
HETATM    3  C   UNK     1      -9.925   8.045  69.852  1.00  0.00    -0.189 C  
HETATM    4  C   UNK     1      -8.510   8.101  70.379  1.00  0.00    -0.129 C  
HETATM    5  C   UNK     1      -8.106   7.137  71.462  1.00  0.00    -0.103 C  
HETATM    6  C   UNK     1      -7.606   8.947  69.853  1.00  0.00    -0.063 C  
HETATM    7  O   UNK     1      -6.261   8.933  70.249  1.00  0.00    -0.036 OA 
HETATM    8  C   UNK     1      -7.825   9.765  68.579  1.00  0.00    -0.081 C  
HETATM    9  C   UNK     1      -9.143   6.311  72.129  1.00  0.00    -0.141 A  
HETATM   10  O   UNK     1      -6.930   7.026  71.811  1.00  0.00    -0.067 OA 
HETATM   11  C   UNK     1      -8.832   5.571  73.282  1.00  0.00    -0.121 A  
HETATM   12  O   UNK     1      -6.781   9.253  67.742  1.00  0.00    -0.066 OA 
HETATM   13  C   UNK     1      -7.801  11.376  68.653  1.00  0.00    -0.139 C  
HETATM   14  H   UNK     1      -5.623   9.531  69.878  1.00  0.00     0.000 HD 
HETATM   15  C   UNK     1      -8.435  12.105  67.461  1.00  0.00    -0.169 C  
HETATM   16  O   UNK     1      -7.268  12.033  69.543  1.00  0.00     0.063 OA 
HETATM   17  C   UNK     1      -9.809   4.837  73.956  1.00  0.00    -0.179 A  
HETATM   18  H   UNK     1      -5.939   9.390  68.160  1.00  0.00     0.000 HD 
HETATM   19  O   UNK     1      -7.571   5.490  73.811  1.00  0.00    -0.093 OA 
HETATM   20  H   UNK     1     -12.600   6.332  70.318  1.00  0.00     0.000 HD 
HETATM   21  H   UNK     1      -7.360   4.990  74.591  1.00  0.00     0.000 HD 
HETATM   22  C   UNK     1     -11.115   4.831  73.482  1.00  0.00    -0.412 A  
HETATM   23  C   UNK     1      -8.270  11.314  66.374  1.00  0.00    -0.150 C  
HETATM   24  C   UNK     1      -9.117   9.966  66.366  1.00  0.00    -0.150 C  
HETATM   25  C   UNK     1     -10.461   5.602  69.202  1.00  0.00    -0.339 C  
HETATM   26  O   UNK     1     -12.111   7.120  70.108  1.00  0.00    -0.095 OA 
HETATM   27  O   UNK     1      -6.998  11.197  65.802  1.00  0.00    -0.367 OA 
HETATM   28  C   UNK     1     -11.425   5.514  72.307  1.00  0.00    -0.221 A  
HETATM   29  C   UNK     1     -10.726   6.753  70.195  1.00  0.00    -0.233 C  
HETATM   30  C   UNK     1     -10.442   6.236  71.592  1.00  0.00    -0.258 A  
HETATM   31  H   UNK     1      -6.883  10.643  65.039  1.00  0.00     0.000 HD 
ENDROOT
BRANCH  15  32
HETATM   32  C   UNK     1      -9.843  12.662  67.415  1.00  0.00    -0.205 C  
HETATM   33  H   UNK     1     -10.376  12.248  69.398  1.00  0.00     0.000 HD 
HETATM   34  O   UNK     1     -10.255  13.190  66.376  1.00  0.00    -0.273 OA 
HETATM   35  N   UNK     1     -10.684  12.618  68.499  1.00  0.00    -0.243 N  
BRANCH  35  36
HETATM   36  C   UNK     1     -12.026  13.119  68.307  1.00  0.00    -0.291 C  
BRANCH  36  37
HETATM   37  N   UNK     1     -11.975  14.562  68.418  1.00  0.00    -0.516 NA 
HETATM   38  H   UNK     1     -12.678  15.017  67.834  1.00  0.00     0.000 HD 
BRANCH  37  39
HETATM   39  C   UNK     1     -12.091  14.958  69.835  1.00  0.00    -0.332 C  
BRANCH  39  40
HETATM   40  C   UNK     1     -10.900  15.808  70.310  1.00  0.00    -0.363 C  
BRANCH  40  41
HETATM   41  C   UNK     1      -9.911  16.160  69.194  1.00  0.00    -0.250 C  
BRANCH  41  42
HETATM   42  C   UNK     1     -10.112  17.599  68.685  1.00  0.00    -0.377 C  
BRANCH  42  43
HETATM   43  C   UNK     1     -10.369  17.712  67.175  1.00  0.00    -0.343 C  
HETATM   44  C   UNK     1      -9.296  18.578  66.498  1.00  0.00    -0.313 C  
HETATM   45  N   UNK     1     -10.391  16.375  66.513  1.00  0.00    -0.300 NA 
HETATM   46  O   UNK     1      -9.248  19.797  66.536  1.00  0.00    -0.344 OA 
HETATM   47  O   UNK     1      -8.377  17.808  65.857  1.00  0.00    -0.524 OA 
HETATM   48  H2  UNK     1     -11.065  15.752  66.958  1.00  0.00     0.000 HD 
HETATM   49  H1  UNK     1     -10.562  16.450  65.510  1.00  0.00     0.000 HD 
ENDBRANCH  42  43
ENDBRANCH  41  42
ENDBRANCH  40  41
ENDBRANCH  39  40
ENDBRANCH  37  39
ENDBRANCH  36  37
ENDBRANCH  35  36
ENDBRANCH  15  32
BRANCH  24  50
HETATM   50  N   UNK     1      -8.592   9.067  65.311  1.00  0.00    -0.165 NA 
HETATM   51  C   UNK     1      -8.752   7.640  65.493  1.00  0.00    -0.051 C  
HETATM   52  C   UNK     1      -9.096   9.466  63.991  1.00  0.00    -0.060 C  
ENDBRANCH  24  50
TORSDOF 9
ENDMDL
MODEL       30
REMARK 921   NORMALIZED FREE ENERGY PREDICTED BY IDOCK:   -6.09 KCAL/MOL
REMARK 922        TOTAL FREE ENERGY PREDICTED BY IDOCK:  -10.69 KCAL/MOL
REMARK 923 INTER-LIGAND FREE ENERGY PREDICTED BY IDOCK:   -9.44 KCAL/MOL
REMARK 924 INTRA-LIGAND FREE ENERGY PREDICTED BY IDOCK:   -1.25 KCAL/MOL
REMARK 927      BINDING AFFINITY PREDICTED BY RF-SCORE:    0.00 PKD
ROOT
HETATM    1  C   UNK     1      -8.458  10.988  68.269  1.00  0.00    -0.138 C  
HETATM    2  C   UNK     1      -9.102  12.359  68.161  1.00  0.00    -0.200 C  
HETATM    3  C   UNK     1      -8.065  13.516  68.056  1.00  0.00    -0.156 C  
HETATM    4  C   UNK     1      -7.032  13.414  69.154  1.00  0.00    -0.044 C  
HETATM    5  C   UNK     1      -6.533  14.682  69.793  1.00  0.00    -0.159 C  
HETATM    6  C   UNK     1      -6.608  12.218  69.600  1.00  0.00    -0.020 C  
HETATM    7  O   UNK     1      -5.739  12.102  70.694  1.00  0.00    -0.168 OA 
HETATM    8  C   UNK     1      -7.244  10.879  69.222  1.00  0.00    -0.128 C  
HETATM    9  C   UNK     1      -6.899  15.993  69.200  1.00  0.00    -0.180 A  
HETATM   10  O   UNK     1      -5.821  14.653  70.798  1.00  0.00    -0.161 OA 
HETATM   11  C   UNK     1      -6.275  17.173  69.639  1.00  0.00    -0.235 A  
HETATM   12  O   UNK     1      -7.677  10.409  70.504  1.00  0.00    -0.423 OA 
HETATM   13  C   UNK     1      -6.365   9.773  68.441  1.00  0.00    -0.054 C  
HETATM   14  H   UNK     1      -5.440  11.257  71.009  1.00  0.00     0.000 HD 
HETATM   15  C   UNK     1      -7.163   8.668  67.738  1.00  0.00    -0.088 C  
HETATM   16  O   UNK     1      -5.138   9.728  68.431  1.00  0.00    -0.034 OA 
HETATM   17  C   UNK     1      -6.563  18.405  69.051  1.00  0.00    -0.270 A  
HETATM   18  H   UNK     1      -6.932  10.342  71.089  1.00  0.00     0.000 HD 
HETATM   19  O   UNK     1      -5.376  17.213  70.672  1.00  0.00    -0.240 OA 
HETATM   20  H   UNK     1      -9.734  15.791  66.526  1.00  0.00     0.000 HD 
HETATM   21  H   UNK     1      -4.955  18.011  70.969  1.00  0.00     0.000 HD 
HETATM   22  C   UNK     1      -7.484  18.474  68.013  1.00  0.00    -0.264 A  
HETATM   23  C   UNK     1      -8.304   8.484  68.444  1.00  0.00    -0.124 C  
HETATM   24  C   UNK     1      -9.355   9.679  68.380  1.00  0.00    -0.133 C  
HETATM   25  C   UNK     1     -10.014  14.988  68.899  1.00  0.00    -0.236 C  
HETATM   26  O   UNK     1      -9.283  14.958  66.594  1.00  0.00    -0.245 OA 
HETATM   27  O   UNK     1      -8.241   7.840  69.685  1.00  0.00    -0.123 OA 
HETATM   28  C   UNK     1      -8.152  17.320  67.606  1.00  0.00    -0.198 A  
HETATM   29  C   UNK     1      -8.805  14.882  67.945  1.00  0.00    -0.165 C  
HETATM   30  C   UNK     1      -7.898  16.068  68.213  1.00  0.00    -0.144 A  
HETATM   31  H   UNK     1      -9.041   7.711  70.180  1.00  0.00     0.000 HD 
ENDROOT
BRANCH  15  32
HETATM   32  C   UNK     1      -7.523   8.641  66.266  1.00  0.00    -0.090 C  
HETATM   33  H   UNK     1      -5.858   9.687  65.547  1.00  0.00     0.000 HD 
HETATM   34  O   UNK     1      -8.547   8.051  65.903  1.00  0.00    -0.138 OA 
HETATM   35  N   UNK     1      -6.742   9.238  65.310  1.00  0.00    -0.072 N  
BRANCH  35  36
HETATM   36  C   UNK     1      -7.231   9.203  63.950  1.00  0.00    -0.096 C  
BRANCH  36  37
HETATM   37  N   UNK     1      -7.244  10.563  63.453  1.00  0.00    -0.332 NA 
HETATM   38  H   UNK     1      -6.368  10.810  62.990  1.00  0.00     0.000 HD 
BRANCH  37  39
HETATM   39  C   UNK     1      -8.411  10.763  62.574  1.00  0.00    -0.242 C  
BRANCH  39  40
HETATM   40  C   UNK     1      -9.747  10.563  63.311  1.00  0.00    -0.361 C  
BRANCH  40  41
HETATM   41  C   UNK     1      -9.906  11.452  64.549  1.00  0.00    -0.302 C  
BRANCH  41  42
HETATM   42  C   UNK     1     -10.430  12.852  64.184  1.00  0.00    -0.429 C  
BRANCH  42  43
HETATM   43  C   UNK     1     -11.961  12.987  64.206  1.00  0.00    -0.402 C  
HETATM   44  C   UNK     1     -12.392  14.220  65.014  1.00  0.00    -0.428 C  
HETATM   45  N   UNK     1     -12.529  13.092  62.831  1.00  0.00    -0.681 NA 
HETATM   46  O   UNK     1     -12.413  14.292  66.231  1.00  0.00    -0.445 OA 
HETATM   47  O   UNK     1     -12.735  15.248  64.192  1.00  0.00    -0.651 OA 
HETATM   48  H2  UNK     1     -12.234  12.311  62.246  1.00  0.00     0.000 HD 
HETATM   49  H1  UNK     1     -13.545  13.181  62.846  1.00  0.00     0.000 HD 
ENDBRANCH  42  43
ENDBRANCH  41  42
ENDBRANCH  40  41
ENDBRANCH  39  40
ENDBRANCH  37  39
ENDBRANCH  36  37
ENDBRANCH  35  36
ENDBRANCH  15  32
BRANCH  24  50
HETATM   50  N   UNK     1     -10.371   9.491  69.443  1.00  0.00    -0.204 NA 
HETATM   51  C   UNK     1     -11.364  10.527  69.624  1.00  0.00    -0.281 C  
HETATM   52  C   UNK     1     -11.024   8.183  69.310  1.00  0.00     0.046 C  
ENDBRANCH  24  50
TORSDOF 9
ENDMDL
MODEL       31
REMARK 921   NORMALIZED FREE ENERGY PREDICTED BY IDOCK:   -6.03 KCAL/MOL
REMARK 922        TOTAL FREE ENERGY PREDICTED BY IDOCK:  -10.59 KCAL/MOL
REMARK 923 INTER-LIGAND FREE ENERGY PREDICTED BY IDOCK:   -9.31 KCAL/MOL
REMARK 924 INTRA-LIGAND FREE ENERGY PREDICTED BY IDOCK:   -1.28 KCAL/MOL
REMARK 927      BINDING AFFINITY PREDICTED BY RF-SCORE:    0.00 PKD
ROOT
HETATM    1  C   UNK     1     -10.343   9.219  69.084  1.00  0.00    -0.222 C  
HETATM    2  C   UNK     1     -11.162  10.405  68.609  1.00  0.00    -0.305 C  
HETATM    3  C   UNK     1     -10.368  11.363  67.672  1.00  0.00    -0.209 C  
HETATM    4  C   UNK     1      -9.045  11.747  68.294  1.00  0.00    -0.187 C  
HETATM    5  C   UNK     1      -8.546  13.155  68.110  1.00  0.00    -0.181 C  
HETATM    6  C   UNK     1      -8.354  10.876  69.050  1.00  0.00    -0.114 C  
HETATM    7  O   UNK     1      -7.185  11.250  69.729  1.00  0.00    -0.341 OA 
HETATM    8  C   UNK     1      -8.893   9.527  69.528  1.00  0.00    -0.179 C  
HETATM    9  C   UNK     1      -9.243  14.060  67.163  1.00  0.00    -0.240 A  
HETATM   10  O   UNK     1      -7.564  13.570  68.729  1.00  0.00    -0.122 OA 
HETATM   11  C   UNK     1      -8.674  15.295  66.808  1.00  0.00    -0.270 A  
HETATM   12  O   UNK     1      -8.851   9.703  70.950  1.00  0.00    -0.326 OA 
HETATM   13  C   UNK     1      -8.158   8.167  69.068  1.00  0.00    -0.115 C  
HETATM   14  H   UNK     1      -6.697  10.634  70.263  1.00  0.00     0.000 HD 
HETATM   15  C   UNK     1      -8.980   6.881  69.226  1.00  0.00    -0.137 C  
HETATM   16  O   UNK     1      -6.996   8.092  68.674  1.00  0.00    -0.065 OA 
HETATM   17  C   UNK     1      -9.286  16.131  65.873  1.00  0.00    -0.316 A  
HETATM   18  H   UNK     1      -7.961   9.892  71.222  1.00  0.00     0.000 HD 
HETATM   19  O   UNK     1      -7.517  15.780  67.358  1.00  0.00    -0.156 OA 
HETATM   20  H   UNK     1     -12.705  12.731  65.950  1.00  0.00     0.000 HD 
HETATM   21  H   UNK     1      -7.133  16.616  67.119  1.00  0.00     0.000 HD 
HETATM   22  C   UNK     1     -10.480  15.742  65.279  1.00  0.00    -0.427 A  
HETATM   23  C   UNK     1      -9.817   7.067  70.275  1.00  0.00    -0.175 C  
HETATM   24  C   UNK     1     -10.985   8.126  70.047  1.00  0.00    -0.199 C  
HETATM   25  C   UNK     1     -12.142  13.102  68.379  1.00  0.00    -0.216 C  
HETATM   26  O   UNK     1     -12.150  12.009  66.222  1.00  0.00    -0.596 OA 
HETATM   27  O   UNK     1      -9.297   7.056  71.573  1.00  0.00    -0.154 OA 
HETATM   28  C   UNK     1     -11.083  14.545  65.663  1.00  0.00    -0.327 A  
HETATM   29  C   UNK     1     -11.278  12.546  67.228  1.00  0.00    -0.295 C  
HETATM   30  C   UNK     1     -10.496  13.701  66.633  1.00  0.00    -0.272 A  
HETATM   31  H   UNK     1      -9.884   7.186  72.308  1.00  0.00     0.000 HD 
ENDROOT
BRANCH  15  32
HETATM   32  C   UNK     1      -9.765   6.196  68.126  1.00  0.00    -0.120 C  
HETATM   33  H   UNK     1      -8.235   6.111  66.698  1.00  0.00     0.000 HD 
HETATM   34  O   UNK     1     -10.937   5.863  68.333  1.00  0.00    -0.274 OA 
HETATM   35  N   UNK     1      -9.214   5.913  66.902  1.00  0.00    -0.121 N  
BRANCH  35  36
HETATM   36  C   UNK     1     -10.087   5.320  65.914  1.00  0.00    -0.066 C  
BRANCH  36  37
HETATM   37  N   UNK     1     -10.257   3.924  66.259  1.00  0.00    -0.368 NA 
HETATM   38  H   UNK     1     -10.884   3.443  65.614  1.00  0.00     0.000 HD 
BRANCH  37  39
HETATM   39  C   UNK     1      -8.940   3.267  66.346  1.00  0.00    -0.151 C  
BRANCH  39  40
HETATM   40  C   UNK     1      -8.926   2.100  67.350  1.00  0.00    -0.178 C  
BRANCH  40  41
HETATM   41  C   UNK     1      -8.249   2.442  68.682  1.00  0.00    -0.074 C  
BRANCH  41  42
HETATM   42  C   UNK     1      -9.248   3.023  69.698  1.00  0.00    -0.219 C  
BRANCH  42  43
HETATM   43  C   UNK     1      -8.966   2.643  71.160  1.00  0.00    -0.092 C  
HETATM   44  C   UNK     1      -8.704   3.895  72.011  1.00  0.00    -0.100 C  
HETATM   45  N   UNK     1     -10.097   1.881  71.764  1.00  0.00    -0.149 NA 
HETATM   46  O   UNK     1      -7.664   4.533  72.023  1.00  0.00    -0.084 OA 
HETATM   47  O   UNK     1      -9.798   4.223  72.749  1.00  0.00    -0.134 OA 
HETATM   48  H2  UNK     1     -10.331   1.060  71.207  1.00  0.00     0.000 HD 
HETATM   49  H1  UNK     1      -9.909   1.629  72.735  1.00  0.00     0.000 HD 
ENDBRANCH  42  43
ENDBRANCH  41  42
ENDBRANCH  40  41
ENDBRANCH  39  40
ENDBRANCH  37  39
ENDBRANCH  36  37
ENDBRANCH  35  36
ENDBRANCH  15  32
BRANCH  24  50
HETATM   50  N   UNK     1     -11.595   8.467  71.353  1.00  0.00    -0.273 NA 
HETATM   51  C   UNK     1     -12.080   9.817  71.544  1.00  0.00    -0.409 C  
HETATM   52  C   UNK     1     -12.643   7.501  71.704  1.00  0.00    -0.348 C  
ENDBRANCH  24  50
TORSDOF 9
ENDMDL
MODEL       32
REMARK 921   NORMALIZED FREE ENERGY PREDICTED BY IDOCK:   -5.99 KCAL/MOL
REMARK 922        TOTAL FREE ENERGY PREDICTED BY IDOCK:  -10.54 KCAL/MOL
REMARK 923 INTER-LIGAND FREE ENERGY PREDICTED BY IDOCK:   -8.76 KCAL/MOL
REMARK 924 INTRA-LIGAND FREE ENERGY PREDICTED BY IDOCK:   -1.77 KCAL/MOL
REMARK 927      BINDING AFFINITY PREDICTED BY RF-SCORE:    0.00 PKD
ROOT
HETATM    1  C   UNK     1     -10.211   9.304  68.706  1.00  0.00    -0.223 C  
HETATM    2  C   UNK     1     -11.095  10.462  68.279  1.00  0.00    -0.338 C  
HETATM    3  C   UNK     1     -10.332  11.549  67.466  1.00  0.00    -0.220 C  
HETATM    4  C   UNK     1      -9.076  11.978  68.188  1.00  0.00    -0.191 C  
HETATM    5  C   UNK     1      -8.678  13.429  68.142  1.00  0.00    -0.179 C  
HETATM    6  C   UNK     1      -8.356  11.101  68.911  1.00  0.00    -0.099 C  
HETATM    7  O   UNK     1      -7.255  11.502  69.680  1.00  0.00    -0.337 OA 
HETATM    8  C   UNK     1      -8.813   9.681  69.252  1.00  0.00    -0.164 C  
HETATM    9  C   UNK     1      -9.396  14.354  67.231  1.00  0.00    -0.211 A  
HETATM   10  O   UNK     1      -7.763  13.862  68.845  1.00  0.00    -0.118 OA 
HETATM   11  C   UNK     1      -8.908  15.653  67.006  1.00  0.00    -0.225 A  
HETATM   12  O   UNK     1      -8.854   9.743  70.683  1.00  0.00    -0.312 OA 
HETATM   13  C   UNK     1      -7.952   8.420  68.728  1.00  0.00    -0.120 C  
HETATM   14  H   UNK     1      -6.747  10.882  70.190  1.00  0.00     0.000 HD 
HETATM   15  C   UNK     1      -8.679   7.070  68.739  1.00  0.00    -0.127 C  
HETATM   16  O   UNK     1      -6.771   8.464  68.394  1.00  0.00    -0.061 OA 
HETATM   17  C   UNK     1      -9.537  16.516  66.106  1.00  0.00    -0.344 A  
HETATM   18  H   UNK     1      -7.995   9.973  71.018  1.00  0.00     0.000 HD 
HETATM   19  O   UNK     1      -7.821  16.175  67.655  1.00  0.00    -0.137 OA 
HETATM   20  H   UNK     1     -12.681  12.879  65.729  1.00  0.00     0.000 HD 
HETATM   21  H   UNK     1      -7.491  17.053  67.503  1.00  0.00     0.000 HD 
HETATM   22  C   UNK     1     -10.666  16.090  65.419  1.00  0.00    -0.399 A  
HETATM   23  C   UNK     1      -9.579   7.106  69.751  1.00  0.00    -0.155 C  
HETATM   24  C   UNK     1     -10.812   8.092  69.543  1.00  0.00    -0.129 C  
HETATM   25  C   UNK     1     -12.269  13.090  68.207  1.00  0.00    -0.033 C  
HETATM   26  O   UNK     1     -12.086  12.179  65.974  1.00  0.00    -0.612 OA 
HETATM   27  O   UNK     1      -9.123   7.028  71.072  1.00  0.00    -0.151 OA 
HETATM   28  C   UNK     1     -11.193  14.825  65.675  1.00  0.00    -0.343 A  
HETATM   29  C   UNK     1     -11.309  12.695  67.065  1.00  0.00    -0.323 C  
HETATM   30  C   UNK     1     -10.590  13.950  66.607  1.00  0.00    -0.274 A  
HETATM   31  H   UNK     1      -9.754   7.054  71.782  1.00  0.00     0.000 HD 
ENDROOT
BRANCH  15  32
HETATM   32  C   UNK     1      -9.353   6.421  67.548  1.00  0.00    -0.118 C  
HETATM   33  H   UNK     1      -9.789   4.577  68.440  1.00  0.00     0.000 HD 
HETATM   34  O   UNK     1      -9.498   7.068  66.505  1.00  0.00    -0.167 OA 
HETATM   35  N   UNK     1      -9.829   5.135  67.587  1.00  0.00    -0.152 N  
BRANCH  35  36
HETATM   36  C   UNK     1     -10.388   4.606  66.363  1.00  0.00    -0.226 C  
BRANCH  36  37
HETATM   37  N   UNK     1      -9.342   3.868  65.685  1.00  0.00    -0.152 NA 
HETATM   38  H   UNK     1      -9.577   2.881  65.577  1.00  0.00     0.000 HD 
BRANCH  37  39
HETATM   39  C   UNK     1      -9.035   4.510  64.393  1.00  0.00    -0.152 C  
BRANCH  39  40
HETATM   40  C   UNK     1      -7.530   4.499  64.070  1.00  0.00    -0.059 C  
BRANCH  40  41
HETATM   41  C   UNK     1      -7.019   5.815  63.473  1.00  0.00    -0.042 C  
BRANCH  41  42
HETATM   42  C   UNK     1      -8.121   6.889  63.431  1.00  0.00     0.000 C  
BRANCH  42  43
HETATM   43  C   UNK     1      -7.629   8.319  63.701  1.00  0.00    -0.134 C  
HETATM   44  C   UNK     1      -8.742   9.343  63.434  1.00  0.00    -0.204 C  
HETATM   45  N   UNK     1      -7.151   8.486  65.104  1.00  0.00    -0.075 NA 
HETATM   46  O   UNK     1      -9.100   9.722  62.332  1.00  0.00    -0.257 OA 
HETATM   47  O   UNK     1      -9.305   9.767  64.597  1.00  0.00    -0.260 OA 
HETATM   48  H2  UNK     1      -6.436   7.798  65.337  1.00  0.00     0.000 HD 
HETATM   49  H1  UNK     1      -6.824   9.436  65.283  1.00  0.00     0.000 HD 
ENDBRANCH  42  43
ENDBRANCH  41  42
ENDBRANCH  40  41
ENDBRANCH  39  40
ENDBRANCH  37  39
ENDBRANCH  36  37
ENDBRANCH  35  36
ENDBRANCH  15  32
BRANCH  24  50
HETATM   50  N   UNK     1     -11.510   8.279  70.836  1.00  0.00    -0.276 NA 
HETATM   51  C   UNK     1     -12.279   9.490  71.024  1.00  0.00    -0.304 C  
HETATM   52  C   UNK     1     -12.333   7.106  71.156  1.00  0.00    -0.364 C  
ENDBRANCH  24  50
TORSDOF 9
ENDMDL
MODEL       33
REMARK 921   NORMALIZED FREE ENERGY PREDICTED BY IDOCK:   -5.99 KCAL/MOL
REMARK 922        TOTAL FREE ENERGY PREDICTED BY IDOCK:  -10.53 KCAL/MOL
REMARK 923 INTER-LIGAND FREE ENERGY PREDICTED BY IDOCK:   -9.80 KCAL/MOL
REMARK 924 INTRA-LIGAND FREE ENERGY PREDICTED BY IDOCK:   -0.73 KCAL/MOL
REMARK 927      BINDING AFFINITY PREDICTED BY RF-SCORE:    0.00 PKD
ROOT
HETATM    1  C   UNK     1      -8.903   9.124  67.394  1.00  0.00    -0.125 C  
HETATM    2  C   UNK     1      -9.632   7.915  67.950  1.00  0.00    -0.169 C  
HETATM    3  C   UNK     1      -9.692   7.898  69.506  1.00  0.00    -0.173 C  
HETATM    4  C   UNK     1      -8.318   8.104  70.099  1.00  0.00    -0.125 C  
HETATM    5  C   UNK     1      -7.945   7.334  71.337  1.00  0.00    -0.097 C  
HETATM    6  C   UNK     1      -7.419   8.909  69.505  1.00  0.00    -0.075 C  
HETATM    7  O   UNK     1      -6.103   9.024  69.976  1.00  0.00    -0.036 OA 
HETATM    8  C   UNK     1      -7.589   9.517  68.112  1.00  0.00    -0.079 C  
HETATM    9  C   UNK     1      -8.987   6.563  72.060  1.00  0.00    -0.140 A  
HETATM   10  O   UNK     1      -6.790   7.336  71.766  1.00  0.00    -0.057 OA 
HETATM   11  C   UNK     1      -8.720   6.019  73.328  1.00  0.00    -0.120 A  
HETATM   12  O   UNK     1      -6.472   8.941  67.423  1.00  0.00    -0.056 OA 
HETATM   13  C   UNK     1      -7.639  11.121  67.943  1.00  0.00    -0.099 C  
HETATM   14  H   UNK     1      -5.468   9.592  69.556  1.00  0.00     0.000 HD 
HETATM   15  C   UNK     1      -8.225  11.631  66.620  1.00  0.00    -0.140 C  
HETATM   16  O   UNK     1      -7.192  11.929  68.753  1.00  0.00    -0.104 OA 
HETATM   17  C   UNK     1      -9.707   5.343  74.047  1.00  0.00    -0.165 A  
HETATM   18  H   UNK     1      -5.666   9.182  67.864  1.00  0.00     0.000 HD 
HETATM   19  O   UNK     1      -7.494   6.083  73.935  1.00  0.00    -0.091 OA 
HETATM   20  H   UNK     1     -12.316   6.137  70.069  1.00  0.00     0.000 HD 
HETATM   21  H   UNK     1      -7.313   5.715  74.792  1.00  0.00     0.000 HD 
HETATM   22  C   UNK     1     -10.977   5.199  73.505  1.00  0.00    -0.370 A  
HETATM   23  C   UNK     1      -7.956  10.698  65.676  1.00  0.00    -0.136 C  
HETATM   24  C   UNK     1      -8.742   9.321  65.822  1.00  0.00    -0.156 C  
HETATM   25  C   UNK     1     -10.080   5.361  69.202  1.00  0.00    -0.293 C  
HETATM   26  O   UNK     1     -11.849   6.910  69.772  1.00  0.00    -0.164 OA 
HETATM   27  O   UNK     1      -6.645  10.564  65.203  1.00  0.00    -0.241 OA 
HETATM   28  C   UNK     1     -11.239   5.685  72.224  1.00  0.00    -0.317 A  
HETATM   29  C   UNK     1     -10.458   6.632  69.993  1.00  0.00    -0.212 C  
HETATM   30  C   UNK     1     -10.243   6.342  71.466  1.00  0.00    -0.221 A  
HETATM   31  H   UNK     1      -6.457   9.909  64.541  1.00  0.00     0.000 HD 
ENDROOT
BRANCH  15  32
HETATM   32  C   UNK     1      -9.649  12.102  66.409  1.00  0.00    -0.234 C  
HETATM   33  H   UNK     1     -10.196  12.259  68.425  1.00  0.00     0.000 HD 
HETATM   34  O   UNK     1     -10.062  12.292  65.260  1.00  0.00    -0.273 OA 
HETATM   35  N   UNK     1     -10.503  12.343  67.456  1.00  0.00    -0.213 N  
BRANCH  35  36
HETATM   36  C   UNK     1     -11.858  12.720  67.121  1.00  0.00    -0.350 C  
BRANCH  36  37
HETATM   37  N   UNK     1     -12.143  13.970  67.794  1.00  0.00    -0.509 NA 
HETATM   38  H   UNK     1     -12.203  13.857  68.806  1.00  0.00     0.000 HD 
BRANCH  37  39
HETATM   39  C   UNK     1     -11.144  14.985  67.408  1.00  0.00    -0.324 C  
BRANCH  39  40
HETATM   40  C   UNK     1     -10.873  16.004  68.529  1.00  0.00    -0.304 C  
BRANCH  40  41
HETATM   41  C   UNK     1     -10.429  15.363  69.849  1.00  0.00    -0.310 C  
BRANCH  41  42
HETATM   42  C   UNK     1     -11.227  15.908  71.046  1.00  0.00    -0.371 C  
BRANCH  42  43
HETATM   43  C   UNK     1     -12.457  15.070  71.427  1.00  0.00    -0.329 C  
HETATM   44  C   UNK     1     -12.873  15.335  72.882  1.00  0.00    -0.438 C  
HETATM   45  N   UNK     1     -13.621  15.353  70.538  1.00  0.00    -0.810 NA 
HETATM   46  O   UNK     1     -12.315  14.883  73.868  1.00  0.00    -0.535 OA 
HETATM   47  O   UNK     1     -13.947  16.168  72.940  1.00  0.00    -0.480 OA 
HETATM   48  H2  UNK     1     -13.376  15.227  69.556  1.00  0.00     0.000 HD 
HETATM   49  H1  UNK     1     -14.437  14.796  70.791  1.00  0.00     0.000 HD 
ENDBRANCH  42  43
ENDBRANCH  41  42
ENDBRANCH  40  41
ENDBRANCH  39  40
ENDBRANCH  37  39
ENDBRANCH  36  37
ENDBRANCH  35  36
ENDBRANCH  15  32
BRANCH  24  50
HETATM   50  N   UNK     1      -8.112   8.304  64.948  1.00  0.00    -0.144 NA 
HETATM   51  C   UNK     1      -8.382   6.910  65.223  1.00  0.00    -0.098 C  
HETATM   52  C   UNK     1      -8.377   8.600  63.534  1.00  0.00    -0.114 C  
ENDBRANCH  24  50
TORSDOF 9
ENDMDL
MODEL       34
REMARK 921   NORMALIZED FREE ENERGY PREDICTED BY IDOCK:   -5.85 KCAL/MOL
REMARK 922        TOTAL FREE ENERGY PREDICTED BY IDOCK:  -10.31 KCAL/MOL
REMARK 923 INTER-LIGAND FREE ENERGY PREDICTED BY IDOCK:   -8.97 KCAL/MOL
REMARK 924 INTRA-LIGAND FREE ENERGY PREDICTED BY IDOCK:   -1.35 KCAL/MOL
REMARK 927      BINDING AFFINITY PREDICTED BY RF-SCORE:    0.00 PKD
ROOT
HETATM    1  C   UNK     1     -10.045   8.085  69.807  1.00  0.00    -0.196 C  
HETATM    2  C   UNK     1     -10.369   9.346  69.027  1.00  0.00    -0.224 C  
HETATM    3  C   UNK     1     -10.643  10.577  69.940  1.00  0.00    -0.261 C  
HETATM    4  C   UNK     1     -11.662  10.242  71.004  1.00  0.00    -0.461 C  
HETATM    5  C   UNK     1     -12.673  11.289  71.389  1.00  0.00    -0.396 C  
HETATM    6  C   UNK     1     -11.712   9.016  71.555  1.00  0.00    -0.345 C  
HETATM    7  O   UNK     1     -12.721   8.651  72.458  1.00  0.00    -0.475 OA 
HETATM    8  C   UNK     1     -10.926   7.806  71.048  1.00  0.00    -0.244 C  
HETATM    9  C   UNK     1     -12.520  12.674  70.880  1.00  0.00    -0.368 A  
HETATM   10  O   UNK     1     -13.624  11.018  72.124  1.00  0.00    -0.283 OA 
HETATM   11  C   UNK     1     -13.313  13.714  71.393  1.00  0.00    -0.248 A  
HETATM   12  O   UNK     1     -11.991   6.916  70.694  1.00  0.00    -0.410 OA 
HETATM   13  C   UNK     1      -9.844   7.098  72.014  1.00  0.00    -0.158 C  
HETATM   14  H   UNK     1     -12.757   7.785  72.847  1.00  0.00     0.000 HD 
HETATM   15  C   UNK     1      -8.821   6.194  71.314  1.00  0.00    -0.136 C  
HETATM   16  O   UNK     1      -9.831   7.183  73.239  1.00  0.00    -0.188 OA 
HETATM   17  C   UNK     1     -13.141  15.033  70.970  1.00  0.00    -0.482 A  
HETATM   18  H   UNK     1     -12.532   6.744  71.456  1.00  0.00     0.000 HD 
HETATM   19  O   UNK     1     -14.315  13.519  72.308  1.00  0.00    -0.536 OA 
HETATM   20  H   UNK     1      -9.894  13.035  68.016  1.00  0.00     0.000 HD 
HETATM   21  H   UNK     1     -14.851  14.222  72.655  1.00  0.00     0.000 HD 
HETATM   22  C   UNK     1     -12.170  15.330  70.022  1.00  0.00    -0.385 A  
HETATM   23  C   UNK     1      -9.424   5.682  70.214  1.00  0.00    -0.161 C  
HETATM   24  C   UNK     1      -9.730   6.722  69.047  1.00  0.00    -0.145 C  
HETATM   25  C   UNK     1     -11.889  11.502  67.874  1.00  0.00    -0.255 C  
HETATM   26  O   UNK     1      -9.699  12.273  68.550  1.00  0.00    -0.203 OA 
HETATM   27  O   UNK     1     -10.399   4.690  70.370  1.00  0.00    -0.195 OA 
HETATM   28  C   UNK     1     -11.414  14.300  69.463  1.00  0.00    -0.336 A  
HETATM   29  C   UNK     1     -10.962  11.826  69.065  1.00  0.00    -0.227 C  
HETATM   30  C   UNK     1     -11.597  12.954  69.855  1.00  0.00    -0.246 A  
HETATM   31  H   UNK     1     -10.821   4.331  69.599  1.00  0.00     0.000 HD 
ENDROOT
BRANCH  15  32
HETATM   32  C   UNK     1      -7.413   6.594  70.922  1.00  0.00    -0.084 C  
HETATM   33  H   UNK     1      -7.271   5.452  69.172  1.00  0.00     0.000 HD 
HETATM   34  O   UNK     1      -6.800   7.415  71.614  1.00  0.00    -0.053 OA 
HETATM   35  N   UNK     1      -6.791   6.087  69.810  1.00  0.00    -0.062 N  
BRANCH  35  36
HETATM   36  C   UNK     1      -5.422   6.493  69.584  1.00  0.00    -0.014 C  
BRANCH  36  37
HETATM   37  N   UNK     1      -5.189   6.473  68.155  1.00  0.00    -0.007 NA 
HETATM   38  H   UNK     1      -4.806   5.581  67.840  1.00  0.00     0.000 HD 
BRANCH  37  39
HETATM   39  C   UNK     1      -6.431   6.826  67.441  1.00  0.00    -0.049 C  
BRANCH  39  40
HETATM   40  C   UNK     1      -6.238   7.995  66.459  1.00  0.00    -0.050 C  
BRANCH  40  41
HETATM   41  C   UNK     1      -6.878   9.306  66.928  1.00  0.00    -0.080 C  
BRANCH  41  42
HETATM   42  C   UNK     1      -5.885  10.176  67.718  1.00  0.00    -0.042 C  
BRANCH  42  43
HETATM   43  C   UNK     1      -6.530  11.326  68.507  1.00  0.00    -0.051 C  
HETATM   44  C   UNK     1      -6.495  11.045  70.017  1.00  0.00    -0.144 C  
HETATM   45  N   UNK     1      -5.852  12.628  68.247  1.00  0.00    -0.063 NA 
HETATM   46  O   UNK     1      -7.239  10.280  70.609  1.00  0.00    -0.306 OA 
HETATM   47  O   UNK     1      -5.501  11.748  70.622  1.00  0.00    -0.130 OA 
HETATM   48  H2  UNK     1      -5.818  12.836  67.249  1.00  0.00     0.000 HD 
HETATM   49  H1  UNK     1      -6.281  13.391  68.770  1.00  0.00     0.000 HD 
ENDBRANCH  42  43
ENDBRANCH  41  42
ENDBRANCH  40  41
ENDBRANCH  39  40
ENDBRANCH  37  39
ENDBRANCH  36  37
ENDBRANCH  35  36
ENDBRANCH  15  32
BRANCH  24  50
HETATM   50  N   UNK     1     -10.671   6.107  68.081  1.00  0.00    -0.268 NA 
HETATM   51  C   UNK     1     -11.347   6.978  67.144  1.00  0.00     0.177 C  
HETATM   52  C   UNK     1     -10.028   4.998  67.366  1.00  0.00    -0.177 C  
ENDBRANCH  24  50
TORSDOF 9
ENDMDL
MODEL       35
REMARK 921   NORMALIZED FREE ENERGY PREDICTED BY IDOCK:   -5.82 KCAL/MOL
REMARK 922        TOTAL FREE ENERGY PREDICTED BY IDOCK:  -10.27 KCAL/MOL
REMARK 923 INTER-LIGAND FREE ENERGY PREDICTED BY IDOCK:   -8.56 KCAL/MOL
REMARK 924 INTRA-LIGAND FREE ENERGY PREDICTED BY IDOCK:   -1.71 KCAL/MOL
REMARK 927      BINDING AFFINITY PREDICTED BY RF-SCORE:    0.00 PKD
ROOT
HETATM    1  C   UNK     1      -9.780   8.140  69.437  1.00  0.00    -0.170 C  
HETATM    2  C   UNK     1      -9.882   9.268  68.426  1.00  0.00    -0.173 C  
HETATM    3  C   UNK     1     -10.026  10.671  69.085  1.00  0.00    -0.228 C  
HETATM    4  C   UNK     1     -11.136  10.672  70.111  1.00  0.00    -0.341 C  
HETATM    5  C   UNK     1     -12.006  11.894  70.228  1.00  0.00    -0.330 C  
HETATM    6  C   UNK     1     -11.387   9.586  70.863  1.00  0.00    -0.341 C  
HETATM    7  O   UNK     1     -12.482   9.528  71.737  1.00  0.00    -0.356 OA 
HETATM    8  C   UNK     1     -10.754   8.211  70.637  1.00  0.00    -0.224 C  
HETATM    9  C   UNK     1     -11.633  13.130  69.498  1.00  0.00    -0.347 A  
HETATM   10  O   UNK     1     -13.022  11.889  70.925  1.00  0.00    -0.177 OA 
HETATM   11  C   UNK     1     -12.297  14.341  69.759  1.00  0.00    -0.292 A  
HETATM   12  O   UNK     1     -11.915   7.417  70.365  1.00  0.00    -0.505 OA 
HETATM   13  C   UNK     1      -9.835   7.559  71.792  1.00  0.00    -0.164 C  
HETATM   14  H   UNK     1     -12.660   8.760  72.268  1.00  0.00     0.000 HD 
HETATM   15  C   UNK     1      -8.915   6.417  71.341  1.00  0.00    -0.138 C  
HETATM   16  O   UNK     1      -9.873   7.866  72.980  1.00  0.00    -0.249 OA 
HETATM   17  C   UNK     1     -11.918  15.525  69.125  1.00  0.00    -0.331 A  
HETATM   18  H   UNK     1     -12.513   7.461  71.102  1.00  0.00     0.000 HD 
HETATM   19  O   UNK     1     -13.361  14.450  70.615  1.00  0.00    -0.449 OA 
HETATM   20  H   UNK     1      -8.838  12.614  66.823  1.00  0.00     0.000 HD 
HETATM   21  H   UNK     1     -13.810  15.268  70.791  1.00  0.00     0.000 HD 
HETATM   22  C   UNK     1     -10.868  15.515  68.217  1.00  0.00    -0.292 A  
HETATM   23  C   UNK     1      -9.527   5.793  70.305  1.00  0.00    -0.161 C  
HETATM   24  C   UNK     1      -9.623   6.632  68.954  1.00  0.00    -0.129 C  
HETATM   25  C   UNK     1     -11.021  11.353  66.801  1.00  0.00    -0.347 C  
HETATM   26  O   UNK     1      -8.781  11.945  67.496  1.00  0.00    -0.151 OA 
HETATM   27  O   UNK     1     -10.639   4.982  70.558  1.00  0.00    -0.209 OA 
HETATM   28  C   UNK     1     -10.237  14.310  67.906  1.00  0.00    -0.237 A  
HETATM   29  C   UNK     1     -10.120  11.768  67.983  1.00  0.00    -0.192 C  
HETATM   30  C   UNK     1     -10.629  13.095  68.513  1.00  0.00    -0.274 A  
HETATM   31  H   UNK     1     -11.068   4.545  69.832  1.00  0.00     0.000 HD 
ENDROOT
BRANCH  15  32
HETATM   32  C   UNK     1      -7.447   6.551  70.994  1.00  0.00    -0.085 C  
HETATM   33  H   UNK     1      -7.268   8.613  71.317  1.00  0.00     0.000 HD 
HETATM   34  O   UNK     1      -6.799   5.543  70.691  1.00  0.00    -0.048 OA 
HETATM   35  N   UNK     1      -6.797   7.759  71.017  1.00  0.00    -0.045 N  
BRANCH  35  36
HETATM   36  C   UNK     1      -5.414   7.766  70.598  1.00  0.00    -0.026 C  
BRANCH  36  37
HETATM   37  N   UNK     1      -5.152   9.046  69.972  1.00  0.00    -0.029 NA 
HETATM   38  H   UNK     1      -4.273   9.047  69.453  1.00  0.00     0.000 HD 
BRANCH  37  39
HETATM   39  C   UNK     1      -6.296   9.431  69.124  1.00  0.00    -0.042 C  
BRANCH  39  40
HETATM   40  C   UNK     1      -5.921   9.533  67.635  1.00  0.00    -0.052 C  
BRANCH  40  41
HETATM   41  C   UNK     1      -6.221   8.259  66.837  1.00  0.00    -0.055 C  
BRANCH  41  42
HETATM   42  C   UNK     1      -7.399   8.457  65.867  1.00  0.00    -0.073 C  
BRANCH  42  43
HETATM   43  C   UNK     1      -7.282   7.671  64.551  1.00  0.00    -0.076 C  
HETATM   44  C   UNK     1      -7.422   6.161  64.799  1.00  0.00    -0.084 C  
HETATM   45  N   UNK     1      -8.314   8.091  63.560  1.00  0.00    -0.384 NA 
HETATM   46  O   UNK     1      -6.552   5.439  65.255  1.00  0.00    -0.038 OA 
HETATM   47  O   UNK     1      -8.664   5.723  64.460  1.00  0.00    -0.040 OA 
HETATM   48  H2  UNK     1      -8.283   9.097  63.395  1.00  0.00     0.000 HD 
HETATM   49  H1  UNK     1      -8.236   7.570  62.686  1.00  0.00     0.000 HD 
ENDBRANCH  42  43
ENDBRANCH  41  42
ENDBRANCH  40  41
ENDBRANCH  39  40
ENDBRANCH  37  39
ENDBRANCH  36  37
ENDBRANCH  35  36
ENDBRANCH  15  32
BRANCH  24  50
HETATM   50  N   UNK     1     -10.590   5.977  68.042  1.00  0.00    -0.238 NA 
HETATM   51  C   UNK     1     -11.154   6.768  66.970  1.00  0.00    -0.299 C  
HETATM   52  C   UNK     1     -10.035   4.727  67.509  1.00  0.00    -0.144 C  
ENDBRANCH  24  50
TORSDOF 9
ENDMDL
MODEL       36
REMARK 921   NORMALIZED FREE ENERGY PREDICTED BY IDOCK:   -5.80 KCAL/MOL
REMARK 922        TOTAL FREE ENERGY PREDICTED BY IDOCK:  -10.25 KCAL/MOL
REMARK 923 INTER-LIGAND FREE ENERGY PREDICTED BY IDOCK:   -9.13 KCAL/MOL
REMARK 924 INTRA-LIGAND FREE ENERGY PREDICTED BY IDOCK:   -1.12 KCAL/MOL
REMARK 927      BINDING AFFINITY PREDICTED BY RF-SCORE:    0.00 PKD
ROOT
HETATM    1  C   UNK     1      -7.707   8.184  66.763  1.00  0.00    -0.095 C  
HETATM    2  C   UNK     1      -6.862   9.393  67.119  1.00  0.00    -0.084 C  
HETATM    3  C   UNK     1      -7.681  10.542  67.778  1.00  0.00    -0.093 C  
HETATM    4  C   UNK     1      -8.900  10.875  66.949  1.00  0.00    -0.145 C  
HETATM    5  C   UNK     1      -9.316  12.317  66.829  1.00  0.00    -0.218 C  
HETATM    6  C   UNK     1      -9.568   9.919  66.280  1.00  0.00    -0.209 C  
HETATM    7  O   UNK     1     -10.629  10.224  65.416  1.00  0.00    -0.152 OA 
HETATM    8  C   UNK     1      -9.077   8.481  66.107  1.00  0.00    -0.195 C  
HETATM    9  C   UNK     1      -8.662  13.340  67.681  1.00  0.00    -0.195 A  
HETATM   10  O   UNK     1     -10.196  12.663  66.038  1.00  0.00    -0.260 OA 
HETATM   11  C   UNK     1      -9.176  14.646  67.749  1.00  0.00    -0.196 A  
HETATM   12  O   UNK     1      -8.957   8.402  64.681  1.00  0.00    -0.409 OA 
HETATM   13  C   UNK     1      -9.951   7.264  66.705  1.00  0.00    -0.217 C  
HETATM   14  H   UNK     1     -11.101   9.548  64.942  1.00  0.00     0.000 HD 
HETATM   15  C   UNK     1      -9.209   5.931  66.868  1.00  0.00    -0.128 C  
HETATM   16  O   UNK     1     -11.150   7.320  66.968  1.00  0.00    -0.308 OA 
HETATM   17  C   UNK     1      -8.609  15.604  68.592  1.00  0.00    -0.188 A  
HETATM   18  H   UNK     1      -9.798   8.584  64.278  1.00  0.00     0.000 HD 
HETATM   19  O   UNK     1     -10.231  15.083  66.993  1.00  0.00    -0.252 OA 
HETATM   20  H   UNK     1      -5.448  12.076  69.499  1.00  0.00     0.000 HD 
HETATM   21  H   UNK     1     -10.579  15.966  67.039  1.00  0.00     0.000 HD 
HETATM   22  C   UNK     1      -7.515  15.268  69.378  1.00  0.00    -0.212 A  
HETATM   23  C   UNK     1      -8.255   5.883  65.908  1.00  0.00    -0.127 C  
HETATM   24  C   UNK     1      -7.046   6.905  66.084  1.00  0.00    -0.073 C  
HETATM   25  C   UNK     1      -5.724  12.035  66.994  1.00  0.00    -0.123 C  
HETATM   26  O   UNK     1      -6.021  11.346  69.293  1.00  0.00    -0.050 OA 
HETATM   27  O   UNK     1      -8.635   5.667  64.578  1.00  0.00    -0.268 OA 
HETATM   28  C   UNK     1      -6.960  13.992  69.279  1.00  0.00    -0.084 A  
HETATM   29  C   UNK     1      -6.742  11.738  68.115  1.00  0.00    -0.064 C  
HETATM   30  C   UNK     1      -7.499  13.019  68.406  1.00  0.00    -0.128 A  
HETATM   31  H   UNK     1      -7.966   5.633  63.905  1.00  0.00     0.000 HD 
ENDROOT
BRANCH  15  32
HETATM   32  C   UNK     1      -8.595   5.414  68.153  1.00  0.00    -0.096 C  
HETATM   33  H   UNK     1      -9.237   6.959  69.414  1.00  0.00     0.000 HD 
HETATM   34  O   UNK     1      -7.990   4.336  68.147  1.00  0.00    -0.078 OA 
HETATM   35  N   UNK     1      -8.699   6.095  69.339  1.00  0.00    -0.122 N  
BRANCH  35  36
HETATM   36  C   UNK     1      -8.010   5.533  70.479  1.00  0.00    -0.103 C  
BRANCH  36  37
HETATM   37  N   UNK     1      -8.703   5.974  71.672  1.00  0.00    -0.135 NA 
HETATM   38  H   UNK     1      -8.987   6.952  71.611  1.00  0.00     0.000 HD 
BRANCH  37  39
HETATM   39  C   UNK     1      -9.844   5.080  71.945  1.00  0.00    -0.181 C  
BRANCH  39  40
HETATM   40  C   UNK     1     -11.136   5.853  72.266  1.00  0.00    -0.330 C  
BRANCH  40  41
HETATM   41  C   UNK     1     -11.675   6.667  71.084  1.00  0.00    -0.399 C  
BRANCH  41  42
HETATM   42  C   UNK     1     -12.946   7.449  71.461  1.00  0.00    -0.421 C  
BRANCH  42  43
HETATM   43  C   UNK     1     -12.702   8.663  72.370  1.00  0.00    -0.362 C  
HETATM   44  C   UNK     1     -12.243   9.879  71.551  1.00  0.00    -0.416 C  
HETATM   45  N   UNK     1     -13.925   9.037  73.138  1.00  0.00    -1.215 NA 
HETATM   46  O   UNK     1     -11.120  10.044  71.105  1.00  0.00    -0.333 OA 
HETATM   47  O   UNK     1     -13.265  10.756  71.363  1.00  0.00    -0.364 OA 
HETATM   48  H2  UNK     1     -14.287   8.244  73.668  1.00  0.00     0.000 HD 
HETATM   49  H1  UNK     1     -13.762   9.843  73.742  1.00  0.00     0.000 HD 
ENDBRANCH  42  43
ENDBRANCH  41  42
ENDBRANCH  40  41
ENDBRANCH  39  40
ENDBRANCH  37  39
ENDBRANCH  36  37
ENDBRANCH  35  36
ENDBRANCH  15  32
BRANCH  24  50
HETATM   50  N   UNK     1      -6.279   6.976  64.818  1.00  0.00    -0.036 NA 
HETATM   51  C   UNK     1      -5.652   8.233  64.474  1.00  0.00    -0.048 C  
HETATM   52  C   UNK     1      -5.297   5.887  64.746  1.00  0.00    -0.016 C  
ENDBRANCH  24  50
TORSDOF 9
ENDMDL
MODEL       37
REMARK 921   NORMALIZED FREE ENERGY PREDICTED BY IDOCK:   -5.79 KCAL/MOL
REMARK 922        TOTAL FREE ENERGY PREDICTED BY IDOCK:  -10.23 KCAL/MOL
REMARK 923 INTER-LIGAND FREE ENERGY PREDICTED BY IDOCK:   -9.26 KCAL/MOL
REMARK 924 INTRA-LIGAND FREE ENERGY PREDICTED BY IDOCK:   -0.98 KCAL/MOL
REMARK 927      BINDING AFFINITY PREDICTED BY RF-SCORE:    0.00 PKD
ROOT
HETATM    1  C   UNK     1      -8.730  12.474  67.177  1.00  0.00    -0.200 C  
HETATM    2  C   UNK     1      -9.775  13.567  67.047  1.00  0.00    -0.251 C  
HETATM    3  C   UNK     1      -9.169  14.952  66.673  1.00  0.00    -0.302 C  
HETATM    4  C   UNK     1      -8.029  15.309  67.598  1.00  0.00    -0.177 C  
HETATM    5  C   UNK     1      -7.874  16.742  68.031  1.00  0.00    -0.176 C  
HETATM    6  C   UNK     1      -7.204  14.362  68.080  1.00  0.00    -0.128 C  
HETATM    7  O   UNK     1      -6.215  14.656  69.029  1.00  0.00    -0.087 OA 
HETATM    8  C   UNK     1      -7.434  12.857  67.932  1.00  0.00    -0.131 C  
HETATM    9  C   UNK     1      -8.698  17.794  67.385  1.00  0.00    -0.235 A  
HETATM   10  O   UNK     1      -7.070  17.060  68.909  1.00  0.00    -0.211 OA 
HETATM   11  C   UNK     1      -8.422  19.153  67.608  1.00  0.00    -0.291 A  
HETATM   12  O   UNK     1      -7.540  12.460  69.305  1.00  0.00    -0.324 OA 
HETATM   13  C   UNK     1      -6.359  11.962  67.128  1.00  0.00    -0.151 C  
HETATM   14  H   UNK     1      -5.632  13.987  69.369  1.00  0.00     0.000 HD 
HETATM   15  C   UNK     1      -6.854  10.587  66.665  1.00  0.00    -0.108 C  
HETATM   16  O   UNK     1      -5.189  12.278  66.929  1.00  0.00    -0.304 OA 
HETATM   17  C   UNK     1      -9.147  20.155  66.962  1.00  0.00    -0.481 A  
HETATM   18  H   UNK     1      -6.745  12.695  69.769  1.00  0.00     0.000 HD 
HETATM   19  O   UNK     1      -7.460  19.596  68.478  1.00  0.00    -0.320 OA 
HETATM   20  H   UNK     1     -11.636  16.407  65.222  1.00  0.00     0.000 HD 
HETATM   21  H   UNK     1      -7.274  20.515  68.630  1.00  0.00     0.000 HD 
HETATM   22  C   UNK     1     -10.164  19.809  66.081  1.00  0.00    -0.618 A  
HETATM   23  C   UNK     1      -7.786  10.174  67.557  1.00  0.00    -0.102 C  
HETATM   24  C   UNK     1      -9.156  10.987  67.550  1.00  0.00    -0.137 C  
HETATM   25  C   UNK     1     -11.360  15.887  67.673  1.00  0.00    -0.151 C  
HETATM   26  O   UNK     1     -10.943  15.760  65.294  1.00  0.00    -0.364 OA 
HETATM   27  O   UNK     1      -7.376   9.751  68.826  1.00  0.00    -0.071 OA 
HETATM   28  C   UNK     1     -10.486  18.465  65.893  1.00  0.00    -0.346 A  
HETATM   29  C   UNK     1     -10.304  16.013  66.555  1.00  0.00    -0.299 C  
HETATM   30  C   UNK     1      -9.784  17.438  66.565  1.00  0.00    -0.302 A  
HETATM   31  H   UNK     1      -8.030   9.462  69.451  1.00  0.00     0.000 HD 
ENDROOT
BRANCH  15  32
HETATM   32  C   UNK     1      -7.366  10.255  65.278  1.00  0.00    -0.139 C  
HETATM   33  H   UNK     1      -8.344   8.466  65.758  1.00  0.00     0.000 HD 
HETATM   34  O   UNK     1      -7.147  11.037  64.346  1.00  0.00     0.445 OA 
HETATM   35  N   UNK     1      -8.084   9.116  65.016  1.00  0.00    -0.123 N  
BRANCH  35  36
HETATM   36  C   UNK     1      -8.455   8.878  63.639  1.00  0.00    -0.138 C  
BRANCH  36  37
HETATM   37  N   UNK     1      -8.525   7.444  63.445  1.00  0.00    -0.355 NA 
HETATM   38  H   UNK     1      -8.509   7.190  62.457  1.00  0.00     0.000 HD 
BRANCH  37  39
HETATM   39  C   UNK     1      -7.447   6.784  64.205  1.00  0.00    -0.094 C  
BRANCH  39  40
HETATM   40  C   UNK     1      -7.935   5.536  64.961  1.00  0.00    -0.113 C  
BRANCH  40  41
HETATM   41  C   UNK     1      -7.814   5.653  66.484  1.00  0.00    -0.101 C  
BRANCH  41  42
HETATM   42  C   UNK     1      -8.973   6.464  67.089  1.00  0.00    -0.109 C  
BRANCH  42  43
HETATM   43  C   UNK     1     -10.265   5.663  67.312  1.00  0.00    -0.206 C  
HETATM   44  C   UNK     1     -10.497   5.400  68.808  1.00  0.00    -0.149 C  
HETATM   45  N   UNK     1     -11.459   6.367  66.760  1.00  0.00    -0.746 NA 
HETATM   46  O   UNK     1      -9.914   4.560  69.474  1.00  0.00    -0.215 OA 
HETATM   47  O   UNK     1     -11.433   6.246  69.314  1.00  0.00    -0.411 OA 
HETATM   48  H2  UNK     1     -11.330   6.597  65.774  1.00  0.00     0.000 HD 
HETATM   49  H1  UNK     1     -12.316   5.834  66.908  1.00  0.00     0.000 HD 
ENDBRANCH  42  43
ENDBRANCH  41  42
ENDBRANCH  40  41
ENDBRANCH  39  40
ENDBRANCH  37  39
ENDBRANCH  36  37
ENDBRANCH  35  36
ENDBRANCH  15  32
BRANCH  24  50
HETATM   50  N   UNK     1      -9.925  10.656  68.772  1.00  0.00    -0.185 NA 
HETATM   51  C   UNK     1     -10.854  11.644  69.279  1.00  0.00    -0.152 C  
HETATM   52  C   UNK     1     -10.598   9.359  68.626  1.00  0.00    -0.200 C  
ENDBRANCH  24  50
TORSDOF 9
ENDMDL
MODEL       38
REMARK 921   NORMALIZED FREE ENERGY PREDICTED BY IDOCK:   -5.76 KCAL/MOL
REMARK 922        TOTAL FREE ENERGY PREDICTED BY IDOCK:  -10.19 KCAL/MOL
REMARK 923 INTER-LIGAND FREE ENERGY PREDICTED BY IDOCK:   -8.75 KCAL/MOL
REMARK 924 INTRA-LIGAND FREE ENERGY PREDICTED BY IDOCK:   -1.43 KCAL/MOL
REMARK 927      BINDING AFFINITY PREDICTED BY RF-SCORE:    0.00 PKD
ROOT
HETATM    1  C   UNK     1      -8.113   7.704  67.995  1.00  0.00    -0.123 C  
HETATM    2  C   UNK     1      -7.337   8.968  68.320  1.00  0.00    -0.082 C  
HETATM    3  C   UNK     1      -8.204  10.259  68.231  1.00  0.00    -0.115 C  
HETATM    4  C   UNK     1      -8.943  10.320  66.915  1.00  0.00    -0.149 C  
HETATM    5  C   UNK     1      -9.098  11.656  66.238  1.00  0.00    -0.214 C  
HETATM    6  C   UNK     1      -9.402   9.204  66.323  1.00  0.00    -0.216 C  
HETATM    7  O   UNK     1      -9.987   9.227  65.049  1.00  0.00    -0.351 OA 
HETATM    8  C   UNK     1      -9.062   7.782  66.776  1.00  0.00    -0.154 C  
HETATM    9  C   UNK     1      -8.716  12.892  66.964  1.00  0.00    -0.195 A  
HETATM   10  O   UNK     1      -9.542  11.743  65.092  1.00  0.00    -0.228 OA 
HETATM   11  C   UNK     1      -9.051  14.155  66.447  1.00  0.00    -0.114 A  
HETATM   12  O   UNK     1      -8.397   7.275  65.613  1.00  0.00    -0.132 OA 
HETATM   13  C   UNK     1     -10.243   6.800  67.270  1.00  0.00    -0.210 C  
HETATM   14  H   UNK     1     -10.311   8.438  64.631  1.00  0.00     0.000 HD 
HETATM   15  C   UNK     1      -9.796   5.583  68.088  1.00  0.00    -0.181 C  
HETATM   16  O   UNK     1     -11.431   6.928  66.984  1.00  0.00    -0.154 OA 
HETATM   17  C   UNK     1      -8.753  15.326  67.147  1.00  0.00    -0.234 A  
HETATM   18  H   UNK     1      -8.980   7.323  64.864  1.00  0.00     0.000 HD 
HETATM   19  O   UNK     1      -9.658  14.338  65.233  1.00  0.00    -0.550 OA 
HETATM   20  H   UNK     1      -6.668  12.252  70.224  1.00  0.00     0.000 HD 
HETATM   21  H   UNK     1      -9.885  15.191  64.883  1.00  0.00     0.000 HD 
HETATM   22  C   UNK     1      -8.111  15.248  68.376  1.00  0.00    -0.137 A  
HETATM   23  C   UNK     1      -8.552   5.250  67.666  1.00  0.00    -0.104 C  
HETATM   24  C   UNK     1      -7.398   6.283  68.037  1.00  0.00    -0.089 C  
HETATM   25  C   UNK     1      -5.930  11.453  67.950  1.00  0.00    -0.044 C  
HETATM   26  O   UNK     1      -7.197  11.492  70.010  1.00  0.00     0.162 OA 
HETATM   27  O   UNK     1      -8.397   4.640  66.416  1.00  0.00    -0.107 OA 
HETATM   28  C   UNK     1      -7.722  14.005  68.874  1.00  0.00    -0.069 A  
HETATM   29  C   UNK     1      -7.337  11.505  68.582  1.00  0.00    -0.106 C  
HETATM   30  C   UNK     1      -7.986  12.811  68.164  1.00  0.00    -0.156 A  
HETATM   31  H   UNK     1      -7.525   4.407  66.120  1.00  0.00     0.000 HD 
ENDROOT
BRANCH  15  32
HETATM   32  C   UNK     1      -9.810   5.483  69.600  1.00  0.00    -0.193 C  
HETATM   33  H   UNK     1     -11.606   6.507  69.934  1.00  0.00     0.000 HD 
HETATM   34  O   UNK     1      -8.906   4.868  70.177  1.00  0.00    -0.098 OA 
HETATM   35  N   UNK     1     -10.806   6.040  70.361  1.00  0.00    -0.295 N  
BRANCH  35  36
HETATM   36  C   UNK     1     -10.669   5.936  71.796  1.00  0.00    -0.245 C  
BRANCH  36  37
HETATM   37  N   UNK     1     -11.849   6.526  72.394  1.00  0.00    -0.468 NA 
HETATM   38  H   UNK     1     -11.615   7.182  73.139  1.00  0.00     0.000 HD 
BRANCH  37  39
HETATM   39  C   UNK     1     -12.681   7.149  71.347  1.00  0.00    -0.391 C  
BRANCH  39  40
HETATM   40  C   UNK     1     -13.706   8.143  71.920  1.00  0.00    -0.395 C  
BRANCH  40  41
HETATM   41  C   UNK     1     -13.080   9.445  72.433  1.00  0.00    -0.458 C  
BRANCH  41  42
HETATM   42  C   UNK     1     -13.267  10.601  71.436  1.00  0.00    -0.420 C  
BRANCH  42  43
HETATM   43  C   UNK     1     -11.960  11.143  70.835  1.00  0.00    -0.257 C  
HETATM   44  C   UNK     1     -11.665  10.484  69.479  1.00  0.00    -0.241 C  
HETATM   45  N   UNK     1     -12.006  12.622  70.648  1.00  0.00    -0.519 NA 
HETATM   46  O   UNK     1     -11.217   9.360  69.325  1.00  0.00    -0.109 OA 
HETATM   47  O   UNK     1     -11.988  11.313  68.451  1.00  0.00    -0.555 OA 
HETATM   48  H2  UNK     1     -12.240  13.099  71.518  1.00  0.00     0.000 HD 
HETATM   49  H1  UNK     1     -11.139  12.982  70.249  1.00  0.00     0.000 HD 
ENDBRANCH  42  43
ENDBRANCH  41  42
ENDBRANCH  40  41
ENDBRANCH  39  40
ENDBRANCH  37  39
ENDBRANCH  36  37
ENDBRANCH  35  36
ENDBRANCH  15  32
BRANCH  24  50
HETATM   50  N   UNK     1      -6.189   5.970  67.239  1.00  0.00    -0.031 NA 
HETATM   51  C   UNK     1      -5.318   7.064  66.869  1.00  0.00    -0.018 C  
HETATM   52  C   UNK     1      -5.411   4.899  67.875  1.00  0.00    -0.012 C  
ENDBRANCH  24  50
TORSDOF 9
ENDMDL
MODEL       39
REMARK 921   NORMALIZED FREE ENERGY PREDICTED BY IDOCK:   -5.76 KCAL/MOL
REMARK 922        TOTAL FREE ENERGY PREDICTED BY IDOCK:  -10.18 KCAL/MOL
REMARK 923 INTER-LIGAND FREE ENERGY PREDICTED BY IDOCK:   -8.90 KCAL/MOL
REMARK 924 INTRA-LIGAND FREE ENERGY PREDICTED BY IDOCK:   -1.28 KCAL/MOL
REMARK 927      BINDING AFFINITY PREDICTED BY RF-SCORE:    0.00 PKD
ROOT
HETATM    1  C   UNK     1      -9.459  12.071  67.866  1.00  0.00    -0.196 C  
HETATM    2  C   UNK     1     -10.380  13.256  68.091  1.00  0.00    -0.246 C  
HETATM    3  C   UNK     1      -9.761  14.609  67.633  1.00  0.00    -0.214 C  
HETATM    4  C   UNK     1      -8.380  14.794  68.217  1.00  0.00    -0.148 C  
HETATM    5  C   UNK     1      -7.964  16.171  68.662  1.00  0.00    -0.201 C  
HETATM    6  C   UNK     1      -7.557  13.746  68.399  1.00  0.00    -0.135 C  
HETATM    7  O   UNK     1      -6.320  13.879  69.044  1.00  0.00    -0.088 OA 
HETATM    8  C   UNK     1      -7.973  12.282  68.245  1.00  0.00    -0.163 C  
HETATM    9  C   UNK     1      -8.820  17.336  68.328  1.00  0.00    -0.258 A  
HETATM   10  O   UNK     1      -6.922  16.350  69.293  1.00  0.00    -0.208 OA 
HETATM   11  C   UNK     1      -8.354  18.646  68.534  1.00  0.00    -0.340 A  
HETATM   12  O   UNK     1      -7.738  11.789  69.570  1.00  0.00    -0.331 OA 
HETATM   13  C   UNK     1      -7.259  11.364  67.126  1.00  0.00    -0.134 C  
HETATM   14  H   UNK     1      -5.738  13.139  69.173  1.00  0.00     0.000 HD 
HETATM   15  C   UNK     1      -8.002  10.076  66.751  1.00  0.00    -0.114 C  
HETATM   16  O   UNK     1      -6.163  11.594  66.622  1.00  0.00    -0.143 OA 
HETATM   17  C   UNK     1      -9.122  19.752  68.170  1.00  0.00    -0.385 A  
HETATM   18  H   UNK     1      -6.827  11.919  69.802  1.00  0.00     0.000 HD 
HETATM   19  O   UNK     1      -7.150  18.935  69.120  1.00  0.00    -0.308 OA 
HETATM   20  H   UNK     1     -12.367  16.378  67.011  1.00  0.00     0.000 HD 
HETATM   21  H   UNK     1      -6.835  19.820  69.260  1.00  0.00     0.000 HD 
HETATM   22  C   UNK     1     -10.371  19.564  67.594  1.00  0.00    -0.574 A  
HETATM   23  C   UNK     1      -8.691   9.676  67.847  1.00  0.00    -0.119 C  
HETATM   24  C   UNK     1      -9.918  10.601  68.266  1.00  0.00    -0.158 C  
HETATM   25  C   UNK     1     -11.483  15.646  69.256  1.00  0.00    -0.368 C  
HETATM   26  O   UNK     1     -11.752  15.670  66.852  1.00  0.00     0.070 OA 
HETATM   27  O   UNK     1      -7.993   9.122  68.926  1.00  0.00    -0.096 OA 
HETATM   28  C   UNK     1     -10.870  18.271  67.435  1.00  0.00    -0.281 A  
HETATM   29  C   UNK     1     -10.768  15.769  67.893  1.00  0.00    -0.302 C  
HETATM   30  C   UNK     1     -10.121  17.139  67.829  1.00  0.00    -0.306 A  
HETATM   31  H   UNK     1      -8.476   8.842  69.694  1.00  0.00     0.000 HD 
ENDROOT
BRANCH  15  32
HETATM   32  C   UNK     1      -8.907   9.898  65.549  1.00  0.00    -0.159 C  
HETATM   33  H   UNK     1      -8.120  11.442  64.372  1.00  0.00     0.000 HD 
HETATM   34  O   UNK     1      -9.739   8.984  65.544  1.00  0.00    -0.203 OA 
HETATM   35  N   UNK     1      -8.828  10.711  64.446  1.00  0.00    -0.189 N  
BRANCH  35  36
HETATM   36  C   UNK     1      -9.793  10.483  63.395  1.00  0.00    -0.264 C  
BRANCH  36  37
HETATM   37  N   UNK     1      -9.277   9.430  62.545  1.00  0.00    -0.538 NA 
HETATM   38  H   UNK     1      -9.679   9.461  61.608  1.00  0.00     0.000 HD 
BRANCH  37  39
HETATM   39  C   UNK     1      -7.803   9.488  62.518  1.00  0.00    -0.114 C  
BRANCH  39  40
HETATM   40  C   UNK     1      -7.159   8.099  62.362  1.00  0.00    -0.090 C  
BRANCH  40  41
HETATM   41  C   UNK     1      -7.876   6.997  63.151  1.00  0.00    -0.110 C  
BRANCH  41  42
HETATM   42  C   UNK     1      -7.332   6.875  64.585  1.00  0.00    -0.090 C  
BRANCH  42  43
HETATM   43  C   UNK     1      -8.028   5.808  65.444  1.00  0.00    -0.117 C  
HETATM   44  C   UNK     1      -7.556   5.884  66.904  1.00  0.00    -0.099 C  
HETATM   45  N   UNK     1      -9.512   5.950  65.412  1.00  0.00    -0.348 NA 
HETATM   46  O   UNK     1      -6.491   5.462  67.323  1.00  0.00    -0.048 OA 
HETATM   47  O   UNK     1      -8.479   6.509  67.684  1.00  0.00    -0.117 OA 
HETATM   48  H2  UNK     1      -9.865   5.945  64.455  1.00  0.00     0.000 HD 
HETATM   49  H1  UNK     1      -9.974   5.241  65.982  1.00  0.00     0.000 HD 
ENDBRANCH  42  43
ENDBRANCH  41  42
ENDBRANCH  40  41
ENDBRANCH  39  40
ENDBRANCH  37  39
ENDBRANCH  36  37
ENDBRANCH  35  36
ENDBRANCH  15  32
BRANCH  24  50
HETATM   50  N   UNK     1     -10.351  10.242  69.637  1.00  0.00    -0.241 NA 
HETATM   51  C   UNK     1     -11.387  11.043  70.253  1.00  0.00    -0.203 C  
HETATM   52  C   UNK     1     -10.701   8.819  69.715  1.00  0.00    -0.218 C  
ENDBRANCH  24  50
TORSDOF 9
ENDMDL
MODEL       40
REMARK 921   NORMALIZED FREE ENERGY PREDICTED BY IDOCK:   -5.64 KCAL/MOL
REMARK 922        TOTAL FREE ENERGY PREDICTED BY IDOCK:  -10.00 KCAL/MOL
REMARK 923 INTER-LIGAND FREE ENERGY PREDICTED BY IDOCK:   -9.20 KCAL/MOL
REMARK 924 INTRA-LIGAND FREE ENERGY PREDICTED BY IDOCK:   -0.80 KCAL/MOL
REMARK 927      BINDING AFFINITY PREDICTED BY RF-SCORE:    0.00 PKD
ROOT
HETATM    1  C   UNK     1      -9.505  10.546  68.525  1.00  0.00    -0.164 C  
HETATM    2  C   UNK     1      -9.880   9.565  69.621  1.00  0.00    -0.220 C  
HETATM    3  C   UNK     1      -9.211   8.170  69.449  1.00  0.00    -0.155 C  
HETATM    4  C   UNK     1      -9.433   7.635  68.054  1.00  0.00    -0.151 C  
HETATM    5  C   UNK     1      -9.686   6.162  67.879  1.00  0.00    -0.116 C  
HETATM    6  C   UNK     1      -9.469   8.459  66.992  1.00  0.00    -0.174 C  
HETATM    7  O   UNK     1      -9.787   7.998  65.707  1.00  0.00    -0.404 OA 
HETATM    8  C   UNK     1      -9.502   9.986  67.082  1.00  0.00    -0.155 C  
HETATM    9  C   UNK     1      -9.504   5.247  69.033  1.00  0.00    -0.182 A  
HETATM   10  O   UNK     1     -10.036   5.699  66.792  1.00  0.00    -0.159 OA 
HETATM   11  C   UNK     1      -9.518   3.854  68.849  1.00  0.00    -0.163 A  
HETATM   12  O   UNK     1     -10.756  10.271  66.450  1.00  0.00    -0.144 OA 
HETATM   13  C   UNK     1      -8.297  10.848  66.443  1.00  0.00    -0.162 C  
HETATM   14  H   UNK     1      -9.813   8.581  64.957  1.00  0.00     0.000 HD 
HETATM   15  C   UNK     1      -8.185  12.297  66.933  1.00  0.00    -0.112 C  
HETATM   16  O   UNK     1      -7.531  10.448  65.570  1.00  0.00    -0.146 OA 
HETATM   17  C   UNK     1      -9.289   2.981  69.913  1.00  0.00    -0.221 A  
HETATM   18  H   UNK     1     -10.754   9.927  65.565  1.00  0.00     0.000 HD 
HETATM   19  O   UNK     1      -9.779   3.254  67.645  1.00  0.00    -0.265 OA 
HETATM   20  H   UNK     1      -9.139   7.070  72.464  1.00  0.00     0.000 HD 
HETATM   21  H   UNK     1      -9.789   2.313  67.520  1.00  0.00     0.000 HD 
HETATM   22  C   UNK     1      -9.044   3.490  71.181  1.00  0.00    -0.177 A  
HETATM   23  C   UNK     1      -9.435  12.712  67.248  1.00  0.00    -0.199 C  
HETATM   24  C   UNK     1     -10.087  12.028  68.530  1.00  0.00    -0.196 C  
HETATM   25  C   UNK     1     -11.141   7.350  70.958  1.00  0.00    -0.277 C  
HETATM   26  O   UNK     1      -8.877   7.645  71.754  1.00  0.00    -0.113 OA 
HETATM   27  O   UNK     1     -10.343  12.985  66.219  1.00  0.00    -0.274 OA 
HETATM   28  C   UNK     1      -9.083   4.869  71.390  1.00  0.00    -0.177 A  
HETATM   29  C   UNK     1      -9.642   7.228  70.613  1.00  0.00    -0.172 C  
HETATM   30  C   UNK     1      -9.347   5.768  70.331  1.00  0.00    -0.186 A  
HETATM   31  H   UNK     1     -11.220  13.276  66.440  1.00  0.00     0.000 HD 
ENDROOT
BRANCH  15  32
HETATM   32  C   UNK     1      -7.249  12.792  68.017  1.00  0.00    -0.115 C  
HETATM   33  H   UNK     1      -8.207  14.613  68.408  1.00  0.00     0.000 HD 
HETATM   34  O   UNK     1      -6.309  12.077  68.382  1.00  0.00    -0.050 OA 
HETATM   35  N   UNK     1      -7.415  14.009  68.628  1.00  0.00    -0.121 N  
BRANCH  35  36
HETATM   36  C   UNK     1      -6.415  14.397  69.596  1.00  0.00    -0.145 C  
BRANCH  36  37
HETATM   37  N   UNK     1      -5.361  15.091  68.885  1.00  0.00    -0.094 NA 
HETATM   38  H   UNK     1      -4.947  14.514  68.153  1.00  0.00     0.000 HD 
BRANCH  37  39
HETATM   39  C   UNK     1      -5.873  16.371  68.359  1.00  0.00    -0.109 C  
BRANCH  39  40
HETATM   40  C   UNK     1      -7.057  16.915  69.177  1.00  0.00    -0.224 C  
BRANCH  40  41
HETATM   41  C   UNK     1      -7.792  18.076  68.498  1.00  0.00    -0.310 C  
BRANCH  41  42
HETATM   42  C   UNK     1      -8.356  17.670  67.124  1.00  0.00    -0.233 C  
BRANCH  42  43
HETATM   43  C   UNK     1      -9.885  17.525  67.079  1.00  0.00    -0.295 C  
HETATM   44  C   UNK     1     -10.502  18.520  66.085  1.00  0.00    -0.413 C  
HETATM   45  N   UNK     1     -10.301  16.145  66.696  1.00  0.00    -0.291 NA 
HETATM   46  O   UNK     1     -10.666  19.711  66.291  1.00  0.00    -0.460 OA 
HETATM   47  O   UNK     1     -10.831  17.905  64.918  1.00  0.00    -0.768 OA 
HETATM   48  H2  UNK     1      -9.880  15.447  67.309  1.00  0.00     0.000 HD 
HETATM   49  H1  UNK     1     -11.316  16.049  66.666  1.00  0.00     0.000 HD 
ENDBRANCH  42  43
ENDBRANCH  41  42
ENDBRANCH  40  41
ENDBRANCH  39  40
ENDBRANCH  37  39
ENDBRANCH  36  37
ENDBRANCH  35  36
ENDBRANCH  15  32
BRANCH  24  50
HETATM   50  N   UNK     1     -11.540  12.318  68.552  1.00  0.00    -0.289 NA 
HETATM   51  C   UNK     1     -12.398  11.432  69.308  1.00  0.00    -0.082 C  
HETATM   52  C   UNK     1     -11.784  13.712  68.945  1.00  0.00    -0.338 C  
ENDBRANCH  24  50
TORSDOF 9
ENDMDL
MODEL       41
REMARK 921   NORMALIZED FREE ENERGY PREDICTED BY IDOCK:   -5.52 KCAL/MOL
REMARK 922        TOTAL FREE ENERGY PREDICTED BY IDOCK:   -9.82 KCAL/MOL
REMARK 923 INTER-LIGAND FREE ENERGY PREDICTED BY IDOCK:   -9.13 KCAL/MOL
REMARK 924 INTRA-LIGAND FREE ENERGY PREDICTED BY IDOCK:   -0.70 KCAL/MOL
REMARK 927      BINDING AFFINITY PREDICTED BY RF-SCORE:    0.00 PKD
ROOT
HETATM    1  C   UNK     1      -8.671  12.262  67.918  1.00  0.00    -0.177 C  
HETATM    2  C   UNK     1      -9.658  13.381  67.637  1.00  0.00    -0.219 C  
HETATM    3  C   UNK     1      -8.969  14.718  67.232  1.00  0.00    -0.210 C  
HETATM    4  C   UNK     1      -7.894  15.091  68.226  1.00  0.00    -0.119 C  
HETATM    5  C   UNK     1      -7.717  16.543  68.583  1.00  0.00    -0.216 C  
HETATM    6  C   UNK     1      -7.149  14.149  68.829  1.00  0.00    -0.107 C  
HETATM    7  O   UNK     1      -6.227  14.467  69.837  1.00  0.00    -0.127 OA 
HETATM    8  C   UNK     1      -7.426  12.646  68.753  1.00  0.00    -0.044 C  
HETATM    9  C   UNK     1      -8.444  17.580  67.810  1.00  0.00    -0.225 A  
HETATM   10  O   UNK     1      -6.975  16.887  69.504  1.00  0.00    -0.215 OA 
HETATM   11  C   UNK     1      -8.133  18.940  67.974  1.00  0.00    -0.292 A  
HETATM   12  O   UNK     1      -7.657  12.340  70.134  1.00  0.00     0.686 OA 
HETATM   13  C   UNK     1      -6.326  11.666  68.095  1.00  0.00    -0.050 C  
HETATM   14  H   UNK     1      -5.701  13.801  70.264  1.00  0.00     0.000 HD 
HETATM   15  C   UNK     1      -6.837  10.282  67.675  1.00  0.00    -0.075 C  
HETATM   16  O   UNK     1      -5.132  11.928  67.974  1.00  0.00    -0.045 OA 
HETATM   17  C   UNK     1      -8.764  19.924  67.211  1.00  0.00    -0.399 A  
HETATM   18  H   UNK     1      -6.893  12.575  70.646  1.00  0.00     0.000 HD 
HETATM   19  O   UNK     1      -7.228  19.403  68.892  1.00  0.00    -0.337 OA 
HETATM   20  H   UNK     1     -11.252  16.164  65.499  1.00  0.00     0.000 HD 
HETATM   21  H   UNK     1      -7.018  20.322  69.004  1.00  0.00     0.000 HD 
HETATM   22  C   UNK     1      -9.720  19.559  66.272  1.00  0.00    -0.481 A  
HETATM   23  C   UNK     1      -7.853   9.959  68.510  1.00  0.00    -0.081 C  
HETATM   24  C   UNK     1      -9.184  10.817  68.342  1.00  0.00    -0.164 C  
HETATM   25  C   UNK     1     -11.195  15.789  67.991  1.00  0.00    -0.338 C  
HETATM   26  O   UNK     1     -10.594  15.498  65.666  1.00  0.00    -0.327 OA 
HETATM   27  O   UNK     1      -7.563   9.602  69.832  1.00  0.00    -0.101 OA 
HETATM   28  C   UNK     1     -10.078  18.218  66.138  1.00  0.00    -0.354 A  
HETATM   29  C   UNK     1     -10.048  15.807  66.958  1.00  0.00    -0.261 C  
HETATM   30  C   UNK     1      -9.475  17.211  66.925  1.00  0.00    -0.267 A  
HETATM   31  H   UNK     1      -8.275   9.376  70.418  1.00  0.00     0.000 HD 
ENDROOT
BRANCH  15  32
HETATM   32  C   UNK     1      -7.248   9.882  66.273  1.00  0.00    -0.102 C  
HETATM   33  H   UNK     1      -8.115   8.036  66.749  1.00  0.00     0.000 HD 
HETATM   34  O   UNK     1      -7.039  10.658  65.334  1.00  0.00    -0.108 OA 
HETATM   35  N   UNK     1      -7.865   8.686  66.005  1.00  0.00    -0.099 N  
BRANCH  35  36
HETATM   36  C   UNK     1      -8.144   8.391  64.617  1.00  0.00    -0.156 C  
BRANCH  36  37
HETATM   37  N   UNK     1      -9.187   9.294  64.178  1.00  0.00    -0.412 NA 
HETATM   38  H   UNK     1      -9.269  10.110  64.785  1.00  0.00     0.000 HD 
BRANCH  37  39
HETATM   39  C   UNK     1      -8.961   9.671  62.770  1.00  0.00    -0.252 C  
BRANCH  39  40
HETATM   40  C   UNK     1      -8.914  11.195  62.566  1.00  0.00    -0.347 C  
BRANCH  40  41
HETATM   41  C   UNK     1     -10.215  11.908  62.952  1.00  0.00     0.023 C  
BRANCH  41  42
HETATM   42  C   UNK     1     -10.194  12.381  64.416  1.00  0.00    -0.342 C  
BRANCH  42  43
HETATM   43  C   UNK     1     -11.576  12.716  64.998  1.00  0.00    -0.345 C  
HETATM   44  C   UNK     1     -12.586  13.014  63.879  1.00  0.00    -0.206 C  
HETATM   45  N   UNK     1     -12.109  11.606  65.840  1.00  0.00    -0.098 NA 
HETATM   46  O   UNK     1     -12.649  14.056  63.247  1.00  0.00    -0.801 OA 
HETATM   47  O   UNK     1     -13.403  11.950  63.661  1.00  0.00    -0.620 OA 
HETATM   48  H2  UNK     1     -11.450  11.348  66.574  1.00  0.00     0.000 HD 
HETATM   49  H1  UNK     1     -13.026  11.829  66.227  1.00  0.00     0.000 HD 
ENDBRANCH  42  43
ENDBRANCH  41  42
ENDBRANCH  40  41
ENDBRANCH  39  40
ENDBRANCH  37  39
ENDBRANCH  36  37
ENDBRANCH  35  36
ENDBRANCH  15  32
BRANCH  24  50
HETATM   50  N   UNK     1     -10.061  10.590  69.514  1.00  0.00    -0.210 NA 
HETATM   51  C   UNK     1     -11.297  11.339  69.593  1.00  0.00    -0.287 C  
HETATM   52  C   UNK     1     -10.328   9.157  69.693  1.00  0.00    -0.219 C  
ENDBRANCH  24  50
TORSDOF 9
ENDMDL
MODEL       42
REMARK 921   NORMALIZED FREE ENERGY PREDICTED BY IDOCK:   -5.49 KCAL/MOL
REMARK 922        TOTAL FREE ENERGY PREDICTED BY IDOCK:   -9.77 KCAL/MOL
REMARK 923 INTER-LIGAND FREE ENERGY PREDICTED BY IDOCK:   -8.90 KCAL/MOL
REMARK 924 INTRA-LIGAND FREE ENERGY PREDICTED BY IDOCK:   -0.87 KCAL/MOL
REMARK 927      BINDING AFFINITY PREDICTED BY RF-SCORE:    0.00 PKD
ROOT
HETATM    1  C   UNK     1      -8.178   7.937  66.217  1.00  0.00    -0.117 C  
HETATM    2  C   UNK     1      -8.958   7.130  67.239  1.00  0.00    -0.123 C  
HETATM    3  C   UNK     1      -9.105   7.854  68.609  1.00  0.00    -0.136 C  
HETATM    4  C   UNK     1      -7.763   8.335  69.110  1.00  0.00    -0.097 C  
HETATM    5  C   UNK     1      -7.473   8.251  70.585  1.00  0.00    -0.062 C  
HETATM    6  C   UNK     1      -6.819   8.771  68.258  1.00  0.00    -0.066 C  
HETATM    7  O   UNK     1      -5.530   9.112  68.692  1.00  0.00    -0.040 OA 
HETATM    8  C   UNK     1      -6.901   8.640  66.736  1.00  0.00    -0.069 C  
HETATM    9  C   UNK     1      -8.567   7.903  71.526  1.00  0.00    -0.144 A  
HETATM   10  O   UNK     1      -6.344   8.471  71.027  1.00  0.00    -0.037 OA 
HETATM   11  C   UNK     1      -8.381   8.032  72.913  1.00  0.00    -0.172 A  
HETATM   12  O   UNK     1      -5.756   7.820  66.469  1.00  0.00    -0.037 OA 
HETATM   13  C   UNK     1      -6.914   9.970  65.822  1.00  0.00    -0.112 C  
HETATM   14  H   UNK     1      -4.863   9.419  68.089  1.00  0.00     0.000 HD 
HETATM   15  C   UNK     1      -7.416   9.783  64.385  1.00  0.00    -0.132 C  
HETATM   16  O   UNK     1      -6.501  11.071  66.175  1.00  0.00    -0.128 OA 
HETATM   17  C   UNK     1      -9.417   7.767  73.810  1.00  0.00    -0.241 A  
HETATM   18  H   UNK     1      -4.972   8.252  66.788  1.00  0.00     0.000 HD 
HETATM   19  O   UNK     1      -7.189   8.391  73.486  1.00  0.00    -0.206 OA 
HETATM   20  H   UNK     1     -11.786   6.542  69.791  1.00  0.00     0.000 HD 
HETATM   21  H   UNK     1      -7.064   8.477  74.424  1.00  0.00     0.000 HD 
HETATM   22  C   UNK     1     -10.658   7.367  73.329  1.00  0.00    -0.442 A  
HETATM   23  C   UNK     1      -7.110   8.516  64.015  1.00  0.00    -0.090 C  
HETATM   24  C   UNK     1      -7.926   7.365  64.753  1.00  0.00    -0.127 C  
HETATM   25  C   UNK     1      -9.518   5.474  69.526  1.00  0.00    -0.185 C  
HETATM   26  O   UNK     1     -11.290   7.085  69.189  1.00  0.00    -0.088 OA 
HETATM   27  O   UNK     1      -5.778   8.189  63.739  1.00  0.00    -0.059 OA 
HETATM   28  C   UNK     1     -10.839   7.182  71.959  1.00  0.00    -0.252 A  
HETATM   29  C   UNK     1      -9.918   6.963  69.595  1.00  0.00    -0.171 C  
HETATM   30  C   UNK     1      -9.792   7.412  71.038  1.00  0.00    -0.179 A  
HETATM   31  H   UNK     1      -5.564   7.300  63.479  1.00  0.00     0.000 HD 
ENDROOT
BRANCH  15  32
HETATM   32  C   UNK     1      -8.819  10.079  63.894  1.00  0.00    -0.229 C  
HETATM   33  H   UNK     1      -9.410  11.327  65.468  1.00  0.00     0.000 HD 
HETATM   34  O   UNK     1      -9.196   9.611  62.814  1.00  0.00    -0.271 OA 
HETATM   35  N   UNK     1      -9.690  10.868  64.602  1.00  0.00    -0.256 N  
BRANCH  35  36
HETATM   36  C   UNK     1     -11.023  11.017  64.062  1.00  0.00    -0.046 C  
BRANCH  36  37
HETATM   37  N   UNK     1     -11.007  12.152  63.162  1.00  0.00    -0.681 NA 
HETATM   38  H   UNK     1     -11.031  11.865  62.183  1.00  0.00     0.000 HD 
BRANCH  37  39
HETATM   39  C   UNK     1     -12.110  13.071  63.498  1.00  0.00    -0.542 C  
BRANCH  39  40
HETATM   40  C   UNK     1     -12.645  12.857  64.925  1.00  0.00    -0.525 C  
BRANCH  40  41
HETATM   41  C   UNK     1     -12.454  14.070  65.842  1.00  0.00    -0.513 C  
BRANCH  41  42
HETATM   42  C   UNK     1     -11.175  14.852  65.496  1.00  0.00    -0.348 C  
BRANCH  42  43
HETATM   43  C   UNK     1     -10.443  15.448  66.709  1.00  0.00    -0.299 C  
HETATM   44  C   UNK     1      -9.953  16.873  66.409  1.00  0.00    -0.309 C  
HETATM   45  N   UNK     1     -11.314  15.486  67.920  1.00  0.00    -0.330 NA 
HETATM   46  O   UNK     1      -8.974  17.153  65.737  1.00  0.00    -0.523 OA 
HETATM   47  O   UNK     1     -10.769  17.800  66.977  1.00  0.00    -0.301 OA 
HETATM   48  H2  UNK     1     -11.694  14.565  68.132  1.00  0.00     0.000 HD 
HETATM   49  H1  UNK     1     -10.828  15.882  68.725  1.00  0.00     0.000 HD 
ENDBRANCH  42  43
ENDBRANCH  41  42
ENDBRANCH  40  41
ENDBRANCH  39  40
ENDBRANCH  37  39
ENDBRANCH  36  37
ENDBRANCH  35  36
ENDBRANCH  15  32
BRANCH  24  50
HETATM   50  N   UNK     1      -7.265   6.062  64.505  1.00  0.00    -0.060 NA 
HETATM   51  C   UNK     1      -7.299   5.072  65.559  1.00  0.00    -0.073 C  
HETATM   52  C   UNK     1      -7.736   5.474  63.245  1.00  0.00    -0.084 C  
ENDBRANCH  24  50
TORSDOF 9
ENDMDL
MODEL       43
REMARK 921   NORMALIZED FREE ENERGY PREDICTED BY IDOCK:   -5.45 KCAL/MOL
REMARK 922        TOTAL FREE ENERGY PREDICTED BY IDOCK:   -9.71 KCAL/MOL
REMARK 923 INTER-LIGAND FREE ENERGY PREDICTED BY IDOCK:   -8.98 KCAL/MOL
REMARK 924 INTRA-LIGAND FREE ENERGY PREDICTED BY IDOCK:   -0.73 KCAL/MOL
REMARK 927      BINDING AFFINITY PREDICTED BY RF-SCORE:    0.00 PKD
ROOT
HETATM    1  C   UNK     1      -9.923  12.663  67.718  1.00  0.00    -0.218 C  
HETATM    2  C   UNK     1      -9.147  11.541  68.384  1.00  0.00    -0.185 C  
HETATM    3  C   UNK     1      -8.197  10.789  67.406  1.00  0.00    -0.116 C  
HETATM    4  C   UNK     1      -8.937  10.360  66.160  1.00  0.00    -0.175 C  
HETATM    5  C   UNK     1      -8.604   9.026  65.549  1.00  0.00    -0.168 C  
HETATM    6  C   UNK     1      -9.916  11.119  65.639  1.00  0.00    -0.249 C  
HETATM    7  O   UNK     1     -10.691  10.685  64.553  1.00  0.00    -0.264 OA 
HETATM    8  C   UNK     1     -10.521  12.345  66.327  1.00  0.00    -0.245 C  
HETATM    9  C   UNK     1      -7.430   8.266  66.047  1.00  0.00    -0.077 A  
HETATM   10  O   UNK     1      -9.285   8.554  64.637  1.00  0.00     0.251 OA 
HETATM   11  C   UNK     1      -6.969   7.133  65.355  1.00  0.00    -0.056 A  
HETATM   12  O   UNK     1     -11.886  11.933  66.470  1.00  0.00    -0.579 OA 
HETATM   13  C   UNK     1     -10.400  13.793  65.625  1.00  0.00    -0.311 C  
HETATM   14  H   UNK     1     -11.383  11.222  64.185  1.00  0.00     0.000 HD 
HETATM   15  C   UNK     1     -10.639  14.997  66.544  1.00  0.00    -0.305 C  
HETATM   16  O   UNK     1     -10.198  13.981  64.428  1.00  0.00    -0.310 OA 
HETATM   17  C   UNK     1      -5.831   6.442  65.775  1.00  0.00    -0.025 A  
HETATM   18  H   UNK     1     -12.253  11.738  65.616  1.00  0.00     0.000 HD 
HETATM   19  O   UNK     1      -7.598   6.611  64.256  1.00  0.00    -0.089 OA 
HETATM   20  H   UNK     1      -5.950   9.635  69.388  1.00  0.00     0.000 HD 
HETATM   21  H   UNK     1      -7.287   5.844  63.789  1.00  0.00     0.000 HD 
HETATM   22  C   UNK     1      -5.138   6.876  66.898  1.00  0.00    -0.013 A  
HETATM   23  C   UNK     1     -11.509  14.603  67.504  1.00  0.00    -0.361 C  
HETATM   24  C   UNK     1     -10.944  13.550  68.557  1.00  0.00    -0.267 C  
HETATM   25  C   UNK     1      -8.344   8.883  69.144  1.00  0.00    -0.124 C  
HETATM   26  O   UNK     1      -6.414  10.324  68.924  1.00  0.00    -0.050 OA 
HETATM   27  O   UNK     1     -12.855  14.415  67.171  1.00  0.00    -0.242 OA 
HETATM   28  C   UNK     1      -5.617   7.965  67.626  1.00  0.00    -0.037 A  
HETATM   29  C   UNK     1      -7.437   9.661  68.167  1.00  0.00    -0.082 C  
HETATM   30  C   UNK     1      -6.787   8.656  67.236  1.00  0.00    -0.067 A  
HETATM   31  H   UNK     1     -13.465  14.139  67.844  1.00  0.00     0.000 HD 
ENDROOT
BRANCH  15  32
HETATM   32  C   UNK     1      -9.561  15.826  67.212  1.00  0.00    -0.217 C  
HETATM   33  H   UNK     1      -7.966  15.262  65.977  1.00  0.00     0.000 HD 
HETATM   34  O   UNK     1      -9.859  16.560  68.160  1.00  0.00    -0.235 OA 
HETATM   35  N   UNK     1      -8.255  15.804  66.791  1.00  0.00    -0.249 N  
BRANCH  35  36
HETATM   36  C   UNK     1      -7.309  16.584  67.555  1.00  0.00    -0.142 C  
BRANCH  36  37
HETATM   37  N   UNK     1      -5.984  16.281  67.054  1.00  0.00    -0.329 NA 
HETATM   38  H   UNK     1      -5.999  15.535  66.359  1.00  0.00     0.000 HD 
BRANCH  37  39
HETATM   39  C   UNK     1      -5.352  17.509  66.536  1.00  0.00    -0.188 C  
BRANCH  39  40
HETATM   40  C   UNK     1      -6.279  18.299  65.595  1.00  0.00    -0.292 C  
BRANCH  40  41
HETATM   41  C   UNK     1      -6.539  19.739  66.052  1.00  0.00    -0.242 C  
BRANCH  41  42
HETATM   42  C   UNK     1      -7.985  20.178  65.764  1.00  0.00    -0.124 C  
BRANCH  42  43
HETATM   43  C   UNK     1      -9.055  19.408  66.553  1.00  0.00    -0.356 C  
HETATM   44  C   UNK     1      -9.095  19.867  68.019  1.00  0.00    -0.299 C  
HETATM   45  N   UNK     1     -10.414  19.580  65.961  1.00  0.00    -0.511 NA 
HETATM   46  O   UNK     1      -8.292  19.545  68.879  1.00  0.00    -0.360 OA 
HETATM   47  O   UNK     1     -10.139  20.709  68.240  1.00  0.00    -0.155 OA 
HETATM   48  H2  UNK     1     -10.424  19.323  64.975  1.00  0.00     0.000 HD 
HETATM   49  H1  UNK     1     -11.124  19.069  66.485  1.00  0.00     0.000 HD 
ENDBRANCH  42  43
ENDBRANCH  41  42
ENDBRANCH  40  41
ENDBRANCH  39  40
ENDBRANCH  37  39
ENDBRANCH  36  37
ENDBRANCH  35  36
ENDBRANCH  15  32
BRANCH  24  50
HETATM   50  N   UNK     1     -12.074  12.968  69.319  1.00  0.00    -0.249 NA 
HETATM   51  C   UNK     1     -11.943  11.607  69.794  1.00  0.00    -0.332 C  
HETATM   52  C   UNK     1     -12.465  13.852  70.424  1.00  0.00    -0.334 C  
ENDBRANCH  24  50
TORSDOF 9
ENDMDL
MODEL       44
REMARK 921   NORMALIZED FREE ENERGY PREDICTED BY IDOCK:   -5.38 KCAL/MOL
REMARK 922        TOTAL FREE ENERGY PREDICTED BY IDOCK:   -9.60 KCAL/MOL
REMARK 923 INTER-LIGAND FREE ENERGY PREDICTED BY IDOCK:  -10.29 KCAL/MOL
REMARK 924 INTRA-LIGAND FREE ENERGY PREDICTED BY IDOCK:    0.70 KCAL/MOL
REMARK 927      BINDING AFFINITY PREDICTED BY RF-SCORE:    0.00 PKD
ROOT
HETATM    1  C   UNK     1      -9.224   7.939  69.484  1.00  0.00    -0.152 C  
HETATM    2  C   UNK     1      -8.469   7.655  68.198  1.00  0.00    -0.124 C  
HETATM    3  C   UNK     1      -9.172   6.600  67.294  1.00  0.00    -0.129 C  
HETATM    4  C   UNK     1      -9.514   5.358  68.084  1.00  0.00    -0.142 C  
HETATM    5  C   UNK     1      -9.370   4.017  67.416  1.00  0.00    -0.183 C  
HETATM    6  C   UNK     1      -9.881   5.436  69.376  1.00  0.00    -0.184 C  
HETATM    7  O   UNK     1     -10.090   4.290  70.156  1.00  0.00    -0.194 OA 
HETATM    8  C   UNK     1      -9.793   6.705  70.225  1.00  0.00    -0.174 C  
HETATM    9  C   UNK     1      -9.104   3.953  65.957  1.00  0.00    -0.148 A  
HETATM   10  O   UNK     1      -9.474   2.970  68.057  1.00  0.00    -0.204 OA 
HETATM   11  C   UNK     1      -9.182   2.728  65.272  1.00  0.00    -0.130 A  
HETATM   12  O   UNK     1      -8.877   6.289  71.246  1.00  0.00    -0.138 OA 
HETATM   13  C   UNK     1     -11.139   7.341  70.848  1.00  0.00    -0.261 C  
HETATM   14  H   UNK     1     -10.349   4.345  71.069  1.00  0.00     0.000 HD 
HETATM   15  C   UNK     1     -11.032   8.800  71.309  1.00  0.00    -0.345 C  
HETATM   16  O   UNK     1     -12.189   6.729  71.028  1.00  0.00    -0.377 OA 
HETATM   17  C   UNK     1      -8.995   2.659  63.891  1.00  0.00    -0.099 A  
HETATM   18  H   UNK     1      -9.227   5.532  71.701  1.00  0.00     0.000 HD 
HETATM   19  O   UNK     1      -9.416   1.529  65.892  1.00  0.00    -0.328 OA 
HETATM   20  H   UNK     1      -8.087   7.371  64.373  1.00  0.00     0.000 HD 
HETATM   21  H   UNK     1      -9.469   0.701  65.429  1.00  0.00     0.000 HD 
HETATM   22  C   UNK     1      -8.723   3.817  63.174  1.00  0.00    -0.097 A  
HETATM   23  C   UNK     1      -9.752   9.004  71.700  1.00  0.00    -0.276 C  
HETATM   24  C   UNK     1      -8.665   8.994  70.536  1.00  0.00    -0.207 C  
HETATM   25  C   UNK     1      -6.820   6.296  66.269  1.00  0.00    -0.061 C  
HETATM   26  O   UNK     1      -8.596   7.511  65.164  1.00  0.00    -0.082 OA 
HETATM   27  O   UNK     1      -9.309   8.447  72.905  1.00  0.00    -0.260 OA 
HETATM   28  C   UNK     1      -8.586   5.030  63.849  1.00  0.00    -0.113 A  
HETATM   29  C   UNK     1      -8.338   6.372  65.999  1.00  0.00    -0.132 C  
HETATM   30  C   UNK     1      -8.740   5.114  65.252  1.00  0.00    -0.150 A  
HETATM   31  H   UNK     1      -8.411   8.590  73.179  1.00  0.00     0.000 HD 
ENDROOT
BRANCH  15  32
HETATM   32  C   UNK     1     -11.469  10.012  70.512  1.00  0.00    -0.330 C  
HETATM   33  H   UNK     1     -10.631   9.457  68.674  1.00  0.00     0.000 HD 
HETATM   34  O   UNK     1     -12.154  10.884  71.058  1.00  0.00    -0.338 OA 
HETATM   35  N   UNK     1     -11.143  10.173  69.189  1.00  0.00    -0.224 N  
BRANCH  35  36
HETATM   36  C   UNK     1     -11.559  11.406  68.559  1.00  0.00    -0.318 C  
BRANCH  36  37
HETATM   37  N   UNK     1     -10.985  12.501  69.314  1.00  0.00    -0.441 NA 
HETATM   38  H   UNK     1     -10.507  12.177  70.155  1.00  0.00     0.000 HD 
BRANCH  37  39
HETATM   39  C   UNK     1     -10.100  13.298  68.444  1.00  0.00    -0.237 C  
BRANCH  39  40
HETATM   40  C   UNK     1     -10.167  14.804  68.753  1.00  0.00    -0.239 C  
BRANCH  40  41
HETATM   41  C   UNK     1     -11.186  15.563  67.895  1.00  0.00    -0.325 C  
BRANCH  41  42
HETATM   42  C   UNK     1     -11.829  14.653  66.834  1.00  0.00    -0.345 C  
BRANCH  42  43
HETATM   43  C   UNK     1     -11.184  14.742  65.442  1.00  0.00    -0.347 C  
HETATM   44  C   UNK     1     -12.255  14.763  64.340  1.00  0.00    -0.428 C  
HETATM   45  N   UNK     1     -10.329  15.956  65.301  1.00  0.00    -0.493 NA 
HETATM   46  O   UNK     1     -12.874  13.790  63.942  1.00  0.00    -0.531 OA 
HETATM   47  O   UNK     1     -12.447  16.023  63.869  1.00  0.00    -0.806 OA 
HETATM   48  H2  UNK     1      -9.627  16.003  66.040  1.00  0.00     0.000 HD 
HETATM   49  H1  UNK     1      -9.901  16.014  64.377  1.00  0.00     0.000 HD 
ENDBRANCH  42  43
ENDBRANCH  41  42
ENDBRANCH  40  41
ENDBRANCH  39  40
ENDBRANCH  37  39
ENDBRANCH  36  37
ENDBRANCH  35  36
ENDBRANCH  15  32
BRANCH  24  50
HETATM   50  N   UNK     1      -7.312   8.890  71.133  1.00  0.00    -0.100 NA 
HETATM   51  C   UNK     1      -6.546   7.690  70.875  1.00  0.00    -0.038 C  
HETATM   52  C   UNK     1      -6.512  10.078  70.813  1.00  0.00    -0.058 C  
ENDBRANCH  24  50
TORSDOF 9
ENDMDL
MODEL       45
REMARK 921   NORMALIZED FREE ENERGY PREDICTED BY IDOCK:   -5.37 KCAL/MOL
REMARK 922        TOTAL FREE ENERGY PREDICTED BY IDOCK:   -9.59 KCAL/MOL
REMARK 923 INTER-LIGAND FREE ENERGY PREDICTED BY IDOCK:   -8.58 KCAL/MOL
REMARK 924 INTRA-LIGAND FREE ENERGY PREDICTED BY IDOCK:   -1.01 KCAL/MOL
REMARK 927      BINDING AFFINITY PREDICTED BY RF-SCORE:    0.00 PKD
ROOT
HETATM    1  C   UNK     1     -10.127  10.941  66.839  1.00  0.00    -0.253 C  
HETATM    2  C   UNK     1     -10.450   9.459  66.880  1.00  0.00    -0.281 C  
HETATM    3  C   UNK     1      -9.611   8.678  67.935  1.00  0.00    -0.173 C  
HETATM    4  C   UNK     1      -8.137   8.976  67.777  1.00  0.00    -0.109 C  
HETATM    5  C   UNK     1      -7.151   7.857  67.983  1.00  0.00    -0.085 C  
HETATM    6  C   UNK     1      -7.712  10.194  67.400  1.00  0.00    -0.095 C  
HETATM    7  O   UNK     1      -6.360  10.457  67.137  1.00  0.00    -0.064 OA 
HETATM    8  C   UNK     1      -8.626  11.314  66.900  1.00  0.00    -0.150 C  
HETATM    9  C   UNK     1      -7.620   6.562  68.534  1.00  0.00    -0.097 A  
HETATM   10  O   UNK     1      -5.959   8.000  67.707  1.00  0.00    -0.043 OA 
HETATM   11  C   UNK     1      -6.695   5.584  68.940  1.00  0.00    -0.053 A  
HETATM   12  O   UNK     1      -8.123  11.507  65.572  1.00  0.00    -0.340 OA 
HETATM   13  C   UNK     1      -8.708  12.701  67.719  1.00  0.00    -0.179 C  
HETATM   14  H   UNK     1      -6.059  11.318  66.870  1.00  0.00     0.000 HD 
HETATM   15  C   UNK     1      -9.926  13.582  67.414  1.00  0.00    -0.234 C  
HETATM   16  O   UNK     1      -7.851  13.111  68.498  1.00  0.00    -0.134 OA 
HETATM   17  C   UNK     1      -7.117   4.385  69.516  1.00  0.00    -0.050 A  
HETATM   18  H   UNK     1      -7.202  11.735  65.609  1.00  0.00     0.000 HD 
HETATM   19  O   UNK     1      -5.341   5.713  68.782  1.00  0.00     0.000 OA 
HETATM   20  H   UNK     1     -11.502   6.169  68.591  1.00  0.00     0.000 HD 
HETATM   21  H   UNK     1      -4.716   5.052  69.056  1.00  0.00     0.000 HD 
HETATM   22  C   UNK     1      -8.474   4.146  69.693  1.00  0.00    -0.086 A  
HETATM   23  C   UNK     1     -10.277  13.349  66.126  1.00  0.00    -0.301 C  
HETATM   24  C   UNK     1     -10.886  11.908  65.828  1.00  0.00    -0.295 C  
HETATM   25  C   UNK     1     -10.190   6.619  66.486  1.00  0.00    -0.129 C  
HETATM   26  O   UNK     1     -11.262   7.089  68.603  1.00  0.00    -0.070 OA 
HETATM   27  O   UNK     1      -9.477  13.859  65.098  1.00  0.00    -0.481 OA 
HETATM   28  C   UNK     1      -9.403   5.083  69.243  1.00  0.00    -0.178 A  
HETATM   29  C   UNK     1     -10.004   7.171  67.915  1.00  0.00    -0.154 C  
HETATM   30  C   UNK     1      -8.997   6.288  68.627  1.00  0.00    -0.127 A  
HETATM   31  H   UNK     1      -9.724  13.695  64.195  1.00  0.00     0.000 HD 
ENDROOT
BRANCH  15  32
HETATM   32  C   UNK     1     -11.198  13.643  68.234  1.00  0.00    -0.273 C  
HETATM   33  H   UNK     1     -10.369  13.115  70.083  1.00  0.00     0.000 HD 
HETATM   34  O   UNK     1     -12.255  13.986  67.691  1.00  0.00    -0.352 OA 
HETATM   35  N   UNK     1     -11.221  13.345  69.573  1.00  0.00    -0.173 N  
BRANCH  35  36
HETATM   36  C   UNK     1     -12.510  13.373  70.227  1.00  0.00    -0.215 C  
BRANCH  36  37
HETATM   37  N   UNK     1     -12.976  14.744  70.221  1.00  0.00    -0.588 NA 
HETATM   38  H   UNK     1     -13.992  14.804  70.145  1.00  0.00     0.000 HD 
BRANCH  37  39
HETATM   39  C   UNK     1     -12.467  15.450  71.412  1.00  0.00    -0.392 C  
BRANCH  39  40
HETATM   40  C   UNK     1     -11.112  16.135  71.159  1.00  0.00    -0.113 C  
BRANCH  40  41
HETATM   41  C   UNK     1     -10.965  16.703  69.743  1.00  0.00    -0.208 C  
BRANCH  41  42
HETATM   42  C   UNK     1      -9.492  16.762  69.301  1.00  0.00    -0.091 C  
BRANCH  42  43
HETATM   43  C   UNK     1      -9.219  17.694  68.110  1.00  0.00    -0.282 C  
HETATM   44  C   UNK     1      -8.554  16.930  66.955  1.00  0.00    -0.205 C  
HETATM   45  N   UNK     1     -10.470  18.331  67.605  1.00  0.00    -0.398 NA 
HETATM   46  O   UNK     1      -7.380  16.604  66.911  1.00  0.00    -0.178 OA 
HETATM   47  O   UNK     1      -9.455  16.638  65.979  1.00  0.00    -0.372 OA 
HETATM   48  H2  UNK     1     -10.966  18.818  68.352  1.00  0.00     0.000 HD 
HETATM   49  H1  UNK     1     -10.289  18.950  66.815  1.00  0.00     0.000 HD 
ENDBRANCH  42  43
ENDBRANCH  41  42
ENDBRANCH  40  41
ENDBRANCH  39  40
ENDBRANCH  37  39
ENDBRANCH  36  37
ENDBRANCH  35  36
ENDBRANCH  15  32
BRANCH  24  50
HETATM   50  N   UNK     1     -10.904  11.680  64.363  1.00  0.00    -0.322 NA 
HETATM   51  C   UNK     1     -10.345  10.444  63.861  1.00  0.00     0.184 C  
HETATM   52  C   UNK     1     -12.255  11.878  63.825  1.00  0.00    -0.444 C  
ENDBRANCH  24  50
TORSDOF 9
ENDMDL
MODEL       46
REMARK 921   NORMALIZED FREE ENERGY PREDICTED BY IDOCK:   -5.36 KCAL/MOL
REMARK 922        TOTAL FREE ENERGY PREDICTED BY IDOCK:   -9.57 KCAL/MOL
REMARK 923 INTER-LIGAND FREE ENERGY PREDICTED BY IDOCK:   -8.72 KCAL/MOL
REMARK 924 INTRA-LIGAND FREE ENERGY PREDICTED BY IDOCK:   -0.85 KCAL/MOL
REMARK 927      BINDING AFFINITY PREDICTED BY RF-SCORE:    0.00 PKD
ROOT
HETATM    1  C   UNK     1      -9.380   8.350  68.745  1.00  0.00    -0.143 C  
HETATM    2  C   UNK     1      -8.697   7.270  69.565  1.00  0.00    -0.134 C  
HETATM    3  C   UNK     1      -7.874   6.272  68.698  1.00  0.00    -0.102 C  
HETATM    4  C   UNK     1      -8.709   5.734  67.559  1.00  0.00    -0.107 C  
HETATM    5  C   UNK     1      -8.545   4.291  67.166  1.00  0.00    -0.104 C  
HETATM    6  C   UNK     1      -9.625   6.504  66.946  1.00  0.00    -0.158 C  
HETATM    7  O   UNK     1     -10.487   5.991  65.967  1.00  0.00    -0.434 OA 
HETATM    8  C   UNK     1     -10.068   7.883  67.440  1.00  0.00    -0.226 C  
HETATM    9  C   UNK     1      -7.437   3.495  67.750  1.00  0.00    -0.062 A  
HETATM   10  O   UNK     1      -9.311   3.758  66.361  1.00  0.00    -0.164 OA 
HETATM   11  C   UNK     1      -7.127   2.222  67.241  1.00  0.00    -0.048 A  
HETATM   12  O   UNK     1     -11.461   7.652  67.685  1.00  0.00    -0.095 OA 
HETATM   13  C   UNK     1      -9.826   9.178  66.509  1.00  0.00    -0.264 C  
HETATM   14  H   UNK     1     -11.135   6.535  65.534  1.00  0.00     0.000 HD 
HETATM   15  C   UNK     1      -9.898  10.532  67.224  1.00  0.00    -0.209 C  
HETATM   16  O   UNK     1      -9.659   9.149  65.292  1.00  0.00    -0.199 OA 
HETATM   17  C   UNK     1      -6.051   1.486  67.738  1.00  0.00    -0.024 A  
HETATM   18  H   UNK     1     -11.883   7.365  66.884  1.00  0.00     0.000 HD 
HETATM   19  O   UNK     1      -7.855   1.604  66.259  1.00  0.00    -0.068 OA 
HETATM   20  H   UNK     1      -5.677   5.208  70.783  1.00  0.00     0.000 HD 
HETATM   21  H   UNK     1      -7.646   0.744  65.915  1.00  0.00     0.000 HD 
HETATM   22  C   UNK     1      -5.268   2.014  68.757  1.00  0.00    -0.012 A  
HETATM   23  C   UNK     1     -10.761  10.395  68.259  1.00  0.00    -0.235 C  
HETATM   24  C   UNK     1     -10.264   9.468  69.455  1.00  0.00    -0.206 C  
HETATM   25  C   UNK     1      -8.144   4.695  70.727  1.00  0.00    -0.084 C  
HETATM   26  O   UNK     1      -6.085   5.861  70.225  1.00  0.00    -0.024 OA 
HETATM   27  O   UNK     1     -12.133  10.306  67.995  1.00  0.00    -0.438 OA 
HETATM   28  C   UNK     1      -5.598   3.251  69.309  1.00  0.00    -0.017 A  
HETATM   29  C   UNK     1      -7.205   5.203  69.613  1.00  0.00    -0.056 C  
HETATM   30  C   UNK     1      -6.704   3.996  68.842  1.00  0.00    -0.046 A  
HETATM   31  H   UNK     1     -12.738  10.210  68.721  1.00  0.00     0.000 HD 
ENDROOT
BRANCH  15  32
HETATM   32  C   UNK     1      -8.710  11.332  67.720  1.00  0.00    -0.134 C  
HETATM   33  H   UNK     1      -9.776  12.924  68.567  1.00  0.00     0.000 HD 
HETATM   34  O   UNK     1      -7.568  10.886  67.562  1.00  0.00    -0.097 OA 
HETATM   35  N   UNK     1      -8.855  12.538  68.357  1.00  0.00    -0.161 N  
BRANCH  35  36
HETATM   36  C   UNK     1      -7.642  13.237  68.719  1.00  0.00    -0.043 C  
BRANCH  36  37
HETATM   37  N   UNK     1      -8.023  14.427  69.452  1.00  0.00    -0.359 NA 
HETATM   38  H   UNK     1      -7.484  14.536  70.312  1.00  0.00     0.000 HD 
BRANCH  37  39
HETATM   39  C   UNK     1      -7.917  15.609  68.576  1.00  0.00    -0.138 C  
BRANCH  39  40
HETATM   40  C   UNK     1      -9.290  16.198  68.209  1.00  0.00    -0.205 C  
BRANCH  40  41
HETATM   41  C   UNK     1      -9.592  16.163  66.707  1.00  0.00    -0.256 C  
BRANCH  41  42
HETATM   42  C   UNK     1      -9.971  14.749  66.233  1.00  0.00    -0.308 C  
BRANCH  42  43
HETATM   43  C   UNK     1     -10.651  14.698  64.856  1.00  0.00    -0.422 C  
HETATM   44  C   UNK     1     -11.717  13.592  64.810  1.00  0.00    -0.370 C  
HETATM   45  N   UNK     1     -11.295  15.997  64.505  1.00  0.00    -0.711 NA 
HETATM   46  O   UNK     1     -11.489  12.399  64.692  1.00  0.00    -0.311 OA 
HETATM   47  O   UNK     1     -12.967  14.111  64.941  1.00  0.00    -0.705 OA 
HETATM   48  H2  UNK     1     -10.630  16.768  64.562  1.00  0.00     0.000 HD 
HETATM   49  H1  UNK     1     -11.746  15.963  63.591  1.00  0.00     0.000 HD 
ENDBRANCH  42  43
ENDBRANCH  41  42
ENDBRANCH  40  41
ENDBRANCH  39  40
ENDBRANCH  37  39
ENDBRANCH  36  37
ENDBRANCH  35  36
ENDBRANCH  15  32
BRANCH  24  50
HETATM   50  N   UNK     1     -11.414   9.143  70.330  1.00  0.00    -0.235 NA 
HETATM   51  C   UNK     1     -11.341   7.939  71.129  1.00  0.00    -0.266 C  
HETATM   52  C   UNK     1     -11.760  10.290  71.179  1.00  0.00    -0.341 C  
ENDBRANCH  24  50
TORSDOF 9
ENDMDL
MODEL       47
REMARK 921   NORMALIZED FREE ENERGY PREDICTED BY IDOCK:   -5.34 KCAL/MOL
REMARK 922        TOTAL FREE ENERGY PREDICTED BY IDOCK:   -9.55 KCAL/MOL
REMARK 923 INTER-LIGAND FREE ENERGY PREDICTED BY IDOCK:   -9.68 KCAL/MOL
REMARK 924 INTRA-LIGAND FREE ENERGY PREDICTED BY IDOCK:    0.13 KCAL/MOL
REMARK 927      BINDING AFFINITY PREDICTED BY RF-SCORE:    0.00 PKD
ROOT
HETATM    1  C   UNK     1      -8.517  10.975  68.533  1.00  0.00    -0.153 C  
HETATM    2  C   UNK     1      -9.506   9.850  68.780  1.00  0.00    -0.157 C  
HETATM    3  C   UNK     1      -9.473   9.315  70.242  1.00  0.00    -0.277 C  
HETATM    4  C   UNK     1      -8.059   8.985  70.662  1.00  0.00    -0.184 C  
HETATM    5  C   UNK     1      -7.829   7.773  71.525  1.00  0.00    -0.088 C  
HETATM    6  C   UNK     1      -7.017   9.715  70.227  1.00  0.00    -0.119 C  
HETATM    7  O   UNK     1      -5.692   9.357  70.511  1.00  0.00    -0.038 OA 
HETATM    8  C   UNK     1      -7.105  10.786  69.138  1.00  0.00    -0.101 C  
HETATM    9  C   UNK     1      -8.992   7.062  72.111  1.00  0.00    -0.140 A  
HETATM   10  O   UNK     1      -6.691   7.363  71.758  1.00  0.00    -0.053 OA 
HETATM   11  C   UNK     1      -8.802   6.071  73.089  1.00  0.00    -0.128 A  
HETATM   12  O   UNK     1      -6.225  10.241  68.147  1.00  0.00    -0.051 OA 
HETATM   13  C   UNK     1      -6.738  12.316  69.493  1.00  0.00    -0.000 C  
HETATM   14  H   UNK     1      -4.956   9.873  70.204  1.00  0.00     0.000 HD 
HETATM   15  C   UNK     1      -7.247  13.369  68.500  1.00  0.00    -0.110 C  
HETATM   16  O   UNK     1      -6.044  12.672  70.442  1.00  0.00    -0.138 OA 
HETATM   17  C   UNK     1      -9.886   5.435  73.695  1.00  0.00    -0.170 A  
HETATM   18  H   UNK     1      -5.358  10.125  68.517  1.00  0.00     0.000 HD 
HETATM   19  O   UNK     1      -7.568   5.639  73.498  1.00  0.00    -0.094 OA 
HETATM   20  H   UNK     1     -12.430   8.120  70.600  1.00  0.00     0.000 HD 
HETATM   21  H   UNK     1      -7.439   4.969  74.159  1.00  0.00     0.000 HD 
HETATM   22  C   UNK     1     -11.180   5.781  73.328  1.00  0.00    -0.187 A  
HETATM   23  C   UNK     1      -7.294  12.781  67.281  1.00  0.00    -0.090 C  
HETATM   24  C   UNK     1      -8.407  11.656  67.099  1.00  0.00    -0.164 C  
HETATM   25  C   UNK     1     -10.538   7.198  69.214  1.00  0.00    -0.233 C  
HETATM   26  O   UNK     1     -11.794   8.819  70.496  1.00  0.00    -0.181 OA 
HETATM   27  O   UNK     1      -6.098  12.520  66.603  1.00  0.00    -0.463 OA 
HETATM   28  C   UNK     1     -11.382   6.723  72.319  1.00  0.00    -0.310 A  
HETATM   29  C   UNK     1     -10.516   8.171  70.412  1.00  0.00    -0.215 C  
HETATM   30  C   UNK     1     -10.296   7.353  71.670  1.00  0.00    -0.215 A  
HETATM   31  H   UNK     1      -6.131  12.108  65.748  1.00  0.00     0.000 HD 
ENDROOT
BRANCH  15  32
HETATM   32  C   UNK     1      -8.505  14.197  68.660  1.00  0.00    -0.120 C  
HETATM   33  H   UNK     1      -9.781  12.996  67.513  1.00  0.00     0.000 HD 
HETATM   34  O   UNK     1      -8.480  15.210  69.368  1.00  0.00    -0.225 OA 
HETATM   35  N   UNK     1      -9.689  13.854  68.058  1.00  0.00    -0.220 N  
BRANCH  35  36
HETATM   36  C   UNK     1     -10.799  14.763  68.230  1.00  0.00    -0.249 C  
BRANCH  36  37
HETATM   37  N   UNK     1     -12.010  13.971  68.292  1.00  0.00    -0.446 NA 
HETATM   38  H   UNK     1     -12.431  13.840  67.372  1.00  0.00     0.000 HD 
BRANCH  37  39
HETATM   39  C   UNK     1     -11.733  12.686  68.962  1.00  0.00    -0.318 C  
BRANCH  39  40
HETATM   40  C   UNK     1     -11.921  12.762  70.487  1.00  0.00    -0.277 C  
BRANCH  40  41
HETATM   41  C   UNK     1     -13.389  12.823  70.924  1.00  0.00     0.375 C  
BRANCH  41  42
HETATM   42  C   UNK     1     -13.557  13.567  72.260  1.00  0.00    -0.690 C  
BRANCH  42  43
HETATM   43  C   UNK     1     -13.791  15.080  72.125  1.00  0.00    -0.479 C  
HETATM   44  C   UNK     1     -12.803  15.869  72.997  1.00  0.00    -0.513 C  
HETATM   45  N   UNK     1     -13.654  15.539  70.712  1.00  0.00    -0.847 NA 
HETATM   46  O   UNK     1     -12.888  16.009  74.206  1.00  0.00    -0.646 OA 
HETATM   47  O   UNK     1     -11.792  16.384  72.248  1.00  0.00    -0.534 OA 
HETATM   48  H2  UNK     1     -14.266  15.011  70.090  1.00  0.00     0.000 HD 
HETATM   49  H1  UNK     1     -13.809  16.543  70.622  1.00  0.00     0.000 HD 
ENDBRANCH  42  43
ENDBRANCH  41  42
ENDBRANCH  40  41
ENDBRANCH  39  40
ENDBRANCH  37  39
ENDBRANCH  36  37
ENDBRANCH  35  36
ENDBRANCH  15  32
BRANCH  24  50
HETATM   50  N   UNK     1      -8.124  10.885  65.866  1.00  0.00    -0.149 NA 
HETATM   51  C   UNK     1      -7.790   9.484  66.002  1.00  0.00    -0.100 C  
HETATM   52  C   UNK     1      -9.208  11.052  64.890  1.00  0.00    -0.188 C  
ENDBRANCH  24  50
TORSDOF 9
ENDMDL
MODEL       48
REMARK 921   NORMALIZED FREE ENERGY PREDICTED BY IDOCK:   -5.30 KCAL/MOL
REMARK 922        TOTAL FREE ENERGY PREDICTED BY IDOCK:   -9.49 KCAL/MOL
REMARK 923 INTER-LIGAND FREE ENERGY PREDICTED BY IDOCK:   -8.44 KCAL/MOL
REMARK 924 INTRA-LIGAND FREE ENERGY PREDICTED BY IDOCK:   -1.05 KCAL/MOL
REMARK 927      BINDING AFFINITY PREDICTED BY RF-SCORE:    0.00 PKD
ROOT
HETATM    1  C   UNK     1      -9.496  12.374  67.753  1.00  0.00    -0.199 C  
HETATM    2  C   UNK     1      -8.528  13.469  67.342  1.00  0.00    -0.203 C  
HETATM    3  C   UNK     1      -8.553  14.698  68.298  1.00  0.00    -0.167 C  
HETATM    4  C   UNK     1      -9.967  15.186  68.511  1.00  0.00    -0.223 C  
HETATM    5  C   UNK     1     -10.212  16.668  68.605  1.00  0.00    -0.284 C  
HETATM    6  C   UNK     1     -10.999  14.325  68.554  1.00  0.00    -0.252 C  
HETATM    7  O   UNK     1     -12.328  14.765  68.635  1.00  0.00    -0.583 OA 
HETATM    8  C   UNK     1     -10.903  12.840  68.197  1.00  0.00    -0.228 C  
HETATM    9  C   UNK     1      -9.056  17.595  68.698  1.00  0.00    -0.261 A  
HETATM   10  O   UNK     1     -11.355  17.127  68.611  1.00  0.00    -0.058 OA 
HETATM   11  C   UNK     1      -9.254  18.952  69.005  1.00  0.00    -0.184 A  
HETATM   12  O   UNK     1     -11.808  12.766  67.088  1.00  0.00    -0.365 OA 
HETATM   13  C   UNK     1     -11.233  11.728  69.318  1.00  0.00    -0.256 C  
HETATM   14  H   UNK     1     -13.057  14.156  68.665  1.00  0.00     0.000 HD 
HETATM   15  C   UNK     1     -10.715  10.315  69.023  1.00  0.00    -0.257 C  
HETATM   16  O   UNK     1     -11.906  11.923  70.327  1.00  0.00    -0.331 OA 
HETATM   17  C   UNK     1      -8.175  19.824  69.156  1.00  0.00    -0.027 A  
HETATM   18  H   UNK     1     -12.672  13.052  67.361  1.00  0.00     0.000 HD 
HETATM   19  O   UNK     1     -10.492  19.521  69.151  1.00  0.00    -0.533 OA 
HETATM   20  H   UNK     1      -5.617  15.933  67.900  1.00  0.00     0.000 HD 
HETATM   21  H   UNK     1     -10.625  20.438  69.359  1.00  0.00     0.000 HD 
HETATM   22  C   UNK     1      -6.879  19.350  68.999  1.00  0.00    -0.377 A  
HETATM   23  C   UNK     1     -10.697  10.166  67.677  1.00  0.00    -0.285 C  
HETATM   24  C   UNK     1      -9.611  11.035  66.901  1.00  0.00    -0.182 C  
HETATM   25  C   UNK     1      -7.547  15.958  66.279  1.00  0.00     0.436 C  
HETATM   26  O   UNK     1      -6.239  15.279  68.197  1.00  0.00    -0.108 OA 
HETATM   27  O   UNK     1     -11.908  10.014  66.992  1.00  0.00     0.463 OA 
HETATM   28  C   UNK     1      -6.671  18.019  68.639  1.00  0.00    -0.240 A  
HETATM   29  C   UNK     1      -7.532  15.770  67.811  1.00  0.00    -0.144 C  
HETATM   30  C   UNK     1      -7.753  17.128  68.448  1.00  0.00    -0.237 A  
HETATM   31  H   UNK     1     -11.895   9.910  66.047  1.00  0.00     0.000 HD 
ENDROOT
BRANCH  15  32
HETATM   32  C   UNK     1      -9.437   9.712  69.569  1.00  0.00    -0.199 C  
HETATM   33  H   UNK     1      -8.833   8.709  67.832  1.00  0.00     0.000 HD 
HETATM   34  O   UNK     1      -9.093   9.964  70.730  1.00  0.00    -0.046 OA 
HETATM   35  N   UNK     1      -8.629   8.901  68.813  1.00  0.00    -0.135 N  
BRANCH  35  36
HETATM   36  C   UNK     1      -7.474   8.331  69.471  1.00  0.00    -0.086 C  
BRANCH  36  37
HETATM   37  N   UNK     1      -7.521   6.897  69.274  1.00  0.00    -0.092 NA 
HETATM   38  H   UNK     1      -8.004   6.420  70.036  1.00  0.00     0.000 HD 
BRANCH  37  39
HETATM   39  C   UNK     1      -8.120   6.592  67.961  1.00  0.00    -0.110 C  
BRANCH  39  40
HETATM   40  C   UNK     1      -9.038   5.358  68.002  1.00  0.00    -0.114 C  
BRANCH  40  41
HETATM   41  C   UNK     1      -9.773   5.182  69.336  1.00  0.00    -0.248 C  
BRANCH  41  42
HETATM   42  C   UNK     1     -10.928   6.188  69.489  1.00  0.00    -0.463 C  
BRANCH  42  43
HETATM   43  C   UNK     1     -10.944   6.942  70.827  1.00  0.00    -0.259 C  
HETATM   44  C   UNK     1     -12.289   6.759  71.546  1.00  0.00    -0.358 C  
HETATM   45  N   UNK     1      -9.851   6.488  71.735  1.00  0.00    -0.166 NA 
HETATM   46  O   UNK     1     -13.325   7.336  71.259  1.00  0.00    -0.369 OA 
HETATM   47  O   UNK     1     -12.189   5.843  72.545  1.00  0.00    -0.202 OA 
HETATM   48  H2  UNK     1      -8.940   6.556  71.282  1.00  0.00     0.000 HD 
HETATM   49  H1  UNK     1      -9.862   6.990  72.623  1.00  0.00     0.000 HD 
ENDBRANCH  42  43
ENDBRANCH  41  42
ENDBRANCH  40  41
ENDBRANCH  39  40
ENDBRANCH  37  39
ENDBRANCH  36  37
ENDBRANCH  35  36
ENDBRANCH  15  32
BRANCH  24  50
HETATM   50  N   UNK     1      -9.927  11.030  65.453  1.00  0.00    -0.245 NA 
HETATM   51  C   UNK     1      -9.746  12.261  64.715  1.00  0.00    -0.010 C  
HETATM   52  C   UNK     1      -9.234   9.929  64.775  1.00  0.00    -0.254 C  
ENDBRANCH  24  50
TORSDOF 9
ENDMDL
MODEL       49
REMARK 921   NORMALIZED FREE ENERGY PREDICTED BY IDOCK:   -5.29 KCAL/MOL
REMARK 922        TOTAL FREE ENERGY PREDICTED BY IDOCK:   -9.46 KCAL/MOL
REMARK 923 INTER-LIGAND FREE ENERGY PREDICTED BY IDOCK:   -8.34 KCAL/MOL
REMARK 924 INTRA-LIGAND FREE ENERGY PREDICTED BY IDOCK:   -1.12 KCAL/MOL
REMARK 927      BINDING AFFINITY PREDICTED BY RF-SCORE:    0.00 PKD
ROOT
HETATM    1  C   UNK     1     -10.132   7.224  70.658  1.00  0.00    -0.198 C  
HETATM    2  C   UNK     1     -10.348   7.604  69.204  1.00  0.00    -0.217 C  
HETATM    3  C   UNK     1      -9.018   7.793  68.416  1.00  0.00    -0.132 C  
HETATM    4  C   UNK     1      -8.084   8.723  69.155  1.00  0.00    -0.118 C  
HETATM    5  C   UNK     1      -7.252   9.692  68.357  1.00  0.00    -0.074 C  
HETATM    6  C   UNK     1      -8.035   8.736  70.499  1.00  0.00    -0.113 C  
HETATM    7  O   UNK     1      -7.261   9.669  71.203  1.00  0.00    -0.328 OA 
HETATM    8  C   UNK     1      -9.023   8.001  71.407  1.00  0.00    -0.141 C  
HETATM    9  C   UNK     1      -7.209   9.572  66.878  1.00  0.00    -0.087 A  
HETATM   10  O   UNK     1      -6.602  10.580  68.910  1.00  0.00    -0.051 OA 
HETATM   11  C   UNK     1      -6.279  10.314  66.130  1.00  0.00    -0.089 A  
HETATM   12  O   UNK     1      -9.603   9.098  72.125  1.00  0.00    -0.276 OA 
HETATM   13  C   UNK     1      -8.487   6.849  72.400  1.00  0.00    -0.114 C  
HETATM   14  H   UNK     1      -7.228   9.678  72.153  1.00  0.00     0.000 HD 
HETATM   15  C   UNK     1      -9.555   5.893  72.946  1.00  0.00    -0.161 C  
HETATM   16  O   UNK     1      -7.325   6.734  72.784  1.00  0.00    -0.079 OA 
HETATM   17  C   UNK     1      -6.184  10.169  64.745  1.00  0.00    -0.130 A  
HETATM   18  H   UNK     1      -8.922   9.575  72.584  1.00  0.00     0.000 HD 
HETATM   19  O   UNK     1      -5.431  11.237  66.681  1.00  0.00    -0.095 OA 
HETATM   20  H   UNK     1      -9.920   7.189  65.396  1.00  0.00     0.000 HD 
HETATM   21  H   UNK     1      -4.802  11.739  66.176  1.00  0.00     0.000 HD 
HETATM   22  C   UNK     1      -7.022   9.277  64.088  1.00  0.00    -0.095 A  
HETATM   23  C   UNK     1     -10.715   6.588  73.020  1.00  0.00    -0.263 C  
HETATM   24  C   UNK     1     -11.373   6.982  71.624  1.00  0.00    -0.257 C  
HETATM   25  C   UNK     1     -10.474   9.200  66.811  1.00  0.00    -0.266 C  
HETATM   26  O   UNK     1      -9.732   6.956  66.298  1.00  0.00    -0.110 OA 
HETATM   27  O   UNK     1     -10.870   7.553  74.021  1.00  0.00    -0.511 OA 
HETATM   28  C   UNK     1      -7.987   8.577  64.811  1.00  0.00    -0.143 A  
HETATM   29  C   UNK     1      -9.327   8.175  66.938  1.00  0.00    -0.173 C  
HETATM   30  C   UNK     1      -8.121   8.736  66.209  1.00  0.00    -0.107 A  
HETATM   31  H   UNK     1     -11.684   8.040  74.073  1.00  0.00     0.000 HD 
ENDROOT
BRANCH  15  32
HETATM   32  C   UNK     1      -9.875   4.519  72.393  1.00  0.00    -0.165 C  
HETATM   33  H   UNK     1      -8.319   4.408  70.996  1.00  0.00     0.000 HD 
HETATM   34  O   UNK     1     -10.818   3.877  72.869  1.00  0.00    -0.157 OA 
HETATM   35  N   UNK     1      -9.143   3.948  71.384  1.00  0.00    -0.108 N  
BRANCH  35  36
HETATM   36  C   UNK     1      -9.592   2.664  70.895  1.00  0.00    -0.127 C  
BRANCH  36  37
HETATM   37  N   UNK     1      -8.434   1.956  70.391  1.00  0.00    -0.041 NA 
HETATM   38  H   UNK     1      -8.509   0.948  70.530  1.00  0.00     0.000 HD 
BRANCH  37  39
HETATM   39  C   UNK     1      -8.213   2.305  68.975  1.00  0.00    -0.051 C  
BRANCH  39  40
HETATM   40  C   UNK     1      -9.529   2.498  68.201  1.00  0.00    -0.217 C  
BRANCH  40  41
HETATM   41  C   UNK     1      -9.511   3.695  67.244  1.00  0.00    -0.235 C  
BRANCH  41  42
HETATM   42  C   UNK     1      -9.085   3.284  65.823  1.00  0.00    -0.153 C  
BRANCH  42  43
HETATM   43  C   UNK     1      -9.867   3.976  64.697  1.00  0.00    -0.195 C  
HETATM   44  C   UNK     1     -10.072   3.027  63.506  1.00  0.00    -0.165 C  
HETATM   45  N   UNK     1     -11.200   4.458  65.160  1.00  0.00    -1.040 NA 
HETATM   46  O   UNK     1      -9.223   2.740  62.680  1.00  0.00    -0.087 OA 
HETATM   47  O   UNK     1     -11.334   2.519  63.498  1.00  0.00    -0.289 OA 
HETATM   48  H2  UNK     1     -11.113   5.062  65.977  1.00  0.00     0.000 HD 
HETATM   49  H1  UNK     1     -11.719   4.918  64.412  1.00  0.00     0.000 HD 
ENDBRANCH  42  43
ENDBRANCH  41  42
ENDBRANCH  40  41
ENDBRANCH  39  40
ENDBRANCH  37  39
ENDBRANCH  36  37
ENDBRANCH  35  36
ENDBRANCH  15  32
BRANCH  24  50
HETATM   50  N   UNK     1     -12.423   8.004  71.852  1.00  0.00    -0.318 NA 
HETATM   51  C   UNK     1     -12.309   9.263  71.148  1.00  0.00    -0.293 C  
HETATM   52  C   UNK     1     -13.758   7.429  71.646  1.00  0.00    -0.373 C  
ENDBRANCH  24  50
TORSDOF 9
ENDMDL
MODEL       50
REMARK 921   NORMALIZED FREE ENERGY PREDICTED BY IDOCK:   -5.27 KCAL/MOL
REMARK 922        TOTAL FREE ENERGY PREDICTED BY IDOCK:   -9.44 KCAL/MOL
REMARK 923 INTER-LIGAND FREE ENERGY PREDICTED BY IDOCK:   -8.70 KCAL/MOL
REMARK 924 INTRA-LIGAND FREE ENERGY PREDICTED BY IDOCK:   -0.74 KCAL/MOL
REMARK 927      BINDING AFFINITY PREDICTED BY RF-SCORE:    0.00 PKD
ROOT
HETATM    1  C   UNK     1      -9.991  14.367  67.195  1.00  0.00    -0.253 C  
HETATM    2  C   UNK     1     -10.377  13.079  66.491  1.00  0.00    -0.278 C  
HETATM    3  C   UNK     1      -9.637  11.829  67.051  1.00  0.00    -0.196 C  
HETATM    4  C   UNK     1      -8.146  12.067  67.108  1.00  0.00    -0.177 C  
HETATM    5  C   UNK     1      -7.222  10.929  66.768  1.00  0.00    -0.134 C  
HETATM    6  C   UNK     1      -7.647  13.283  67.393  1.00  0.00    -0.129 C  
HETATM    7  O   UNK     1      -6.272  13.551  67.337  1.00  0.00    -0.311 OA 
HETATM    8  C   UNK     1      -8.482  14.562  67.479  1.00  0.00    -0.190 C  
HETATM    9  C   UNK     1      -7.777   9.564  66.595  1.00  0.00    -0.098 A  
HETATM   10  O   UNK     1      -6.010  11.108  66.636  1.00  0.00    -0.100 OA 
HETATM   11  C   UNK     1      -6.921   8.453  66.497  1.00  0.00    -0.071 A  
HETATM   12  O   UNK     1      -7.891  15.346  66.435  1.00  0.00    -0.245 OA 
HETATM   13  C   UNK     1      -8.555  15.373  68.873  1.00  0.00    -0.207 C  
HETATM   14  H   UNK     1      -5.920  14.410  67.538  1.00  0.00     0.000 HD 
HETATM   15  C   UNK     1      -9.714  16.369  69.001  1.00  0.00    -0.262 C  
HETATM   16  O   UNK     1      -7.730  15.291  69.779  1.00  0.00    -0.204 OA 
HETATM   17  C   UNK     1      -7.427   7.157  66.394  1.00  0.00    -0.087 A  
HETATM   18  H   UNK     1      -6.965  15.466  66.610  1.00  0.00     0.000 HD 
HETATM   19  O   UNK     1      -5.555   8.553  66.466  1.00  0.00    -0.037 OA 
HETATM   20  H   UNK     1     -11.668   9.451  66.326  1.00  0.00     0.000 HD 
HETATM   21  H   UNK     1      -4.976   7.802  66.399  1.00  0.00     0.000 HD 
HETATM   22  C   UNK     1      -8.801   6.952  66.387  1.00  0.00    -0.155 A  
HETATM   23  C   UNK     1      -9.996  16.819  67.755  1.00  0.00    -0.268 C  
HETATM   24  C   UNK     1     -10.646  15.753  66.766  1.00  0.00    -0.309 C  
HETATM   25  C   UNK     1     -10.214  10.786  64.759  1.00  0.00    -0.403 C  
HETATM   26  O   UNK     1     -11.391  10.229  66.797  1.00  0.00    -0.033 OA 
HETATM   27  O   UNK     1      -9.115  17.713  67.137  1.00  0.00    -0.237 OA 
HETATM   28  C   UNK     1      -9.661   8.049  66.427  1.00  0.00    -0.267 A  
HETATM   29  C   UNK     1     -10.092  10.554  66.280  1.00  0.00    -0.232 C  
HETATM   30  C   UNK     1      -9.167   9.372  66.497  1.00  0.00    -0.202 A  
HETATM   31  H   UNK     1      -9.313  18.029  66.263  1.00  0.00     0.000 HD 
ENDROOT
BRANCH  15  32
HETATM   32  C   UNK     1     -11.030  16.105  69.704  1.00  0.00    -0.346 C  
HETATM   33  H   UNK     1     -10.272  15.856  71.640  1.00  0.00     0.000 HD 
HETATM   34  O   UNK     1     -12.083  16.142  69.056  1.00  0.00    -0.228 OA 
HETATM   35  N   UNK     1     -11.102  15.840  71.048  1.00  0.00    -0.326 N  
BRANCH  35  36
HETATM   36  C   UNK     1     -12.409  15.536  71.586  1.00  0.00    -0.403 C  
BRANCH  36  37
HETATM   37  N   UNK     1     -12.736  14.178  71.202  1.00  0.00    -0.341 NA 
HETATM   38  H   UNK     1     -12.019  13.764  70.606  1.00  0.00     0.000 HD 
BRANCH  37  39
HETATM   39  C   UNK     1     -12.992  13.367  72.407  1.00  0.00    -0.266 C  
BRANCH  39  40
HETATM   40  C   UNK     1     -13.965  12.204  72.141  1.00  0.00     0.240 C  
BRANCH  40  41
HETATM   41  C   UNK     1     -13.266  10.863  71.887  1.00  0.00    -0.508 C  
BRANCH  41  42
HETATM   42  C   UNK     1     -11.770  11.049  71.576  1.00  0.00     0.669 C  
BRANCH  42  43
HETATM   43  C   UNK     1     -11.384  10.776  70.114  1.00  0.00    -0.309 C  
HETATM   44  C   UNK     1     -10.317   9.674  70.024  1.00  0.00    -0.257 C  
HETATM   45  N   UNK     1     -12.561  10.370  69.294  1.00  0.00    -0.550 NA 
HETATM   46  O   UNK     1      -9.130   9.822  70.263  1.00  0.00    -0.237 OA 
HETATM   47  O   UNK     1     -10.870   8.487  69.658  1.00  0.00    -0.225 OA 
HETATM   48  H2  UNK     1     -13.312  11.057  69.357  1.00  0.00     0.000 HD 
HETATM   49  H1  UNK     1     -12.304  10.190  68.323  1.00  0.00     0.000 HD 
ENDBRANCH  42  43
ENDBRANCH  41  42
ENDBRANCH  40  41
ENDBRANCH  39  40
ENDBRANCH  37  39
ENDBRANCH  36  37
ENDBRANCH  35  36
ENDBRANCH  15  32
BRANCH  24  50
HETATM   50  N   UNK     1     -10.584  16.273  65.380  1.00  0.00    -0.515 NA 
HETATM   51  C   UNK     1     -11.289  15.543  64.349  1.00  0.00    -0.252 C  
HETATM   52  C   UNK     1     -10.963  17.691  65.341  1.00  0.00     0.244 C  
ENDBRANCH  24  50
TORSDOF 9
ENDMDL
MODEL       51
REMARK 921   NORMALIZED FREE ENERGY PREDICTED BY IDOCK:   -5.24 KCAL/MOL
REMARK 922        TOTAL FREE ENERGY PREDICTED BY IDOCK:   -9.39 KCAL/MOL
REMARK 923 INTER-LIGAND FREE ENERGY PREDICTED BY IDOCK:   -8.13 KCAL/MOL
REMARK 924 INTRA-LIGAND FREE ENERGY PREDICTED BY IDOCK:   -1.26 KCAL/MOL
REMARK 927      BINDING AFFINITY PREDICTED BY RF-SCORE:    0.00 PKD
ROOT
HETATM    1  C   UNK     1      -9.240   9.411  68.295  1.00  0.00    -0.133 C  
HETATM    2  C   UNK     1     -10.303  10.339  67.736  1.00  0.00    -0.246 C  
HETATM    3  C   UNK     1      -9.711  11.587  67.017  1.00  0.00    -0.202 C  
HETATM    4  C   UNK     1      -8.697  12.283  67.895  1.00  0.00    -0.177 C  
HETATM    5  C   UNK     1      -8.645  13.787  67.882  1.00  0.00    -0.183 C  
HETATM    6  C   UNK     1      -7.898  11.585  68.721  1.00  0.00    -0.117 C  
HETATM    7  O   UNK     1      -7.034  12.218  69.626  1.00  0.00    -0.335 OA 
HETATM    8  C   UNK     1      -8.054  10.092  69.019  1.00  0.00    -0.125 C  
HETATM    9  C   UNK     1      -9.428  14.536  66.868  1.00  0.00    -0.263 A  
HETATM   10  O   UNK     1      -7.959  14.409  68.694  1.00  0.00    -0.137 OA 
HETATM   11  C   UNK     1      -9.230  15.916  66.691  1.00  0.00    -0.252 A  
HETATM   12  O   UNK     1      -8.300  10.119  70.431  1.00  0.00    -0.380 OA 
HETATM   13  C   UNK     1      -6.862   9.075  68.636  1.00  0.00    -0.063 C  
HETATM   14  H   UNK     1      -6.469  11.724  70.209  1.00  0.00     0.000 HD 
HETATM   15  C   UNK     1      -7.250   7.593  68.569  1.00  0.00    -0.086 C  
HETATM   16  O   UNK     1      -5.689   9.397  68.463  1.00  0.00    -0.040 OA 
HETATM   17  C   UNK     1      -9.914  16.625  65.702  1.00  0.00    -0.197 A  
HETATM   18  H   UNK     1      -7.572  10.537  70.875  1.00  0.00     0.000 HD 
HETATM   19  O   UNK     1      -8.391  16.665  67.473  1.00  0.00    -0.172 OA 
HETATM   20  H   UNK     1     -12.049  12.364  64.959  1.00  0.00     0.000 HD 
HETATM   21  H   UNK     1      -8.257  17.598  67.353  1.00  0.00     0.000 HD 
HETATM   22  C   UNK     1     -10.810  15.960  64.875  1.00  0.00    -0.420 A  
HETATM   23  C   UNK     1      -8.262   7.403  69.450  1.00  0.00    -0.131 C  
HETATM   24  C   UNK     1      -9.651   8.078  69.062  1.00  0.00    -0.156 C  
HETATM   25  C   UNK     1     -12.034  12.624  67.467  1.00  0.00    -0.314 C  
HETATM   26  O   UNK     1     -11.346  11.818  65.293  1.00  0.00    -0.298 OA 
HETATM   27  O   UNK     1      -7.983   7.410  70.821  1.00  0.00    -0.101 OA 
HETATM   28  C   UNK     1     -11.059  14.603  65.077  1.00  0.00    -0.401 A  
HETATM   29  C   UNK     1     -10.864  12.481  66.471  1.00  0.00    -0.256 C  
HETATM   30  C   UNK     1     -10.401  13.876  66.095  1.00  0.00    -0.303 A  
HETATM   31  H   UNK     1      -8.692   7.277  71.439  1.00  0.00     0.000 HD 
ENDROOT
BRANCH  15  32
HETATM   32  C   UNK     1      -7.589   6.825  67.308  1.00  0.00    -0.104 C  
HETATM   33  H   UNK     1      -8.215   5.046  68.219  1.00  0.00     0.000 HD 
HETATM   34  O   UNK     1      -7.470   7.379  66.209  1.00  0.00    -0.080 OA 
HETATM   35  N   UNK     1      -8.042   5.531  67.338  1.00  0.00    -0.101 N  
BRANCH  35  36
HETATM   36  C   UNK     1      -8.262   4.884  66.064  1.00  0.00    -0.112 C  
BRANCH  36  37
HETATM   37  N   UNK     1      -8.650   3.514  66.328  1.00  0.00    -0.112 NA 
HETATM   38  H   UNK     1      -7.843   2.904  66.456  1.00  0.00     0.000 HD 
BRANCH  37  39
HETATM   39  C   UNK     1      -9.568   3.469  67.482  1.00  0.00    -0.127 C  
BRANCH  39  40
HETATM   40  C   UNK     1      -9.292   2.272  68.410  1.00  0.00    -0.260 C  
BRANCH  40  41
HETATM   41  C   UNK     1      -8.408   2.619  69.614  1.00  0.00    -0.079 C  
BRANCH  41  42
HETATM   42  C   UNK     1      -9.241   2.852  70.886  1.00  0.00    -0.207 C  
BRANCH  42  43
HETATM   43  C   UNK     1      -9.052   4.235  71.529  1.00  0.00    -0.127 C  
HETATM   44  C   UNK     1      -9.837   4.341  72.845  1.00  0.00    -0.136 C  
HETATM   45  N   UNK     1      -7.616   4.529  71.803  1.00  0.00    -0.073 NA 
HETATM   46  O   UNK     1     -11.041   4.513  72.934  1.00  0.00    -0.208 OA 
HETATM   47  O   UNK     1      -9.015   4.197  73.918  1.00  0.00    -0.093 OA 
HETATM   48  H2  UNK     1      -7.049   4.431  70.961  1.00  0.00     0.000 HD 
HETATM   49  H1  UNK     1      -7.491   5.448  72.229  1.00  0.00     0.000 HD 
ENDBRANCH  42  43
ENDBRANCH  41  42
ENDBRANCH  40  41
ENDBRANCH  39  40
ENDBRANCH  37  39
ENDBRANCH  36  37
ENDBRANCH  35  36
ENDBRANCH  15  32
BRANCH  24  50
HETATM   50  N   UNK     1     -10.541   8.077  70.247  1.00  0.00    -0.227 NA 
HETATM   51  C   UNK     1     -11.407   9.219  70.447  1.00  0.00    -0.242 C  
HETATM   52  C   UNK     1     -11.322   6.836  70.307  1.00  0.00    -0.352 C  
ENDBRANCH  24  50
TORSDOF 9
ENDMDL
MODEL       52
REMARK 921   NORMALIZED FREE ENERGY PREDICTED BY IDOCK:   -5.22 KCAL/MOL
REMARK 922        TOTAL FREE ENERGY PREDICTED BY IDOCK:   -9.36 KCAL/MOL
REMARK 923 INTER-LIGAND FREE ENERGY PREDICTED BY IDOCK:   -7.67 KCAL/MOL
REMARK 924 INTRA-LIGAND FREE ENERGY PREDICTED BY IDOCK:   -1.69 KCAL/MOL
REMARK 927      BINDING AFFINITY PREDICTED BY RF-SCORE:    0.00 PKD
ROOT
HETATM    1  C   UNK     1      -8.638   9.808  67.611  1.00  0.00    -0.125 C  
HETATM    2  C   UNK     1      -9.887  10.446  67.031  1.00  0.00    -0.234 C  
HETATM    3  C   UNK     1      -9.607  11.800  66.315  1.00  0.00    -0.242 C  
HETATM    4  C   UNK     1      -8.810  12.724  67.205  1.00  0.00    -0.202 C  
HETATM    5  C   UNK     1      -9.128  14.195  67.184  1.00  0.00    -0.232 C  
HETATM    6  C   UNK     1      -7.877  12.245  68.046  1.00  0.00    -0.147 C  
HETATM    7  O   UNK     1      -7.208  13.071  68.960  1.00  0.00    -0.216 OA 
HETATM    8  C   UNK     1      -7.666  10.760  68.349  1.00  0.00    -0.113 C  
HETATM    9  C   UNK     1     -10.055  14.728  66.155  1.00  0.00    -0.312 A  
HETATM   10  O   UNK     1      -8.628  14.968  68.003  1.00  0.00    -0.151 OA 
HETATM   11  C   UNK     1     -10.198  16.114  65.974  1.00  0.00    -0.356 A  
HETATM   12  O   UNK     1      -7.934  10.727  69.756  1.00  0.00    -0.370 OA 
HETATM   13  C   UNK     1      -6.255  10.066  67.989  1.00  0.00    -0.053 C  
HETATM   14  H   UNK     1      -6.550  12.732  69.555  1.00  0.00     0.000 HD 
HETATM   15  C   UNK     1      -6.267   8.533  67.924  1.00  0.00    -0.056 C  
HETATM   16  O   UNK     1      -5.195  10.665  67.832  1.00  0.00    -0.037 OA 
HETATM   17  C   UNK     1     -11.020  16.632  64.971  1.00  0.00    -0.172 A  
HETATM   18  H   UNK     1      -7.338  11.311  70.209  1.00  0.00     0.000 HD 
HETATM   19  O   UNK     1      -9.581  17.047  66.764  1.00  0.00    -0.245 OA 
HETATM   20  H   UNK     1     -12.032  11.977  64.219  1.00  0.00     0.000 HD 
HETATM   21  H   UNK     1      -9.678  17.985  66.642  1.00  0.00     0.000 HD 
HETATM   22  C   UNK     1     -11.713  15.767  64.134  1.00  0.00    -0.070 A  
HETATM   23  C   UNK     1      -7.215   8.102  68.790  1.00  0.00    -0.083 C  
HETATM   24  C   UNK     1      -8.721   8.416  68.378  1.00  0.00    -0.136 C  
HETATM   25  C   UNK     1     -12.121  12.236  66.724  1.00  0.00    -0.043 C  
HETATM   26  O   UNK     1     -11.222  11.621  64.565  1.00  0.00    -0.315 OA 
HETATM   27  O   UNK     1      -6.968   8.179  70.166  1.00  0.00    -0.040 OA 
HETATM   28  C   UNK     1     -11.623  14.390  64.339  1.00  0.00    -0.346 A  
HETATM   29  C   UNK     1     -10.936  12.383  65.747  1.00  0.00    -0.298 C  
HETATM   30  C   UNK     1     -10.823  13.848  65.371  1.00  0.00    -0.321 A  
HETATM   31  H   UNK     1      -7.632   7.877  70.773  1.00  0.00     0.000 HD 
ENDROOT
BRANCH  15  32
HETATM   32  C   UNK     1      -6.387   7.704  66.661  1.00  0.00    -0.046 C  
HETATM   33  H   UNK     1      -6.382   9.283  65.285  1.00  0.00     0.000 HD 
HETATM   34  O   UNK     1      -6.410   6.471  66.744  1.00  0.00    -0.038 OA 
HETATM   35  N   UNK     1      -6.456   8.274  65.416  1.00  0.00    -0.051 N  
BRANCH  35  36
HETATM   36  C   UNK     1      -6.640   7.379  64.296  1.00  0.00    -0.047 C  
BRANCH  36  37
HETATM   37  N   UNK     1      -8.053   7.077  64.203  1.00  0.00    -0.299 NA 
HETATM   38  H   UNK     1      -8.610   7.905  63.989  1.00  0.00     0.000 HD 
BRANCH  37  39
HETATM   39  C   UNK     1      -8.269   5.995  63.223  1.00  0.00    -0.034 C  
BRANCH  39  40
HETATM   40  C   UNK     1      -7.312   4.808  63.431  1.00  0.00    -0.050 C  
BRANCH  40  41
HETATM   41  C   UNK     1      -7.711   3.893  64.593  1.00  0.00    -0.081 C  
BRANCH  41  42
HETATM   42  C   UNK     1      -9.112   3.288  64.390  1.00  0.00    -0.128 C  
BRANCH  42  43
HETATM   43  C   UNK     1     -10.148   3.708  65.444  1.00  0.00     0.044 C  
HETATM   44  C   UNK     1      -9.512   4.615  66.509  1.00  0.00    -0.166 C  
HETATM   45  N   UNK     1     -11.304   4.426  64.833  1.00  0.00    -1.085 NA 
HETATM   46  O   UNK     1      -8.800   4.234  67.424  1.00  0.00    -0.104 OA 
HETATM   47  O   UNK     1      -9.827   5.919  66.292  1.00  0.00    -0.148 OA 
HETATM   48  H2  UNK     1     -11.733   3.873  64.091  1.00  0.00     0.000 HD 
HETATM   49  H1  UNK     1     -11.991   4.703  65.533  1.00  0.00     0.000 HD 
ENDBRANCH  42  43
ENDBRANCH  41  42
ENDBRANCH  40  41
ENDBRANCH  39  40
ENDBRANCH  37  39
ENDBRANCH  36  37
ENDBRANCH  35  36
ENDBRANCH  15  32
BRANCH  24  50
HETATM   50  N   UNK     1      -9.602   8.197  69.549  1.00  0.00    -0.167 NA 
HETATM   51  C   UNK     1     -10.799   9.003  69.658  1.00  0.00    -0.186 C  
HETATM   52  C   UNK     1      -9.938   6.775  69.687  1.00  0.00    -0.173 C  
ENDBRANCH  24  50
TORSDOF 9
ENDMDL
MODEL       53
REMARK 921   NORMALIZED FREE ENERGY PREDICTED BY IDOCK:   -5.18 KCAL/MOL
REMARK 922        TOTAL FREE ENERGY PREDICTED BY IDOCK:   -9.29 KCAL/MOL
REMARK 923 INTER-LIGAND FREE ENERGY PREDICTED BY IDOCK:   -7.82 KCAL/MOL
REMARK 924 INTRA-LIGAND FREE ENERGY PREDICTED BY IDOCK:   -1.48 KCAL/MOL
REMARK 927      BINDING AFFINITY PREDICTED BY RF-SCORE:    0.00 PKD
ROOT
HETATM    1  C   UNK     1      -8.030   6.867  67.471  1.00  0.00    -0.112 C  
HETATM    2  C   UNK     1      -7.038   7.915  67.940  1.00  0.00    -0.086 C  
HETATM    3  C   UNK     1      -7.696   9.297  68.228  1.00  0.00    -0.087 C  
HETATM    4  C   UNK     1      -8.543   9.743  67.059  1.00  0.00    -0.127 C  
HETATM    5  C   UNK     1      -8.552  11.203  66.692  1.00  0.00    -0.165 C  
HETATM    6  C   UNK     1      -9.227   8.854  66.318  1.00  0.00    -0.207 C  
HETATM    7  O   UNK     1      -9.925   9.233  65.163  1.00  0.00    -0.395 OA 
HETATM    8  C   UNK     1      -9.072   7.335  66.427  1.00  0.00    -0.158 C  
HETATM    9  C   UNK     1      -7.910  12.188  67.597  1.00  0.00    -0.153 A  
HETATM   10  O   UNK     1      -9.088  11.596  65.654  1.00  0.00    -0.182 OA 
HETATM   11  C   UNK     1      -8.092  13.567  67.394  1.00  0.00    -0.176 A  
HETATM   12  O   UNK     1      -8.613   7.012  65.108  1.00  0.00    -0.320 OA 
HETATM   13  C   UNK     1     -10.338   6.435  66.861  1.00  0.00    -0.241 C  
HETATM   14  H   UNK     1     -10.408   8.605  64.639  1.00  0.00     0.000 HD 
HETATM   15  C   UNK     1     -10.008   5.019  67.351  1.00  0.00    -0.214 C  
HETATM   16  O   UNK     1     -11.513   6.778  66.764  1.00  0.00    -0.089 OA 
HETATM   17  C   UNK     1      -7.546  14.505  68.270  1.00  0.00    -0.121 A  
HETATM   18  H   UNK     1      -9.252   7.299  64.467  1.00  0.00     0.000 HD 
HETATM   19  O   UNK     1      -8.780  14.089  66.331  1.00  0.00    -0.454 OA 
HETATM   20  H   UNK     1      -5.676  10.584  70.365  1.00  0.00     0.000 HD 
HETATM   21  H   UNK     1      -8.903  15.021  66.193  1.00  0.00     0.000 HD 
HETATM   22  C   UNK     1      -6.806  14.076  69.364  1.00  0.00    -0.083 A  
HETATM   23  C   UNK     1      -8.881   4.625  66.712  1.00  0.00    -0.111 C  
HETATM   24  C   UNK     1      -7.547   5.389  67.131  1.00  0.00    -0.092 C  
HETATM   25  C   UNK     1      -5.301  10.211  67.901  1.00  0.00    -0.038 C  
HETATM   26  O   UNK     1      -6.336   9.966  70.073  1.00  0.00    -0.053 OA 
HETATM   27  O   UNK     1      -8.948   4.288  65.356  1.00  0.00    -0.124 OA 
HETATM   28  C   UNK     1      -6.570  12.714  69.546  1.00  0.00    -0.032 A  
HETATM   29  C   UNK     1      -6.613  10.310  68.707  1.00  0.00    -0.052 C  
HETATM   30  C   UNK     1      -7.086  11.750  68.650  1.00  0.00    -0.101 A  
HETATM   31  H   UNK     1      -8.157   4.012  64.908  1.00  0.00     0.000 HD 
ENDROOT
BRANCH  15  32
HETATM   32  C   UNK     1      -9.889   4.593  68.800  1.00  0.00    -0.131 C  
HETATM   33  H   UNK     1     -10.798   6.271  69.664  1.00  0.00     0.000 HD 
HETATM   34  O   UNK     1      -9.393   3.494  69.072  1.00  0.00    -0.151 OA 
HETATM   35  N   UNK     1     -10.327   5.382  69.834  1.00  0.00    -0.285 N  
BRANCH  35  36
HETATM   36  C   UNK     1     -10.093   4.894  71.174  1.00  0.00    -0.207 C  
BRANCH  36  37
HETATM   37  N   UNK     1      -8.717   5.193  71.515  1.00  0.00    -0.131 NA 
HETATM   38  H   UNK     1      -8.180   5.503  70.705  1.00  0.00     0.000 HD 
BRANCH  37  39
HETATM   39  C   UNK     1      -8.677   6.173  72.616  1.00  0.00    -0.124 C  
BRANCH  39  40
HETATM   40  C   UNK     1      -9.247   7.543  72.209  1.00  0.00    -0.176 C  
BRANCH  40  41
HETATM   41  C   UNK     1     -10.280   8.097  73.197  1.00  0.00    -0.171 C  
BRANCH  41  42
HETATM   42  C   UNK     1     -11.718   7.932  72.673  1.00  0.00    -0.398 C  
BRANCH  42  43
HETATM   43  C   UNK     1     -12.581   9.200  72.769  1.00  0.00     0.052 C  
HETATM   44  C   UNK     1     -12.648   9.923  71.415  1.00  0.00    -0.398 C  
HETATM   45  N   UNK     1     -13.971   8.893  73.216  1.00  0.00    -1.217 NA 
HETATM   46  O   UNK     1     -11.763  10.616  70.943  1.00  0.00    -0.328 OA 
HETATM   47  O   UNK     1     -13.828   9.675  70.786  1.00  0.00    -0.105 OA 
HETATM   48  H2  UNK     1     -13.972   8.376  74.095  1.00  0.00     0.000 HD 
HETATM   49  H1  UNK     1     -14.544   9.734  73.280  1.00  0.00     0.000 HD 
ENDBRANCH  42  43
ENDBRANCH  41  42
ENDBRANCH  40  41
ENDBRANCH  39  40
ENDBRANCH  37  39
ENDBRANCH  36  37
ENDBRANCH  35  36
ENDBRANCH  15  32
BRANCH  24  50
HETATM   50  N   UNK     1      -6.488   5.101  66.136  1.00  0.00    -0.039 NA 
HETATM   51  C   UNK     1      -5.426   6.071  65.975  1.00  0.00    -0.013 C  
HETATM   52  C   UNK     1      -5.921   3.765  66.355  1.00  0.00    -0.024 C  
ENDBRANCH  24  50
TORSDOF 9
ENDMDL
MODEL       54
REMARK 921   NORMALIZED FREE ENERGY PREDICTED BY IDOCK:   -5.17 KCAL/MOL
REMARK 922        TOTAL FREE ENERGY PREDICTED BY IDOCK:   -9.29 KCAL/MOL
REMARK 923 INTER-LIGAND FREE ENERGY PREDICTED BY IDOCK:   -8.78 KCAL/MOL
REMARK 924 INTRA-LIGAND FREE ENERGY PREDICTED BY IDOCK:   -0.50 KCAL/MOL
REMARK 927      BINDING AFFINITY PREDICTED BY RF-SCORE:    0.00 PKD
ROOT
HETATM    1  C   UNK     1      -8.620   8.239  66.377  1.00  0.00    -0.144 C  
HETATM    2  C   UNK     1      -9.370   7.163  67.141  1.00  0.00    -0.166 C  
HETATM    3  C   UNK     1      -9.649   7.548  68.624  1.00  0.00    -0.151 C  
HETATM    4  C   UNK     1      -8.383   8.008  69.308  1.00  0.00    -0.134 C  
HETATM    5  C   UNK     1      -8.157   7.618  70.744  1.00  0.00    -0.103 C  
HETATM    6  C   UNK     1      -7.443   8.698  68.638  1.00  0.00    -0.096 C  
HETATM    7  O   UNK     1      -6.214   9.034  69.221  1.00  0.00    -0.041 OA 
HETATM    8  C   UNK     1      -7.439   8.907  67.122  1.00  0.00    -0.084 C  
HETATM    9  C   UNK     1      -9.258   6.983  71.511  1.00  0.00    -0.153 A  
HETATM   10  O   UNK     1      -7.076   7.822  71.299  1.00  0.00    -0.055 OA 
HETATM   11  C   UNK     1      -9.152   6.811  72.901  1.00  0.00    -0.127 A  
HETATM   12  O   UNK     1      -6.213   8.261  66.760  1.00  0.00    -0.052 OA 
HETATM   13  C   UNK     1      -7.532  10.402  66.524  1.00  0.00    -0.119 C  
HETATM   14  H   UNK     1      -5.550   9.521  68.747  1.00  0.00     0.000 HD 
HETATM   15  C   UNK     1      -7.945  10.503  65.050  1.00  0.00    -0.079 C  
HETATM   16  O   UNK     1      -7.239  11.426  67.137  1.00  0.00    -0.117 OA 
HETATM   17  C   UNK     1     -10.201   6.271  73.646  1.00  0.00    -0.267 A  
HETATM   18  H   UNK     1      -5.488   8.670  67.217  1.00  0.00     0.000 HD 
HETATM   19  O   UNK     1      -8.027   7.126  73.618  1.00  0.00    -0.105 OA 
HETATM   20  H   UNK     1     -12.251   5.796  69.306  1.00  0.00     0.000 HD 
HETATM   21  H   UNK     1      -7.955   7.009  74.558  1.00  0.00     0.000 HD 
HETATM   22  C   UNK     1     -11.375   5.892  73.007  1.00  0.00    -0.211 A  
HETATM   23  C   UNK     1      -7.506   9.380  64.432  1.00  0.00    -0.110 C  
HETATM   24  C   UNK     1      -8.247   8.032  64.844  1.00  0.00    -0.134 C  
HETATM   25  C   UNK     1      -9.884   4.998  68.967  1.00  0.00    -0.252 C  
HETATM   26  O   UNK     1     -11.779   6.498  68.873  1.00  0.00    -0.071 OA 
HETATM   27  O   UNK     1      -6.137   9.230  64.181  1.00  0.00    -0.074 OA 
HETATM   28  C   UNK     1     -11.472   6.005  71.621  1.00  0.00    -0.293 A  
HETATM   29  C   UNK     1     -10.423   6.396  69.334  1.00  0.00    -0.228 C  
HETATM   30  C   UNK     1     -10.407   6.519  70.845  1.00  0.00    -0.243 A  
HETATM   31  H   UNK     1      -5.830   8.443  63.748  1.00  0.00     0.000 HD 
ENDROOT
BRANCH  15  32
HETATM   32  C   UNK     1      -9.343  10.790  64.543  1.00  0.00    -0.236 C  
HETATM   33  H   UNK     1      -9.920  12.128  66.048  1.00  0.00     0.000 HD 
HETATM   34  O   UNK     1      -9.726  10.270  63.489  1.00  0.00    -0.298 OA 
HETATM   35  N   UNK     1     -10.205  11.626  65.207  1.00  0.00    -0.260 N  
BRANCH  35  36
HETATM   36  C   UNK     1     -11.536  11.763  64.659  1.00  0.00    -0.234 C  
BRANCH  36  37
HETATM   37  N   UNK     1     -12.375  12.345  65.686  1.00  0.00    -0.621 NA 
HETATM   38  H   UNK     1     -12.759  11.638  66.314  1.00  0.00     0.000 HD 
BRANCH  37  39
HETATM   39  C   UNK     1     -11.624  13.384  66.415  1.00  0.00    -0.346 C  
BRANCH  39  40
HETATM   40  C   UNK     1     -11.723  13.223  67.943  1.00  0.00    -0.395 C  
BRANCH  40  41
HETATM   41  C   UNK     1     -11.093  14.381  68.725  1.00  0.00    -0.275 C  
BRANCH  41  42
HETATM   42  C   UNK     1     -11.495  15.748  68.144  1.00  0.00    -0.302 C  
BRANCH  42  43
HETATM   43  C   UNK     1     -10.340  16.755  68.023  1.00  0.00    -0.317 C  
HETATM   44  C   UNK     1     -10.228  17.293  66.589  1.00  0.00    -0.319 C  
HETATM   45  N   UNK     1     -10.507  17.907  68.955  1.00  0.00    -0.416 NA 
HETATM   46  O   UNK     1      -9.742  16.690  65.647  1.00  0.00    -0.530 OA 
HETATM   47  O   UNK     1     -10.765  18.538  66.490  1.00  0.00    -0.358 OA 
HETATM   48  H2  UNK     1     -10.625  17.592  69.918  1.00  0.00     0.000 HD 
HETATM   49  H1  UNK     1      -9.740  18.575  68.875  1.00  0.00     0.000 HD 
ENDBRANCH  42  43
ENDBRANCH  41  42
ENDBRANCH  40  41
ENDBRANCH  39  40
ENDBRANCH  37  39
ENDBRANCH  36  37
ENDBRANCH  35  36
ENDBRANCH  15  32
BRANCH  24  50
HETATM   50  N   UNK     1      -7.457   6.875  64.361  1.00  0.00    -0.092 NA 
HETATM   51  C   UNK     1      -7.570   5.626  65.083  1.00  0.00    -0.078 C  
HETATM   52  C   UNK     1      -7.688   6.652  62.928  1.00  0.00    -0.098 C  
ENDBRANCH  24  50
TORSDOF 9
ENDMDL
MODEL       55
REMARK 921   NORMALIZED FREE ENERGY PREDICTED BY IDOCK:   -5.15 KCAL/MOL
REMARK 922        TOTAL FREE ENERGY PREDICTED BY IDOCK:   -9.26 KCAL/MOL
REMARK 923 INTER-LIGAND FREE ENERGY PREDICTED BY IDOCK:   -8.16 KCAL/MOL
REMARK 924 INTRA-LIGAND FREE ENERGY PREDICTED BY IDOCK:   -1.09 KCAL/MOL
REMARK 927      BINDING AFFINITY PREDICTED BY RF-SCORE:    0.00 PKD
ROOT
HETATM    1  C   UNK     1      -9.097   9.564  68.340  1.00  0.00    -0.127 C  
HETATM    2  C   UNK     1     -10.182  10.492  67.825  1.00  0.00    -0.223 C  
HETATM    3  C   UNK     1      -9.618  11.768  67.132  1.00  0.00    -0.189 C  
HETATM    4  C   UNK     1      -8.600  12.453  68.013  1.00  0.00    -0.180 C  
HETATM    5  C   UNK     1      -8.569  13.958  68.041  1.00  0.00    -0.178 C  
HETATM    6  C   UNK     1      -7.778  11.743  68.806  1.00  0.00    -0.091 C  
HETATM    7  O   UNK     1      -6.908  12.363  69.714  1.00  0.00    -0.350 OA 
HETATM    8  C   UNK     1      -7.909  10.241  69.064  1.00  0.00    -0.114 C  
HETATM    9  C   UNK     1      -9.379  14.724  67.062  1.00  0.00    -0.245 A  
HETATM   10  O   UNK     1      -7.878  14.566  68.860  1.00  0.00    -0.138 OA 
HETATM   11  C   UNK     1      -9.202  16.111  66.921  1.00  0.00    -0.225 A  
HETATM   12  O   UNK     1      -8.132  10.224  70.479  1.00  0.00    -0.388 OA 
HETATM   13  C   UNK     1      -6.709   9.252  68.632  1.00  0.00    -0.054 C  
HETATM   14  H   UNK     1      -6.327  11.861  70.274  1.00  0.00     0.000 HD 
HETATM   15  C   UNK     1      -7.078   7.766  68.530  1.00  0.00    -0.073 C  
HETATM   16  O   UNK     1      -5.544   9.595  68.451  1.00  0.00    -0.040 OA 
HETATM   17  C   UNK     1      -9.912  16.837  65.964  1.00  0.00    -0.334 A  
HETATM   18  H   UNK     1      -7.403  10.640  70.923  1.00  0.00     0.000 HD 
HETATM   19  O   UNK     1      -8.360  16.850  67.710  1.00  0.00    -0.189 OA 
HETATM   20  H   UNK     1     -12.000  12.570  65.135  1.00  0.00     0.000 HD 
HETATM   21  H   UNK     1      -8.241  17.787  67.615  1.00  0.00     0.000 HD 
HETATM   22  C   UNK     1     -10.813  16.184  65.133  1.00  0.00    -0.376 A  
HETATM   23  C   UNK     1      -8.073   7.538  69.421  1.00  0.00    -0.128 C  
HETATM   24  C   UNK     1      -9.477   8.204  69.075  1.00  0.00    -0.155 C  
HETATM   25  C   UNK     1     -11.948  12.759  67.648  1.00  0.00    -0.331 C  
HETATM   26  O   UNK     1     -11.284  12.024  65.441  1.00  0.00    -0.316 OA 
HETATM   27  O   UNK     1      -7.771   7.510  70.787  1.00  0.00    -0.081 OA 
HETATM   28  C   UNK     1     -11.039  14.818  65.300  1.00  0.00    -0.374 A  
HETATM   29  C   UNK     1     -10.792  12.661  66.630  1.00  0.00    -0.258 C  
HETATM   30  C   UNK     1     -10.355  14.072  66.286  1.00  0.00    -0.294 A  
HETATM   31  H   UNK     1      -8.468   7.350  71.412  1.00  0.00     0.000 HD 
ENDROOT
BRANCH  15  32
HETATM   32  C   UNK     1      -7.427   7.030  67.253  1.00  0.00    -0.099 C  
HETATM   33  H   UNK     1      -7.885   5.176  68.112  1.00  0.00     0.000 HD 
HETATM   34  O   UNK     1      -7.401   7.636  66.175  1.00  0.00    -0.075 OA 
HETATM   35  N   UNK     1      -7.789   5.707  67.246  1.00  0.00    -0.101 N  
BRANCH  35  36
HETATM   36  C   UNK     1      -8.029   5.100  65.956  1.00  0.00    -0.107 C  
BRANCH  36  37
HETATM   37  N   UNK     1      -9.257   4.337  66.052  1.00  0.00    -0.136 NA 
HETATM   38  H   UNK     1      -9.828   4.422  65.210  1.00  0.00     0.000 HD 
BRANCH  37  39
HETATM   39  C   UNK     1      -8.947   2.931  66.373  1.00  0.00    -0.150 C  
BRANCH  39  40
HETATM   40  C   UNK     1      -8.004   2.284  65.343  1.00  0.00    -0.078 C  
BRANCH  40  41
HETATM   41  C   UNK     1      -8.721   1.771  64.089  1.00  0.00    -0.089 C  
BRANCH  41  42
HETATM   42  C   UNK     1      -8.447   2.666  62.868  1.00  0.00    -0.074 C  
BRANCH  42  43
HETATM   43  C   UNK     1      -9.642   3.526  62.426  1.00  0.00    -0.096 C  
HETATM   44  C   UNK     1     -10.957   2.975  62.997  1.00  0.00    -0.147 C  
HETATM   45  N   UNK     1      -9.492   4.947  62.855  1.00  0.00    -0.353 NA 
HETATM   46  O   UNK     1     -11.557   2.002  62.570  1.00  0.00    -0.218 OA 
HETATM   47  O   UNK     1     -11.368   3.703  64.069  1.00  0.00    -0.223 OA 
HETATM   48  H2  UNK     1      -8.610   5.341  62.529  1.00  0.00     0.000 HD 
HETATM   49  H1  UNK     1     -10.285   5.518  62.561  1.00  0.00     0.000 HD 
ENDBRANCH  42  43
ENDBRANCH  41  42
ENDBRANCH  40  41
ENDBRANCH  39  40
ENDBRANCH  37  39
ENDBRANCH  36  37
ENDBRANCH  35  36
ENDBRANCH  15  32
BRANCH  24  50
HETATM   50  N   UNK     1     -10.347   8.157  70.273  1.00  0.00    -0.205 NA 
HETATM   51  C   UNK     1     -11.284   9.241  70.475  1.00  0.00    -0.265 C  
HETATM   52  C   UNK     1     -11.044   6.867  70.357  1.00  0.00    -0.296 C  
ENDBRANCH  24  50
TORSDOF 9
ENDMDL
MODEL       56
REMARK 921   NORMALIZED FREE ENERGY PREDICTED BY IDOCK:   -5.10 KCAL/MOL
REMARK 922        TOTAL FREE ENERGY PREDICTED BY IDOCK:   -9.18 KCAL/MOL
REMARK 923 INTER-LIGAND FREE ENERGY PREDICTED BY IDOCK:   -8.71 KCAL/MOL
REMARK 924 INTRA-LIGAND FREE ENERGY PREDICTED BY IDOCK:   -0.47 KCAL/MOL
REMARK 927      BINDING AFFINITY PREDICTED BY RF-SCORE:    0.00 PKD
ROOT
HETATM    1  C   UNK     1      -9.326  11.864  68.432  1.00  0.00    -0.184 C  
HETATM    2  C   UNK     1      -8.355  12.974  68.069  1.00  0.00    -0.169 C  
HETATM    3  C   UNK     1      -8.662  14.317  68.794  1.00  0.00    -0.096 C  
HETATM    4  C   UNK     1     -10.114  14.700  68.625  1.00  0.00    -0.238 C  
HETATM    5  C   UNK     1     -10.458  16.153  68.432  1.00  0.00    -0.274 C  
HETATM    6  C   UNK     1     -11.079  13.764  68.583  1.00  0.00    -0.267 C  
HETATM    7  O   UNK     1     -12.415  14.090  68.312  1.00  0.00    -0.498 OA 
HETATM    8  C   UNK     1     -10.821  12.259  68.490  1.00  0.00    -0.237 C  
HETATM    9  C   UNK     1      -9.407  17.184  68.621  1.00  0.00    -0.269 A  
HETATM   10  O   UNK     1     -11.598  16.503  68.125  1.00  0.00    -0.170 OA 
HETATM   11  C   UNK     1      -9.746  18.547  68.664  1.00  0.00    -0.365 A  
HETATM   12  O   UNK     1     -11.451  11.950  67.241  1.00  0.00    -0.319 OA 
HETATM   13  C   UNK     1     -11.327  11.290  69.676  1.00  0.00    -0.287 C  
HETATM   14  H   UNK     1     -13.097  13.429  68.282  1.00  0.00     0.000 HD 
HETATM   15  C   UNK     1     -10.677   9.901  69.722  1.00  0.00    -0.298 C  
HETATM   16  O   UNK     1     -12.218  11.562  70.477  1.00  0.00    -0.358 OA 
HETATM   17  C   UNK     1      -8.779  19.525  68.901  1.00  0.00    -0.291 A  
HETATM   18  H   UNK     1     -12.369  12.192  67.276  1.00  0.00     0.000 HD 
HETATM   19  O   UNK     1     -11.015  19.017  68.455  1.00  0.00    -0.215 OA 
HETATM   20  H   UNK     1      -5.787  15.743  68.837  1.00  0.00     0.000 HD 
HETATM   21  H   UNK     1     -11.244  19.939  68.483  1.00  0.00     0.000 HD 
HETATM   22  C   UNK     1      -7.456  19.152  69.098  1.00  0.00    -0.298 A  
HETATM   23  C   UNK     1     -10.352   9.568  68.450  1.00  0.00    -0.206 C  
HETATM   24  C   UNK     1      -9.172  10.414  67.795  1.00  0.00    -0.142 C  
HETATM   25  C   UNK     1      -7.307  15.368  66.862  1.00  0.00     0.016 C  
HETATM   26  O   UNK     1      -6.421  15.084  69.095  1.00  0.00    -0.104 OA 
HETATM   27  O   UNK     1     -11.369   9.214  67.556  1.00  0.00    -0.291 OA 
HETATM   28  C   UNK     1      -7.097  17.808  69.002  1.00  0.00    -0.229 A  
HETATM   29  C   UNK     1      -7.622  15.397  68.372  1.00  0.00    -0.116 C  
HETATM   30  C   UNK     1      -8.056  16.806  68.729  1.00  0.00    -0.252 A  
HETATM   31  H   UNK     1     -11.141   8.980  66.664  1.00  0.00     0.000 HD 
ENDROOT
BRANCH  15  32
HETATM   32  C   UNK     1      -9.520   9.498  70.613  1.00  0.00    -0.213 C  
HETATM   33  H   UNK     1      -8.016   9.529  69.155  1.00  0.00     0.000 HD 
HETATM   34  O   UNK     1      -9.716   9.320  71.820  1.00  0.00    -0.269 OA 
HETATM   35  N   UNK     1      -8.246   9.336  70.130  1.00  0.00    -0.147 N  
BRANCH  35  36
HETATM   36  C   UNK     1      -7.244   8.881  71.067  1.00  0.00    -0.097 C  
BRANCH  36  37
HETATM   37  N   UNK     1      -6.520   7.794  70.441  1.00  0.00    -0.037 NA 
HETATM   38  H   UNK     1      -5.948   8.113  69.659  1.00  0.00     0.000 HD 
BRANCH  37  39
HETATM   39  C   UNK     1      -5.722   7.077  71.454  1.00  0.00    -0.036 C  
BRANCH  39  40
HETATM   40  C   UNK     1      -6.316   7.197  72.869  1.00  0.00    -0.056 C  
BRANCH  40  41
HETATM   41  C   UNK     1      -7.132   5.973  73.299  1.00  0.00    -0.085 C  
BRANCH  41  42
HETATM   42  C   UNK     1      -8.646   6.247  73.243  1.00  0.00    -0.122 C  
BRANCH  42  43
HETATM   43  C   UNK     1      -9.409   5.405  72.209  1.00  0.00    -0.142 C  
HETATM   44  C   UNK     1     -10.919   5.425  72.491  1.00  0.00    -0.256 C  
HETATM   45  N   UNK     1      -9.175   5.888  70.817  1.00  0.00    -0.152 NA 
HETATM   46  O   UNK     1     -11.481   4.784  73.362  1.00  0.00    -0.338 OA 
HETATM   47  O   UNK     1     -11.562   6.277  71.649  1.00  0.00    -0.297 OA 
HETATM   48  H2  UNK     1      -8.180   5.928  70.601  1.00  0.00     0.000 HD 
HETATM   49  H1  UNK     1      -9.682   5.328  70.131  1.00  0.00     0.000 HD 
ENDBRANCH  42  43
ENDBRANCH  41  42
ENDBRANCH  40  41
ENDBRANCH  39  40
ENDBRANCH  37  39
ENDBRANCH  36  37
ENDBRANCH  35  36
ENDBRANCH  15  32
BRANCH  24  50
HETATM   50  N   UNK     1      -9.157  10.179  66.332  1.00  0.00    -0.150 NA 
HETATM   51  C   UNK     1      -8.782  11.279  65.470  1.00  0.00    -0.036 C  
HETATM   52  C   UNK     1      -8.361   8.989  66.006  1.00  0.00    -0.123 C  
ENDBRANCH  24  50
TORSDOF 9
ENDMDL
MODEL       57
REMARK 921   NORMALIZED FREE ENERGY PREDICTED BY IDOCK:   -5.09 KCAL/MOL
REMARK 922        TOTAL FREE ENERGY PREDICTED BY IDOCK:   -9.16 KCAL/MOL
REMARK 923 INTER-LIGAND FREE ENERGY PREDICTED BY IDOCK:   -8.64 KCAL/MOL
REMARK 924 INTRA-LIGAND FREE ENERGY PREDICTED BY IDOCK:   -0.51 KCAL/MOL
REMARK 927      BINDING AFFINITY PREDICTED BY RF-SCORE:    0.00 PKD
ROOT
HETATM    1  C   UNK     1      -9.392   9.694  67.781  1.00  0.00    -0.142 C  
HETATM    2  C   UNK     1     -10.003   8.774  68.823  1.00  0.00    -0.197 C  
HETATM    3  C   UNK     1      -9.310   7.381  68.891  1.00  0.00    -0.145 C  
HETATM    4  C   UNK     1      -9.212   6.762  67.516  1.00  0.00    -0.122 C  
HETATM    5  C   UNK     1      -9.418   5.277  67.379  1.00  0.00    -0.127 C  
HETATM    6  C   UNK     1      -9.009   7.521  66.425  1.00  0.00    -0.167 C  
HETATM    7  O   UNK     1      -9.030   6.980  65.132  1.00  0.00    -0.359 OA 
HETATM    8  C   UNK     1      -9.064   9.050  66.413  1.00  0.00    -0.170 C  
HETATM    9  C   UNK     1      -9.499   4.435  68.598  1.00  0.00    -0.219 A  
HETATM   10  O   UNK     1      -9.514   4.746  66.271  1.00  0.00    -0.137 OA 
HETATM   11  C   UNK     1      -9.469   3.033  68.500  1.00  0.00    -0.138 A  
HETATM   12  O   UNK     1     -10.144   9.278  65.499  1.00  0.00    -0.404 OA 
HETATM   13  C   UNK     1      -7.747   9.891  66.009  1.00  0.00    -0.108 C  
HETATM   14  H   UNK     1      -8.887   7.517  64.361  1.00  0.00     0.000 HD 
HETATM   15  C   UNK     1      -7.750  11.368  66.423  1.00  0.00    -0.051 C  
HETATM   16  O   UNK     1      -6.803   9.452  65.357  1.00  0.00    -0.076 OA 
HETATM   17  C   UNK     1      -9.485   2.227  69.639  1.00  0.00    -0.116 A  
HETATM   18  H   UNK     1      -9.942   8.883  64.660  1.00  0.00     0.000 HD 
HETATM   19  O   UNK     1      -9.452   2.360  67.307  1.00  0.00    -0.372 OA 
HETATM   20  H   UNK     1      -9.918   6.462  71.906  1.00  0.00     0.000 HD 
HETATM   21  H   UNK     1      -9.432   1.412  67.240  1.00  0.00     0.000 HD 
HETATM   22  C   UNK     1      -9.532   2.815  70.897  1.00  0.00    -0.224 A  
HETATM   23  C   UNK     1      -9.039  11.782  66.424  1.00  0.00    -0.213 C  
HETATM   24  C   UNK     1      -9.962  11.165  67.566  1.00  0.00    -0.181 C  
HETATM   25  C   UNK     1     -11.530   6.623  69.975  1.00  0.00    -0.434 C  
HETATM   26  O   UNK     1      -9.503   6.998  71.239  1.00  0.00    -0.164 OA 
HETATM   27  O   UNK     1      -9.693  11.980  65.202  1.00  0.00    -0.341 OA 
HETATM   28  C   UNK     1      -9.618   4.202  71.007  1.00  0.00    -0.253 A  
HETATM   29  C   UNK     1      -9.991   6.503  69.983  1.00  0.00    -0.169 C  
HETATM   30  C   UNK     1      -9.638   5.033  69.864  1.00  0.00    -0.246 A  
HETATM   31  H   UNK     1     -10.597  12.271  65.203  1.00  0.00     0.000 HD 
ENDROOT
BRANCH  15  32
HETATM   32  C   UNK     1      -7.082  11.939  67.657  1.00  0.00    -0.112 C  
HETATM   33  H   UNK     1      -7.967  13.837  67.603  1.00  0.00     0.000 HD 
HETATM   34  O   UNK     1      -6.322  11.227  68.322  1.00  0.00    -0.049 OA 
HETATM   35  N   UNK     1      -7.304  13.226  68.079  1.00  0.00    -0.110 N  
BRANCH  35  36
HETATM   36  C   UNK     1      -6.553  13.675  69.230  1.00  0.00    -0.110 C  
BRANCH  36  37
HETATM   37  N   UNK     1      -7.211  14.856  69.750  1.00  0.00    -0.278 NA 
HETATM   38  H   UNK     1      -6.584  15.659  69.788  1.00  0.00     0.000 HD 
BRANCH  37  39
HETATM   39  C   UNK     1      -8.426  15.139  68.961  1.00  0.00    -0.214 C  
BRANCH  39  40
HETATM   40  C   UNK     1      -9.666  15.363  69.844  1.00  0.00    -0.154 C  
BRANCH  40  41
HETATM   41  C   UNK     1     -10.969  15.506  69.051  1.00  0.00    -0.256 C  
BRANCH  41  42
HETATM   42  C   UNK     1     -12.206  15.305  69.943  1.00  0.00    -0.357 C  
BRANCH  42  43
HETATM   43  C   UNK     1     -11.973  14.402  71.164  1.00  0.00    -0.316 C  
HETATM   44  C   UNK     1     -12.464  15.082  72.452  1.00  0.00    -0.346 C  
HETATM   45  N   UNK     1     -12.663  13.088  71.024  1.00  0.00    -0.309 NA 
HETATM   46  O   UNK     1     -11.874  15.968  73.049  1.00  0.00    -0.461 OA 
HETATM   47  O   UNK     1     -13.667  14.583  72.840  1.00  0.00    -0.562 OA 
HETATM   48  H2  UNK     1     -12.395  12.618  70.160  1.00  0.00     0.000 HD 
HETATM   49  H1  UNK     1     -12.508  12.489  71.835  1.00  0.00     0.000 HD 
ENDBRANCH  42  43
ENDBRANCH  41  42
ENDBRANCH  40  41
ENDBRANCH  39  40
ENDBRANCH  37  39
ENDBRANCH  36  37
ENDBRANCH  35  36
ENDBRANCH  15  32
BRANCH  24  50
HETATM   50  N   UNK     1     -11.383  11.434  67.243  1.00  0.00    -0.425 NA 
HETATM   51  C   UNK     1     -12.393  10.924  68.145  1.00  0.00     1.055 C  
HETATM   52  C   UNK     1     -11.597  12.867  67.005  1.00  0.00    -0.362 C  
ENDBRANCH  24  50
TORSDOF 9
ENDMDL
MODEL       58
REMARK 921   NORMALIZED FREE ENERGY PREDICTED BY IDOCK:   -5.09 KCAL/MOL
REMARK 922        TOTAL FREE ENERGY PREDICTED BY IDOCK:   -9.16 KCAL/MOL
REMARK 923 INTER-LIGAND FREE ENERGY PREDICTED BY IDOCK:   -8.05 KCAL/MOL
REMARK 924 INTRA-LIGAND FREE ENERGY PREDICTED BY IDOCK:   -1.10 KCAL/MOL
REMARK 927      BINDING AFFINITY PREDICTED BY RF-SCORE:    0.00 PKD
ROOT
HETATM    1  C   UNK     1      -9.262   8.835  69.920  1.00  0.00    -0.160 C  
HETATM    2  C   UNK     1      -8.143   9.670  69.322  1.00  0.00    -0.107 C  
HETATM    3  C   UNK     1      -8.454  11.195  69.314  1.00  0.00     0.121 C  
HETATM    4  C   UNK     1      -9.808  11.465  68.699  1.00  0.00    -0.199 C  
HETATM    5  C   UNK     1      -9.974  12.683  67.830  1.00  0.00    -0.218 C  
HETATM    6  C   UNK     1     -10.830  10.608  68.867  1.00  0.00    -0.231 C  
HETATM    7  O   UNK     1     -12.057  10.780  68.211  1.00  0.00    -0.805 OA 
HETATM    8  C   UNK     1     -10.699   9.216  69.490  1.00  0.00    -0.215 C  
HETATM    9  C   UNK     1      -8.887  13.690  67.767  1.00  0.00    -0.190 A  
HETATM   10  O   UNK     1     -11.001  12.862  67.172  1.00  0.00    -0.252 OA 
HETATM   11  C   UNK     1      -9.100  14.932  67.145  1.00  0.00    -0.222 A  
HETATM   12  O   UNK     1     -11.113   8.387  68.397  1.00  0.00    -0.426 OA 
HETATM   13  C   UNK     1     -11.504   8.872  70.845  1.00  0.00    -0.288 C  
HETATM   14  H   UNK     1     -12.779  10.174  68.330  1.00  0.00     0.000 HD 
HETATM   15  C   UNK     1     -11.004   7.647  71.621  1.00  0.00    -0.267 C  
HETATM   16  O   UNK     1     -12.499   9.471  71.246  1.00  0.00    -0.315 OA 
HETATM   17  C   UNK     1      -8.108  15.914  67.130  1.00  0.00    -0.240 A  
HETATM   18  H   UNK     1     -11.995   8.620  68.134  1.00  0.00     0.000 HD 
HETATM   19  O   UNK     1     -10.260  15.262  66.495  1.00  0.00    -0.260 OA 
HETATM   20  H   UNK     1      -5.518  12.492  69.330  1.00  0.00     0.000 HD 
HETATM   21  H   UNK     1     -10.404  16.101  66.074  1.00  0.00     0.000 HD 
HETATM   22  C   UNK     1      -6.885  15.665  67.738  1.00  0.00    -0.180 A  
HETATM   23  C   UNK     1     -10.481   6.785  70.716  1.00  0.00    -0.214 C  
HETATM   24  C   UNK     1      -9.127   7.253  70.020  1.00  0.00    -0.148 C  
HETATM   25  C   UNK     1      -6.673  11.282  67.444  1.00  0.00    -0.085 C  
HETATM   26  O   UNK     1      -6.247  12.015  69.709  1.00  0.00    -0.125 OA 
HETATM   27  O   UNK     1     -11.343   6.072  69.875  1.00  0.00    -0.400 OA 
HETATM   28  C   UNK     1      -6.640  14.417  68.309  1.00  0.00    -0.116 A  
HETATM   29  C   UNK     1      -7.259  11.977  68.691  1.00  0.00    -0.110 C  
HETATM   30  C   UNK     1      -7.620  13.398  68.305  1.00  0.00    -0.135 A  
HETATM   31  H   UNK     1     -10.976   5.468  69.241  1.00  0.00     0.000 HD 
ENDROOT
BRANCH  15  32
HETATM   32  C   UNK     1     -10.074   7.679  72.817  1.00  0.00    -0.254 C  
HETATM   33  H   UNK     1      -8.688   9.055  72.061  1.00  0.00     0.000 HD 
HETATM   34  O   UNK     1     -10.351   7.011  73.820  1.00  0.00    -0.339 OA 
HETATM   35  N   UNK     1      -8.933   8.440  72.837  1.00  0.00    -0.235 N  
BRANCH  35  36
HETATM   36  C   UNK     1      -8.094   8.330  74.008  1.00  0.00    -0.210 C  
BRANCH  36  37
HETATM   37  N   UNK     1      -7.411   7.054  73.941  1.00  0.00    -0.090 NA 
HETATM   38  H   UNK     1      -8.060   6.268  73.989  1.00  0.00     0.000 HD 
BRANCH  37  39
HETATM   39  C   UNK     1      -6.567   7.002  72.732  1.00  0.00    -0.061 C  
BRANCH  39  40
HETATM   40  C   UNK     1      -6.194   5.564  72.332  1.00  0.00    -0.043 C  
BRANCH  40  41
HETATM   41  C   UNK     1      -6.343   4.550  73.472  1.00  0.00    -0.046 C  
BRANCH  41  42
HETATM   42  C   UNK     1      -7.344   3.436  73.118  1.00  0.00    -0.055 C  
BRANCH  42  43
HETATM   43  C   UNK     1      -8.768   3.929  72.815  1.00  0.00    -0.099 C  
HETATM   44  C   UNK     1      -9.634   2.794  72.248  1.00  0.00    -0.129 C  
HETATM   45  N   UNK     1      -9.436   4.480  74.030  1.00  0.00    -0.116 NA 
HETATM   46  O   UNK     1      -9.584   2.374  71.104  1.00  0.00    -0.142 OA 
HETATM   47  O   UNK     1     -10.464   2.290  73.200  1.00  0.00    -0.124 OA 
HETATM   48  H2  UNK     1      -8.874   5.213  74.463  1.00  0.00     0.000 HD 
HETATM   49  H1  UNK     1     -10.381   4.808  73.828  1.00  0.00     0.000 HD 
ENDBRANCH  42  43
ENDBRANCH  41  42
ENDBRANCH  40  41
ENDBRANCH  39  40
ENDBRANCH  37  39
ENDBRANCH  36  37
ENDBRANCH  35  36
ENDBRANCH  15  32
BRANCH  24  50
HETATM   50  N   UNK     1      -8.863   6.395  68.841  1.00  0.00    -0.125 NA 
HETATM   51  C   UNK     1      -8.165   6.980  67.717  1.00  0.00    -0.114 C  
HETATM   52  C   UNK     1      -8.208   5.145  69.246  1.00  0.00    -0.084 C  
ENDBRANCH  24  50
TORSDOF 9
ENDMDL
MODEL       59
REMARK 921   NORMALIZED FREE ENERGY PREDICTED BY IDOCK:   -5.09 KCAL/MOL
REMARK 922        TOTAL FREE ENERGY PREDICTED BY IDOCK:   -9.16 KCAL/MOL
REMARK 923 INTER-LIGAND FREE ENERGY PREDICTED BY IDOCK:   -8.48 KCAL/MOL
REMARK 924 INTRA-LIGAND FREE ENERGY PREDICTED BY IDOCK:   -0.67 KCAL/MOL
REMARK 927      BINDING AFFINITY PREDICTED BY RF-SCORE:    0.00 PKD
ROOT
HETATM    1  C   UNK     1      -8.724   9.116  67.632  1.00  0.00    -0.120 C  
HETATM    2  C   UNK     1      -9.269   8.265  68.764  1.00  0.00    -0.143 C  
HETATM    3  C   UNK     1      -8.743   6.800  68.737  1.00  0.00    -0.125 C  
HETATM    4  C   UNK     1      -8.931   6.185  67.370  1.00  0.00    -0.112 C  
HETATM    5  C   UNK     1      -9.328   4.736  67.280  1.00  0.00    -0.136 C  
HETATM    6  C   UNK     1      -8.812   6.926  66.253  1.00  0.00    -0.148 C  
HETATM    7  O   UNK     1      -9.095   6.402  64.984  1.00  0.00    -0.347 OA 
HETATM    8  C   UNK     1      -8.688   8.451  66.235  1.00  0.00    -0.142 C  
HETATM    9  C   UNK     1      -9.318   3.899  68.505  1.00  0.00    -0.224 A  
HETATM   10  O   UNK     1      -9.655   4.230  66.206  1.00  0.00    -0.165 OA 
HETATM   11  C   UNK     1      -9.468   2.504  68.416  1.00  0.00    -0.154 A  
HETATM   12  O   UNK     1      -9.863   8.811  65.498  1.00  0.00    -0.436 OA 
HETATM   13  C   UNK     1      -7.360   9.135  65.625  1.00  0.00    -0.086 C  
HETATM   14  H   UNK     1      -9.011   6.925  64.195  1.00  0.00     0.000 HD 
HETATM   15  C   UNK     1      -7.127  10.598  66.021  1.00  0.00    -0.127 C  
HETATM   16  O   UNK     1      -6.587   8.594  64.839  1.00  0.00    -0.067 OA 
HETATM   17  C   UNK     1      -9.401   1.696  69.552  1.00  0.00    -0.158 A  
HETATM   18  H   UNK     1      -9.841   8.403  64.641  1.00  0.00     0.000 HD 
HETATM   19  O   UNK     1      -9.714   1.844  67.242  1.00  0.00    -0.394 OA 
HETATM   20  H   UNK     1      -8.980   5.932  71.818  1.00  0.00     0.000 HD 
HETATM   21  H   UNK     1      -9.815   0.901  67.182  1.00  0.00     0.000 HD 
HETATM   22  C   UNK     1      -9.184   2.273  70.796  1.00  0.00    -0.197 A  
HETATM   23  C   UNK     1      -8.343  11.160  66.216  1.00  0.00    -0.163 C  
HETATM   24  C   UNK     1      -9.144  10.645  67.493  1.00  0.00    -0.139 C  
HETATM   25  C   UNK     1     -10.841   6.297  70.158  1.00  0.00    -0.375 C  
HETATM   26  O   UNK     1      -8.613   6.421  71.091  1.00  0.00    -0.126 OA 
HETATM   27  O   UNK     1      -9.150  11.445  65.109  1.00  0.00    -0.359 OA 
HETATM   28  C   UNK     1      -9.090   3.660  70.906  1.00  0.00    -0.180 A  
HETATM   29  C   UNK     1      -9.344   5.998  69.930  1.00  0.00    -0.148 C  
HETATM   30  C   UNK     1      -9.189   4.498  69.771  1.00  0.00    -0.191 A  
HETATM   31  H   UNK     1     -10.003  11.839  65.246  1.00  0.00     0.000 HD 
ENDROOT
BRANCH  15  32
HETATM   32  C   UNK     1      -6.214  11.077  67.131  1.00  0.00    -0.075 C  
HETATM   33  H   UNK     1      -6.641  13.122  66.986  1.00  0.00     0.000 HD 
HETATM   34  O   UNK     1      -5.568  10.251  67.786  1.00  0.00    -0.041 OA 
HETATM   35  N   UNK     1      -6.087  12.404  67.453  1.00  0.00    -0.149 N  
BRANCH  35  36
HETATM   36  C   UNK     1      -5.132  12.739  68.485  1.00  0.00    -0.061 C  
BRANCH  36  37
HETATM   37  N   UNK     1      -5.282  14.149  68.782  1.00  0.00    -0.084 NA 
HETATM   38  H   UNK     1      -5.164  14.730  67.952  1.00  0.00     0.000 HD 
BRANCH  37  39
HETATM   39  C   UNK     1      -6.580  14.384  69.443  1.00  0.00    -0.137 C  
BRANCH  39  40
HETATM   40  C   UNK     1      -7.328  15.598  68.862  1.00  0.00    -0.153 C  
BRANCH  40  41
HETATM   41  C   UNK     1      -8.835  15.373  68.702  1.00  0.00    -0.186 C  
BRANCH  41  42
HETATM   42  C   UNK     1      -9.637  16.657  68.975  1.00  0.00    -0.246 C  
BRANCH  42  43
HETATM   43  C   UNK     1     -10.819  16.887  68.021  1.00  0.00    -0.338 C  
HETATM   44  C   UNK     1     -10.369  16.793  66.555  1.00  0.00    -0.301 C  
HETATM   45  N   UNK     1     -11.917  15.903  68.248  1.00  0.00    -0.326 NA 
HETATM   46  O   UNK     1      -9.766  17.662  65.946  1.00  0.00    -0.521 OA 
HETATM   47  O   UNK     1     -10.711  15.593  66.014  1.00  0.00    -0.319 OA 
HETATM   48  H2  UNK     1     -12.220  15.904  69.222  1.00  0.00     0.000 HD 
HETATM   49  H1  UNK     1     -12.702  16.056  67.615  1.00  0.00     0.000 HD 
ENDBRANCH  42  43
ENDBRANCH  41  42
ENDBRANCH  40  41
ENDBRANCH  39  40
ENDBRANCH  37  39
ENDBRANCH  36  37
ENDBRANCH  35  36
ENDBRANCH  15  32
BRANCH  24  50
HETATM   50  N   UNK     1     -10.556  11.082  67.391  1.00  0.00    -0.222 NA 
HETATM   51  C   UNK     1     -11.527  10.450  68.258  1.00  0.00    -0.144 C  
HETATM   52  C   UNK     1     -10.656  12.543  67.504  1.00  0.00    -0.220 C  
ENDBRANCH  24  50
TORSDOF 9
ENDMDL
MODEL       60
REMARK 921   NORMALIZED FREE ENERGY PREDICTED BY IDOCK:   -5.09 KCAL/MOL
REMARK 922        TOTAL FREE ENERGY PREDICTED BY IDOCK:   -9.15 KCAL/MOL
REMARK 923 INTER-LIGAND FREE ENERGY PREDICTED BY IDOCK:   -7.82 KCAL/MOL
REMARK 924 INTRA-LIGAND FREE ENERGY PREDICTED BY IDOCK:   -1.33 KCAL/MOL
REMARK 927      BINDING AFFINITY PREDICTED BY RF-SCORE:    0.00 PKD
ROOT
HETATM    1  C   UNK     1      -9.023   9.619  68.241  1.00  0.00    -0.123 C  
HETATM    2  C   UNK     1     -10.178  10.418  67.665  1.00  0.00    -0.240 C  
HETATM    3  C   UNK     1      -9.717  11.681  66.878  1.00  0.00    -0.211 C  
HETATM    4  C   UNK     1      -8.757  12.507  67.703  1.00  0.00    -0.177 C  
HETATM    5  C   UNK     1      -8.846  14.007  67.622  1.00  0.00    -0.190 C  
HETATM    6  C   UNK     1      -7.882  11.924  68.541  1.00  0.00    -0.136 C  
HETATM    7  O   UNK     1      -7.065  12.675  69.397  1.00  0.00    -0.308 OA 
HETATM    8  C   UNK     1      -7.893  10.439  68.908  1.00  0.00    -0.115 C  
HETATM    9  C   UNK     1      -9.714  14.634  66.594  1.00  0.00    -0.283 A  
HETATM   10  O   UNK     1      -8.207  14.727  68.391  1.00  0.00    -0.140 OA 
HETATM   11  C   UNK     1      -9.648  16.016  66.351  1.00  0.00    -0.283 A  
HETATM   12  O   UNK     1      -8.116  10.508  70.322  1.00  0.00    -0.373 OA 
HETATM   13  C   UNK     1      -6.618   9.520  68.543  1.00  0.00    -0.053 C  
HETATM   14  H   UNK     1      -6.447  12.263  69.990  1.00  0.00     0.000 HD 
HETATM   15  C   UNK     1      -6.867   8.006  68.551  1.00  0.00    -0.067 C  
HETATM   16  O   UNK     1      -5.483   9.940  68.331  1.00  0.00    -0.036 OA 
HETATM   17  C   UNK     1     -10.413  16.612  65.347  1.00  0.00    -0.253 A  
HETATM   18  H   UNK     1      -7.422  11.011  70.731  1.00  0.00     0.000 HD 
HETATM   19  O   UNK     1      -8.869  16.875  67.081  1.00  0.00    -0.198 OA 
HETATM   20  H   UNK     1     -12.154  12.143  64.840  1.00  0.00     0.000 HD 
HETATM   21  H   UNK     1      -8.825  17.810  66.918  1.00  0.00     0.000 HD 
HETATM   22  C   UNK     1     -11.258  15.831  64.570  1.00  0.00    -0.334 A  
HETATM   23  C   UNK     1      -7.841   7.764  69.461  1.00  0.00    -0.111 C  
HETATM   24  C   UNK     1      -9.294   8.290  69.074  1.00  0.00    -0.147 C  
HETATM   25  C   UNK     1     -12.119  12.518  67.333  1.00  0.00    -0.121 C  
HETATM   26  O   UNK     1     -11.397  11.680  65.182  1.00  0.00    -0.256 OA 
HETATM   27  O   UNK     1      -7.539   7.860  70.824  1.00  0.00    -0.074 OA 
HETATM   28  C   UNK     1     -11.375  14.467  64.837  1.00  0.00    -0.380 A  
HETATM   29  C   UNK     1     -10.958  12.439  66.319  1.00  0.00    -0.286 C  
HETATM   30  C   UNK     1     -10.634  13.851  65.872  1.00  0.00    -0.293 A  
HETATM   31  H   UNK     1      -8.222   7.691  71.462  1.00  0.00     0.000 HD 
ENDROOT
BRANCH  15  32
HETATM   32  C   UNK     1      -7.155   7.153  67.332  1.00  0.00    -0.084 C  
HETATM   33  H   UNK     1      -7.573   8.708  65.992  1.00  0.00     0.000 HD 
HETATM   34  O   UNK     1      -7.043   5.925  67.410  1.00  0.00    -0.071 OA 
HETATM   35  N   UNK     1      -7.523   7.698  66.128  1.00  0.00    -0.081 N  
BRANCH  35  36
HETATM   36  C   UNK     1      -7.839   6.775  65.061  1.00  0.00    -0.118 C  
BRANCH  36  37
HETATM   37  N   UNK     1      -9.185   6.289  65.285  1.00  0.00    -0.331 NA 
HETATM   38  H   UNK     1      -9.849   6.677  64.615  1.00  0.00     0.000 HD 
BRANCH  37  39
HETATM   39  C   UNK     1      -9.191   4.814  65.280  1.00  0.00    -0.153 C  
BRANCH  39  40
HETATM   40  C   UNK     1     -10.098   4.223  66.374  1.00  0.00    -0.177 C  
BRANCH  40  41
HETATM   41  C   UNK     1      -9.327   3.549  67.515  1.00  0.00    -0.249 C  
BRANCH  41  42
HETATM   42  C   UNK     1      -9.659   4.178  68.879  1.00  0.00    -0.222 C  
BRANCH  42  43
HETATM   43  C   UNK     1      -9.046   3.449  70.085  1.00  0.00    -0.133 C  
HETATM   44  C   UNK     1      -7.677   4.043  70.449  1.00  0.00    -0.045 C  
HETATM   45  N   UNK     1      -9.931   3.516  71.284  1.00  0.00    -0.127 NA 
HETATM   46  O   UNK     1      -6.636   3.833  69.849  1.00  0.00    -0.032 OA 
HETATM   47  O   UNK     1      -7.771   4.865  71.528  1.00  0.00    -0.090 OA 
HETATM   48  H2  UNK     1     -10.866   3.167  71.075  1.00  0.00     0.000 HD 
HETATM   49  H1  UNK     1      -9.524   3.032  72.084  1.00  0.00     0.000 HD 
ENDBRANCH  42  43
ENDBRANCH  41  42
ENDBRANCH  40  41
ENDBRANCH  39  40
ENDBRANCH  37  39
ENDBRANCH  36  37
ENDBRANCH  35  36
ENDBRANCH  15  32
BRANCH  24  50
HETATM   50  N   UNK     1     -10.159   8.261  70.277  1.00  0.00    -0.190 NA 
HETATM   51  C   UNK     1     -11.096   9.346  70.465  1.00  0.00    -0.273 C  
HETATM   52  C   UNK     1     -10.852   6.971  70.385  1.00  0.00    -0.254 C  
ENDBRANCH  24  50
TORSDOF 9
ENDMDL
MODEL       61
REMARK 921   NORMALIZED FREE ENERGY PREDICTED BY IDOCK:   -5.07 KCAL/MOL
REMARK 922        TOTAL FREE ENERGY PREDICTED BY IDOCK:   -9.14 KCAL/MOL
REMARK 923 INTER-LIGAND FREE ENERGY PREDICTED BY IDOCK:   -8.58 KCAL/MOL
REMARK 924 INTRA-LIGAND FREE ENERGY PREDICTED BY IDOCK:   -0.55 KCAL/MOL
REMARK 927      BINDING AFFINITY PREDICTED BY RF-SCORE:    0.00 PKD
ROOT
HETATM    1  C   UNK     1      -8.913  10.342  69.019  1.00  0.00    -0.175 C  
HETATM    2  C   UNK     1      -9.802   9.766  70.107  1.00  0.00    -0.306 C  
HETATM    3  C   UNK     1      -9.297   8.398  70.651  1.00  0.00    -0.182 C  
HETATM    4  C   UNK     1      -9.024   7.436  69.517  1.00  0.00    -0.144 C  
HETATM    5  C   UNK     1      -9.369   5.983  69.706  1.00  0.00    -0.149 C  
HETATM    6  C   UNK     1      -8.542   7.871  68.339  1.00  0.00    -0.128 C  
HETATM    7  O   UNK     1      -8.392   7.014  67.239  1.00  0.00    -0.120 OA 
HETATM    8  C   UNK     1      -8.419   9.344  67.945  1.00  0.00    -0.116 C  
HETATM    9  C   UNK     1      -9.764   5.495  71.050  1.00  0.00    -0.229 A  
HETATM   10  O   UNK     1      -9.324   5.189  68.765  1.00  0.00    -0.114 OA 
HETATM   11  C   UNK     1      -9.877   4.117  71.304  1.00  0.00    -0.179 A  
HETATM   12  O   UNK     1      -9.285   9.395  66.803  1.00  0.00    -0.136 OA 
HETATM   13  C   UNK     1      -6.964   9.964  67.625  1.00  0.00    -0.086 C  
HETATM   14  H   UNK     1      -8.052   7.321  66.407  1.00  0.00     0.000 HD 
HETATM   15  C   UNK     1      -6.874  11.495  67.658  1.00  0.00    -0.083 C  
HETATM   16  O   UNK     1      -5.975   9.310  67.304  1.00  0.00    -0.048 OA 
HETATM   17  C   UNK     1     -10.189   3.639  72.577  1.00  0.00    -0.229 A  
HETATM   18  H   UNK     1      -8.981   8.783  66.144  1.00  0.00     0.000 HD 
HETATM   19  O   UNK     1      -9.722   3.157  70.340  1.00  0.00    -0.153 OA 
HETATM   20  H   UNK     1     -10.537   8.337  73.610  1.00  0.00     0.000 HD 
HETATM   21  H   UNK     1      -9.798   2.226  70.511  1.00  0.00     0.000 HD 
HETATM   22  C   UNK     1     -10.394   4.536  73.618  1.00  0.00    -0.244 A  
HETATM   23  C   UNK     1      -8.087  11.977  67.296  1.00  0.00    -0.174 C  
HETATM   24  C   UNK     1      -9.264  11.739  68.342  1.00  0.00    -0.175 C  
HETATM   25  C   UNK     1     -11.747   8.092  71.412  1.00  0.00    -0.321 C  
HETATM   26  O   UNK     1      -9.951   8.653  72.932  1.00  0.00    -0.144 OA 
HETATM   27  O   UNK     1      -8.482  11.892  65.957  1.00  0.00    -0.391 OA 
HETATM   28  C   UNK     1     -10.340   5.906  73.368  1.00  0.00    -0.246 A  
HETATM   29  C   UNK     1     -10.258   7.881  71.762  1.00  0.00    -0.196 C  
HETATM   30  C   UNK     1     -10.060   6.410  72.077  1.00  0.00    -0.197 A  
HETATM   31  H   UNK     1      -9.333  12.230  65.703  1.00  0.00     0.000 HD 
ENDROOT
BRANCH  15  32
HETATM   32  C   UNK     1      -6.378  12.324  68.825  1.00  0.00    -0.077 C  
HETATM   33  H   UNK     1      -6.747  14.215  68.004  1.00  0.00     0.000 HD 
HETATM   34  O   UNK     1      -5.978  11.756  69.848  1.00  0.00    -0.115 OA 
HETATM   35  N   UNK     1      -6.372  13.695  68.798  1.00  0.00    -0.086 N  
BRANCH  35  36
HETATM   36  C   UNK     1      -5.810  14.370  69.946  1.00  0.00    -0.122 C  
BRANCH  36  37
HETATM   37  N   UNK     1      -6.075  15.786  69.796  1.00  0.00    -0.157 NA 
HETATM   38  H   UNK     1      -5.236  16.351  69.933  1.00  0.00     0.000 HD 
BRANCH  37  39
HETATM   39  C   UNK     1      -6.707  16.040  68.488  1.00  0.00    -0.124 C  
BRANCH  39  40
HETATM   40  C   UNK     1      -8.169  16.504  68.618  1.00  0.00    -0.234 C  
BRANCH  40  41
HETATM   41  C   UNK     1      -8.808  16.906  67.284  1.00  0.00    -0.206 C  
BRANCH  41  42
HETATM   42  C   UNK     1      -7.990  17.993  66.564  1.00  0.00    -0.294 C  
BRANCH  42  43
HETATM   43  C   UNK     1      -8.423  19.433  66.882  1.00  0.00    -0.293 C  
HETATM   44  C   UNK     1      -9.919  19.494  67.228  1.00  0.00    -0.379 C  
HETATM   45  N   UNK     1      -7.645  20.009  68.017  1.00  0.00    -0.297 NA 
HETATM   46  O   UNK     1     -10.831  19.446  66.419  1.00  0.00    -0.409 OA 
HETATM   47  O   UNK     1     -10.106  19.588  68.571  1.00  0.00    -0.409 OA 
HETATM   48  H2  UNK     1      -6.642  19.953  67.845  1.00  0.00     0.000 HD 
HETATM   49  H1  UNK     1      -7.932  20.965  68.227  1.00  0.00     0.000 HD 
ENDBRANCH  42  43
ENDBRANCH  41  42
ENDBRANCH  40  41
ENDBRANCH  39  40
ENDBRANCH  37  39
ENDBRANCH  36  37
ENDBRANCH  35  36
ENDBRANCH  15  32
BRANCH  24  50
HETATM   50  N   UNK     1     -10.563  12.006  67.682  1.00  0.00    -0.206 NA 
HETATM   51  C   UNK     1     -11.736  11.329  68.192  1.00  0.00    -0.253 C  
HETATM   52  C   UNK     1     -10.813  13.450  67.595  1.00  0.00    -0.259 C  
ENDBRANCH  24  50
TORSDOF 9
ENDMDL
MODEL       62
REMARK 921   NORMALIZED FREE ENERGY PREDICTED BY IDOCK:   -5.07 KCAL/MOL
REMARK 922        TOTAL FREE ENERGY PREDICTED BY IDOCK:   -9.13 KCAL/MOL
REMARK 923 INTER-LIGAND FREE ENERGY PREDICTED BY IDOCK:   -8.11 KCAL/MOL
REMARK 924 INTRA-LIGAND FREE ENERGY PREDICTED BY IDOCK:   -1.03 KCAL/MOL
REMARK 927      BINDING AFFINITY PREDICTED BY RF-SCORE:    0.00 PKD
ROOT
HETATM    1  C   UNK     1      -9.783   8.025  69.669  1.00  0.00    -0.169 C  
HETATM    2  C   UNK     1      -9.814   9.146  68.646  1.00  0.00    -0.175 C  
HETATM    3  C   UNK     1      -9.966  10.557  69.288  1.00  0.00    -0.233 C  
HETATM    4  C   UNK     1     -11.126  10.585  70.256  1.00  0.00    -0.359 C  
HETATM    5  C   UNK     1     -11.980  11.823  70.321  1.00  0.00    -0.343 C  
HETATM    6  C   UNK     1     -11.434   9.509  71.002  1.00  0.00    -0.349 C  
HETATM    7  O   UNK     1     -12.573   9.477  71.820  1.00  0.00    -0.352 OA 
HETATM    8  C   UNK     1     -10.815   8.122  70.818  1.00  0.00    -0.228 C  
HETATM    9  C   UNK     1     -11.548  13.047  69.602  1.00  0.00    -0.322 A  
HETATM   10  O   UNK     1     -13.030  11.841  70.966  1.00  0.00    -0.253 OA 
HETATM   11  C   UNK     1     -12.203  14.271  69.821  1.00  0.00    -0.339 A  
HETATM   12  O   UNK     1     -11.975   7.346  70.493  1.00  0.00    -0.489 OA 
HETATM   13  C   UNK     1      -9.967   7.463  72.022  1.00  0.00    -0.166 C  
HETATM   14  H   UNK     1     -12.790   8.716  72.346  1.00  0.00     0.000 HD 
HETATM   15  C   UNK     1      -9.046   6.302  71.626  1.00  0.00    -0.145 C  
HETATM   16  O   UNK     1     -10.059   7.780  73.205  1.00  0.00    -0.287 OA 
HETATM   17  C   UNK     1     -11.772  15.443  69.199  1.00  0.00    -0.364 A  
HETATM   18  H   UNK     1     -12.608   7.406  71.199  1.00  0.00     0.000 HD 
HETATM   19  O   UNK     1     -13.307  14.404  70.621  1.00  0.00    -0.449 OA 
HETATM   20  H   UNK     1      -8.632  12.461  67.075  1.00  0.00     0.000 HD 
HETATM   21  H   UNK     1     -13.750  15.231  70.769  1.00  0.00     0.000 HD 
HETATM   22  C   UNK     1     -10.678  15.407  68.345  1.00  0.00    -0.256 A  
HETATM   23  C   UNK     1      -9.616   5.681  70.565  1.00  0.00    -0.174 C  
HETATM   24  C   UNK     1      -9.628   6.510  69.206  1.00  0.00    -0.139 C  
HETATM   25  C   UNK     1     -10.833  11.238  66.951  1.00  0.00    -0.333 C  
HETATM   26  O   UNK     1      -8.621  11.796  67.754  1.00  0.00    -0.139 OA 
HETATM   27  O   UNK     1     -10.753   4.891  70.767  1.00  0.00    -0.086 OA 
HETATM   28  C   UNK     1     -10.054  14.190  68.075  1.00  0.00    -0.233 A  
HETATM   29  C   UNK     1      -9.985  11.646  68.175  1.00  0.00    -0.195 C  
HETATM   30  C   UNK     1     -10.497  12.986  68.669  1.00  0.00    -0.236 A  
HETATM   31  H   UNK     1     -11.152   4.456  70.023  1.00  0.00     0.000 HD 
ENDROOT
BRANCH  15  32
HETATM   32  C   UNK     1      -7.559   6.408  71.353  1.00  0.00    -0.094 C  
HETATM   33  H   UNK     1      -7.251   4.442  70.700  1.00  0.00     0.000 HD 
HETATM   34  O   UNK     1      -6.987   7.492  71.517  1.00  0.00    -0.053 OA 
HETATM   35  N   UNK     1      -6.819   5.342  70.910  1.00  0.00    -0.047 N  
BRANCH  35  36
HETATM   36  C   UNK     1      -5.397   5.553  70.754  1.00  0.00    -0.009 C  
BRANCH  36  37
HETATM   37  N   UNK     1      -5.203   6.386  69.585  1.00  0.00    -0.013 NA 
HETATM   38  H   UNK     1      -4.256   6.764  69.536  1.00  0.00     0.000 HD 
BRANCH  37  39
HETATM   39  C   UNK     1      -5.561   5.632  68.369  1.00  0.00    -0.008 C  
BRANCH  39  40
HETATM   40  C   UNK     1      -5.143   6.358  67.078  1.00  0.00    -0.008 C  
BRANCH  40  41
HETATM   41  C   UNK     1      -6.155   6.215  65.936  1.00  0.00    -0.033 C  
BRANCH  41  42
HETATM   42  C   UNK     1      -6.925   4.885  66.018  1.00  0.00    -0.066 C  
BRANCH  42  43
HETATM   43  C   UNK     1      -6.484   3.828  64.994  1.00  0.00    -0.031 C  
HETATM   44  C   UNK     1      -7.401   2.596  65.046  1.00  0.00    -0.067 C  
HETATM   45  N   UNK     1      -6.485   4.367  63.603  1.00  0.00    -0.030 NA 
HETATM   46  O   UNK     1      -7.360   1.724  65.897  1.00  0.00    -0.055 OA 
HETATM   47  O   UNK     1      -8.293   2.608  64.020  1.00  0.00    -0.082 OA 
HETATM   48  H2  UNK     1      -5.917   5.211  63.532  1.00  0.00     0.000 HD 
HETATM   49  H1  UNK     1      -6.191   3.665  62.923  1.00  0.00     0.000 HD 
ENDBRANCH  42  43
ENDBRANCH  41  42
ENDBRANCH  40  41
ENDBRANCH  39  40
ENDBRANCH  37  39
ENDBRANCH  36  37
ENDBRANCH  35  36
ENDBRANCH  15  32
BRANCH  24  50
HETATM   50  N   UNK     1     -10.560   5.865  68.250  1.00  0.00    -0.236 NA 
HETATM   51  C   UNK     1     -11.112   6.677  67.187  1.00  0.00    -0.357 C  
HETATM   52  C   UNK     1      -9.968   4.642  67.695  1.00  0.00    -0.106 C  
ENDBRANCH  24  50
TORSDOF 9
ENDMDL
MODEL       63
REMARK 921   NORMALIZED FREE ENERGY PREDICTED BY IDOCK:   -5.05 KCAL/MOL
REMARK 922        TOTAL FREE ENERGY PREDICTED BY IDOCK:   -9.09 KCAL/MOL
REMARK 923 INTER-LIGAND FREE ENERGY PREDICTED BY IDOCK:   -8.66 KCAL/MOL
REMARK 924 INTRA-LIGAND FREE ENERGY PREDICTED BY IDOCK:   -0.43 KCAL/MOL
REMARK 927      BINDING AFFINITY PREDICTED BY RF-SCORE:    0.00 PKD
ROOT
HETATM    1  C   UNK     1      -8.386   9.626  67.760  1.00  0.00    -0.121 C  
HETATM    2  C   UNK     1      -8.865   8.642  68.813  1.00  0.00    -0.139 C  
HETATM    3  C   UNK     1     -10.384   8.775  69.129  1.00  0.00    -0.227 C  
HETATM    4  C   UNK     1     -10.747  10.211  69.429  1.00  0.00    -0.266 C  
HETATM    5  C   UNK     1     -11.761  10.488  70.508  1.00  0.00    -0.350 C  
HETATM    6  C   UNK     1     -10.137  11.229  68.796  1.00  0.00    -0.194 C  
HETATM    7  O   UNK     1     -10.377  12.566  69.141  1.00  0.00    -0.426 OA 
HETATM    8  C   UNK     1      -8.911  11.076  67.894  1.00  0.00    -0.134 C  
HETATM    9  C   UNK     1     -12.526   9.361  71.097  1.00  0.00    -0.370 A  
HETATM   10  O   UNK     1     -11.971  11.634  70.907  1.00  0.00    -0.289 OA 
HETATM   11  C   UNK     1     -13.624   9.609  71.939  1.00  0.00    -0.364 A  
HETATM   12  O   UNK     1      -7.952  11.873  68.599  1.00  0.00    -0.182 OA 
HETATM   13  C   UNK     1      -9.010  11.489  66.338  1.00  0.00    -0.197 C  
HETATM   14  H   UNK     1      -9.946  13.285  68.694  1.00  0.00     0.000 HD 
HETATM   15  C   UNK     1      -7.912  10.923  65.429  1.00  0.00     0.046 C  
HETATM   16  O   UNK     1      -9.846  12.256  65.865  1.00  0.00    -0.247 OA 
HETATM   17  C   UNK     1     -14.391   8.563  72.453  1.00  0.00    -0.412 A  
HETATM   18  H   UNK     1      -8.273  12.763  68.681  1.00  0.00     0.000 HD 
HETATM   19  O   UNK     1     -14.003  10.863  72.336  1.00  0.00    -0.247 OA 
HETATM   20  H   UNK     1     -11.122   5.836  70.187  1.00  0.00     0.000 HD 
HETATM   21  H   UNK     1     -14.745  11.031  72.906  1.00  0.00     0.000 HD 
HETATM   22  C   UNK     1     -14.069   7.250  72.133  1.00  0.00    -0.193 A  
HETATM   23  C   UNK     1      -6.798  10.779  66.188  1.00  0.00    -0.126 C  
HETATM   24  C   UNK     1      -6.863   9.640  67.299  1.00  0.00    -0.083 C  
HETATM   25  C   UNK     1      -9.756   7.609  71.348  1.00  0.00    -0.183 C  
HETATM   26  O   UNK     1     -10.872   6.473  69.527  1.00  0.00    -0.245 OA 
HETATM   27  O   UNK     1      -6.084  11.919  66.574  1.00  0.00    -0.413 OA 
HETATM   28  C   UNK     1     -12.949   6.988  71.344  1.00  0.00    -0.395 A  
HETATM   29  C   UNK     1     -10.794   7.732  70.211  1.00  0.00    -0.249 C  
HETATM   30  C   UNK     1     -12.140   8.033  70.842  1.00  0.00    -0.164 A  
HETATM   31  H   UNK     1      -5.303  11.817  67.105  1.00  0.00     0.000 HD 
ENDROOT
BRANCH  15  32
HETATM   32  C   UNK     1      -8.037   9.692  64.556  1.00  0.00    -0.143 C  
HETATM   33  H   UNK     1      -6.040   9.584  63.932  1.00  0.00     0.000 HD 
HETATM   34  O   UNK     1      -9.125   9.111  64.476  1.00  0.00    -0.159 OA 
HETATM   35  N   UNK     1      -6.974   9.180  63.856  1.00  0.00    -0.089 N  
BRANCH  35  36
HETATM   36  C   UNK     1      -7.238   8.043  63.003  1.00  0.00    -0.091 C  
BRANCH  36  37
HETATM   37  N   UNK     1      -6.425   6.942  63.477  1.00  0.00    -0.042 NA 
HETATM   38  H   UNK     1      -5.850   7.206  64.277  1.00  0.00     0.000 HD 
BRANCH  37  39
HETATM   39  C   UNK     1      -7.283   5.778  63.771  1.00  0.00    -0.055 C  
BRANCH  39  40
HETATM   40  C   UNK     1      -8.432   5.620  62.759  1.00  0.00    -0.037 C  
BRANCH  40  41
HETATM   41  C   UNK     1      -9.357   4.435  63.059  1.00  0.00    -0.110 C  
BRANCH  41  42
HETATM   42  C   UNK     1      -8.995   3.750  64.389  1.00  0.00    -0.124 C  
BRANCH  42  43
HETATM   43  C   UNK     1     -10.065   3.877  65.485  1.00  0.00    -0.071 C  
HETATM   44  C   UNK     1      -9.515   4.629  66.706  1.00  0.00    -0.162 C  
HETATM   45  N   UNK     1     -11.282   4.588  64.994  1.00  0.00    -1.039 NA 
HETATM   46  O   UNK     1      -8.772   4.155  67.549  1.00  0.00    -0.102 OA 
HETATM   47  O   UNK     1      -9.947   5.918  66.722  1.00  0.00    -0.152 OA 
HETATM   48  H2  UNK     1     -11.659   4.143  64.157  1.00  0.00     0.000 HD 
HETATM   49  H1  UNK     1     -11.992   4.672  65.721  1.00  0.00     0.000 HD 
ENDBRANCH  42  43
ENDBRANCH  41  42
ENDBRANCH  40  41
ENDBRANCH  39  40
ENDBRANCH  37  39
ENDBRANCH  36  37
ENDBRANCH  35  36
ENDBRANCH  15  32
BRANCH  24  50
HETATM   50  N   UNK     1      -5.740   9.821  68.248  1.00  0.00    -0.043 NA 
HETATM   51  C   UNK     1      -5.983  10.590  69.450  1.00  0.00    -0.039 C  
HETATM   52  C   UNK     1      -5.138   8.527  68.591  1.00  0.00    -0.029 C  
ENDBRANCH  24  50
TORSDOF 9
ENDMDL
MODEL       64
REMARK 921   NORMALIZED FREE ENERGY PREDICTED BY IDOCK:   -4.97 KCAL/MOL
REMARK 922        TOTAL FREE ENERGY PREDICTED BY IDOCK:   -8.97 KCAL/MOL
REMARK 923 INTER-LIGAND FREE ENERGY PREDICTED BY IDOCK:   -9.83 KCAL/MOL
REMARK 924 INTRA-LIGAND FREE ENERGY PREDICTED BY IDOCK:    0.86 KCAL/MOL
REMARK 927      BINDING AFFINITY PREDICTED BY RF-SCORE:    0.00 PKD
ROOT
HETATM    1  C   UNK     1     -10.596  14.697  67.956  1.00  0.00    -0.240 C  
HETATM    2  C   UNK     1     -10.694  16.191  67.706  1.00  0.00    -0.325 C  
HETATM    3  C   UNK     1      -9.325  16.844  67.352  1.00  0.00    -0.235 C  
HETATM    4  C   UNK     1      -8.271  16.466  68.366  1.00  0.00    -0.190 C  
HETATM    5  C   UNK     1      -7.259  17.503  68.774  1.00  0.00    -0.257 C  
HETATM    6  C   UNK     1      -8.267  15.251  68.943  1.00  0.00    -0.186 C  
HETATM    7  O   UNK     1      -7.368  14.921  69.968  1.00  0.00    -0.327 OA 
HETATM    8  C   UNK     1      -9.396  14.228  68.814  1.00  0.00    -0.119 C  
HETATM    9  C   UNK     1      -7.186  18.785  68.031  1.00  0.00    -0.262 A  
HETATM   10  O   UNK     1      -6.485  17.305  69.712  1.00  0.00    -0.218 OA 
HETATM   11  C   UNK     1      -6.118  19.673  68.243  1.00  0.00    -0.231 A  
HETATM   12  O   UNK     1      -9.803  14.094  70.181  1.00  0.00     0.366 OA 
HETATM   13  C   UNK     1      -9.100  12.796  68.131  1.00  0.00    -0.203 C  
HETATM   14  H   UNK     1      -7.366  14.063  70.376  1.00  0.00     0.000 HD 
HETATM   15  C   UNK     1     -10.334  12.017  67.660  1.00  0.00    -0.213 C  
HETATM   16  O   UNK     1      -7.989  12.281  68.028  1.00  0.00    -0.130 OA 
HETATM   17  C   UNK     1      -6.002  20.855  67.510  1.00  0.00    -0.337 A  
HETATM   18  H   UNK     1      -9.067  13.806  70.707  1.00  0.00     0.000 HD 
HETATM   19  O   UNK     1      -5.143  19.470  69.184  1.00  0.00    -0.181 OA 
HETATM   20  H   UNK     1     -10.214  19.418  65.652  1.00  0.00     0.000 HD 
HETATM   21  H   UNK     1      -4.421  20.070  69.328  1.00  0.00     0.000 HD 
HETATM   22  C   UNK     1      -6.958  21.166  66.551  1.00  0.00    -0.100 A  
HETATM   23  C   UNK     1     -11.360  12.359  68.476  1.00  0.00    -0.293 C  
HETATM   24  C   UNK     1     -11.892  13.852  68.327  1.00  0.00    -0.376 C  
HETATM   25  C   UNK     1     -10.463  19.030  68.130  1.00  0.00    -0.402 C  
HETATM   26  O   UNK     1     -10.100  18.486  65.801  1.00  0.00    -0.537 OA 
HETATM   27  O   UNK     1     -11.381  11.870  69.787  1.00  0.00    -0.429 OA 
HETATM   28  C   UNK     1      -8.053  20.322  66.369  1.00  0.00    -0.239 A  
HETATM   29  C   UNK     1      -9.513  18.371  67.107  1.00  0.00    -0.282 C  
HETATM   30  C   UNK     1      -8.205  19.138  67.127  1.00  0.00    -0.290 A  
HETATM   31  H   UNK     1     -12.100  12.109  70.359  1.00  0.00     0.000 HD 
ENDROOT
BRANCH  15  32
HETATM   32  C   UNK     1     -10.866  11.980  66.243  1.00  0.00    -0.279 C  
HETATM   33  H   UNK     1      -9.331  13.079  65.336  1.00  0.00     0.000 HD 
HETATM   34  O   UNK     1     -11.907  11.359  66.000  1.00  0.00    -0.176 OA 
HETATM   35  N   UNK     1     -10.224  12.604  65.203  1.00  0.00    -0.290 N  
BRANCH  35  36
HETATM   36  C   UNK     1     -10.870  12.555  63.911  1.00  0.00    -0.431 C  
BRANCH  36  37
HETATM   37  N   UNK     1     -10.834  11.181  63.454  1.00  0.00    -0.732 NA 
HETATM   38  H   UNK     1     -11.638  10.950  62.869  1.00  0.00     0.000 HD 
BRANCH  37  39
HETATM   39  C   UNK     1      -9.556  10.915  62.768  1.00  0.00    -0.308 C  
BRANCH  39  40
HETATM   40  C   UNK     1      -8.489  10.332  63.712  1.00  0.00    -0.179 C  
BRANCH  40  41
HETATM   41  C   UNK     1      -8.400   8.802  63.668  1.00  0.00    -0.146 C  
BRANCH  41  42
HETATM   42  C   UNK     1      -7.939   8.218  65.015  1.00  0.00    -0.141 C  
BRANCH  42  43
HETATM   43  C   UNK     1      -8.416   9.003  66.248  1.00  0.00    -0.125 C  
HETATM   44  C   UNK     1      -9.591   8.289  66.933  1.00  0.00    -0.207 C  
HETATM   45  N   UNK     1      -7.322   9.189  67.245  1.00  0.00    -0.087 NA 
HETATM   46  O   UNK     1     -10.745   8.295  66.538  1.00  0.00    -0.090 OA 
HETATM   47  O   UNK     1      -9.177   7.620  68.042  1.00  0.00    -0.138 OA 
HETATM   48  H2  UNK     1      -6.504   9.626  66.821  1.00  0.00     0.000 HD 
HETATM   49  H1  UNK     1      -7.639   9.711  68.063  1.00  0.00     0.000 HD 
ENDBRANCH  42  43
ENDBRANCH  41  42
ENDBRANCH  40  41
ENDBRANCH  39  40
ENDBRANCH  37  39
ENDBRANCH  36  37
ENDBRANCH  35  36
ENDBRANCH  15  32
BRANCH  24  50
HETATM   50  N   UNK     1     -12.758  14.179  69.485  1.00  0.00     0.030 NA 
HETATM   51  C   UNK     1     -12.696  13.315  70.644  1.00  0.00    -0.156 C  
HETATM   52  C   UNK     1     -12.577  15.579  69.888  1.00  0.00    -0.133 C  
ENDBRANCH  24  50
TORSDOF 9
ENDMDL
MODEL       65
REMARK 921   NORMALIZED FREE ENERGY PREDICTED BY IDOCK:   -4.96 KCAL/MOL
REMARK 922        TOTAL FREE ENERGY PREDICTED BY IDOCK:   -8.96 KCAL/MOL
REMARK 923 INTER-LIGAND FREE ENERGY PREDICTED BY IDOCK:   -7.73 KCAL/MOL
REMARK 924 INTRA-LIGAND FREE ENERGY PREDICTED BY IDOCK:   -1.24 KCAL/MOL
REMARK 927      BINDING AFFINITY PREDICTED BY RF-SCORE:    0.00 PKD
ROOT
HETATM    1  C   UNK     1      -9.592  13.502  67.454  1.00  0.00    -0.227 C  
HETATM    2  C   UNK     1     -10.060  14.941  67.326  1.00  0.00    -0.235 C  
HETATM    3  C   UNK     1      -8.989  15.879  66.696  1.00  0.00    -0.301 C  
HETATM    4  C   UNK     1      -7.662  15.733  67.404  1.00  0.00    -0.211 C  
HETATM    5  C   UNK     1      -6.822  16.963  67.622  1.00  0.00    -0.141 C  
HETATM    6  C   UNK     1      -7.261  14.544  67.889  1.00  0.00    -0.158 C  
HETATM    7  O   UNK     1      -6.090  14.411  68.647  1.00  0.00    -0.078 OA 
HETATM    8  C   UNK     1      -8.147  13.299  67.970  1.00  0.00    -0.157 C  
HETATM    9  C   UNK     1      -7.206  18.236  66.962  1.00  0.00    -0.220 A  
HETATM   10  O   UNK     1      -5.817  16.931  68.334  1.00  0.00    -0.130 OA 
HETATM   11  C   UNK     1      -6.329  19.334  66.968  1.00  0.00    -0.186 A  
HETATM   12  O   UNK     1      -8.167  13.070  69.385  1.00  0.00     0.031 OA 
HETATM   13  C   UNK     1      -7.733  11.972  67.151  1.00  0.00    -0.161 C  
HETATM   14  H   UNK     1      -5.807  13.571  68.990  1.00  0.00     0.000 HD 
HETATM   15  C   UNK     1      -8.854  10.946  66.941  1.00  0.00    -0.145 C  
HETATM   16  O   UNK     1      -6.600  11.714  66.755  1.00  0.00    -0.138 OA 
HETATM   17  C   UNK     1      -6.648  20.518  66.301  1.00  0.00    -0.286 A  
HETATM   18  H   UNK     1      -7.280  12.945  69.701  1.00  0.00     0.000 HD 
HETATM   19  O   UNK     1      -5.132  19.342  67.634  1.00  0.00    -0.172 OA 
HETATM   20  H   UNK     1     -10.789  18.209  65.418  1.00  0.00     0.000 HD 
HETATM   21  H   UNK     1      -4.539  20.084  67.638  1.00  0.00     0.000 HD 
HETATM   22  C   UNK     1      -7.853  20.620  65.619  1.00  0.00     0.319 A  
HETATM   23  C   UNK     1      -9.695  11.049  67.998  1.00  0.00    -0.172 C  
HETATM   24  C   UNK     1     -10.550  12.391  68.071  1.00  0.00    -0.221 C  
HETATM   25  C   UNK     1     -10.333  17.757  67.855  1.00  0.00    -0.388 C  
HETATM   26  O   UNK     1     -10.448  17.324  65.478  1.00  0.00    -0.609 OA 
HETATM   27  O   UNK     1      -9.290  10.557  69.244  1.00  0.00    -0.239 OA 
HETATM   28  C   UNK     1      -8.757  19.559  65.653  1.00  0.00     0.323 A  
HETATM   29  C   UNK     1      -9.548  17.330  66.597  1.00  0.00    -0.276 C  
HETATM   30  C   UNK     1      -8.466  18.364  66.351  1.00  0.00    -0.264 A  
HETATM   31  H   UNK     1      -9.880  10.630  69.984  1.00  0.00     0.000 HD 
ENDROOT
BRANCH  15  32
HETATM   32  C   UNK     1      -9.699  10.805  65.692  1.00  0.00    -0.237 C  
HETATM   33  H   UNK     1      -8.874  12.398  64.612  1.00  0.00     0.000 HD 
HETATM   34  O   UNK     1     -10.520   9.884  65.615  1.00  0.00    -0.144 OA 
HETATM   35  N   UNK     1      -9.577  11.659  64.625  1.00  0.00    -0.179 N  
BRANCH  35  36
HETATM   36  C   UNK     1     -10.489  11.462  63.522  1.00  0.00    -0.417 C  
BRANCH  36  37
HETATM   37  N   UNK     1      -9.779  10.734  62.490  1.00  0.00    -0.593 NA 
HETATM   38  H   UNK     1     -10.246  10.798  61.585  1.00  0.00     0.000 HD 
BRANCH  37  39
HETATM   39  C   UNK     1      -8.380  11.196  62.426  1.00  0.00    -0.180 C  
BRANCH  39  40
HETATM   40  C   UNK     1      -7.376  10.033  62.344  1.00  0.00    -0.135 C  
BRANCH  40  41
HETATM   41  C   UNK     1      -7.727   8.851  63.255  1.00  0.00    -0.123 C  
BRANCH  41  42
HETATM   42  C   UNK     1      -6.758   8.739  64.445  1.00  0.00    -0.071 C  
BRANCH  42  43
HETATM   43  C   UNK     1      -7.338   8.029  65.677  1.00  0.00    -0.079 C  
HETATM   44  C   UNK     1      -7.321   6.504  65.492  1.00  0.00    -0.076 C  
HETATM   45  N   UNK     1      -6.587   8.369  66.920  1.00  0.00    -0.057 NA 
HETATM   46  O   UNK     1      -8.108   5.869  64.811  1.00  0.00    -0.123 OA 
HETATM   47  O   UNK     1      -6.290   5.941  66.176  1.00  0.00    -0.039 OA 
HETATM   48  H2  UNK     1      -6.540   9.378  67.061  1.00  0.00     0.000 HD 
HETATM   49  H1  UNK     1      -6.973   7.898  67.738  1.00  0.00     0.000 HD 
ENDBRANCH  42  43
ENDBRANCH  41  42
ENDBRANCH  40  41
ENDBRANCH  39  40
ENDBRANCH  37  39
ENDBRANCH  36  37
ENDBRANCH  35  36
ENDBRANCH  15  32
BRANCH  24  50
HETATM   50  N   UNK     1     -11.152  12.512  69.420  1.00  0.00    -0.141 NA 
HETATM   51  C   UNK     1     -11.875  13.725  69.734  1.00  0.00    -0.331 C  
HETATM   52  C   UNK     1     -11.980  11.338  69.724  1.00  0.00    -0.360 C  
ENDBRANCH  24  50
TORSDOF 9
ENDMDL
MODEL       66
REMARK 921   NORMALIZED FREE ENERGY PREDICTED BY IDOCK:   -4.96 KCAL/MOL
REMARK 922        TOTAL FREE ENERGY PREDICTED BY IDOCK:   -8.96 KCAL/MOL
REMARK 923 INTER-LIGAND FREE ENERGY PREDICTED BY IDOCK:   -7.96 KCAL/MOL
REMARK 924 INTRA-LIGAND FREE ENERGY PREDICTED BY IDOCK:   -1.00 KCAL/MOL
REMARK 927      BINDING AFFINITY PREDICTED BY RF-SCORE:    0.00 PKD
ROOT
HETATM    1  C   UNK     1      -8.466  10.244  68.361  1.00  0.00    -0.124 C  
HETATM    2  C   UNK     1      -9.121  11.583  68.077  1.00  0.00    -0.174 C  
HETATM    3  C   UNK     1      -8.101  12.757  67.986  1.00  0.00    -0.162 C  
HETATM    4  C   UNK     1      -7.187  12.769  69.189  1.00  0.00     0.087 C  
HETATM    5  C   UNK     1      -6.782  14.097  69.771  1.00  0.00    -0.065 C  
HETATM    6  C   UNK     1      -6.790  11.624  69.771  1.00  0.00     0.053 C  
HETATM    7  O   UNK     1      -6.037  11.617  70.954  1.00  0.00    -0.489 OA 
HETATM    8  C   UNK     1      -7.357  10.242  69.439  1.00  0.00    -0.115 C  
HETATM    9  C   UNK     1      -7.108  15.346  69.040  1.00  0.00    -0.144 A  
HETATM   10  O   UNK     1      -6.178  14.165  70.843  1.00  0.00    -0.183 OA 
HETATM   11  C   UNK     1      -6.556  16.573  69.444  1.00  0.00    -0.213 A  
HETATM   12  O   UNK     1      -7.913   9.863  70.704  1.00  0.00    -0.377 OA 
HETATM   13  C   UNK     1      -6.381   9.103  68.845  1.00  0.00    -0.044 C  
HETATM   14  H   UNK     1      -5.757  10.808  71.366  1.00  0.00     0.000 HD 
HETATM   15  C   UNK     1      -7.080   7.925  68.155  1.00  0.00    -0.089 C  
HETATM   16  O   UNK     1      -5.158   9.090  68.965  1.00  0.00    -0.036 OA 
HETATM   17  C   UNK     1      -6.804  17.748  68.731  1.00  0.00    -0.247 A  
HETATM   18  H   UNK     1      -7.232   9.862  71.366  1.00  0.00     0.000 HD 
HETATM   19  O   UNK     1      -5.771  16.719  70.557  1.00  0.00    -0.172 OA 
HETATM   20  H   UNK     1      -9.644  14.859  66.114  1.00  0.00     0.000 HD 
HETATM   21  H   UNK     1      -5.397  17.549  70.830  1.00  0.00     0.000 HD 
HETATM   22  C   UNK     1      -7.612  17.710  67.603  1.00  0.00    -0.211 A  
HETATM   23  C   UNK     1      -8.284   7.766  68.753  1.00  0.00    -0.128 C  
HETATM   24  C   UNK     1      -9.346   8.923  68.485  1.00  0.00    -0.140 C  
HETATM   25  C   UNK     1     -10.155  14.236  68.503  1.00  0.00    -0.246 C  
HETATM   26  O   UNK     1      -9.186  14.046  66.295  1.00  0.00    -0.214 OA 
HETATM   27  O   UNK     1      -8.340   7.223  70.041  1.00  0.00    -0.133 OA 
HETATM   28  C   UNK     1      -8.212  16.510  67.224  1.00  0.00    -0.196 A  
HETATM   29  C   UNK     1      -8.851  14.090  67.690  1.00  0.00    -0.190 C  
HETATM   30  C   UNK     1      -8.000  15.317  67.952  1.00  0.00    -0.145 A  
HETATM   31  H   UNK     1      -9.185   7.112  70.461  1.00  0.00     0.000 HD 
ENDROOT
BRANCH  15  32
HETATM   32  C   UNK     1      -7.284   7.772  66.661  1.00  0.00    -0.087 C  
HETATM   33  H   UNK     1      -8.731   6.260  66.727  1.00  0.00     0.000 HD 
HETATM   34  O   UNK     1      -6.664   8.508  65.885  1.00  0.00    -0.056 OA 
HETATM   35  N   UNK     1      -8.151   6.851  66.132  1.00  0.00    -0.110 N  
BRANCH  35  36
HETATM   36  C   UNK     1      -8.204   6.755  64.690  1.00  0.00    -0.032 C  
BRANCH  36  37
HETATM   37  N   UNK     1      -8.984   7.875  64.205  1.00  0.00     0.140 NA 
HETATM   38  H   UNK     1      -9.225   8.527  64.952  1.00  0.00     0.000 HD 
BRANCH  37  39
HETATM   39  C   UNK     1      -8.269   8.539  63.099  1.00  0.00    -0.151 C  
BRANCH  39  40
HETATM   40  C   UNK     1      -8.437  10.069  63.120  1.00  0.00    -0.181 C  
BRANCH  40  41
HETATM   41  C   UNK     1      -9.869  10.535  62.837  1.00  0.00    -0.224 C  
BRANCH  41  42
HETATM   42  C   UNK     1     -10.176  11.882  63.514  1.00  0.00    -0.485 C  
BRANCH  42  43
HETATM   43  C   UNK     1     -11.671  12.157  63.741  1.00  0.00    -0.485 C  
HETATM   44  C   UNK     1     -11.946  12.523  65.208  1.00  0.00    -0.438 C  
HETATM   45  N   UNK     1     -12.172  13.260  62.870  1.00  0.00    -0.811 NA 
HETATM   46  O   UNK     1     -11.996  11.731  66.133  1.00  0.00    -0.464 OA 
HETATM   47  O   UNK     1     -12.108  13.865  65.354  1.00  0.00    -0.365 OA 
HETATM   48  H2  UNK     1     -11.974  13.075  61.887  1.00  0.00     0.000 HD 
HETATM   49  H1  UNK     1     -13.165  13.441  63.021  1.00  0.00     0.000 HD 
ENDBRANCH  42  43
ENDBRANCH  41  42
ENDBRANCH  40  41
ENDBRANCH  39  40
ENDBRANCH  37  39
ENDBRANCH  36  37
ENDBRANCH  35  36
ENDBRANCH  15  32
BRANCH  24  50
HETATM   50  N   UNK     1     -10.463   8.792  69.450  1.00  0.00    -0.221 NA 
HETATM   51  C   UNK     1     -11.590   9.688  69.309  1.00  0.00     0.247 C  
HETATM   52  C   UNK     1     -10.930   7.402  69.517  1.00  0.00    -0.139 C  
ENDBRANCH  24  50
TORSDOF 9
ENDMDL
MODEL       67
REMARK 921   NORMALIZED FREE ENERGY PREDICTED BY IDOCK:   -4.92 KCAL/MOL
REMARK 922        TOTAL FREE ENERGY PREDICTED BY IDOCK:   -8.90 KCAL/MOL
REMARK 923 INTER-LIGAND FREE ENERGY PREDICTED BY IDOCK:   -7.97 KCAL/MOL
REMARK 924 INTRA-LIGAND FREE ENERGY PREDICTED BY IDOCK:   -0.93 KCAL/MOL
REMARK 927      BINDING AFFINITY PREDICTED BY RF-SCORE:    0.00 PKD
ROOT
HETATM    1  C   UNK     1     -10.215  12.710  67.780  1.00  0.00    -0.222 C  
HETATM    2  C   UNK     1     -11.156  11.939  68.688  1.00  0.00    -0.295 C  
HETATM    3  C   UNK     1     -10.430  10.866  69.553  1.00  0.00    -0.176 C  
HETATM    4  C   UNK     1      -9.557   9.983  68.691  1.00  0.00    -0.158 C  
HETATM    5  C   UNK     1      -9.473   8.516  69.018  1.00  0.00    -0.150 C  
HETATM    6  C   UNK     1      -8.916  10.476  67.617  1.00  0.00    -0.138 C  
HETATM    7  O   UNK     1      -8.196   9.651  66.742  1.00  0.00    -0.112 OA 
HETATM    8  C   UNK     1      -9.148  11.872  67.036  1.00  0.00    -0.191 C  
HETATM    9  C   UNK     1     -10.068   8.013  70.281  1.00  0.00    -0.192 A  
HETATM   10  O   UNK     1      -8.914   7.724  68.257  1.00  0.00    -0.132 OA 
HETATM   11  C   UNK     1      -9.816   6.700  70.715  1.00  0.00    -0.183 A  
HETATM   12  O   UNK     1      -9.617  11.547  65.722  1.00  0.00    -0.224 OA 
HETATM   13  C   UNK     1      -7.930  12.930  66.996  1.00  0.00    -0.022 C  
HETATM   14  H   UNK     1      -7.743  10.000  65.983  1.00  0.00     0.000 HD 
HETATM   15  C   UNK     1      -8.333  14.398  66.806  1.00  0.00    -0.005 C  
HETATM   16  O   UNK     1      -6.739  12.635  67.042  1.00  0.00    -0.084 OA 
HETATM   17  C   UNK     1     -10.317   6.230  71.929  1.00  0.00    -0.234 A  
HETATM   18  H   UNK     1      -8.962  11.033  65.266  1.00  0.00     0.000 HD 
HETATM   19  O   UNK     1      -9.098   5.789  69.986  1.00  0.00    -0.139 OA 
HETATM   20  H   UNK     1     -12.391  10.582  72.078  1.00  0.00     0.000 HD 
HETATM   21  H   UNK     1      -8.928   4.901  70.279  1.00  0.00     0.000 HD 
HETATM   22  C   UNK     1     -11.082   7.070  72.729  1.00  0.00    -0.320 A  
HETATM   23  C   UNK     1      -9.476  14.410  66.080  1.00  0.00    -0.242 C  
HETATM   24  C   UNK     1     -10.771  13.854  66.823  1.00  0.00    -0.281 C  
HETATM   25  C   UNK     1     -12.774   9.791  69.716  1.00  0.00     0.810 C  
HETATM   26  O   UNK     1     -11.761  11.034  71.527  1.00  0.00     0.182 OA 
HETATM   27  O   UNK     1      -9.421  14.105  64.715  1.00  0.00    -0.240 OA 
HETATM   28  C   UNK     1     -11.387   8.356  72.284  1.00  0.00    -0.448 A  
HETATM   29  C   UNK     1     -11.462  10.126  70.456  1.00  0.00    -0.337 C  
HETATM   30  C   UNK     1     -10.917   8.838  71.042  1.00  0.00    -0.328 A  
HETATM   31  H   UNK     1     -10.223  14.113  64.207  1.00  0.00     0.000 HD 
ENDROOT
BRANCH  15  32
HETATM   32  C   UNK     1      -8.479  15.423  67.912  1.00  0.00    -0.147 C  
HETATM   33  H   UNK     1      -9.487  16.889  66.807  1.00  0.00     0.000 HD 
HETATM   34  O   UNK     1      -8.065  15.157  69.046  1.00  0.00    -0.163 OA 
HETATM   35  N   UNK     1      -9.075  16.642  67.706  1.00  0.00    -0.211 N  
BRANCH  35  36
HETATM   36  C   UNK     1      -9.090  17.559  68.823  1.00  0.00    -0.212 C  
BRANCH  36  37
HETATM   37  N   UNK     1     -10.475  17.836  69.145  1.00  0.00    -0.414 NA 
HETATM   38  H   UNK     1     -10.851  18.607  68.593  1.00  0.00     0.000 HD 
BRANCH  37  39
HETATM   39  C   UNK     1     -11.277  16.606  68.998  1.00  0.00    -0.165 C  
BRANCH  39  40
HETATM   40  C   UNK     1     -11.318  15.769  70.288  1.00  0.00    -0.371 C  
BRANCH  40  41
HETATM   41  C   UNK     1     -12.492  14.785  70.346  1.00  0.00    -0.405 C  
BRANCH  41  42
HETATM   42  C   UNK     1     -13.775  15.458  70.865  1.00  0.00    -0.310 C  
BRANCH  42  43
HETATM   43  C   UNK     1     -14.128  15.122  72.323  1.00  0.00    -0.534 C  
HETATM   44  C   UNK     1     -13.626  13.720  72.701  1.00  0.00    -0.507 C  
HETATM   45  N   UNK     1     -13.547  16.111  73.277  1.00  0.00    -0.699 NA 
HETATM   46  O   UNK     1     -14.158  12.671  72.377  1.00  0.00    -0.310 OA 
HETATM   47  O   UNK     1     -12.484  13.791  73.435  1.00  0.00     0.052 OA 
HETATM   48  H2  UNK     1     -13.824  17.063  73.038  1.00  0.00     0.000 HD 
HETATM   49  H1  UNK     1     -13.782  15.888  74.244  1.00  0.00     0.000 HD 
ENDBRANCH  42  43
ENDBRANCH  41  42
ENDBRANCH  40  41
ENDBRANCH  39  40
ENDBRANCH  37  39
ENDBRANCH  36  37
ENDBRANCH  35  36
ENDBRANCH  15  32
BRANCH  24  50
HETATM   50  N   UNK     1     -11.840  13.615  65.825  1.00  0.00    -0.353 NA 
HETATM   51  C   UNK     1     -12.387  12.279  65.722  1.00  0.00     0.130 C  
HETATM   52  C   UNK     1     -12.924  14.593  65.982  1.00  0.00     0.511 C  
ENDBRANCH  24  50
TORSDOF 9
ENDMDL
MODEL       68
REMARK 921   NORMALIZED FREE ENERGY PREDICTED BY IDOCK:   -4.88 KCAL/MOL
REMARK 922        TOTAL FREE ENERGY PREDICTED BY IDOCK:   -8.84 KCAL/MOL
REMARK 923 INTER-LIGAND FREE ENERGY PREDICTED BY IDOCK:   -7.38 KCAL/MOL
REMARK 924 INTRA-LIGAND FREE ENERGY PREDICTED BY IDOCK:   -1.46 KCAL/MOL
REMARK 927      BINDING AFFINITY PREDICTED BY RF-SCORE:    0.00 PKD
ROOT
HETATM    1  C   UNK     1      -9.063   8.331  69.310  1.00  0.00    -0.151 C  
HETATM    2  C   UNK     1     -10.130   9.121  68.574  1.00  0.00    -0.212 C  
HETATM    3  C   UNK     1      -9.545  10.254  67.681  1.00  0.00    -0.173 C  
HETATM    4  C   UNK     1      -8.583  11.116  68.465  1.00  0.00    -0.157 C  
HETATM    5  C   UNK     1      -8.570  12.599  68.208  1.00  0.00    -0.167 C  
HETATM    6  C   UNK     1      -7.796  10.587  69.419  1.00  0.00    -0.147 C  
HETATM    7  O   UNK     1      -6.982  11.385  70.235  1.00  0.00    -0.457 OA 
HETATM    8  C   UNK     1      -7.923   9.158  69.951  1.00  0.00    -0.104 C  
HETATM    9  C   UNK     1      -9.336  13.148  67.062  1.00  0.00    -0.238 A  
HETATM   10  O   UNK     1      -7.931  13.366  68.930  1.00  0.00    -0.033 OA 
HETATM   11  C   UNK     1      -9.168  14.487  66.669  1.00  0.00    -0.266 A  
HETATM   12  O   UNK     1      -8.221   9.405  71.330  1.00  0.00    -0.302 OA 
HETATM   13  C   UNK     1      -6.691   8.131  69.776  1.00  0.00    -0.040 C  
HETATM   14  H   UNK     1      -6.427  11.011  70.909  1.00  0.00     0.000 HD 
HETATM   15  C   UNK     1      -7.037   6.645  69.939  1.00  0.00    -0.068 C  
HETATM   16  O   UNK     1      -5.521   8.458  69.590  1.00  0.00    -0.029 OA 
HETATM   17  C   UNK     1      -9.834  15.004  65.557  1.00  0.00    -0.352 A  
HETATM   18  H   UNK     1      -7.521   9.912  71.723  1.00  0.00     0.000 HD 
HETATM   19  O   UNK     1      -8.378  15.379  67.345  1.00  0.00    -0.158 OA 
HETATM   20  H   UNK     1     -11.826  10.613  65.451  1.00  0.00     0.000 HD 
HETATM   21  H   UNK     1      -8.265  16.285  67.079  1.00  0.00     0.000 HD 
HETATM   22  C   UNK     1     -10.682  14.186  64.821  1.00  0.00    -0.436 A  
HETATM   23  C   UNK     1      -8.074   6.568  70.807  1.00  0.00    -0.120 C  
HETATM   24  C   UNK     1      -9.466   7.127  70.270  1.00  0.00    -0.162 C  
HETATM   25  C   UNK     1     -11.910  11.275  67.882  1.00  0.00    -0.209 C  
HETATM   26  O   UNK     1     -11.121  10.151  65.891  1.00  0.00     0.312 OA 
HETATM   27  O   UNK     1      -7.845   6.806  72.167  1.00  0.00    -0.095 OA 
HETATM   28  C   UNK     1     -10.901  12.872  65.233  1.00  0.00    -0.316 A  
HETATM   29  C   UNK     1     -10.700  11.011  66.960  1.00  0.00    -0.270 C  
HETATM   30  C   UNK     1     -10.262  12.341  66.377  1.00  0.00    -0.247 A  
HETATM   31  H   UNK     1      -8.573   6.752  72.775  1.00  0.00     0.000 HD 
ENDROOT
BRANCH  15  32
HETATM   32  C   UNK     1      -7.308   5.673  68.810  1.00  0.00    -0.083 C  
HETATM   33  H   UNK     1      -9.088   4.861  69.557  1.00  0.00     0.000 HD 
HETATM   34  O   UNK     1      -6.542   5.638  67.840  1.00  0.00    -0.049 OA 
HETATM   35  N   UNK     1      -8.392   4.832  68.813  1.00  0.00    -0.082 N  
BRANCH  35  36
HETATM   36  C   UNK     1      -8.502   3.902  67.711  1.00  0.00    -0.095 C  
BRANCH  36  37
HETATM   37  N   UNK     1      -9.792   4.111  67.088  1.00  0.00    -0.187 NA 
HETATM   38  H   UNK     1     -10.562   3.830  67.696  1.00  0.00     0.000 HD 
BRANCH  37  39
HETATM   39  C   UNK     1      -9.915   5.514  66.650  1.00  0.00    -0.186 C  
BRANCH  39  40
HETATM   40  C   UNK     1      -9.035   5.831  65.428  1.00  0.00    -0.047 C  
BRANCH  40  41
HETATM   41  C   UNK     1      -8.244   7.137  65.562  1.00  0.00    -0.139 C  
BRANCH  41  42
HETATM   42  C   UNK     1      -8.005   7.803  64.195  1.00  0.00    -0.113 C  
BRANCH  42  43
HETATM   43  C   UNK     1      -8.322   9.306  64.153  1.00  0.00    -0.176 C  
HETATM   44  C   UNK     1      -7.108  10.110  63.663  1.00  0.00    -0.110 C  
HETATM   45  N   UNK     1      -9.483   9.605  63.266  1.00  0.00    -0.510 NA 
HETATM   46  O   UNK     1      -6.126  10.381  64.333  1.00  0.00    -0.133 OA 
HETATM   47  O   UNK     1      -7.254  10.471  62.360  1.00  0.00    -0.141 OA 
HETATM   48  H2  UNK     1     -10.303   9.061  63.533  1.00  0.00     0.000 HD 
HETATM   49  H1  UNK     1      -9.694  10.603  63.239  1.00  0.00     0.000 HD 
ENDBRANCH  42  43
ENDBRANCH  41  42
ENDBRANCH  40  41
ENDBRANCH  39  40
ENDBRANCH  37  39
ENDBRANCH  36  37
ENDBRANCH  35  36
ENDBRANCH  15  32
BRANCH  24  50
HETATM   50  N   UNK     1     -10.398   7.288  71.411  1.00  0.00    -0.199 NA 
HETATM   51  C   UNK     1     -11.221   8.478  71.452  1.00  0.00    -0.266 C  
HETATM   52  C   UNK     1     -11.233   6.092  71.571  1.00  0.00    -0.264 C  
ENDBRANCH  24  50
TORSDOF 9
ENDMDL
MODEL       69
REMARK 921   NORMALIZED FREE ENERGY PREDICTED BY IDOCK:   -4.83 KCAL/MOL
REMARK 922        TOTAL FREE ENERGY PREDICTED BY IDOCK:   -8.76 KCAL/MOL
REMARK 923 INTER-LIGAND FREE ENERGY PREDICTED BY IDOCK:   -7.47 KCAL/MOL
REMARK 924 INTRA-LIGAND FREE ENERGY PREDICTED BY IDOCK:   -1.30 KCAL/MOL
REMARK 927      BINDING AFFINITY PREDICTED BY RF-SCORE:    0.00 PKD
ROOT
HETATM    1  C   UNK     1      -7.702   8.211  66.758  1.00  0.00    -0.095 C  
HETATM    2  C   UNK     1      -6.818   9.384  67.142  1.00  0.00    -0.084 C  
HETATM    3  C   UNK     1      -7.592  10.518  67.878  1.00  0.00    -0.092 C  
HETATM    4  C   UNK     1      -8.827  10.916  67.104  1.00  0.00    -0.135 C  
HETATM    5  C   UNK     1      -9.213  12.370  67.062  1.00  0.00    -0.208 C  
HETATM    6  C   UNK     1      -9.536  10.006  66.413  1.00  0.00    -0.196 C  
HETATM    7  O   UNK     1     -10.616  10.373  65.597  1.00  0.00    -0.157 OA 
HETATM    8  C   UNK     1      -9.084   8.567  66.159  1.00  0.00    -0.195 C  
HETATM    9  C   UNK     1      -8.509  13.338  67.939  1.00  0.00    -0.177 A  
HETATM   10  O   UNK     1     -10.108  12.771  66.316  1.00  0.00    -0.249 OA 
HETATM   11  C   UNK     1      -8.991  14.651  68.083  1.00  0.00    -0.179 A  
HETATM   12  O   UNK     1      -9.009   8.551  64.728  1.00  0.00    -0.412 OA 
HETATM   13  C   UNK     1      -9.967   7.343  66.729  1.00  0.00    -0.230 C  
HETATM   14  H   UNK     1     -11.117   9.731  65.108  1.00  0.00     0.000 HD 
HETATM   15  C   UNK     1      -9.252   5.988  66.807  1.00  0.00    -0.143 C  
HETATM   16  O   UNK     1     -11.156   7.413  67.032  1.00  0.00    -0.268 OA 
HETATM   17  C   UNK     1      -8.377  15.556  68.950  1.00  0.00    -0.205 A  
HETATM   18  H   UNK     1      -9.857   8.770  64.361  1.00  0.00     0.000 HD 
HETATM   19  O   UNK     1     -10.059  15.145  67.381  1.00  0.00    -0.227 OA 
HETATM   20  H   UNK     1      -5.272  11.922  69.596  1.00  0.00     0.000 HD 
HETATM   21  H   UNK     1     -10.384  16.032  67.478  1.00  0.00     0.000 HD 
HETATM   22  C   UNK     1      -7.268  15.160  69.686  1.00  0.00    -0.194 A  
HETATM   23  C   UNK     1      -8.328   5.964  65.817  1.00  0.00    -0.140 C  
HETATM   24  C   UNK     1      -7.092   6.950  66.002  1.00  0.00    -0.073 C  
HETATM   25  C   UNK     1      -5.625  12.003  67.101  1.00  0.00    -0.132 C  
HETATM   26  O   UNK     1      -5.868  11.215  69.375  1.00  0.00    -0.042 OA 
HETATM   27  O   UNK     1      -8.753   5.818  64.491  1.00  0.00    -0.334 OA 
HETATM   28  C   UNK     1      -6.746  13.879  69.511  1.00  0.00    -0.062 A  
HETATM   29  C   UNK     1      -6.615  11.677  68.239  1.00  0.00    -0.059 C  
HETATM   30  C   UNK     1      -7.333  12.959  68.612  1.00  0.00    -0.099 A  
HETATM   31  H   UNK     1      -8.106   5.801  63.797  1.00  0.00     0.000 HD 
ENDROOT
BRANCH  15  32
HETATM   32  C   UNK     1      -8.611   5.400  68.048  1.00  0.00    -0.100 C  
HETATM   33  H   UNK     1      -7.843   3.660  67.171  1.00  0.00     0.000 HD 
HETATM   34  O   UNK     1      -8.656   6.028  69.112  1.00  0.00    -0.116 OA 
HETATM   35  N   UNK     1      -7.962   4.191  68.033  1.00  0.00    -0.085 N  
BRANCH  35  36
HETATM   36  C   UNK     1      -7.455   3.706  69.296  1.00  0.00    -0.052 C  
BRANCH  36  37
HETATM   37  N   UNK     1      -8.561   3.104  70.012  1.00  0.00    -0.057 NA 
HETATM   38  H   UNK     1      -8.547   2.086  69.954  1.00  0.00     0.000 HD 
BRANCH  37  39
HETATM   39  C   UNK     1      -8.570   3.580  71.408  1.00  0.00    -0.076 C  
BRANCH  39  40
HETATM   40  C   UNK     1      -9.968   3.506  72.049  1.00  0.00    -0.227 C  
BRANCH  40  41
HETATM   41  C   UNK     1     -10.541   4.875  72.434  1.00  0.00    -0.263 C  
BRANCH  41  42
HETATM   42  C   UNK     1      -9.431   5.918  72.652  1.00  0.00    -0.152 C  
BRANCH  42  43
HETATM   43  C   UNK     1      -9.915   7.253  73.238  1.00  0.00    -0.273 C  
HETATM   44  C   UNK     1      -9.321   8.440  72.466  1.00  0.00    -0.275 C  
HETATM   45  N   UNK     1     -11.403   7.363  73.216  1.00  0.00    -0.589 NA 
HETATM   46  O   UNK     1      -8.180   8.855  72.581  1.00  0.00    -0.387 OA 
HETATM   47  O   UNK     1     -10.233   8.970  71.607  1.00  0.00    -0.317 OA 
HETATM   48  H2  UNK     1     -11.841   6.571  73.685  1.00  0.00     0.000 HD 
HETATM   49  H1  UNK     1     -11.724   8.249  73.605  1.00  0.00     0.000 HD 
ENDBRANCH  42  43
ENDBRANCH  41  42
ENDBRANCH  40  41
ENDBRANCH  39  40
ENDBRANCH  37  39
ENDBRANCH  36  37
ENDBRANCH  35  36
ENDBRANCH  15  32
BRANCH  24  50
HETATM   50  N   UNK     1      -6.362   7.063  64.717  1.00  0.00    -0.036 NA 
HETATM   51  C   UNK     1      -5.728   8.325  64.404  1.00  0.00    -0.059 C  
HETATM   52  C   UNK     1      -5.398   5.965  64.570  1.00  0.00    -0.017 C  
ENDBRANCH  24  50
TORSDOF 9
ENDMDL
MODEL       70
REMARK 921   NORMALIZED FREE ENERGY PREDICTED BY IDOCK:   -4.82 KCAL/MOL
REMARK 922        TOTAL FREE ENERGY PREDICTED BY IDOCK:   -8.75 KCAL/MOL
REMARK 923 INTER-LIGAND FREE ENERGY PREDICTED BY IDOCK:   -8.08 KCAL/MOL
REMARK 924 INTRA-LIGAND FREE ENERGY PREDICTED BY IDOCK:   -0.67 KCAL/MOL
REMARK 927      BINDING AFFINITY PREDICTED BY RF-SCORE:    0.00 PKD
ROOT
HETATM    1  C   UNK     1      -8.549   7.457  66.719  1.00  0.00    -0.127 C  
HETATM    2  C   UNK     1      -9.318   6.490  67.600  1.00  0.00    -0.118 C  
HETATM    3  C   UNK     1      -9.354   6.920  69.097  1.00  0.00    -0.140 C  
HETATM    4  C   UNK     1      -7.962   7.225  69.601  1.00  0.00    -0.127 C  
HETATM    5  C   UNK     1      -7.602   6.824  71.006  1.00  0.00    -0.085 C  
HETATM    6  C   UNK     1      -7.041   7.787  68.799  1.00  0.00    -0.076 C  
HETATM    7  O   UNK     1      -5.714   7.972  69.212  1.00  0.00    -0.032 OA 
HETATM    8  C   UNK     1      -7.209   7.980  67.290  1.00  0.00    -0.087 C  
HETATM    9  C   UNK     1      -8.662   6.337  71.922  1.00  0.00    -0.136 A  
HETATM   10  O   UNK     1      -6.440   6.897  71.412  1.00  0.00    -0.041 OA 
HETATM   11  C   UNK     1      -8.398   6.166  73.292  1.00  0.00    -0.117 A  
HETATM   12  O   UNK     1      -6.127   7.183  66.791  1.00  0.00    -0.035 OA 
HETATM   13  C   UNK     1      -7.194   9.470  66.672  1.00  0.00    -0.086 C  
HETATM   14  H   UNK     1      -5.063   8.369  68.645  1.00  0.00     0.000 HD 
HETATM   15  C   UNK     1      -7.780   9.608  65.261  1.00  0.00    -0.115 C  
HETATM   16  O   UNK     1      -6.702  10.454  67.216  1.00  0.00    -0.074 OA 
HETATM   17  C   UNK     1      -9.400   5.767  74.178  1.00  0.00    -0.136 A  
HETATM   18  H   UNK     1      -5.305   7.504  67.141  1.00  0.00     0.000 HD 
HETATM   19  O   UNK     1      -7.160   6.345  73.851  1.00  0.00    -0.082 OA 
HETATM   20  H   UNK     1     -12.039   5.511  70.149  1.00  0.00     0.000 HD 
HETATM   21  H   UNK     1      -6.981   6.229  74.776  1.00  0.00     0.000 HD 
HETATM   22  C   UNK     1     -10.684   5.531  73.704  1.00  0.00    -0.321 A  
HETATM   23  C   UNK     1      -7.565   8.433  64.620  1.00  0.00    -0.104 C  
HETATM   24  C   UNK     1      -8.406   7.191  65.157  1.00  0.00    -0.076 C  
HETATM   25  C   UNK     1      -9.852   4.422  69.530  1.00  0.00    -0.258 C  
HETATM   26  O   UNK     1     -11.545   6.145  69.642  1.00  0.00    -0.407 OA 
HETATM   27  O   UNK     1      -6.270   8.112  64.200  1.00  0.00    -0.064 OA 
HETATM   28  C   UNK     1     -10.946   5.643  72.339  1.00  0.00    -0.311 A  
HETATM   29  C   UNK     1     -10.163   5.880  69.928  1.00  0.00    -0.218 C  
HETATM   30  C   UNK     1      -9.937   6.013  71.422  1.00  0.00    -0.223 A  
HETATM   31  H   UNK     1      -6.120   7.289  63.752  1.00  0.00     0.000 HD 
ENDROOT
BRANCH  15  32
HETATM   32  C   UNK     1      -9.187  10.062  64.930  1.00  0.00    -0.239 C  
HETATM   33  H   UNK     1      -8.680  11.729  63.768  1.00  0.00     0.000 HD 
HETATM   34  O   UNK     1     -10.150   9.401  65.335  1.00  0.00    -0.150 OA 
HETATM   35  N   UNK     1      -9.437  11.181  64.177  1.00  0.00    -0.221 N  
BRANCH  35  36
HETATM   36  C   UNK     1     -10.822  11.548  63.991  1.00  0.00    -0.387 C  
BRANCH  36  37
HETATM   37  N   UNK     1     -11.294  12.127  65.232  1.00  0.00    -0.333 NA 
HETATM   38  H   UNK     1     -11.769  11.441  65.819  1.00  0.00     0.000 HD 
BRANCH  37  39
HETATM   39  C   UNK     1     -10.173  12.779  65.936  1.00  0.00    -0.287 C  
BRANCH  39  40
HETATM   40  C   UNK     1     -10.628  13.540  67.194  1.00  0.00    -0.264 C  
BRANCH  40  41
HETATM   41  C   UNK     1     -10.139  12.912  68.504  1.00  0.00    -0.193 C  
BRANCH  41  42
HETATM   42  C   UNK     1      -9.814  11.418  68.334  1.00  0.00    -0.205 C  
BRANCH  42  43
HETATM   43  C   UNK     1     -10.938  10.465  68.770  1.00  0.00    -0.245 C  
HETATM   44  C   UNK     1     -10.958  10.303  70.298  1.00  0.00    -0.309 C  
HETATM   45  N   UNK     1     -12.278  10.945  68.322  1.00  0.00    -0.735 NA 
HETATM   46  O   UNK     1     -10.185   9.614  70.943  1.00  0.00    -0.295 OA 
HETATM   47  O   UNK     1     -11.948  11.050  70.856  1.00  0.00    -0.329 OA 
HETATM   48  H2  UNK     1     -12.297  11.104  67.315  1.00  0.00     0.000 HD 
HETATM   49  H1  UNK     1     -13.024  10.312  68.612  1.00  0.00     0.000 HD 
ENDBRANCH  42  43
ENDBRANCH  41  42
ENDBRANCH  40  41
ENDBRANCH  39  40
ENDBRANCH  37  39
ENDBRANCH  36  37
ENDBRANCH  35  36
ENDBRANCH  15  32
BRANCH  24  50
HETATM   50  N   UNK     1      -7.832   5.941  64.606  1.00  0.00    -0.108 NA 
HETATM   51  C   UNK     1      -8.094   4.705  65.312  1.00  0.00    -0.104 C  
HETATM   52  C   UNK     1      -8.178   5.794  63.187  1.00  0.00    -0.084 C  
ENDBRANCH  24  50
TORSDOF 9
ENDMDL
MODEL       71
REMARK 921   NORMALIZED FREE ENERGY PREDICTED BY IDOCK:   -4.74 KCAL/MOL
REMARK 922        TOTAL FREE ENERGY PREDICTED BY IDOCK:   -8.62 KCAL/MOL
REMARK 923 INTER-LIGAND FREE ENERGY PREDICTED BY IDOCK:   -9.92 KCAL/MOL
REMARK 924 INTRA-LIGAND FREE ENERGY PREDICTED BY IDOCK:    1.30 KCAL/MOL
REMARK 927      BINDING AFFINITY PREDICTED BY RF-SCORE:    0.00 PKD
ROOT
HETATM    1  C   UNK     1      -8.577  11.660  66.545  1.00  0.00    -0.164 C  
HETATM    2  C   UNK     1      -7.915  12.902  67.115  1.00  0.00    -0.104 C  
HETATM    3  C   UNK     1      -8.906  14.085  67.322  1.00  0.00    -0.225 C  
HETATM    4  C   UNK     1      -9.704  14.344  66.065  1.00  0.00    -0.320 C  
HETATM    5  C   UNK     1     -10.016  15.768  65.691  1.00  0.00    -0.345 C  
HETATM    6  C   UNK     1     -10.076  13.334  65.258  1.00  0.00    -0.239 C  
HETATM    7  O   UNK     1     -10.715  13.564  64.032  1.00  0.00    -0.555 OA 
HETATM    8  C   UNK     1      -9.581  11.893  65.391  1.00  0.00    -0.165 C  
HETATM    9  C   UNK     1      -9.725  16.857  66.656  1.00  0.00    -0.283 A  
HETATM   10  O   UNK     1     -10.515  16.046  64.600  1.00  0.00    -0.502 OA 
HETATM   11  C   UNK     1     -10.203  18.159  66.427  1.00  0.00    -0.399 A  
HETATM   12  O   UNK     1      -8.920  11.713  64.132  1.00  0.00    -0.392 OA 
HETATM   13  C   UNK     1     -10.639  10.712  65.689  1.00  0.00    -0.105 C  
HETATM   14  H   UNK     1     -10.978  12.850  63.462  1.00  0.00     0.000 HD 
HETATM   15  C   UNK     1     -10.040   9.403  66.220  1.00  0.00    -0.328 C  
HETATM   16  O   UNK     1     -11.845  10.772  65.463  1.00  0.00     0.791 OA 
HETATM   17  C   UNK     1      -9.990  19.181  67.353  1.00  0.00    -0.432 A  
HETATM   18  H   UNK     1      -9.536  11.856  63.424  1.00  0.00     0.000 HD 
HETATM   19  O   UNK     1     -10.876  18.528  65.293  1.00  0.00    -0.606 OA 
HETATM   20  H   UNK     1      -7.487  15.764  69.660  1.00  0.00     0.000 HD 
HETATM   21  H   UNK     1     -11.200  19.408  65.138  1.00  0.00     0.000 HD 
HETATM   22  C   UNK     1      -9.292  18.915  68.524  1.00  0.00    -0.412 A  
HETATM   23  C   UNK     1      -8.790   9.298  65.710  1.00  0.00    -0.177 C  
HETATM   24  C   UNK     1      -7.726  10.344  66.268  1.00  0.00    -0.129 C  
HETATM   25  C   UNK     1      -6.773  15.541  67.254  1.00  0.00    -0.128 C  
HETATM   26  O   UNK     1      -7.948  15.015  69.301  1.00  0.00    -0.185 OA 
HETATM   27  O   UNK     1      -8.629   8.982  64.356  1.00  0.00    -0.201 OA 
HETATM   28  C   UNK     1      -8.763  17.642  68.737  1.00  0.00    -0.207 A  
HETATM   29  C   UNK     1      -8.150  15.313  67.911  1.00  0.00    -0.138 C  
HETATM   30  C   UNK     1      -8.940  16.603  67.795  1.00  0.00    -0.211 A  
HETATM   31  H   UNK     1      -7.752   8.908  63.999  1.00  0.00     0.000 HD 
ENDROOT
BRANCH  15  32
HETATM   32  C   UNK     1      -9.980   8.987  67.675  1.00  0.00    -0.201 C  
HETATM   33  H   UNK     1     -11.110   7.231  67.514  1.00  0.00     0.000 HD 
HETATM   34  O   UNK     1      -9.331   9.669  68.476  1.00  0.00    -0.136 OA 
HETATM   35  N   UNK     1     -10.612   7.862  68.142  1.00  0.00    -0.165 N  
BRANCH  35  36
HETATM   36  C   UNK     1     -10.538   7.612  69.563  1.00  0.00    -0.227 C  
BRANCH  36  37
HETATM   37  N   UNK     1     -11.648   6.751  69.916  1.00  0.00    -0.585 NA 
HETATM   38  H   UNK     1     -11.375   5.768  69.951  1.00  0.00     0.000 HD 
BRANCH  37  39
HETATM   39  C   UNK     1     -12.249   7.205  71.184  1.00  0.00    -0.365 C  
BRANCH  39  40
HETATM   40  C   UNK     1     -13.778   7.354  71.094  1.00  0.00    -0.252 C  
BRANCH  40  41
HETATM   41  C   UNK     1     -14.264   8.800  71.236  1.00  0.00    -0.203 C  
BRANCH  41  42
HETATM   42  C   UNK     1     -13.439   9.769  70.371  1.00  0.00     0.348 C  
BRANCH  42  43
HETATM   43  C   UNK     1     -12.553  10.739  71.166  1.00  0.00    -0.428 C  
HETATM   44  C   UNK     1     -11.767  11.664  70.224  1.00  0.00    -0.266 C  
HETATM   45  N   UNK     1     -13.351  11.579  72.105  1.00  0.00    -0.562 NA 
HETATM   46  O   UNK     1     -10.774  11.346  69.591  1.00  0.00    -0.125 OA 
HETATM   47  O   UNK     1     -12.336  12.897  70.163  1.00  0.00    -0.270 OA 
HETATM   48  H2  UNK     1     -13.920  11.003  72.725  1.00  0.00     0.000 HD 
HETATM   49  H1  UNK     1     -12.762  12.223  72.634  1.00  0.00     0.000 HD 
ENDBRANCH  42  43
ENDBRANCH  41  42
ENDBRANCH  40  41
ENDBRANCH  39  40
ENDBRANCH  37  39
ENDBRANCH  36  37
ENDBRANCH  35  36
ENDBRANCH  15  32
BRANCH  24  50
HETATM   50  N   UNK     1      -6.528  10.333  65.396  1.00  0.00    -0.117 NA 
HETATM   51  C   UNK     1      -5.345  11.025  65.860  1.00  0.00    -0.143 C  
HETATM   52  C   UNK     1      -6.187   8.960  65.002  1.00  0.00    -0.064 C  
ENDBRANCH  24  50
TORSDOF 9
ENDMDL
MODEL       72
REMARK 921   NORMALIZED FREE ENERGY PREDICTED BY IDOCK:   -4.70 KCAL/MOL
REMARK 922        TOTAL FREE ENERGY PREDICTED BY IDOCK:   -8.56 KCAL/MOL
REMARK 923 INTER-LIGAND FREE ENERGY PREDICTED BY IDOCK:   -8.43 KCAL/MOL
REMARK 924 INTRA-LIGAND FREE ENERGY PREDICTED BY IDOCK:   -0.13 KCAL/MOL
REMARK 927      BINDING AFFINITY PREDICTED BY RF-SCORE:    0.00 PKD
ROOT
HETATM    1  C   UNK     1      -8.763   8.509  67.931  1.00  0.00    -0.138 C  
HETATM    2  C   UNK     1      -9.301   8.511  69.350  1.00  0.00    -0.154 C  
HETATM    3  C   UNK     1      -8.893   7.246  70.161  1.00  0.00    -0.145 C  
HETATM    4  C   UNK     1      -9.215   5.987  69.391  1.00  0.00    -0.140 C  
HETATM    5  C   UNK     1      -9.727   4.791  70.148  1.00  0.00    -0.217 C  
HETATM    6  C   UNK     1      -9.108   5.946  68.051  1.00  0.00    -0.117 C  
HETATM    7  O   UNK     1      -9.510   4.826  67.310  1.00  0.00    -0.129 OA 
HETATM    8  C   UNK     1      -8.867   7.169  67.165  1.00  0.00    -0.121 C  
HETATM    9  C   UNK     1      -9.706   4.801  71.632  1.00  0.00    -0.230 A  
HETATM   10  O   UNK     1     -10.160   3.800  69.558  1.00  0.00     0.081 OA 
HETATM   11  C   UNK     1      -9.970   3.626  72.357  1.00  0.00    -0.166 A  
HETATM   12  O   UNK     1     -10.053   7.162  66.361  1.00  0.00    -0.436 OA 
HETATM   13  C   UNK     1      -7.531   7.249  66.264  1.00  0.00    -0.083 C  
HETATM   14  H   UNK     1      -9.435   4.797  66.364  1.00  0.00     0.000 HD 
HETATM   15  C   UNK     1      -7.159   8.646  65.751  1.00  0.00    -0.079 C  
HETATM   16  O   UNK     1      -6.852   6.284  65.922  1.00  0.00    -0.054 OA 
HETATM   17  C   UNK     1      -9.895   3.604  73.750  1.00  0.00    -0.152 A  
HETATM   18  H   UNK     1     -10.117   6.340  65.891  1.00  0.00     0.000 HD 
HETATM   19  O   UNK     1     -10.340   2.444  71.771  1.00  0.00    -0.051 OA 
HETATM   20  H   UNK     1      -9.004   8.310  73.188  1.00  0.00     0.000 HD 
HETATM   21  H   UNK     1     -10.518   1.650  72.261  1.00  0.00     0.000 HD 
HETATM   22  C   UNK     1      -9.556   4.761  74.440  1.00  0.00    -0.150 A  
HETATM   23  C   UNK     1      -8.313   9.338  65.599  1.00  0.00    -0.123 C  
HETATM   24  C   UNK     1      -9.070   9.722  66.947  1.00  0.00    -0.142 C  
HETATM   25  C   UNK     1     -10.931   7.852  71.629  1.00  0.00    -0.280 C  
HETATM   26  O   UNK     1      -8.646   8.260  72.308  1.00  0.00    -0.160 OA 
HETATM   27  O   UNK     1      -9.163   9.022  64.533  1.00  0.00    -0.431 OA 
HETATM   28  C   UNK     1      -9.347   5.947  73.737  1.00  0.00    -0.131 A  
HETATM   29  C   UNK     1      -9.480   7.329  71.602  1.00  0.00    -0.151 C  
HETATM   30  C   UNK     1      -9.452   5.997  72.328  1.00  0.00    -0.159 A  
HETATM   31  H   UNK     1      -9.972   9.508  64.427  1.00  0.00     0.000 HD 
ENDROOT
BRANCH  15  32
HETATM   32  C   UNK     1      -6.144   9.577  66.383  1.00  0.00    -0.060 C  
HETATM   33  H   UNK     1      -6.978  11.386  65.736  1.00  0.00     0.000 HD 
HETATM   34  O   UNK     1      -5.229   9.104  67.066  1.00  0.00    -0.035 OA 
HETATM   35  N   UNK     1      -6.211  10.939  66.238  1.00  0.00    -0.125 N  
BRANCH  35  36
HETATM   36  C   UNK     1      -5.144  11.713  66.831  1.00  0.00    -0.113 C  
BRANCH  36  37
HETATM   37  N   UNK     1      -5.628  13.067  67.005  1.00  0.00    -0.381 NA 
HETATM   38  H   UNK     1      -5.327  13.683  66.248  1.00  0.00     0.000 HD 
BRANCH  37  39
HETATM   39  C   UNK     1      -7.095  13.057  67.161  1.00  0.00     0.081 C  
BRANCH  39  40
HETATM   40  C   UNK     1      -7.668  14.454  67.456  1.00  0.00    -0.210 C  
BRANCH  40  41
HETATM   41  C   UNK     1      -9.199  14.514  67.408  1.00  0.00    -0.202 C  
BRANCH  41  42
HETATM   42  C   UNK     1      -9.726  14.507  65.963  1.00  0.00    -0.331 C  
BRANCH  42  43
HETATM   43  C   UNK     1     -11.093  15.185  65.778  1.00  0.00    -0.330 C  
HETATM   44  C   UNK     1     -10.954  16.499  64.995  1.00  0.00    -0.210 C  
HETATM   45  N   UNK     1     -12.059  14.301  65.063  1.00  0.00    -0.407 NA 
HETATM   46  O   UNK     1     -10.544  17.552  65.454  1.00  0.00    -0.648 OA 
HETATM   47  O   UNK     1     -11.331  16.338  63.699  1.00  0.00    -0.653 OA 
HETATM   48  H2  UNK     1     -12.152  13.399  65.530  1.00  0.00     0.000 HD 
HETATM   49  H1  UNK     1     -12.967  14.751  64.942  1.00  0.00     0.000 HD 
ENDBRANCH  42  43
ENDBRANCH  41  42
ENDBRANCH  40  41
ENDBRANCH  39  40
ENDBRANCH  37  39
ENDBRANCH  36  37
ENDBRANCH  35  36
ENDBRANCH  15  32
BRANCH  24  50
HETATM   50  N   UNK     1     -10.448  10.162  66.623  1.00  0.00    -0.212 NA 
HETATM   51  C   UNK     1     -11.219  10.802  67.667  1.00  0.00    -0.299 C  
HETATM   52  C   UNK     1     -10.456  10.990  65.411  1.00  0.00    -0.241 C  
ENDBRANCH  24  50
TORSDOF 9
ENDMDL
MODEL       73
REMARK 921   NORMALIZED FREE ENERGY PREDICTED BY IDOCK:   -4.69 KCAL/MOL
REMARK 922        TOTAL FREE ENERGY PREDICTED BY IDOCK:   -8.56 KCAL/MOL
REMARK 923 INTER-LIGAND FREE ENERGY PREDICTED BY IDOCK:   -8.27 KCAL/MOL
REMARK 924 INTRA-LIGAND FREE ENERGY PREDICTED BY IDOCK:   -0.28 KCAL/MOL
REMARK 927      BINDING AFFINITY PREDICTED BY RF-SCORE:    0.00 PKD
ROOT
HETATM    1  C   UNK     1      -9.188   9.603  68.006  1.00  0.00    -0.132 C  
HETATM    2  C   UNK     1      -9.750   8.791  69.159  1.00  0.00    -0.175 C  
HETATM    3  C   UNK     1      -9.106   7.379  69.286  1.00  0.00    -0.135 C  
HETATM    4  C   UNK     1      -9.136   6.654  67.960  1.00  0.00    -0.114 C  
HETATM    5  C   UNK     1      -9.405   5.173  67.956  1.00  0.00    -0.121 C  
HETATM    6  C   UNK     1      -8.988   7.319  66.801  1.00  0.00    -0.137 C  
HETATM    7  O   UNK     1      -9.126   6.683  65.560  1.00  0.00    -0.367 OA 
HETATM    8  C   UNK     1      -8.987   8.844  66.673  1.00  0.00    -0.136 C  
HETATM    9  C   UNK     1      -9.425   4.430  69.240  1.00  0.00    -0.249 A  
HETATM   10  O   UNK     1      -9.604   4.564  66.904  1.00  0.00    -0.161 OA 
HETATM   11  C   UNK     1      -9.454   3.025  69.251  1.00  0.00    -0.097 A  
HETATM   12  O   UNK     1     -10.125   9.048  65.825  1.00  0.00    -0.421 OA 
HETATM   13  C   UNK     1      -7.675   9.595  66.110  1.00  0.00    -0.102 C  
HETATM   14  H   UNK     1      -9.022   7.154  64.741  1.00  0.00     0.000 HD 
HETATM   15  C   UNK     1      -7.592  11.098  66.405  1.00  0.00    -0.109 C  
HETATM   16  O   UNK     1      -6.800   9.068  65.427  1.00  0.00    -0.071 OA 
HETATM   17  C   UNK     1      -9.412   2.309  70.448  1.00  0.00    -0.166 A  
HETATM   18  H   UNK     1     -10.002   8.582  65.007  1.00  0.00     0.000 HD 
HETATM   19  O   UNK     1      -9.551   2.263  68.117  1.00  0.00    -0.274 OA 
HETATM   20  H   UNK     1      -9.517   6.718  72.400  1.00  0.00     0.000 HD 
HETATM   21  H   UNK     1      -9.571   1.313  68.123  1.00  0.00     0.000 HD 
HETATM   22  C   UNK     1      -9.342   2.992  71.656  1.00  0.00    -0.198 A  
HETATM   23  C   UNK     1      -8.862  11.565  66.467  1.00  0.00    -0.190 C  
HETATM   24  C   UNK     1      -9.718  11.076  67.718  1.00  0.00    -0.170 C  
HETATM   25  C   UNK     1     -11.264   6.800  70.585  1.00  0.00    -0.361 C  
HETATM   26  O   UNK     1      -9.134   7.184  71.665  1.00  0.00    -0.137 OA 
HETATM   27  O   UNK     1      -9.599  11.698  65.284  1.00  0.00    -0.232 OA 
HETATM   28  C   UNK     1      -9.369   4.386  71.663  1.00  0.00    -0.199 A  
HETATM   29  C   UNK     1      -9.734   6.617  70.491  1.00  0.00    -0.176 C  
HETATM   30  C   UNK     1      -9.445   5.128  70.462  1.00  0.00    -0.229 A  
HETATM   31  H   UNK     1     -10.489  12.025  65.328  1.00  0.00     0.000 HD 
ENDROOT
BRANCH  15  32
HETATM   32  C   UNK     1      -6.813  11.733  67.538  1.00  0.00    -0.113 C  
HETATM   33  H   UNK     1      -8.324  12.998  68.246  1.00  0.00     0.000 HD 
HETATM   34  O   UNK     1      -5.654  11.364  67.761  1.00  0.00    -0.043 OA 
HETATM   35  N   UNK     1      -7.354  12.700  68.347  1.00  0.00    -0.111 N  
BRANCH  35  36
HETATM   36  C   UNK     1      -6.485  13.277  69.348  1.00  0.00    -0.097 C  
BRANCH  36  37
HETATM   37  N   UNK     1      -7.169  14.421  69.915  1.00  0.00    -0.386 NA 
HETATM   38  H   UNK     1      -6.518  15.146  70.219  1.00  0.00     0.000 HD 
BRANCH  37  39
HETATM   39  C   UNK     1      -8.162  14.937  68.953  1.00  0.00    -0.171 C  
BRANCH  39  40
HETATM   40  C   UNK     1      -9.452  15.421  69.638  1.00  0.00    -0.220 C  
BRANCH  40  41
HETATM   41  C   UNK     1     -10.069  16.661  68.982  1.00  0.00    -0.293 C  
BRANCH  41  42
HETATM   42  C   UNK     1      -9.120  17.293  67.949  1.00  0.00    -0.239 C  
BRANCH  42  43
HETATM   43  C   UNK     1      -8.404  18.563  68.433  1.00  0.00    -0.332 C  
HETATM   44  C   UNK     1      -6.907  18.299  68.655  1.00  0.00    -0.254 C  
HETATM   45  N   UNK     1      -8.552  19.688  67.464  1.00  0.00    -0.302 NA 
HETATM   46  O   UNK     1      -6.430  17.718  69.616  1.00  0.00    -0.227 OA 
HETATM   47  O   UNK     1      -6.166  18.782  67.623  1.00  0.00    -0.196 OA 
HETATM   48  H2  UNK     1      -9.534  19.872  67.257  1.00  0.00     0.000 HD 
HETATM   49  H1  UNK     1      -8.077  20.532  67.786  1.00  0.00     0.000 HD 
ENDBRANCH  42  43
ENDBRANCH  41  42
ENDBRANCH  40  41
ENDBRANCH  39  40
ENDBRANCH  37  39
ENDBRANCH  36  37
ENDBRANCH  35  36
ENDBRANCH  15  32
BRANCH  24  50
HETATM   50  N   UNK     1     -11.148  11.380  67.479  1.00  0.00    -0.262 NA 
HETATM   51  C   UNK     1     -12.117  10.876  68.428  1.00  0.00     0.149 C  
HETATM   52  C   UNK     1     -11.345  12.821  67.275  1.00  0.00    -0.314 C  
ENDBRANCH  24  50
TORSDOF 9
ENDMDL
MODEL       74
REMARK 921   NORMALIZED FREE ENERGY PREDICTED BY IDOCK:   -4.62 KCAL/MOL
REMARK 922        TOTAL FREE ENERGY PREDICTED BY IDOCK:   -8.45 KCAL/MOL
REMARK 923 INTER-LIGAND FREE ENERGY PREDICTED BY IDOCK:   -6.85 KCAL/MOL
REMARK 924 INTRA-LIGAND FREE ENERGY PREDICTED BY IDOCK:   -1.60 KCAL/MOL
REMARK 927      BINDING AFFINITY PREDICTED BY RF-SCORE:    0.00 PKD
ROOT
HETATM    1  C   UNK     1      -9.309   7.128  70.443  1.00  0.00    -0.159 C  
HETATM    2  C   UNK     1     -10.107   8.317  69.939  1.00  0.00    -0.195 C  
HETATM    3  C   UNK     1      -9.272   9.280  69.043  1.00  0.00    -0.144 C  
HETATM    4  C   UNK     1      -7.978   9.661  69.724  1.00  0.00    -0.154 C  
HETATM    5  C   UNK     1      -7.471  11.070  69.570  1.00  0.00    -0.026 C  
HETATM    6  C   UNK     1      -7.320   8.785  70.504  1.00  0.00    -0.066 C  
HETATM    7  O   UNK     1      -6.182   9.155  71.235  1.00  0.00    -0.063 OA 
HETATM    8  C   UNK     1      -7.879   7.433  70.951  1.00  0.00    -0.096 C  
HETATM    9  C   UNK     1      -8.127  11.980  68.598  1.00  0.00    -0.069 A  
HETATM   10  O   UNK     1      -6.518  11.481  70.233  1.00  0.00    -0.194 OA 
HETATM   11  C   UNK     1      -7.544  13.217  68.276  1.00  0.00    -0.139 A  
HETATM   12  O   UNK     1      -7.899   7.602  72.374  1.00  0.00    -0.093 OA 
HETATM   13  C   UNK     1      -7.124   6.076  70.516  1.00  0.00    -0.071 C  
HETATM   14  H   UNK     1      -5.717   8.536  71.787  1.00  0.00     0.000 HD 
HETATM   15  C   UNK     1      -7.952   4.790  70.630  1.00  0.00    -0.073 C  
HETATM   16  O   UNK     1      -5.947   6.004  70.172  1.00  0.00    -0.023 OA 
HETATM   17  C   UNK     1      -8.114  14.058  67.320  1.00  0.00    -0.174 A  
HETATM   18  H   UNK     1      -7.021   7.789  72.686  1.00  0.00     0.000 HD 
HETATM   19  O   UNK     1      -6.412  13.699  68.878  1.00  0.00    -0.089 OA 
HETATM   20  H   UNK     1     -11.533  10.658  67.229  1.00  0.00     0.000 HD 
HETATM   21  H   UNK     1      -6.018  14.536  68.661  1.00  0.00     0.000 HD 
HETATM   22  C   UNK     1      -9.281  13.673  66.672  1.00  0.00    -0.225 A  
HETATM   23  C   UNK     1      -8.834   4.969  71.642  1.00  0.00    -0.133 C  
HETATM   24  C   UNK     1      -9.991   6.029  71.370  1.00  0.00    -0.186 C  
HETATM   25  C   UNK     1     -11.076  11.015  69.682  1.00  0.00    -0.320 C  
HETATM   26  O   UNK     1     -10.990   9.934  67.520  1.00  0.00    -0.282 OA 
HETATM   27  O   UNK     1      -8.371   4.951  72.962  1.00  0.00    -0.101 OA 
HETATM   28  C   UNK     1      -9.900  12.474  67.023  1.00  0.00    -0.217 A  
HETATM   29  C   UNK     1     -10.163  10.465  68.566  1.00  0.00    -0.173 C  
HETATM   30  C   UNK     1      -9.356  11.624  68.013  1.00  0.00    -0.178 A  
HETATM   31  H   UNK     1      -8.989   5.077  73.672  1.00  0.00     0.000 HD 
ENDROOT
BRANCH  15  32
HETATM   32  C   UNK     1      -8.688   4.110  69.493  1.00  0.00    -0.083 C  
HETATM   33  H   UNK     1      -7.268   4.452  67.993  1.00  0.00     0.000 HD 
HETATM   34  O   UNK     1      -9.773   3.560  69.714  1.00  0.00    -0.171 OA 
HETATM   35  N   UNK     1      -8.185   4.067  68.218  1.00  0.00    -0.090 N  
BRANCH  35  36
HETATM   36  C   UNK     1      -9.016   3.451  67.208  1.00  0.00    -0.150 C  
BRANCH  36  37
HETATM   37  N   UNK     1      -9.881   4.478  66.665  1.00  0.00    -0.209 NA 
HETATM   38  H   UNK     1      -9.576   5.416  66.927  1.00  0.00     0.000 HD 
BRANCH  37  39
HETATM   39  C   UNK     1      -9.989   4.319  65.202  1.00  0.00    -0.204 C  
BRANCH  39  40
HETATM   40  C   UNK     1      -8.631   4.455  64.491  1.00  0.00    -0.135 C  
BRANCH  40  41
HETATM   41  C   UNK     1      -7.690   5.469  65.151  1.00  0.00    -0.091 C  
BRANCH  41  42
HETATM   42  C   UNK     1      -7.878   6.883  64.572  1.00  0.00    -0.115 C  
BRANCH  42  43
HETATM   43  C   UNK     1      -8.363   7.929  65.588  1.00  0.00    -0.142 C  
HETATM   44  C   UNK     1      -8.359   9.336  64.972  1.00  0.00    -0.154 C  
HETATM   45  N   UNK     1      -9.738   7.628  66.083  1.00  0.00    -0.446 NA 
HETATM   46  O   UNK     1      -7.368  10.027  64.801  1.00  0.00    -0.135 OA 
HETATM   47  O   UNK     1      -9.614   9.717  64.614  1.00  0.00    -0.286 OA 
HETATM   48  H2  UNK     1      -9.796   6.684  66.465  1.00  0.00     0.000 HD 
HETATM   49  H1  UNK     1     -10.060   8.322  66.757  1.00  0.00     0.000 HD 
ENDBRANCH  42  43
ENDBRANCH  41  42
ENDBRANCH  40  41
ENDBRANCH  39  40
ENDBRANCH  37  39
ENDBRANCH  36  37
ENDBRANCH  35  36
ENDBRANCH  15  32
BRANCH  24  50
HETATM   50  N   UNK     1     -10.658   6.363  72.651  1.00  0.00    -0.214 NA 
HETATM   51  C   UNK     1     -11.303   7.653  72.764  1.00  0.00    -0.367 C  
HETATM   52  C   UNK     1     -11.588   5.298  73.044  1.00  0.00    -0.217 C  
ENDBRANCH  24  50
TORSDOF 9
ENDMDL
MODEL       75
REMARK 921   NORMALIZED FREE ENERGY PREDICTED BY IDOCK:   -4.61 KCAL/MOL
REMARK 922        TOTAL FREE ENERGY PREDICTED BY IDOCK:   -8.44 KCAL/MOL
REMARK 923 INTER-LIGAND FREE ENERGY PREDICTED BY IDOCK:   -8.18 KCAL/MOL
REMARK 924 INTRA-LIGAND FREE ENERGY PREDICTED BY IDOCK:   -0.25 KCAL/MOL
REMARK 927      BINDING AFFINITY PREDICTED BY RF-SCORE:    0.00 PKD
ROOT
HETATM    1  C   UNK     1      -9.478   9.196  69.261  1.00  0.00    -0.158 C  
HETATM    2  C   UNK     1      -8.989   8.318  70.399  1.00  0.00    -0.146 C  
HETATM    3  C   UNK     1      -8.023   7.190  69.931  1.00  0.00    -0.122 C  
HETATM    4  C   UNK     1      -8.621   6.415  68.779  1.00  0.00    -0.123 C  
HETATM    5  C   UNK     1      -8.402   4.927  68.722  1.00  0.00    -0.083 C  
HETATM    6  C   UNK     1      -9.385   7.023  67.855  1.00  0.00    -0.123 C  
HETATM    7  O   UNK     1     -10.041   6.303  66.847  1.00  0.00    -0.155 OA 
HETATM    8  C   UNK     1      -9.897   8.460  67.966  1.00  0.00    -0.169 C  
HETATM    9  C   UNK     1      -7.445   4.292  69.662  1.00  0.00    -0.054 A  
HETATM   10  O   UNK     1      -8.999   4.225  67.905  1.00  0.00    -0.110 OA 
HETATM   11  C   UNK     1      -7.058   2.952  69.490  1.00  0.00    -0.041 A  
HETATM   12  O   UNK     1     -11.314   8.246  67.969  1.00  0.00    -0.107 OA 
HETATM   13  C   UNK     1      -9.456   9.551  66.862  1.00  0.00    -0.158 C  
HETATM   14  H   UNK     1     -10.581   6.733  66.194  1.00  0.00     0.000 HD 
HETATM   15  C   UNK     1      -9.650  11.018  67.263  1.00  0.00    -0.183 C  
HETATM   16  O   UNK     1      -9.049   9.285  65.733  1.00  0.00    -0.178 OA 
HETATM   17  C   UNK     1      -6.113   2.358  70.328  1.00  0.00    -0.023 A  
HETATM   18  H   UNK     1     -11.572   7.795  67.174  1.00  0.00     0.000 HD 
HETATM   19  O   UNK     1      -7.583   2.133  68.526  1.00  0.00    -0.050 OA 
HETATM   20  H   UNK     1      -6.303   6.619  72.580  1.00  0.00     0.000 HD 
HETATM   21  H   UNK     1      -7.322   1.227  68.409  1.00  0.00     0.000 HD 
HETATM   22  C   UNK     1      -5.542   3.098  71.355  1.00  0.00    -0.008 A  
HETATM   23  C   UNK     1     -10.705  11.066  68.112  1.00  0.00    -0.205 C  
HETATM   24  C   UNK     1     -10.470  10.408  69.543  1.00  0.00    -0.247 C  
HETATM   25  C   UNK     1      -8.716   6.040  72.139  1.00  0.00    -0.132 C  
HETATM   26  O   UNK     1      -6.582   7.137  71.833  1.00  0.00    -0.051 OA 
HETATM   27  O   UNK     1     -11.997  10.891  67.604  1.00  0.00    -0.633 OA 
HETATM   28  C   UNK     1      -5.959   4.411  71.573  1.00  0.00    -0.017 A  
HETATM   29  C   UNK     1      -7.566   6.341  71.155  1.00  0.00    -0.094 C  
HETATM   30  C   UNK     1      -6.938   5.019  70.755  1.00  0.00    -0.048 A  
HETATM   31  H   UNK     1     -12.737  10.924  68.199  1.00  0.00     0.000 HD 
ENDROOT
BRANCH  15  32
HETATM   32  C   UNK     1      -8.574  11.931  67.815  1.00  0.00    -0.154 C  
HETATM   33  H   UNK     1      -9.828  13.465  68.495  1.00  0.00     0.000 HD 
HETATM   34  O   UNK     1      -7.392  11.573  67.772  1.00  0.00    -0.087 OA 
HETATM   35  N   UNK     1      -8.865  13.147  68.380  1.00  0.00    -0.156 N  
BRANCH  35  36
HETATM   36  C   UNK     1      -7.745  13.956  68.805  1.00  0.00    -0.096 C  
BRANCH  36  37
HETATM   37  N   UNK     1      -8.268  15.038  69.614  1.00  0.00    -0.423 NA 
HETATM   38  H   UNK     1      -7.966  14.971  70.586  1.00  0.00     0.000 HD 
BRANCH  37  39
HETATM   39  C   UNK     1      -7.905  16.334  69.009  1.00  0.00    -0.235 C  
BRANCH  39  40
HETATM   40  C   UNK     1      -9.099  17.022  68.324  1.00  0.00    -0.241 C  
BRANCH  40  41
HETATM   41  C   UNK     1     -10.398  16.212  68.392  1.00  0.00    -0.257 C  
BRANCH  41  42
HETATM   42  C   UNK     1     -10.949  16.134  69.827  1.00  0.00    -0.349 C  
BRANCH  42  43
HETATM   43  C   UNK     1     -11.876  14.938  70.091  1.00  0.00    -0.308 C  
HETATM   44  C   UNK     1     -12.965  15.302  71.111  1.00  0.00    -0.454 C  
HETATM   45  N   UNK     1     -12.534  14.458  68.841  1.00  0.00    -0.553 NA 
HETATM   46  O   UNK     1     -12.801  15.383  72.317  1.00  0.00    -0.328 OA 
HETATM   47  O   UNK     1     -14.152  15.547  70.494  1.00  0.00    -0.132 OA 
HETATM   48  H2  UNK     1     -11.846  14.242  68.119  1.00  0.00     0.000 HD 
HETATM   49  H1  UNK     1     -13.149  13.663  69.016  1.00  0.00     0.000 HD 
ENDBRANCH  42  43
ENDBRANCH  41  42
ENDBRANCH  40  41
ENDBRANCH  39  40
ENDBRANCH  37  39
ENDBRANCH  36  37
ENDBRANCH  35  36
ENDBRANCH  15  32
BRANCH  24  50
HETATM   50  N   UNK     1     -11.777  10.233  70.219  1.00  0.00    -0.287 NA 
HETATM   51  C   UNK     1     -11.880   9.220  71.247  1.00  0.00    -0.343 C  
HETATM   52  C   UNK     1     -12.274  11.518  70.727  1.00  0.00    -0.363 C  
ENDBRANCH  24  50
TORSDOF 9
ENDMDL
MODEL       76
REMARK 921   NORMALIZED FREE ENERGY PREDICTED BY IDOCK:   -4.59 KCAL/MOL
REMARK 922        TOTAL FREE ENERGY PREDICTED BY IDOCK:   -8.39 KCAL/MOL
REMARK 923 INTER-LIGAND FREE ENERGY PREDICTED BY IDOCK:   -8.03 KCAL/MOL
REMARK 924 INTRA-LIGAND FREE ENERGY PREDICTED BY IDOCK:   -0.37 KCAL/MOL
REMARK 927      BINDING AFFINITY PREDICTED BY RF-SCORE:    0.00 PKD
ROOT
HETATM    1  C   UNK     1      -9.617   9.326  69.874  1.00  0.00    -0.217 C  
HETATM    2  C   UNK     1     -10.014   8.646  71.172  1.00  0.00    -0.289 C  
HETATM    3  C   UNK     1      -9.338   7.257  71.368  1.00  0.00    -0.153 C  
HETATM    4  C   UNK     1      -9.526   6.390  70.145  1.00  0.00    -0.170 C  
HETATM    5  C   UNK     1      -9.771   4.917  70.338  1.00  0.00    -0.214 C  
HETATM    6  C   UNK     1      -9.539   6.923  68.911  1.00  0.00    -0.139 C  
HETATM    7  O   UNK     1      -9.827   6.154  67.775  1.00  0.00    -0.117 OA 
HETATM    8  C   UNK     1      -9.578   8.424  68.617  1.00  0.00    -0.149 C  
HETATM    9  C   UNK     1      -9.614   4.321  71.687  1.00  0.00    -0.228 A  
HETATM   10  O   UNK     1     -10.095   4.196  69.393  1.00  0.00    -0.075 OA 
HETATM   11  C   UNK     1      -9.620   2.926  71.855  1.00  0.00    -0.145 A  
HETATM   12  O   UNK     1     -10.819   8.532  67.907  1.00  0.00    -0.463 OA 
HETATM   13  C   UNK     1      -8.361   9.110  67.810  1.00  0.00    -0.117 C  
HETATM   14  H   UNK     1      -9.837   6.531  66.903  1.00  0.00     0.000 HD 
HETATM   15  C   UNK     1      -8.264  10.636  67.925  1.00  0.00    -0.112 C  
HETATM   16  O   UNK     1      -7.574   8.511  67.081  1.00  0.00    -0.094 OA 
HETATM   17  C   UNK     1      -9.414   2.347  73.108  1.00  0.00    -0.120 A  
HETATM   18  H   UNK     1     -10.795   7.979  67.136  1.00  0.00     0.000 HD 
HETATM   19  O   UNK     1      -9.852   2.043  70.833  1.00  0.00    -0.102 OA 
HETATM   20  H   UNK     1      -9.333   6.944  74.563  1.00  0.00     0.000 HD 
HETATM   21  H   UNK     1      -9.856   1.100  70.947  1.00  0.00     0.000 HD 
HETATM   22  C   UNK     1      -9.199   3.158  74.214  1.00  0.00    -0.101 A  
HETATM   23  C   UNK     1      -9.523  11.106  68.100  1.00  0.00    -0.180 C  
HETATM   24  C   UNK     1     -10.202  10.758  69.498  1.00  0.00    -0.113 C  
HETATM   25  C   UNK     1     -11.300   6.823  72.991  1.00  0.00    -0.116 C  
HETATM   26  O   UNK     1      -9.056   7.326  73.738  1.00  0.00    -0.183 OA 
HETATM   27  O   UNK     1     -10.407  11.107  67.016  1.00  0.00    -0.206 OA 
HETATM   28  C   UNK     1      -9.246   4.545  74.072  1.00  0.00    -0.112 A  
HETATM   29  C   UNK     1      -9.793   6.632  72.720  1.00  0.00    -0.169 C  
HETATM   30  C   UNK     1      -9.488   5.150  72.817  1.00  0.00    -0.159 A  
HETATM   31  H   UNK     1     -11.289  11.437  67.138  1.00  0.00     0.000 HD 
ENDROOT
BRANCH  15  32
HETATM   32  C   UNK     1      -7.355  11.393  68.872  1.00  0.00    -0.114 C  
HETATM   33  H   UNK     1      -7.880  13.332  68.278  1.00  0.00     0.000 HD 
HETATM   34  O   UNK     1      -6.659  10.766  69.678  1.00  0.00    -0.082 OA 
HETATM   35  N   UNK     1      -7.284  12.763  68.880  1.00  0.00    -0.076 N  
BRANCH  35  36
HETATM   36  C   UNK     1      -6.327  13.364  69.781  1.00  0.00    -0.083 C  
BRANCH  36  37
HETATM   37  N   UNK     1      -6.836  14.666  70.158  1.00  0.00    -0.340 NA 
HETATM   38  H   UNK     1      -7.171  14.683  71.122  1.00  0.00     0.000 HD 
BRANCH  37  39
HETATM   39  C   UNK     1      -5.809  15.695  69.910  1.00  0.00    -0.151 C  
BRANCH  39  40
HETATM   40  C   UNK     1      -6.354  16.893  69.112  1.00  0.00    -0.204 C  
BRANCH  40  41
HETATM   41  C   UNK     1      -5.660  17.100  67.762  1.00  0.00    -0.126 C  
BRANCH  41  42
HETATM   42  C   UNK     1      -6.674  17.210  66.609  1.00  0.00    -0.277 C  
BRANCH  42  43
HETATM   43  C   UNK     1      -7.706  18.337  66.772  1.00  0.00    -0.225 C  
HETATM   44  C   UNK     1      -7.129  19.682  66.303  1.00  0.00    -0.247 C  
HETATM   45  N   UNK     1      -8.956  18.060  66.007  1.00  0.00    -0.513 NA 
HETATM   46  O   UNK     1      -6.345  20.369  66.935  1.00  0.00    -0.197 OA 
HETATM   47  O   UNK     1      -7.592  20.008  65.067  1.00  0.00    -0.216 OA 
HETATM   48  H2  UNK     1      -9.352  17.155  66.259  1.00  0.00     0.000 HD 
HETATM   49  H1  UNK     1      -9.641  18.808  66.116  1.00  0.00     0.000 HD 
ENDBRANCH  42  43
ENDBRANCH  41  42
ENDBRANCH  40  41
ENDBRANCH  39  40
ENDBRANCH  37  39
ENDBRANCH  36  37
ENDBRANCH  35  36
ENDBRANCH  15  32
BRANCH  24  50
HETATM   50  N   UNK     1     -11.656  11.032  69.415  1.00  0.00    -0.283 NA 
HETATM   51  C   UNK     1     -12.504  10.525  70.471  1.00  0.00    -0.347 C  
HETATM   52  C   UNK     1     -11.901  12.466  69.216  1.00  0.00    -0.304 C  
ENDBRANCH  24  50
TORSDOF 9
ENDMDL
MODEL       77
REMARK 921   NORMALIZED FREE ENERGY PREDICTED BY IDOCK:   -4.55 KCAL/MOL
REMARK 922        TOTAL FREE ENERGY PREDICTED BY IDOCK:   -8.34 KCAL/MOL
REMARK 923 INTER-LIGAND FREE ENERGY PREDICTED BY IDOCK:   -9.15 KCAL/MOL
REMARK 924 INTRA-LIGAND FREE ENERGY PREDICTED BY IDOCK:    0.80 KCAL/MOL
REMARK 927      BINDING AFFINITY PREDICTED BY RF-SCORE:    0.00 PKD
ROOT
HETATM    1  C   UNK     1      -9.303   8.148  68.993  1.00  0.00    -0.147 C  
HETATM    2  C   UNK     1      -8.543   7.787  67.729  1.00  0.00    -0.121 C  
HETATM    3  C   UNK     1      -9.245   6.681  66.887  1.00  0.00    -0.158 C  
HETATM    4  C   UNK     1      -9.592   5.489  67.749  1.00  0.00    -0.138 C  
HETATM    5  C   UNK     1      -9.448   4.110  67.162  1.00  0.00    -0.189 C  
HETATM    6  C   UNK     1      -9.963   5.644  69.032  1.00  0.00    -0.174 C  
HETATM    7  O   UNK     1     -10.178   4.547  69.878  1.00  0.00    -0.208 OA 
HETATM    8  C   UNK     1      -9.877   6.962  69.804  1.00  0.00    -0.171 C  
HETATM    9  C   UNK     1      -9.176   3.958  65.712  1.00  0.00    -0.154 A  
HETATM   10  O   UNK     1      -9.556   3.103  67.865  1.00  0.00    -0.192 OA 
HETATM   11  C   UNK     1      -9.254   2.694  65.100  1.00  0.00    -0.131 A  
HETATM   12  O   UNK     1      -8.966   6.606  70.851  1.00  0.00    -0.146 OA 
HETATM   13  C   UNK     1     -11.224   7.635  70.382  1.00  0.00    -0.244 C  
HETATM   14  H   UNK     1     -10.440   4.657  70.785  1.00  0.00     0.000 HD 
HETATM   15  C   UNK     1     -11.117   9.119  70.756  1.00  0.00    -0.336 C  
HETATM   16  O   UNK     1     -12.276   7.037  70.595  1.00  0.00    -0.330 OA 
HETATM   17  C   UNK     1      -9.061   2.542  63.727  1.00  0.00    -0.096 A  
HETATM   18  H   UNK     1      -9.318   5.878  71.349  1.00  0.00     0.000 HD 
HETATM   19  O   UNK     1      -9.493   1.535  65.790  1.00  0.00    -0.325 OA 
HETATM   20  H   UNK     1      -8.148   7.273  63.930  1.00  0.00     0.000 HD 
HETATM   21  H   UNK     1      -9.545   0.681  65.377  1.00  0.00     0.000 HD 
HETATM   22  C   UNK     1      -8.785   3.655  62.943  1.00  0.00    -0.094 A  
HETATM   23  C   UNK     1      -9.837   9.345  71.139  1.00  0.00    -0.216 C  
HETATM   24  C   UNK     1      -8.746   9.263  69.982  1.00  0.00    -0.195 C  
HETATM   25  C   UNK     1      -6.889   6.312  65.891  1.00  0.00    -0.057 C  
HETATM   26  O   UNK     1      -8.659   7.461  64.709  1.00  0.00     0.028 OA 
HETATM   27  O   UNK     1      -9.400   8.860  72.377  1.00  0.00    -0.342 OA 
HETATM   28  C   UNK     1      -8.649   4.906  63.545  1.00  0.00    -0.128 A  
HETATM   29  C   UNK     1      -8.406   6.374  65.611  1.00  0.00    -0.147 C  
HETATM   30  C   UNK     1      -8.807   5.074  64.939  1.00  0.00    -0.140 A  
HETATM   31  H   UNK     1      -8.503   9.018  72.645  1.00  0.00     0.000 HD 
ENDROOT
BRANCH  15  32
HETATM   32  C   UNK     1     -11.548  10.282  69.886  1.00  0.00    -0.256 C  
HETATM   33  H   UNK     1      -9.706  10.636  68.954  1.00  0.00     0.000 HD 
HETATM   34  O   UNK     1     -12.728  10.651  69.906  1.00  0.00    -0.241 OA 
HETATM   35  N   UNK     1     -10.675  10.938  69.055  1.00  0.00    -0.211 N  
BRANCH  35  36
HETATM   36  C   UNK     1     -11.193  12.075  68.329  1.00  0.00    -0.261 C  
BRANCH  36  37
HETATM   37  N   UNK     1     -11.538  13.094  69.299  1.00  0.00    -0.298 NA 
HETATM   38  H   UNK     1     -11.518  12.737  70.254  1.00  0.00     0.000 HD 
BRANCH  37  39
HETATM   39  C   UNK     1     -10.659  14.266  69.126  1.00  0.00    -0.186 C  
BRANCH  39  40
HETATM   40  C   UNK     1     -11.445  15.560  68.850  1.00  0.00    -0.362 C  
BRANCH  40  41
HETATM   41  C   UNK     1     -10.692  16.834  69.247  1.00  0.00    -0.324 C  
BRANCH  41  42
HETATM   42  C   UNK     1      -9.948  17.455  68.052  1.00  0.00    -0.302 C  
BRANCH  42  43
HETATM   43  C   UNK     1      -9.421  18.877  68.296  1.00  0.00    -0.348 C  
HETATM   44  C   UNK     1      -8.936  19.516  66.985  1.00  0.00    -0.308 C  
HETATM   45  N   UNK     1     -10.460  19.759  68.902  1.00  0.00    -0.542 NA 
HETATM   46  O   UNK     1      -7.878  19.267  66.430  1.00  0.00    -0.265 OA 
HETATM   47  O   UNK     1      -9.854  20.393  66.500  1.00  0.00    -0.415 OA 
HETATM   48  H2  UNK     1     -10.839  19.352  69.757  1.00  0.00     0.000 HD 
HETATM   49  H1  UNK     1     -10.110  20.703  69.064  1.00  0.00     0.000 HD 
ENDBRANCH  42  43
ENDBRANCH  41  42
ENDBRANCH  40  41
ENDBRANCH  39  40
ENDBRANCH  37  39
ENDBRANCH  36  37
ENDBRANCH  35  36
ENDBRANCH  15  32
BRANCH  24  50
HETATM   50  N   UNK     1      -7.396   9.193  70.590  1.00  0.00    -0.098 NA 
HETATM   51  C   UNK     1      -6.578   8.036  70.296  1.00  0.00    -0.037 C  
HETATM   52  C   UNK     1      -6.642  10.424  70.321  1.00  0.00    -0.141 C  
ENDBRANCH  24  50
TORSDOF 9
ENDMDL
MODEL       78
REMARK 921   NORMALIZED FREE ENERGY PREDICTED BY IDOCK:   -4.48 KCAL/MOL
REMARK 922        TOTAL FREE ENERGY PREDICTED BY IDOCK:   -8.23 KCAL/MOL
REMARK 923 INTER-LIGAND FREE ENERGY PREDICTED BY IDOCK:   -9.23 KCAL/MOL
REMARK 924 INTRA-LIGAND FREE ENERGY PREDICTED BY IDOCK:    1.00 KCAL/MOL
REMARK 927      BINDING AFFINITY PREDICTED BY RF-SCORE:    0.00 PKD
ROOT
HETATM    1  C   UNK     1      -9.504  13.305  66.768  1.00  0.00    -0.257 C  
HETATM    2  C   UNK     1      -8.308  14.220  66.581  1.00  0.00     0.171 C  
HETATM    3  C   UNK     1      -8.099  15.206  67.768  1.00  0.00    -0.157 C  
HETATM    4  C   UNK     1      -9.380  15.938  68.091  1.00  0.00    -0.198 C  
HETATM    5  C   UNK     1      -9.301  17.388  68.488  1.00  0.00    -0.281 C  
HETATM    6  C   UNK     1     -10.575  15.334  67.968  1.00  0.00    -0.261 C  
HETATM    7  O   UNK     1     -11.779  16.029  68.151  1.00  0.00    -0.259 OA 
HETATM    8  C   UNK     1     -10.791  13.968  67.313  1.00  0.00    -0.284 C  
HETATM    9  C   UNK     1      -7.976  18.000  68.757  1.00  0.00    -0.255 A  
HETATM   10  O   UNK     1     -10.317  18.075  68.601  1.00  0.00    -0.369 OA 
HETATM   11  C   UNK     1      -7.885  19.277  69.338  1.00  0.00    -0.006 A  
HETATM   12  O   UNK     1     -11.651  14.320  66.222  1.00  0.00    -0.349 OA 
HETATM   13  C   UNK     1     -11.393  12.753  68.186  1.00  0.00    -0.288 C  
HETATM   14  H   UNK     1     -12.623  15.602  68.063  1.00  0.00     0.000 HD 
HETATM   15  C   UNK     1     -11.184  11.349  67.603  1.00  0.00    -0.346 C  
HETATM   16  O   UNK     1     -12.043  12.883  69.221  1.00  0.00    -0.268 OA 
HETATM   17  C   UNK     1      -6.649  19.842  69.653  1.00  0.00    -0.373 A  
HETATM   18  H   UNK     1     -12.442  14.728  66.556  1.00  0.00     0.000 HD 
HETATM   19  O   UNK     1      -8.974  20.062  69.610  1.00  0.00     0.264 OA 
HETATM   20  H   UNK     1      -4.953  15.821  67.600  1.00  0.00     0.000 HD 
HETATM   21  H   UNK     1      -8.913  20.925  70.002  1.00  0.00     0.000 HD 
HETATM   22  C   UNK     1      -5.482  19.137  69.388  1.00  0.00    -0.211 A  
HETATM   23  C   UNK     1     -11.152  11.476  66.255  1.00  0.00    -0.263 C  
HETATM   24  C   UNK     1      -9.877  12.223  65.661  1.00  0.00    -0.231 C  
HETATM   25  C   UNK     1      -6.774  16.596  66.039  1.00  0.00     0.750 C  
HETATM   26  O   UNK     1      -5.712  15.273  67.763  1.00  0.00    -0.154 OA 
HETATM   27  O   UNK     1     -12.342  11.735  65.565  1.00  0.00    -0.204 OA 
HETATM   28  C   UNK     1      -5.555  17.894  68.761  1.00  0.00    -0.179 A  
HETATM   29  C   UNK     1      -6.854  16.103  67.499  1.00  0.00    -0.165 C  
HETATM   30  C   UNK     1      -6.796  17.319  68.404  1.00  0.00    -0.191 A  
HETATM   31  H   UNK     1     -12.319  11.823  64.620  1.00  0.00     0.000 HD 
ENDROOT
BRANCH  15  32
HETATM   32  C   UNK     1     -10.087  10.383  68.000  1.00  0.00    -0.163 C  
HETATM   33  H   UNK     1     -10.401   8.963  66.493  1.00  0.00     0.000 HD 
HETATM   34  O   UNK     1      -9.352  10.658  68.956  1.00  0.00    -0.184 OA 
HETATM   35  N   UNK     1      -9.864   9.210  67.325  1.00  0.00    -0.176 N  
BRANCH  35  36
HETATM   36  C   UNK     1      -8.833   8.341  67.845  1.00  0.00    -0.138 C  
BRANCH  36  37
HETATM   37  N   UNK     1      -9.317   7.785  69.092  1.00  0.00    -0.151 NA 
HETATM   38  H   UNK     1     -10.222   8.172  69.360  1.00  0.00     0.000 HD 
BRANCH  37  39
HETATM   39  C   UNK     1      -9.348   6.313  69.004  1.00  0.00    -0.126 C  
BRANCH  39  40
HETATM   40  C   UNK     1     -10.743   5.732  69.297  1.00  0.00    -0.386 C  
BRANCH  40  41
HETATM   41  C   UNK     1     -11.220   5.974  70.734  1.00  0.00    -0.340 C  
BRANCH  41  42
HETATM   42  C   UNK     1     -12.467   6.874  70.778  1.00  0.00    -0.251 C  
BRANCH  42  43
HETATM   43  C   UNK     1     -12.463   7.915  71.909  1.00  0.00    -0.321 C  
HETATM   44  C   UNK     1     -11.724   9.191  71.479  1.00  0.00    -0.363 C  
HETATM   45  N   UNK     1     -13.846   8.282  72.330  1.00  0.00    -0.589 NA 
HETATM   46  O   UNK     1     -10.512   9.316  71.420  1.00  0.00    -0.319 OA 
HETATM   47  O   UNK     1     -12.600  10.175  71.146  1.00  0.00    -0.324 OA 
HETATM   48  H2  UNK     1     -14.387   7.457  72.587  1.00  0.00     0.000 HD 
HETATM   49  H1  UNK     1     -13.843   8.973  73.081  1.00  0.00     0.000 HD 
ENDBRANCH  42  43
ENDBRANCH  41  42
ENDBRANCH  40  41
ENDBRANCH  39  40
ENDBRANCH  37  39
ENDBRANCH  36  37
ENDBRANCH  35  36
ENDBRANCH  15  32
BRANCH  24  50
HETATM   50  N   UNK     1     -10.136  12.581  64.247  1.00  0.00    -0.304 NA 
HETATM   51  C   UNK     1      -9.659  11.680  63.220  1.00  0.00    -0.311 C  
HETATM   52  C   UNK     1     -11.560  12.873  64.039  1.00  0.00    -0.426 C  
ENDBRANCH  24  50
TORSDOF 9
ENDMDL
MODEL       79
REMARK 921   NORMALIZED FREE ENERGY PREDICTED BY IDOCK:   -4.47 KCAL/MOL
REMARK 922        TOTAL FREE ENERGY PREDICTED BY IDOCK:   -8.21 KCAL/MOL
REMARK 923 INTER-LIGAND FREE ENERGY PREDICTED BY IDOCK:   -7.56 KCAL/MOL
REMARK 924 INTRA-LIGAND FREE ENERGY PREDICTED BY IDOCK:   -0.65 KCAL/MOL
REMARK 927      BINDING AFFINITY PREDICTED BY RF-SCORE:    0.00 PKD
ROOT
HETATM    1  C   UNK     1      -9.333   9.150  69.437  1.00  0.00    -0.160 C  
HETATM    2  C   UNK     1      -8.892   8.408  70.686  1.00  0.00    -0.161 C  
HETATM    3  C   UNK     1      -7.942   7.212  70.384  1.00  0.00    -0.112 C  
HETATM    4  C   UNK     1      -8.528   6.314  69.320  1.00  0.00    -0.124 C  
HETATM    5  C   UNK     1      -8.343   4.826  69.450  1.00  0.00    -0.076 C  
HETATM    6  C   UNK     1      -9.256   6.821  68.308  1.00  0.00    -0.122 C  
HETATM    7  O   UNK     1      -9.903   5.997  67.377  1.00  0.00    -0.119 OA 
HETATM    8  C   UNK     1      -9.737   8.271  68.230  1.00  0.00    -0.158 C  
HETATM    9  C   UNK     1      -7.424   4.293  70.485  1.00  0.00    -0.049 A  
HETATM   10  O   UNK     1      -8.936   4.042  68.708  1.00  0.00    -0.099 OA 
HETATM   11  C   UNK     1      -7.064   2.934  70.487  1.00  0.00    -0.033 A  
HETATM   12  O   UNK     1     -11.159   8.087  68.221  1.00  0.00    -0.420 OA 
HETATM   13  C   UNK     1      -9.244   9.209  67.014  1.00  0.00    -0.135 C  
HETATM   14  H   UNK     1     -10.418   6.354  66.663  1.00  0.00     0.000 HD 
HETATM   15  C   UNK     1      -9.414  10.718  67.229  1.00  0.00    -0.177 C  
HETATM   16  O   UNK     1      -8.816   8.800  65.937  1.00  0.00    -0.163 OA 
HETATM   17  C   UNK     1      -6.154   2.428  71.417  1.00  0.00    -0.014 A  
HETATM   18  H   UNK     1     -11.407   7.547  67.479  1.00  0.00     0.000 HD 
HETATM   19  O   UNK     1      -7.584   2.014  69.616  1.00  0.00    -0.043 OA 
HETATM   20  H   UNK     1      -6.300   6.934  73.129  1.00  0.00     0.000 HD 
HETATM   21  H   UNK     1      -7.341   1.095  69.618  1.00  0.00     0.000 HD 
HETATM   22  C   UNK     1      -5.592   3.276  72.362  1.00  0.00    -0.007 A  
HETATM   23  C   UNK     1     -10.488  10.890  68.036  1.00  0.00    -0.191 C  
HETATM   24  C   UNK     1     -10.303  10.407  69.542  1.00  0.00    -0.237 C  
HETATM   25  C   UNK     1      -8.715   6.355  72.696  1.00  0.00    -0.126 C  
HETATM   26  O   UNK     1      -6.549   7.363  72.317  1.00  0.00    -0.050 OA 
HETATM   27  O   UNK     1     -11.771  10.680  67.518  1.00  0.00    -0.580 OA 
HETATM   28  C   UNK     1      -5.983   4.614  72.407  1.00  0.00    -0.016 A  
HETATM   29  C   UNK     1      -7.534   6.510  71.714  1.00  0.00    -0.093 C  
HETATM   30  C   UNK     1      -6.928   5.137  71.495  1.00  0.00    -0.057 A  
HETATM   31  H   UNK     1     -12.524  10.801  68.085  1.00  0.00     0.000 HD 
ENDROOT
BRANCH  15  32
HETATM   32  C   UNK     1      -8.331  11.670  67.694  1.00  0.00    -0.142 C  
HETATM   33  H   UNK     1      -9.544  13.350  68.000  1.00  0.00     0.000 HD 
HETATM   34  O   UNK     1      -7.170  11.262  67.805  1.00  0.00    -0.083 OA 
HETATM   35  N   UNK     1      -8.595  12.977  68.016  1.00  0.00    -0.177 N  
BRANCH  35  36
HETATM   36  C   UNK     1      -7.465  13.803  68.379  1.00  0.00    -0.119 C  
BRANCH  36  37
HETATM   37  N   UNK     1      -6.903  14.340  67.157  1.00  0.00    -0.380 NA 
HETATM   38  H   UNK     1      -7.624  14.572  66.473  1.00  0.00     0.000 HD 
BRANCH  37  39
HETATM   39  C   UNK     1      -6.042  15.496  67.469  1.00  0.00    -0.089 C  
BRANCH  39  40
HETATM   40  C   UNK     1      -5.801  15.663  68.980  1.00  0.00    -0.105 C  
BRANCH  40  41
HETATM   41  C   UNK     1      -6.381  16.960  69.555  1.00  0.00    -0.233 C  
BRANCH  41  42
HETATM   42  C   UNK     1      -7.236  17.713  68.520  1.00  0.00    -0.242 C  
BRANCH  42  43
HETATM   43  C   UNK     1      -7.871  19.012  69.039  1.00  0.00    -0.233 C  
HETATM   44  C   UNK     1      -7.232  20.240  68.374  1.00  0.00    -0.175 C  
HETATM   45  N   UNK     1      -9.342  19.047  68.796  1.00  0.00    -0.364 NA 
HETATM   46  O   UNK     1      -6.143  20.710  68.662  1.00  0.00    -0.318 OA 
HETATM   47  O   UNK     1      -8.031  20.737  67.393  1.00  0.00    -0.327 OA 
HETATM   48  H2  UNK     1      -9.803  18.226  69.188  1.00  0.00     0.000 HD 
HETATM   49  H1  UNK     1      -9.764  19.910  69.141  1.00  0.00     0.000 HD 
ENDBRANCH  42  43
ENDBRANCH  41  42
ENDBRANCH  40  41
ENDBRANCH  39  40
ENDBRANCH  37  39
ENDBRANCH  36  37
ENDBRANCH  35  36
ENDBRANCH  15  32
BRANCH  24  50
HETATM   50  N   UNK     1     -11.630  10.342  70.199  1.00  0.00    -0.289 NA 
HETATM   51  C   UNK     1     -11.769   9.502  71.369  1.00  0.00    -0.393 C  
HETATM   52  C   UNK     1     -12.133  11.692  70.486  1.00  0.00    -0.366 C  
ENDBRANCH  24  50
TORSDOF 9
ENDMDL
MODEL       80
REMARK 921   NORMALIZED FREE ENERGY PREDICTED BY IDOCK:   -4.41 KCAL/MOL
REMARK 922        TOTAL FREE ENERGY PREDICTED BY IDOCK:   -8.13 KCAL/MOL
REMARK 923 INTER-LIGAND FREE ENERGY PREDICTED BY IDOCK:   -7.29 KCAL/MOL
REMARK 924 INTRA-LIGAND FREE ENERGY PREDICTED BY IDOCK:   -0.83 KCAL/MOL
REMARK 927      BINDING AFFINITY PREDICTED BY RF-SCORE:    0.00 PKD
ROOT
HETATM    1  C   UNK     1      -9.566   8.282  69.524  1.00  0.00    -0.171 C  
HETATM    2  C   UNK     1      -9.771   9.130  68.281  1.00  0.00    -0.171 C  
HETATM    3  C   UNK     1      -9.811  10.657  68.582  1.00  0.00    -0.183 C  
HETATM    4  C   UNK     1     -10.789  10.961  69.693  1.00  0.00    -0.271 C  
HETATM    5  C   UNK     1     -11.619  12.213  69.599  1.00  0.00    -0.291 C  
HETATM    6  C   UNK     1     -10.966  10.106  70.716  1.00  0.00    -0.242 C  
HETATM    7  O   UNK     1     -11.949  10.314  71.693  1.00  0.00    -0.332 OA 
HETATM    8  C   UNK     1     -10.387   8.690  70.770  1.00  0.00    -0.204 C  
HETATM    9  C   UNK     1     -11.316  13.213  68.546  1.00  0.00    -0.321 A  
HETATM   10  O   UNK     1     -12.544  12.426  70.385  1.00  0.00    -0.157 OA 
HETATM   11  C   UNK     1     -11.923  14.480  68.570  1.00  0.00    -0.286 A  
HETATM   12  O   UNK     1     -11.586   7.907  70.837  1.00  0.00    -0.284 OA 
HETATM   13  C   UNK     1      -9.347   8.300  71.940  1.00  0.00    -0.216 C  
HETATM   14  H   UNK     1     -12.074   9.709  72.415  1.00  0.00     0.000 HD 
HETATM   15  C   UNK     1      -8.507   7.041  71.688  1.00  0.00    -0.115 C  
HETATM   16  O   UNK     1      -9.237   8.891  73.011  1.00  0.00    -0.146 OA 
HETATM   17  C   UNK     1     -11.604  15.454  67.622  1.00  0.00    -0.202 A  
HETATM   18  H   UNK     1     -12.090   8.158  71.602  1.00  0.00     0.000 HD 
HETATM   19  O   UNK     1     -12.875  14.844  69.485  1.00  0.00    -0.552 OA 
HETATM   20  H   UNK     1      -8.872  11.928  65.788  1.00  0.00     0.000 HD 
HETATM   21  H   UNK     1     -13.286  15.701  69.501  1.00  0.00     0.000 HD 
HETATM   22  C   UNK     1     -10.671  15.172  66.633  1.00  0.00    -0.310 A  
HETATM   23  C   UNK     1      -9.249   6.211  70.916  1.00  0.00    -0.154 C  
HETATM   24  C   UNK     1      -9.493   6.695  69.418  1.00  0.00    -0.146 C  
HETATM   25  C   UNK     1     -11.062  10.802  66.326  1.00  0.00     0.027 C  
HETATM   26  O   UNK     1      -8.745  11.443  66.595  1.00  0.00    -0.167 OA 
HETATM   27  O   UNK     1     -10.336   5.539  71.486  1.00  0.00    -0.207 OA 
HETATM   28  C   UNK     1     -10.102  13.901  66.564  1.00  0.00    -0.286 A  
HETATM   29  C   UNK     1     -10.018  11.453  67.259  1.00  0.00    -0.194 C  
HETATM   30  C   UNK     1     -10.438  12.891  67.494  1.00  0.00    -0.226 A  
HETATM   31  H   UNK     1     -10.856   4.957  70.945  1.00  0.00     0.000 HD 
ENDROOT
BRANCH  15  32
HETATM   32  C   UNK     1      -7.089   7.019  71.155  1.00  0.00    -0.074 C  
HETATM   33  H   UNK     1      -7.554   6.836  69.121  1.00  0.00     0.000 HD 
HETATM   34  O   UNK     1      -6.143   7.142  71.941  1.00  0.00    -0.037 OA 
HETATM   35  N   UNK     1      -6.811   6.881  69.819  1.00  0.00    -0.049 N  
BRANCH  35  36
HETATM   36  C   UNK     1      -5.417   6.804  69.446  1.00  0.00    -0.014 C  
BRANCH  36  37
HETATM   37  N   UNK     1      -5.285   7.373  68.120  1.00  0.00    -0.024 NA 
HETATM   38  H   UNK     1      -5.385   6.669  67.389  1.00  0.00     0.000 HD 
BRANCH  37  39
HETATM   39  C   UNK     1      -6.243   8.483  67.956  1.00  0.00    -0.052 C  
BRANCH  39  40
HETATM   40  C   UNK     1      -5.591   9.862  68.163  1.00  0.00    -0.039 C  
BRANCH  40  41
HETATM   41  C   UNK     1      -6.218  10.674  69.301  1.00  0.00    -0.050 C  
BRANCH  41  42
HETATM   42  C   UNK     1      -5.188  11.592  69.982  1.00  0.00    -0.079 C  
BRANCH  42  43
HETATM   43  C   UNK     1      -5.509  13.092  69.889  1.00  0.00    -0.102 C  
HETATM   44  C   UNK     1      -6.543  13.365  68.786  1.00  0.00    -0.102 C  
HETATM   45  N   UNK     1      -6.032  13.630  71.179  1.00  0.00    -0.469 NA 
HETATM   46  O   UNK     1      -6.307  13.387  67.590  1.00  0.00    -0.156 OA 
HETATM   47  O   UNK     1      -7.781  13.562  69.314  1.00  0.00     0.136 OA 
HETATM   48  H2  UNK     1      -5.392  13.434  71.949  1.00  0.00     0.000 HD 
HETATM   49  H1  UNK     1      -6.245  14.625  71.117  1.00  0.00     0.000 HD 
ENDBRANCH  42  43
ENDBRANCH  41  42
ENDBRANCH  40  41
ENDBRANCH  39  40
ENDBRANCH  37  39
ENDBRANCH  36  37
ENDBRANCH  35  36
ENDBRANCH  15  32
BRANCH  24  50
HETATM   50  N   UNK     1     -10.574   5.882  68.813  1.00  0.00    -0.252 NA 
HETATM   51  C   UNK     1     -11.139   6.329  67.559  1.00  0.00    -0.279 C  
HETATM   52  C   UNK     1     -10.167   4.475  68.710  1.00  0.00     0.159 C  
ENDBRANCH  24  50
TORSDOF 9
ENDMDL
MODEL       81
REMARK 921   NORMALIZED FREE ENERGY PREDICTED BY IDOCK:   -4.35 KCAL/MOL
REMARK 922        TOTAL FREE ENERGY PREDICTED BY IDOCK:   -8.03 KCAL/MOL
REMARK 923 INTER-LIGAND FREE ENERGY PREDICTED BY IDOCK:   -7.62 KCAL/MOL
REMARK 924 INTRA-LIGAND FREE ENERGY PREDICTED BY IDOCK:   -0.41 KCAL/MOL
REMARK 927      BINDING AFFINITY PREDICTED BY RF-SCORE:    0.00 PKD
ROOT
HETATM    1  C   UNK     1      -9.341   8.394  68.724  1.00  0.00    -0.143 C  
HETATM    2  C   UNK     1      -8.661   7.318  69.551  1.00  0.00    -0.134 C  
HETATM    3  C   UNK     1      -7.849   6.306  68.690  1.00  0.00    -0.102 C  
HETATM    4  C   UNK     1      -8.693   5.762  67.560  1.00  0.00    -0.107 C  
HETATM    5  C   UNK     1      -8.539   4.314  67.179  1.00  0.00    -0.104 C  
HETATM    6  C   UNK     1      -9.607   6.532  66.944  1.00  0.00    -0.158 C  
HETATM    7  O   UNK     1     -10.477   6.015  65.974  1.00  0.00    -0.434 OA 
HETATM    8  C   UNK     1     -10.038   7.918  67.427  1.00  0.00    -0.226 C  
HETATM    9  C   UNK     1      -7.434   3.517  67.766  1.00  0.00    -0.062 A  
HETATM   10  O   UNK     1      -9.313   3.778  66.384  1.00  0.00    -0.164 OA 
HETATM   11  C   UNK     1      -7.135   2.237  67.268  1.00  0.00    -0.048 A  
HETATM   12  O   UNK     1     -11.432   7.699  67.680  1.00  0.00    -0.095 OA 
HETATM   13  C   UNK     1      -9.793   9.202  66.482  1.00  0.00    -0.264 C  
HETATM   14  H   UNK     1     -11.124   6.559  65.539  1.00  0.00     0.000 HD 
HETATM   15  C   UNK     1      -9.853  10.565  67.185  1.00  0.00    -0.213 C  
HETATM   16  O   UNK     1      -9.632   9.161  65.265  1.00  0.00    -0.199 OA 
HETATM   17  C   UNK     1      -6.061   1.499  67.767  1.00  0.00    -0.024 A  
HETATM   18  H   UNK     1     -11.860   7.407  66.884  1.00  0.00     0.000 HD 
HETATM   19  O   UNK     1      -7.871   1.615  66.295  1.00  0.00    -0.068 OA 
HETATM   20  H   UNK     1      -5.648   5.248  70.774  1.00  0.00     0.000 HD 
HETATM   21  H   UNK     1      -7.670   0.749  65.958  1.00  0.00     0.000 HD 
HETATM   22  C   UNK     1      -5.270   2.032  68.776  1.00  0.00    -0.012 A  
HETATM   23  C   UNK     1     -10.712  10.442  68.225  1.00  0.00    -0.235 C  
HETATM   24  C   UNK     1     -10.215   9.524  69.427  1.00  0.00    -0.206 C  
HETATM   25  C   UNK     1      -8.119   4.750  70.735  1.00  0.00    -0.085 C  
HETATM   26  O   UNK     1      -6.055   5.898  70.211  1.00  0.00    -0.024 OA 
HETATM   27  O   UNK     1     -12.086  10.360  67.969  1.00  0.00    -0.604 OA 
HETATM   28  C   UNK     1      -5.589   3.276  69.319  1.00  0.00    -0.017 A  
HETATM   29  C   UNK     1      -7.182   5.241  69.611  1.00  0.00    -0.060 C  
HETATM   30  C   UNK     1      -6.693   4.024  68.849  1.00  0.00    -0.046 A  
HETATM   31  H   UNK     1     -12.688  10.274  68.698  1.00  0.00     0.000 HD 
ENDROOT
BRANCH  15  32
HETATM   32  C   UNK     1      -8.658  11.362  67.667  1.00  0.00    -0.130 C  
HETATM   33  H   UNK     1      -9.704  12.792  68.783  1.00  0.00     0.000 HD 
HETATM   34  O   UNK     1      -7.518  10.994  67.360  1.00  0.00    -0.098 OA 
HETATM   35  N   UNK     1      -8.792  12.479  68.451  1.00  0.00    -0.161 N  
BRANCH  35  36
HETATM   36  C   UNK     1      -7.580  13.192  68.787  1.00  0.00    -0.033 C  
BRANCH  36  37
HETATM   37  N   UNK     1      -7.942  14.280  69.671  1.00  0.00    -0.271 NA 
HETATM   38  H   UNK     1      -7.400  14.269  70.536  1.00  0.00     0.000 HD 
BRANCH  37  39
HETATM   39  C   UNK     1      -7.820  15.565  68.958  1.00  0.00    -0.201 C  
BRANCH  39  40
HETATM   40  C   UNK     1      -9.164  16.306  68.839  1.00  0.00    -0.249 C  
BRANCH  40  41
HETATM   41  C   UNK     1      -9.017  17.817  68.629  1.00  0.00    -0.258 C  
BRANCH  41  42
HETATM   42  C   UNK     1      -8.406  18.146  67.255  1.00  0.00    -0.244 C  
BRANCH  42  43
HETATM   43  C   UNK     1      -7.881  19.584  67.118  1.00  0.00    -0.258 C  
HETATM   44  C   UNK     1      -6.350  19.600  66.989  1.00  0.00    -0.187 C  
HETATM   45  N   UNK     1      -8.468  20.279  65.936  1.00  0.00    -0.544 NA 
HETATM   46  O   UNK     1      -5.565  19.449  67.910  1.00  0.00    -0.191 OA 
HETATM   47  O   UNK     1      -5.970  19.786  65.698  1.00  0.00    -0.173 OA 
HETATM   48  H2  UNK     1      -9.487  20.257  65.961  1.00  0.00     0.000 HD 
HETATM   49  H1  UNK     1      -8.120  21.234  65.845  1.00  0.00     0.000 HD 
ENDBRANCH  42  43
ENDBRANCH  41  42
ENDBRANCH  40  41
ENDBRANCH  39  40
ENDBRANCH  37  39
ENDBRANCH  36  37
ENDBRANCH  35  36
ENDBRANCH  15  32
BRANCH  24  50
HETATM   50  N   UNK     1     -11.363   9.214  70.311  1.00  0.00    -0.227 NA 
HETATM   51  C   UNK     1     -11.292   8.020  71.125  1.00  0.00    -0.266 C  
HETATM   52  C   UNK     1     -11.701  10.374  71.146  1.00  0.00    -0.296 C  
ENDBRANCH  24  50
TORSDOF 9
ENDMDL
MODEL       82
REMARK 921   NORMALIZED FREE ENERGY PREDICTED BY IDOCK:   -4.34 KCAL/MOL
REMARK 922        TOTAL FREE ENERGY PREDICTED BY IDOCK:   -8.01 KCAL/MOL
REMARK 923 INTER-LIGAND FREE ENERGY PREDICTED BY IDOCK:   -6.41 KCAL/MOL
REMARK 924 INTRA-LIGAND FREE ENERGY PREDICTED BY IDOCK:   -1.60 KCAL/MOL
REMARK 927      BINDING AFFINITY PREDICTED BY RF-SCORE:    0.00 PKD
ROOT
HETATM    1  C   UNK     1     -10.216   7.143  70.603  1.00  0.00    -0.205 C  
HETATM    2  C   UNK     1     -10.437   7.527  69.151  1.00  0.00    -0.220 C  
HETATM    3  C   UNK     1      -9.110   7.751  68.368  1.00  0.00    -0.131 C  
HETATM    4  C   UNK     1      -8.197   8.696  69.115  1.00  0.00    -0.117 C  
HETATM    5  C   UNK     1      -7.386   9.687  68.325  1.00  0.00    -0.080 C  
HETATM    6  C   UNK     1      -8.152   8.700  70.459  1.00  0.00    -0.113 C  
HETATM    7  O   UNK     1      -7.400   9.645  71.171  1.00  0.00    -0.332 OA 
HETATM    8  C   UNK     1      -9.126   7.938  71.360  1.00  0.00    -0.136 C  
HETATM    9  C   UNK     1      -7.337   9.579  66.846  1.00  0.00    -0.087 A  
HETATM   10  O   UNK     1      -6.756  10.586  68.885  1.00  0.00    -0.055 OA 
HETATM   11  C   UNK     1      -6.421  10.346  66.105  1.00  0.00    -0.111 A  
HETATM   12  O   UNK     1      -9.730   9.017  72.084  1.00  0.00    -0.279 OA 
HETATM   13  C   UNK     1      -8.566   6.791  72.347  1.00  0.00    -0.123 C  
HETATM   14  H   UNK     1      -7.368   9.648  72.121  1.00  0.00     0.000 HD 
HETATM   15  C   UNK     1      -9.615   5.808  72.884  1.00  0.00    -0.163 C  
HETATM   16  O   UNK     1      -7.404   6.698  72.732  1.00  0.00    -0.084 OA 
HETATM   17  C   UNK     1      -6.320  10.212  64.720  1.00  0.00    -0.131 A  
HETATM   18  H   UNK     1      -9.061   9.506  72.548  1.00  0.00     0.000 HD 
HETATM   19  O   UNK     1      -5.594  11.283  66.664  1.00  0.00    -0.098 OA 
HETATM   20  H   UNK     1      -9.993   7.148  65.341  1.00  0.00     0.000 HD 
HETATM   21  H   UNK     1      -4.976  11.802  66.164  1.00  0.00     0.000 HD 
HETATM   22  C   UNK     1      -7.137   9.307  64.054  1.00  0.00    -0.098 A  
HETATM   23  C   UNK     1     -10.790   6.477  72.960  1.00  0.00    -0.261 C  
HETATM   24  C   UNK     1     -11.454   6.867  71.565  1.00  0.00    -0.277 C  
HETATM   25  C   UNK     1     -10.593   9.137  66.769  1.00  0.00    -0.207 C  
HETATM   26  O   UNK     1      -9.801   6.913  66.242  1.00  0.00    -0.082 OA 
HETATM   27  O   UNK     1     -10.968   7.432  73.967  1.00  0.00    -0.520 OA 
HETATM   28  C   UNK     1      -8.089   8.581  64.770  1.00  0.00    -0.151 A  
HETATM   29  C   UNK     1      -9.424   8.136  66.892  1.00  0.00    -0.191 C  
HETATM   30  C   UNK     1      -8.229   8.728  66.169  1.00  0.00    -0.117 A  
HETATM   31  H   UNK     1     -11.792   7.901  74.020  1.00  0.00     0.000 HD 
ENDROOT
BRANCH  15  32
HETATM   32  C   UNK     1      -9.904   4.432  72.320  1.00  0.00    -0.172 C  
HETATM   33  H   UNK     1      -8.377   4.386  70.888  1.00  0.00     0.000 HD 
HETATM   34  O   UNK     1     -10.816   3.755  72.809  1.00  0.00    -0.120 OA 
HETATM   35  N   UNK     1      -9.177   3.896  71.288  1.00  0.00    -0.119 N  
BRANCH  35  36
HETATM   36  C   UNK     1      -9.597   2.604  70.794  1.00  0.00    -0.111 C  
BRANCH  36  37
HETATM   37  N   UNK     1      -8.742   2.263  69.676  1.00  0.00    -0.061 NA 
HETATM   38  H   UNK     1      -8.422   1.295  69.718  1.00  0.00     0.000 HD 
BRANCH  37  39
HETATM   39  C   UNK     1      -9.434   2.563  68.408  1.00  0.00    -0.154 C  
BRANCH  39  40
HETATM   40  C   UNK     1      -8.789   3.734  67.645  1.00  0.00    -0.138 C  
BRANCH  40  41
HETATM   41  C   UNK     1      -7.969   3.296  66.426  1.00  0.00    -0.081 C  
BRANCH  41  42
HETATM   42  C   UNK     1      -7.420   4.503  65.644  1.00  0.00    -0.081 C  
BRANCH  42  43
HETATM   43  C   UNK     1      -5.891   4.654  65.694  1.00  0.00    -0.022 C  
HETATM   44  C   UNK     1      -5.448   5.971  65.039  1.00  0.00    -0.017 C  
HETATM   45  N   UNK     1      -5.375   4.617  67.093  1.00  0.00    -0.012 NA 
HETATM   46  O   UNK     1      -5.384   6.173  63.838  1.00  0.00    -0.017 OA 
HETATM   47  O   UNK     1      -5.149   6.908  65.979  1.00  0.00    -0.020 OA 
HETATM   48  H2  UNK     1      -5.680   3.774  67.579  1.00  0.00     0.000 HD 
HETATM   49  H1  UNK     1      -4.360   4.717  67.126  1.00  0.00     0.000 HD 
ENDBRANCH  42  43
ENDBRANCH  41  42
ENDBRANCH  40  41
ENDBRANCH  39  40
ENDBRANCH  37  39
ENDBRANCH  36  37
ENDBRANCH  35  36
ENDBRANCH  15  32
BRANCH  24  50
HETATM   50  N   UNK     1     -12.525   7.864  71.797  1.00  0.00    -0.313 NA 
HETATM   51  C   UNK     1     -12.417   9.145  71.133  1.00  0.00    -0.254 C  
HETATM   52  C   UNK     1     -13.845   7.274  71.544  1.00  0.00    -0.350 C  
ENDBRANCH  24  50
TORSDOF 9
ENDMDL
MODEL       83
REMARK 921   NORMALIZED FREE ENERGY PREDICTED BY IDOCK:   -4.31 KCAL/MOL
REMARK 922        TOTAL FREE ENERGY PREDICTED BY IDOCK:   -7.98 KCAL/MOL
REMARK 923 INTER-LIGAND FREE ENERGY PREDICTED BY IDOCK:   -6.26 KCAL/MOL
REMARK 924 INTRA-LIGAND FREE ENERGY PREDICTED BY IDOCK:   -1.72 KCAL/MOL
REMARK 927      BINDING AFFINITY PREDICTED BY RF-SCORE:    0.00 PKD
ROOT
HETATM    1  C   UNK     1      -8.906   7.704  70.446  1.00  0.00    -0.144 C  
HETATM    2  C   UNK     1     -10.001   8.355  69.620  1.00  0.00    -0.193 C  
HETATM    3  C   UNK     1      -9.450   9.273  68.489  1.00  0.00    -0.150 C  
HETATM    4  C   UNK     1      -8.438  10.253  69.036  1.00  0.00    -0.150 C  
HETATM    5  C   UNK     1      -8.421  11.654  68.487  1.00  0.00    -0.135 C  
HETATM    6  C   UNK     1      -7.608   9.907  70.036  1.00  0.00    -0.172 C  
HETATM    7  O   UNK     1      -6.743  10.834  70.634  1.00  0.00    -0.450 OA 
HETATM    8  C   UNK     1      -7.724   8.616  70.850  1.00  0.00    -0.097 C  
HETATM    9  C   UNK     1      -9.240  11.980  67.293  1.00  0.00    -0.182 A  
HETATM   10  O   UNK     1      -7.735  12.535  69.007  1.00  0.00     0.021 OA 
HETATM   11  C   UNK     1      -9.077  13.209  66.631  1.00  0.00    -0.173 A  
HETATM   12  O   UNK     1      -7.946   9.140  72.165  1.00  0.00    -0.310 OA 
HETATM   13  C   UNK     1      -6.515   7.548  70.824  1.00  0.00    -0.039 C  
HETATM   14  H   UNK     1      -6.157  10.590  71.341  1.00  0.00     0.000 HD 
HETATM   15  C   UNK     1      -6.870   6.133  71.299  1.00  0.00    -0.067 C  
HETATM   16  O   UNK     1      -5.353   7.805  70.519  1.00  0.00    -0.023 OA 
HETATM   17  C   UNK     1      -9.795  13.508  65.472  1.00  0.00    -0.165 A  
HETATM   18  H   UNK     1      -7.220   9.701  72.413  1.00  0.00     0.000 HD 
HETATM   19  O   UNK     1      -8.241  14.201  67.074  1.00  0.00    -0.326 OA 
HETATM   20  H   UNK     1     -11.842   9.230  66.348  1.00  0.00     0.000 HD 
HETATM   21  H   UNK     1      -8.131  15.032  66.627  1.00  0.00     0.000 HD 
HETATM   22  C   UNK     1     -10.690  12.579  64.959  1.00  0.00    -0.326 A  
HETATM   23  C   UNK     1      -7.861   6.254  72.215  1.00  0.00    -0.104 C  
HETATM   24  C   UNK     1      -9.272   6.725  71.646  1.00  0.00    -0.144 C  
HETATM   25  C   UNK     1     -11.789  10.367  68.598  1.00  0.00     0.052 C  
HETATM   26  O   UNK     1     -11.121   8.850  66.837  1.00  0.00     0.102 OA 
HETATM   27  O   UNK     1      -7.557   6.754  73.486  1.00  0.00    -0.083 OA 
HETATM   28  C   UNK     1     -10.903  11.379  65.636  1.00  0.00    -0.280 A  
HETATM   29  C   UNK     1     -10.633   9.897  67.689  1.00  0.00    -0.270 C  
HETATM   30  C   UNK     1     -10.210  11.073  66.830  1.00  0.00    -0.272 A  
HETATM   31  H   UNK     1      -8.252   6.838  74.128  1.00  0.00     0.000 HD 
ENDROOT
BRANCH  15  32
HETATM   32  C   UNK     1      -7.213   4.961  70.402  1.00  0.00    -0.054 C  
HETATM   33  H   UNK     1      -6.074   5.535  68.740  1.00  0.00     0.000 HD 
HETATM   34  O   UNK     1      -7.942   4.060  70.832  1.00  0.00    -0.058 OA 
HETATM   35  N   UNK     1      -6.728   4.851  69.124  1.00  0.00    -0.047 N  
BRANCH  35  36
HETATM   36  C   UNK     1      -7.184   3.722  68.345  1.00  0.00    -0.054 C  
BRANCH  36  37
HETATM   37  N   UNK     1      -8.515   4.031  67.863  1.00  0.00    -0.093 NA 
HETATM   38  H   UNK     1      -8.797   4.983  68.098  1.00  0.00     0.000 HD 
BRANCH  37  39
HETATM   39  C   UNK     1      -8.593   3.772  66.413  1.00  0.00    -0.113 C  
BRANCH  39  40
HETATM   40  C   UNK     1      -7.242   3.971  65.703  1.00  0.00    -0.071 C  
BRANCH  40  41
HETATM   41  C   UNK     1      -7.053   5.377  65.123  1.00  0.00    -0.065 C  
BRANCH  41  42
HETATM   42  C   UNK     1      -8.395   6.111  64.954  1.00  0.00    -0.092 C  
BRANCH  42  43
HETATM   43  C   UNK     1      -8.430   7.525  65.554  1.00  0.00    -0.119 C  
HETATM   44  C   UNK     1      -7.067   7.901  66.156  1.00  0.00    -0.062 C  
HETATM   45  N   UNK     1      -8.803   8.551  64.538  1.00  0.00    -0.409 NA 
HETATM   46  O   UNK     1      -6.637   7.505  67.226  1.00  0.00    -0.058 OA 
HETATM   47  O   UNK     1      -6.376   8.726  65.325  1.00  0.00    -0.059 OA 
HETATM   48  H2  UNK     1      -9.686   8.319  64.084  1.00  0.00     0.000 HD 
HETATM   49  H1  UNK     1      -8.827   9.490  64.937  1.00  0.00     0.000 HD 
ENDBRANCH  42  43
ENDBRANCH  41  42
ENDBRANCH  40  41
ENDBRANCH  39  40
ENDBRANCH  37  39
ENDBRANCH  36  37
ENDBRANCH  35  36
ENDBRANCH  15  32
BRANCH  24  50
HETATM   50  N   UNK     1     -10.141   7.132  72.776  1.00  0.00    -0.183 NA 
HETATM   51  C   UNK     1     -11.127   8.164  72.537  1.00  0.00    -0.377 C  
HETATM   52  C   UNK     1     -10.777   5.960  73.389  1.00  0.00    -0.267 C  
ENDBRANCH  24  50
TORSDOF 9
ENDMDL
MODEL       84
REMARK 921   NORMALIZED FREE ENERGY PREDICTED BY IDOCK:   -4.20 KCAL/MOL
REMARK 922        TOTAL FREE ENERGY PREDICTED BY IDOCK:   -7.80 KCAL/MOL
REMARK 923 INTER-LIGAND FREE ENERGY PREDICTED BY IDOCK:   -6.62 KCAL/MOL
REMARK 924 INTRA-LIGAND FREE ENERGY PREDICTED BY IDOCK:   -1.18 KCAL/MOL
REMARK 927      BINDING AFFINITY PREDICTED BY RF-SCORE:    0.00 PKD
ROOT
HETATM    1  C   UNK     1      -8.068   9.410  67.865  1.00  0.00    -0.103 C  
HETATM    2  C   UNK     1      -7.569  10.839  67.759  1.00  0.00    -0.095 C  
HETATM    3  C   UNK     1      -8.409  11.845  68.600  1.00  0.00    -0.058 C  
HETATM    4  C   UNK     1      -9.884  11.692  68.306  1.00  0.00    -0.199 C  
HETATM    5  C   UNK     1     -10.739  12.930  68.252  1.00  0.00    -0.244 C  
HETATM    6  C   UNK     1     -10.417  10.488  68.036  1.00  0.00    -0.197 C  
HETATM    7  O   UNK     1     -11.756  10.341  67.649  1.00  0.00    -0.570 OA 
HETATM    8  C   UNK     1      -9.602   9.216  67.793  1.00  0.00    -0.146 C  
HETATM    9  C   UNK     1     -10.172  14.230  68.689  1.00  0.00    -0.246 A  
HETATM   10  O   UNK     1     -11.905  12.883  67.856  1.00  0.00    -0.346 OA 
HETATM   11  C   UNK     1     -11.004  15.350  68.856  1.00  0.00    -0.261 A  
HETATM   12  O   UNK     1      -9.985   8.898  66.449  1.00  0.00    -0.264 OA 
HETATM   13  C   UNK     1      -9.779   7.955  68.783  1.00  0.00    -0.158 C  
HETATM   14  H   UNK     1     -12.132   9.489  67.458  1.00  0.00     0.000 HD 
HETATM   15  C   UNK     1      -8.655   6.912  68.737  1.00  0.00    -0.124 C  
HETATM   16  O   UNK     1     -10.756   7.753  69.499  1.00  0.00    -0.236 OA 
HETATM   17  C   UNK     1     -10.498  16.564  69.324  1.00  0.00    -0.326 A  
HETATM   18  H   UNK     1     -10.926   8.779  66.404  1.00  0.00     0.000 HD 
HETATM   19  O   UNK     1     -12.341  15.350  68.555  1.00  0.00    -0.534 OA 
HETATM   20  H   UNK     1      -6.298  14.198  69.158  1.00  0.00     0.000 HD 
HETATM   21  H   UNK     1     -12.903  16.107  68.668  1.00  0.00     0.000 HD 
HETATM   22  C   UNK     1      -9.148  16.674  69.630  1.00  0.00     0.459 A  
HETATM   23  C   UNK     1      -8.146   6.925  67.482  1.00  0.00    -0.116 C  
HETATM   24  C   UNK     1      -7.335   8.236  67.080  1.00  0.00    -0.084 C  
HETATM   25  C   UNK     1      -7.431  13.609  66.985  1.00  0.00     0.280 C  
HETATM   26  O   UNK     1      -6.651  13.321  69.256  1.00  0.00    -0.106 OA 
HETATM   27  O   UNK     1      -8.893   6.369  66.437  1.00  0.00    -0.132 OA 
HETATM   28  C   UNK     1      -8.301  15.587  69.415  1.00  0.00    -0.249 A  
HETATM   29  C   UNK     1      -7.831  13.283  68.439  1.00  0.00    -0.137 C  
HETATM   30  C   UNK     1      -8.789  14.361  68.910  1.00  0.00    -0.067 A  
HETATM   31  H   UNK     1      -8.536   6.378  65.557  1.00  0.00     0.000 HD 
ENDROOT
BRANCH  15  32
HETATM   32  C   UNK     1      -7.492   6.825  69.704  1.00  0.00    -0.096 C  
HETATM   33  H   UNK     1      -6.667   5.036  68.993  1.00  0.00     0.000 HD 
HETATM   34  O   UNK     1      -7.318   7.730  70.529  1.00  0.00    -0.069 OA 
HETATM   35  N   UNK     1      -6.605   5.778  69.690  1.00  0.00    -0.048 N  
BRANCH  35  36
HETATM   36  C   UNK     1      -5.580   5.776  70.710  1.00  0.00    -0.013 C  
BRANCH  36  37
HETATM   37  N   UNK     1      -6.137   5.149  71.890  1.00  0.00    -0.025 NA 
HETATM   38  H   UNK     1      -5.859   4.171  71.973  1.00  0.00     0.000 HD 
BRANCH  37  39
HETATM   39  C   UNK     1      -5.777   5.931  73.088  1.00  0.00    -0.036 C  
BRANCH  39  40
HETATM   40  C   UNK     1      -6.831   5.822  74.204  1.00  0.00    -0.081 C  
BRANCH  40  41
HETATM   41  C   UNK     1      -8.264   5.665  73.684  1.00  0.00    -0.112 C  
BRANCH  41  42
HETATM   42  C   UNK     1      -8.944   7.028  73.463  1.00  0.00    -0.178 C  
BRANCH  42  43
HETATM   43  C   UNK     1     -10.213   6.976  72.599  1.00  0.00    -0.194 C  
HETATM   44  C   UNK     1     -10.504   5.540  72.136  1.00  0.00    -0.220 C  
HETATM   45  N   UNK     1     -11.406   7.493  73.330  1.00  0.00    -0.617 NA 
HETATM   46  O   UNK     1      -9.921   4.959  71.236  1.00  0.00    -0.182 OA 
HETATM   47  O   UNK     1     -11.494   4.978  72.879  1.00  0.00    -0.281 OA 
HETATM   48  H2  UNK     1     -11.241   8.433  73.691  1.00  0.00     0.000 HD 
HETATM   49  H1  UNK     1     -12.248   7.459  72.756  1.00  0.00     0.000 HD 
ENDBRANCH  42  43
ENDBRANCH  41  42
ENDBRANCH  40  41
ENDBRANCH  39  40
ENDBRANCH  37  39
ENDBRANCH  36  37
ENDBRANCH  35  36
ENDBRANCH  15  32
BRANCH  24  50
HETATM   50  N   UNK     1      -7.138   8.255  65.611  1.00  0.00    -0.070 NA 
HETATM   51  C   UNK     1      -7.095   9.541  64.949  1.00  0.00    -0.107 C  
HETATM   52  C   UNK     1      -5.966   7.455  65.235  1.00  0.00    -0.038 C  
ENDBRANCH  24  50
TORSDOF 9
ENDMDL
MODEL       85
REMARK 921   NORMALIZED FREE ENERGY PREDICTED BY IDOCK:   -4.20 KCAL/MOL
REMARK 922        TOTAL FREE ENERGY PREDICTED BY IDOCK:   -7.80 KCAL/MOL
REMARK 923 INTER-LIGAND FREE ENERGY PREDICTED BY IDOCK:  -10.09 KCAL/MOL
REMARK 924 INTRA-LIGAND FREE ENERGY PREDICTED BY IDOCK:    2.29 KCAL/MOL
REMARK 927      BINDING AFFINITY PREDICTED BY RF-SCORE:    0.00 PKD
ROOT
HETATM    1  C   UNK     1     -10.439  12.038  67.489  1.00  0.00    -0.234 C  
HETATM    2  C   UNK     1     -11.120  11.025  68.391  1.00  0.00    -0.308 C  
HETATM    3  C   UNK     1     -10.228  10.570  69.584  1.00  0.00    -0.207 C  
HETATM    4  C   UNK     1      -8.865  10.132  69.099  1.00  0.00    -0.179 C  
HETATM    5  C   UNK     1      -8.208   8.953  69.766  1.00  0.00    -0.119 C  
HETATM    6  C   UNK     1      -8.272  10.738  68.055  1.00  0.00    -0.115 C  
HETATM    7  O   UNK     1      -7.063  10.273  67.519  1.00  0.00    -0.084 OA 
HETATM    8  C   UNK     1      -8.960  11.751  67.137  1.00  0.00    -0.177 C  
HETATM    9  C   UNK     1      -8.804   8.387  71.001  1.00  0.00    -0.193 A  
HETATM   10  O   UNK     1      -7.180   8.452  69.307  1.00  0.00    -0.061 OA 
HETATM   11  C   UNK     1      -8.100   7.437  71.761  1.00  0.00    -0.102 A  
HETATM   12  O   UNK     1      -8.885  11.073  65.877  1.00  0.00    -0.188 OA 
HETATM   13  C   UNK     1      -8.389  13.257  67.045  1.00  0.00    -0.080 C  
HETATM   14  H   UNK     1      -6.644  10.701  66.781  1.00  0.00     0.000 HD 
HETATM   15  C   UNK     1      -9.353  14.297  66.459  1.00  0.00    -0.292 C  
HETATM   16  O   UNK     1      -7.248  13.598  67.345  1.00  0.00    -0.165 OA 
HETATM   17  C   UNK     1      -8.620   6.939  72.957  1.00  0.00    -0.134 A  
HETATM   18  H   UNK     1      -7.977  10.897  65.662  1.00  0.00     0.000 HD 
HETATM   19  O   UNK     1      -6.891   6.915  71.386  1.00  0.00    -0.059 OA 
HETATM   20  H   UNK     1     -12.407   9.677  71.765  1.00  0.00     0.000 HD 
HETATM   21  H   UNK     1      -6.415   6.273  71.900  1.00  0.00     0.000 HD 
HETATM   22  C   UNK     1      -9.855   7.384  73.409  1.00  0.00    -0.345 A  
HETATM   23  C   UNK     1     -10.154  13.650  65.580  1.00  0.00    -0.275 C  
HETATM   24  C   UNK     1     -11.194  12.626  66.217  1.00  0.00    -0.311 C  
HETATM   25  C   UNK     1     -11.785   8.508  69.620  1.00  0.00     0.647 C  
HETATM   26  O   UNK     1     -11.936  10.306  71.231  1.00  0.00    -0.364 OA 
HETATM   27  O   UNK     1      -9.628  13.242  64.349  1.00  0.00    -0.499 OA 
HETATM   28  C   UNK     1     -10.589   8.283  72.637  1.00  0.00    -0.378 A  
HETATM   29  C   UNK     1     -11.000   9.538  70.460  1.00  0.00    -0.288 C  
HETATM   30  C   UNK     1     -10.095   8.773  71.406  1.00  0.00    -0.354 A  
HETATM   31  H   UNK     1     -10.190  12.789  63.732  1.00  0.00     0.000 HD 
ENDROOT
BRANCH  15  32
HETATM   32  C   UNK     1     -10.220  15.246  67.260  1.00  0.00    -0.248 C  
HETATM   33  H   UNK     1      -8.708  16.079  68.446  1.00  0.00     0.000 HD 
HETATM   34  O   UNK     1     -11.430  15.315  67.017  1.00  0.00    -0.286 OA 
HETATM   35  N   UNK     1      -9.707  16.052  68.245  1.00  0.00    -0.212 N  
BRANCH  35  36
HETATM   36  C   UNK     1     -10.649  16.861  68.985  1.00  0.00    -0.338 C  
BRANCH  36  37
HETATM   37  N   UNK     1     -10.216  18.240  68.885  1.00  0.00    -0.442 NA 
HETATM   38  H   UNK     1      -9.220  18.315  68.676  1.00  0.00     0.000 HD 
BRANCH  37  39
HETATM   39  C   UNK     1     -11.046  18.954  67.897  1.00  0.00     0.122 C  
BRANCH  39  40
HETATM   40  C   UNK     1     -10.433  18.934  66.485  1.00  0.00    -0.500 C  
BRANCH  40  41
HETATM   41  C   UNK     1      -9.624  20.191  66.148  1.00  0.00    -0.440 C  
BRANCH  41  42
HETATM   42  C   UNK     1      -8.510  20.447  67.179  1.00  0.00    -0.393 C  
BRANCH  42  43
HETATM   43  C   UNK     1      -7.084  20.282  66.631  1.00  0.00    -0.255 C  
HETATM   44  C   UNK     1      -6.734  18.798  66.446  1.00  0.00    -0.207 C  
HETATM   45  N   UNK     1      -6.905  20.982  65.326  1.00  0.00    -0.514 NA 
HETATM   46  O   UNK     1      -6.431  18.029  67.343  1.00  0.00    -0.165 OA 
HETATM   47  O   UNK     1      -6.826  18.433  65.140  1.00  0.00    -0.512 OA 
HETATM   48  H2  UNK     1      -7.165  21.966  65.394  1.00  0.00     0.000 HD 
HETATM   49  H1  UNK     1      -5.958  20.873  64.964  1.00  0.00     0.000 HD 
ENDBRANCH  42  43
ENDBRANCH  41  42
ENDBRANCH  40  41
ENDBRANCH  39  40
ENDBRANCH  37  39
ENDBRANCH  36  37
ENDBRANCH  35  36
ENDBRANCH  15  32
BRANCH  24  50
HETATM   50  N   UNK     1     -11.750  11.766  65.146  1.00  0.00    -0.169 NA 
HETATM   51  C   UNK     1     -12.636  12.374  64.177  1.00  0.00    -0.403 C  
HETATM   52  C   UNK     1     -10.678  11.035  64.460  1.00  0.00    -0.264 C  
ENDBRANCH  24  50
TORSDOF 9
ENDMDL
MODEL       86
REMARK 921   NORMALIZED FREE ENERGY PREDICTED BY IDOCK:   -4.20 KCAL/MOL
REMARK 922        TOTAL FREE ENERGY PREDICTED BY IDOCK:   -7.80 KCAL/MOL
REMARK 923 INTER-LIGAND FREE ENERGY PREDICTED BY IDOCK:   -6.73 KCAL/MOL
REMARK 924 INTRA-LIGAND FREE ENERGY PREDICTED BY IDOCK:   -1.07 KCAL/MOL
REMARK 927      BINDING AFFINITY PREDICTED BY RF-SCORE:    0.00 PKD
ROOT
HETATM    1  C   UNK     1      -9.718  13.084  66.367  1.00  0.00    -0.268 C  
HETATM    2  C   UNK     1      -9.764  14.501  65.824  1.00  0.00    -0.306 C  
HETATM    3  C   UNK     1      -9.226  15.560  66.830  1.00  0.00    -0.272 C  
HETATM    4  C   UNK     1      -9.888  15.406  68.179  1.00  0.00    -0.213 C  
HETATM    5  C   UNK     1     -10.228  16.646  68.961  1.00  0.00    -0.301 C  
HETATM    6  C   UNK     1     -10.225  14.193  68.652  1.00  0.00    -0.238 C  
HETATM    7  O   UNK     1     -10.942  14.037  69.847  1.00  0.00    -0.456 OA 
HETATM    8  C   UNK     1     -10.181  12.901  67.833  1.00  0.00    -0.233 C  
HETATM    9  C   UNK     1      -9.726  17.963  68.497  1.00  0.00    -0.352 A  
HETATM   10  O   UNK     1     -10.913  16.588  69.983  1.00  0.00    -0.350 OA 
HETATM   11  C   UNK     1      -9.840  19.099  69.316  1.00  0.00    -0.196 A  
HETATM   12  O   UNK     1     -11.560  12.513  67.859  1.00  0.00    -0.305 OA 
HETATM   13  C   UNK     1      -9.207  11.700  68.293  1.00  0.00    -0.187 C  
HETATM   14  H   UNK     1     -11.181  13.180  70.181  1.00  0.00     0.000 HD 
HETATM   15  C   UNK     1      -8.903  10.645  67.222  1.00  0.00    -0.137 C  
HETATM   16  O   UNK     1      -8.763  11.548  69.428  1.00  0.00     0.301 OA 
HETATM   17  C   UNK     1      -9.320  20.332  68.921  1.00  0.00     0.227 A  
HETATM   18  H   UNK     1     -11.843  12.401  68.759  1.00  0.00     0.000 HD 
HETATM   19  O   UNK     1     -10.481  19.095  70.527  1.00  0.00     0.426 OA 
HETATM   20  H   UNK     1      -8.256  17.920  64.882  1.00  0.00     0.000 HD 
HETATM   21  H   UNK     1     -10.559  19.863  71.081  1.00  0.00     0.000 HD 
HETATM   22  C   UNK     1      -8.677  20.446  67.695  1.00  0.00    -0.314 A  
HETATM   23  C   UNK     1      -9.980  10.583  66.402  1.00  0.00    -0.218 C  
HETATM   24  C   UNK     1     -10.222  11.861  65.483  1.00  0.00    -0.254 C  
HETATM   25  C   UNK     1     -10.617  17.221  65.421  1.00  0.00    -0.083 C  
HETATM   26  O   UNK     1      -8.209  17.053  65.269  1.00  0.00     0.576 OA 
HETATM   27  O   UNK     1     -11.154   9.976  66.863  1.00  0.00    -0.094 OA 
HETATM   28  C   UNK     1      -8.606  19.341  66.848  1.00  0.00    -0.318 A  
HETATM   29  C   UNK     1      -9.303  16.981  66.195  1.00  0.00    -0.214 C  
HETATM   30  C   UNK     1      -9.157  18.093  67.216  1.00  0.00    -0.252 A  
HETATM   31  H   UNK     1     -11.909   9.932  66.288  1.00  0.00     0.000 HD 
ENDROOT
BRANCH  15  32
HETATM   32  C   UNK     1      -7.662  10.601  66.354  1.00  0.00    -0.141 C  
HETATM   33  H   UNK     1      -8.199   8.955  65.176  1.00  0.00     0.000 HD 
HETATM   34  O   UNK     1      -6.783  11.457  66.507  1.00  0.00    -0.131 OA 
HETATM   35  N   UNK     1      -7.480   9.648  65.384  1.00  0.00    -0.106 N  
BRANCH  35  36
HETATM   36  C   UNK     1      -6.222   9.671  64.672  1.00  0.00    -0.089 C  
BRANCH  36  37
HETATM   37  N   UNK     1      -5.391   8.617  65.216  1.00  0.00    -0.035 NA 
HETATM   38  H   UNK     1      -4.606   8.986  65.754  1.00  0.00     0.000 HD 
BRANCH  37  39
HETATM   39  C   UNK     1      -6.218   7.687  66.007  1.00  0.00    -0.042 C  
BRANCH  39  40
HETATM   40  C   UNK     1      -5.685   7.493  67.438  1.00  0.00    -0.035 C  
BRANCH  40  41
HETATM   41  C   UNK     1      -6.723   7.787  68.526  1.00  0.00    -0.058 C  
BRANCH  41  42
HETATM   42  C   UNK     1      -8.097   7.185  68.183  1.00  0.00    -0.124 C  
BRANCH  42  43
HETATM   43  C   UNK     1      -9.263   7.736  69.019  1.00  0.00    -0.143 C  
HETATM   44  C   UNK     1     -10.246   6.617  69.395  1.00  0.00    -0.183 C  
HETATM   45  N   UNK     1      -8.787   8.395  70.270  1.00  0.00    -0.138 NA 
HETATM   46  O   UNK     1     -11.074   6.126  68.646  1.00  0.00    -0.339 OA 
HETATM   47  O   UNK     1     -10.064   6.218  70.682  1.00  0.00    -0.183 OA 
HETATM   48  H2  UNK     1      -8.099   9.120  70.069  1.00  0.00     0.000 HD 
HETATM   49  H1  UNK     1      -9.561   8.760  70.825  1.00  0.00     0.000 HD 
ENDBRANCH  42  43
ENDBRANCH  41  42
ENDBRANCH  40  41
ENDBRANCH  39  40
ENDBRANCH  37  39
ENDBRANCH  36  37
ENDBRANCH  35  36
ENDBRANCH  15  32
BRANCH  24  50
HETATM   50  N   UNK     1     -11.587  11.796  64.908  1.00  0.00    -0.216 NA 
HETATM   51  C   UNK     1     -12.485  12.900  65.166  1.00  0.00    -0.501 C  
HETATM   52  C   UNK     1     -11.530  11.517  63.468  1.00  0.00    -0.234 C  
ENDBRANCH  24  50
TORSDOF 9
ENDMDL
MODEL       87
REMARK 921   NORMALIZED FREE ENERGY PREDICTED BY IDOCK:   -4.11 KCAL/MOL
REMARK 922        TOTAL FREE ENERGY PREDICTED BY IDOCK:   -7.66 KCAL/MOL
REMARK 923 INTER-LIGAND FREE ENERGY PREDICTED BY IDOCK:   -6.26 KCAL/MOL
REMARK 924 INTRA-LIGAND FREE ENERGY PREDICTED BY IDOCK:   -1.40 KCAL/MOL
REMARK 927      BINDING AFFINITY PREDICTED BY RF-SCORE:    0.00 PKD
ROOT
HETATM    1  C   UNK     1      -7.335   8.712  66.810  1.00  0.00    -0.079 C  
HETATM    2  C   UNK     1      -7.685   7.312  66.337  1.00  0.00    -0.093 C  
HETATM    3  C   UNK     1      -8.197   6.389  67.482  1.00  0.00    -0.117 C  
HETATM    4  C   UNK     1      -7.249   6.413  68.658  1.00  0.00    -0.085 C  
HETATM    5  C   UNK     1      -7.002   5.134  69.411  1.00  0.00    -0.055 C  
HETATM    6  C   UNK     1      -6.587   7.535  68.993  1.00  0.00    -0.044 C  
HETATM    7  O   UNK     1      -5.618   7.548  70.006  1.00  0.00    -0.023 OA 
HETATM    8  C   UNK     1      -6.548   8.804  68.139  1.00  0.00    -0.061 C  
HETATM    9  C   UNK     1      -7.840   3.943  69.123  1.00  0.00    -0.052 A  
HETATM   10  O   UNK     1      -6.119   5.057  70.267  1.00  0.00    -0.017 OA 
HETATM   11  C   UNK     1      -7.782   2.812  69.955  1.00  0.00    -0.043 A  
HETATM   12  O   UNK     1      -5.145   8.906  67.863  1.00  0.00    -0.034 OA 
HETATM   13  C   UNK     1      -7.146  10.181  68.731  1.00  0.00    -0.075 C  
HETATM   14  H   UNK     1      -5.150   8.341  70.242  1.00  0.00     0.000 HD 
HETATM   15  C   UNK     1      -7.455  11.270  67.696  1.00  0.00    -0.101 C  
HETATM   16  O   UNK     1      -7.302  10.425  69.925  1.00  0.00    -0.151 OA 
HETATM   17  C   UNK     1      -8.607   1.708  69.735  1.00  0.00    -0.091 A  
HETATM   18  H   UNK     1      -4.662   8.963  68.679  1.00  0.00     0.000 HD 
HETATM   19  O   UNK     1      -6.912   2.693  71.007  1.00  0.00    -0.032 OA 
HETATM   20  H   UNK     1     -10.002   4.264  65.890  1.00  0.00     0.000 HD 
HETATM   21  H   UNK     1      -6.872   1.928  71.570  1.00  0.00     0.000 HD 
HETATM   22  C   UNK     1      -9.503   1.720  68.675  1.00  0.00    -0.218 A  
HETATM   23  C   UNK     1      -6.585  11.108  66.671  1.00  0.00    -0.137 C  
HETATM   24  C   UNK     1      -6.798   9.803  65.784  1.00  0.00    -0.098 C  
HETATM   25  C   UNK     1      -7.490   4.474  65.898  1.00  0.00    -0.082 C  
HETATM   26  O   UNK     1      -9.794   5.125  66.237  1.00  0.00    -0.162 OA 
HETATM   27  O   UNK     1      -5.244  11.467  66.851  1.00  0.00    -0.072 OA 
HETATM   28  C   UNK     1      -9.532   2.812  67.808  1.00  0.00    -0.176 A  
HETATM   29  C   UNK     1      -8.537   4.978  66.913  1.00  0.00    -0.105 C  
HETATM   30  C   UNK     1      -8.681   3.925  67.995  1.00  0.00    -0.122 A  
HETATM   31  H   UNK     1      -4.634  11.353  66.132  1.00  0.00     0.000 HD 
ENDROOT
BRANCH  15  32
HETATM   32  C   UNK     1      -8.818  11.559  67.101  1.00  0.00    -0.168 C  
HETATM   33  H   UNK     1      -9.773   9.798  67.712  1.00  0.00     0.000 HD 
HETATM   34  O   UNK     1      -9.012  12.634  66.522  1.00  0.00    -0.199 OA 
HETATM   35  N   UNK     1      -9.861  10.673  67.194  1.00  0.00    -0.171 N  
BRANCH  35  36
HETATM   36  C   UNK     1     -11.089  11.035  66.524  1.00  0.00    -0.106 C  
BRANCH  36  37
HETATM   37  N   UNK     1     -11.884  11.810  67.454  1.00  0.00    -0.624 NA 
HETATM   38  H   UNK     1     -12.691  12.242  67.003  1.00  0.00     0.000 HD 
BRANCH  37  39
HETATM   39  C   UNK     1     -12.274  10.968  68.601  1.00  0.00     0.111 C  
BRANCH  39  40
HETATM   40  C   UNK     1     -11.645  11.441  69.923  1.00  0.00    -0.402 C  
BRANCH  40  41
HETATM   41  C   UNK     1     -10.979  10.317  70.725  1.00  0.00    -0.213 C  
BRANCH  41  42
HETATM   42  C   UNK     1     -11.831   9.036  70.729  1.00  0.00    -0.251 C  
BRANCH  42  43
HETATM   43  C   UNK     1     -11.021   7.731  70.776  1.00  0.00    -0.252 C  
HETATM   44  C   UNK     1     -10.937   7.188  72.211  1.00  0.00    -0.243 C  
HETATM   45  N   UNK     1     -11.613   6.678  69.900  1.00  0.00    -0.592 NA 
HETATM   46  O   UNK     1     -10.205   7.621  73.085  1.00  0.00    -0.286 OA 
HETATM   47  O   UNK     1     -11.808   6.161  72.397  1.00  0.00    -0.303 OA 
HETATM   48  H2  UNK     1     -11.724   7.011  68.943  1.00  0.00     0.000 HD 
HETATM   49  H1  UNK     1     -11.075   5.812  69.931  1.00  0.00     0.000 HD 
ENDBRANCH  42  43
ENDBRANCH  41  42
ENDBRANCH  40  41
ENDBRANCH  39  40
ENDBRANCH  37  39
ENDBRANCH  36  37
ENDBRANCH  35  36
ENDBRANCH  15  32
BRANCH  24  50
HETATM   50  N   UNK     1      -5.600   9.587  64.939  1.00  0.00    -0.057 NA 
HETATM   51  C   UNK     1      -5.162   8.226  64.716  1.00  0.00    -0.036 C  
HETATM   52  C   UNK     1      -5.738  10.288  63.656  1.00  0.00    -0.144 C  
ENDBRANCH  24  50
TORSDOF 9
ENDMDL
MODEL       88
REMARK 921   NORMALIZED FREE ENERGY PREDICTED BY IDOCK:   -4.03 KCAL/MOL
REMARK 922        TOTAL FREE ENERGY PREDICTED BY IDOCK:   -7.55 KCAL/MOL
REMARK 923 INTER-LIGAND FREE ENERGY PREDICTED BY IDOCK:   -7.52 KCAL/MOL
REMARK 924 INTRA-LIGAND FREE ENERGY PREDICTED BY IDOCK:   -0.03 KCAL/MOL
REMARK 927      BINDING AFFINITY PREDICTED BY RF-SCORE:    0.00 PKD
ROOT
HETATM    1  C   UNK     1      -8.755   8.505  67.936  1.00  0.00    -0.138 C  
HETATM    2  C   UNK     1      -9.253   8.511  69.370  1.00  0.00    -0.153 C  
HETATM    3  C   UNK     1      -8.826   7.246  70.172  1.00  0.00    -0.145 C  
HETATM    4  C   UNK     1      -9.173   5.986  69.413  1.00  0.00    -0.140 C  
HETATM    5  C   UNK     1      -9.669   4.793  70.186  1.00  0.00    -0.217 C  
HETATM    6  C   UNK     1      -9.104   5.943  68.071  1.00  0.00    -0.117 C  
HETATM    7  O   UNK     1      -9.531   4.823  67.343  1.00  0.00    -0.130 OA 
HETATM    8  C   UNK     1      -8.884   7.164  67.175  1.00  0.00    -0.121 C  
HETATM    9  C   UNK     1      -9.606   4.806  71.668  1.00  0.00    -0.216 A  
HETATM   10  O   UNK     1     -10.121   3.803  69.610  1.00  0.00     0.063 OA 
HETATM   11  C   UNK     1      -9.853   3.633  72.402  1.00  0.00    -0.160 A  
HETATM   12  O   UNK     1     -10.093   7.160  66.406  1.00  0.00    -0.436 OA 
HETATM   13  C   UNK     1      -7.574   7.238  66.237  1.00  0.00    -0.092 C  
HETATM   14  H   UNK     1      -9.483   4.792  66.395  1.00  0.00     0.000 HD 
HETATM   15  C   UNK     1      -7.212   8.633  65.712  1.00  0.00    -0.080 C  
HETATM   16  O   UNK     1      -6.909   6.270  65.878  1.00  0.00    -0.054 OA 
HETATM   17  C   UNK     1      -9.739   3.613  73.793  1.00  0.00    -0.140 A  
HETATM   18  H   UNK     1     -10.173   6.337  65.939  1.00  0.00     0.000 HD 
HETATM   19  O   UNK     1     -10.243   2.451  71.829  1.00  0.00    -0.128 OA 
HETATM   20  H   UNK     1      -8.848   8.315  73.198  1.00  0.00     0.000 HD 
HETATM   21  H   UNK     1     -10.410   1.659  72.325  1.00  0.00     0.000 HD 
HETATM   22  C   UNK     1      -9.377   4.769  74.471  1.00  0.00    -0.134 A  
HETATM   23  C   UNK     1      -8.368   9.329  65.591  1.00  0.00    -0.123 C  
HETATM   24  C   UNK     1      -9.085   9.717  66.959  1.00  0.00    -0.138 C  
HETATM   25  C   UNK     1     -10.820   7.860  71.695  1.00  0.00    -0.275 C  
HETATM   26  O   UNK     1      -8.516   8.262  72.309  1.00  0.00    -0.157 OA 
HETATM   27  O   UNK     1      -9.248   9.014  64.550  1.00  0.00    -0.431 OA 
HETATM   28  C   UNK     1      -9.184   5.953  73.761  1.00  0.00    -0.127 A  
HETATM   29  C   UNK     1      -9.371   7.333  71.628  1.00  0.00    -0.151 C  
HETATM   30  C   UNK     1      -9.328   6.002  72.355  1.00  0.00    -0.150 A  
HETATM   31  H   UNK     1     -10.059   9.502  64.466  1.00  0.00     0.000 HD 
ENDROOT
BRANCH  15  32
HETATM   32  C   UNK     1      -6.177   9.561  66.313  1.00  0.00    -0.068 C  
HETATM   33  H   UNK     1      -7.065  11.374  65.755  1.00  0.00     0.000 HD 
HETATM   34  O   UNK     1      -5.222   9.084  66.937  1.00  0.00    -0.038 OA 
HETATM   35  N   UNK     1      -6.267  10.926  66.206  1.00  0.00    -0.125 N  
BRANCH  35  36
HETATM   36  C   UNK     1      -5.180  11.699  66.762  1.00  0.00    -0.112 C  
BRANCH  36  37
HETATM   37  N   UNK     1      -5.685  13.026  67.046  1.00  0.00    -0.403 NA 
HETATM   38  H   UNK     1      -5.481  13.684  66.293  1.00  0.00     0.000 HD 
BRANCH  37  39
HETATM   39  C   UNK     1      -7.128  12.958  67.346  1.00  0.00    -0.125 C  
BRANCH  39  40
HETATM   40  C   UNK     1      -7.640  14.209  68.081  1.00  0.00    -0.136 C  
BRANCH  40  41
HETATM   41  C   UNK     1      -9.164  14.251  68.237  1.00  0.00    -0.197 C  
BRANCH  41  42
HETATM   42  C   UNK     1      -9.650  15.624  68.734  1.00  0.00    -0.215 C  
BRANCH  42  43
HETATM   43  C   UNK     1     -10.975  15.589  69.511  1.00  0.00    -0.273 C  
HETATM   44  C   UNK     1     -11.937  14.552  68.911  1.00  0.00    -0.290 C  
HETATM   45  N   UNK     1     -10.766  15.270  70.953  1.00  0.00    -0.513 NA 
HETATM   46  O   UNK     1     -12.589  14.705  67.892  1.00  0.00     0.136 OA 
HETATM   47  O   UNK     1     -11.957  13.415  69.656  1.00  0.00    -0.308 OA 
HETATM   48  H2  UNK     1     -10.101  15.913  71.383  1.00  0.00     0.000 HD 
HETATM   49  H1  UNK     1     -11.646  15.248  71.469  1.00  0.00     0.000 HD 
ENDBRANCH  42  43
ENDBRANCH  41  42
ENDBRANCH  40  41
ENDBRANCH  39  40
ENDBRANCH  37  39
ENDBRANCH  36  37
ENDBRANCH  35  36
ENDBRANCH  15  32
BRANCH  24  50
HETATM   50  N   UNK     1     -10.470  10.162  66.674  1.00  0.00    -0.212 NA 
HETATM   51  C   UNK     1     -11.214  10.795  67.741  1.00  0.00    -0.316 C  
HETATM   52  C   UNK     1     -10.508  10.998  65.468  1.00  0.00    -0.238 C  
ENDBRANCH  24  50
TORSDOF 9
ENDMDL
MODEL       89
REMARK 921   NORMALIZED FREE ENERGY PREDICTED BY IDOCK:   -3.93 KCAL/MOL
REMARK 922        TOTAL FREE ENERGY PREDICTED BY IDOCK:   -7.40 KCAL/MOL
REMARK 923 INTER-LIGAND FREE ENERGY PREDICTED BY IDOCK:   -6.90 KCAL/MOL
REMARK 924 INTRA-LIGAND FREE ENERGY PREDICTED BY IDOCK:   -0.50 KCAL/MOL
REMARK 927      BINDING AFFINITY PREDICTED BY RF-SCORE:    0.00 PKD
ROOT
HETATM    1  C   UNK     1      -9.405   9.096  68.635  1.00  0.00    -0.135 C  
HETATM    2  C   UNK     1      -8.880   8.116  69.669  1.00  0.00    -0.143 C  
HETATM    3  C   UNK     1      -8.121   6.911  69.040  1.00  0.00    -0.117 C  
HETATM    4  C   UNK     1      -8.946   6.263  67.953  1.00  0.00    -0.113 C  
HETATM    5  C   UNK     1      -8.912   4.765  67.818  1.00  0.00    -0.111 C  
HETATM    6  C   UNK     1      -9.746   6.997  67.158  1.00  0.00    -0.161 C  
HETATM    7  O   UNK     1     -10.605   6.404  66.222  1.00  0.00    -0.467 OA 
HETATM    8  C   UNK     1     -10.069   8.475  67.383  1.00  0.00    -0.234 C  
HETATM    9  C   UNK     1      -7.923   3.983  68.602  1.00  0.00    -0.071 A  
HETATM   10  O   UNK     1      -9.687   4.174  67.064  1.00  0.00    -0.202 OA 
HETATM   11  C   UNK     1      -7.721   2.618  68.335  1.00  0.00    -0.054 A  
HETATM   12  O   UNK     1     -11.489   8.421  67.567  1.00  0.00     0.213 OA 
HETATM   13  C   UNK     1      -9.648   9.561  66.267  1.00  0.00    -0.226 C  
HETATM   14  H   UNK     1     -11.170   6.922  65.661  1.00  0.00     0.000 HD 
HETATM   15  C   UNK     1      -9.616  11.020  66.739  1.00  0.00    -0.216 C  
HETATM   16  O   UNK     1      -9.422   9.307  65.087  1.00  0.00    -0.235 OA 
HETATM   17  C   UNK     1      -6.753   1.883  69.021  1.00  0.00    -0.029 A  
HETATM   18  H   UNK     1     -11.897   8.039  66.798  1.00  0.00     0.000 HD 
HETATM   19  O   UNK     1      -8.457   1.909  67.423  1.00  0.00    -0.073 OA 
HETATM   20  H   UNK     1      -6.155   6.025  71.418  1.00  0.00     0.000 HD 
HETATM   21  H   UNK     1      -8.320   0.987  67.243  1.00  0.00     0.000 HD 
HETATM   22  C   UNK     1      -5.973   2.505  69.988  1.00  0.00    -0.023 A  
HETATM   23  C   UNK     1     -10.541  11.145  67.721  1.00  0.00    -0.209 C  
HETATM   24  C   UNK     1     -10.204  10.397  69.086  1.00  0.00    -0.222 C  
HETATM   25  C   UNK     1      -8.656   5.741  71.281  1.00  0.00    -0.129 C  
HETATM   26  O   UNK     1      -6.465   6.606  70.732  1.00  0.00    -0.048 OA 
HETATM   27  O   UNK     1     -11.899  11.139  67.383  1.00  0.00    -0.570 OA 
HETATM   28  C   UNK     1      -6.202   3.844  70.302  1.00  0.00    -0.026 A  
HETATM   29  C   UNK     1      -7.613   5.959  70.164  1.00  0.00    -0.090 C  
HETATM   30  C   UNK     1      -7.200   4.596  69.642  1.00  0.00    -0.051 A  
HETATM   31  H   UNK     1     -12.548  11.227  68.071  1.00  0.00     0.000 HD 
ENDROOT
BRANCH  15  32
HETATM   32  C   UNK     1      -8.380  11.780  67.174  1.00  0.00    -0.168 C  
HETATM   33  H   UNK     1      -9.337  13.519  67.841  1.00  0.00     0.000 HD 
HETATM   34  O   UNK     1      -7.271  11.242  67.080  1.00  0.00    -0.109 OA 
HETATM   35  N   UNK     1      -8.444  13.051  67.686  1.00  0.00    -0.173 N  
BRANCH  35  36
HETATM   36  C   UNK     1      -7.189  13.696  67.998  1.00  0.00    -0.130 C  
BRANCH  36  37
HETATM   37  N   UNK     1      -6.970  13.566  69.424  1.00  0.00    -0.299 NA 
HETATM   38  H   UNK     1      -6.316  12.814  69.645  1.00  0.00     0.000 HD 
BRANCH  37  39
HETATM   39  C   UNK     1      -6.538  14.860  69.983  1.00  0.00    -0.162 C  
BRANCH  39  40
HETATM   40  C   UNK     1      -6.932  16.051  69.092  1.00  0.00    -0.189 C  
BRANCH  40  41
HETATM   41  C   UNK     1      -7.988  16.967  69.720  1.00  0.00     0.922 C  
BRANCH  41  42
HETATM   42  C   UNK     1      -8.461  18.052  68.737  1.00  0.00    -0.217 C  
BRANCH  42  43
HETATM   43  C   UNK     1      -9.526  17.585  67.733  1.00  0.00    -0.269 C  
HETATM   44  C   UNK     1     -10.127  18.778  66.973  1.00  0.00    -0.358 C  
HETATM   45  N   UNK     1      -8.971  16.617  66.743  1.00  0.00    -0.222 NA 
HETATM   46  O   UNK     1     -10.954  19.554  67.422  1.00  0.00    -0.477 OA 
HETATM   47  O   UNK     1      -9.599  18.878  65.724  1.00  0.00    -0.419 OA 
HETATM   48  H2  UNK     1      -8.526  15.826  67.207  1.00  0.00     0.000 HD 
HETATM   49  H1  UNK     1      -9.679  16.307  66.077  1.00  0.00     0.000 HD 
ENDBRANCH  42  43
ENDBRANCH  41  42
ENDBRANCH  40  41
ENDBRANCH  39  40
ENDBRANCH  37  39
ENDBRANCH  36  37
ENDBRANCH  35  36
ENDBRANCH  15  32
BRANCH  24  50
HETATM   50  N   UNK     1     -11.426  10.337  69.923  1.00  0.00    -0.264 NA 
HETATM   51  C   UNK     1     -11.439   9.417  71.040  1.00  0.00    -0.334 C  
HETATM   52  C   UNK     1     -11.814  11.680  70.371  1.00  0.00    -0.293 C  
ENDBRANCH  24  50
TORSDOF 9
ENDMDL
MODEL       90
REMARK 921   NORMALIZED FREE ENERGY PREDICTED BY IDOCK:   -3.80 KCAL/MOL
REMARK 922        TOTAL FREE ENERGY PREDICTED BY IDOCK:   -7.19 KCAL/MOL
REMARK 923 INTER-LIGAND FREE ENERGY PREDICTED BY IDOCK:   -6.69 KCAL/MOL
REMARK 924 INTRA-LIGAND FREE ENERGY PREDICTED BY IDOCK:   -0.49 KCAL/MOL
REMARK 927      BINDING AFFINITY PREDICTED BY RF-SCORE:    0.00 PKD
ROOT
HETATM    1  C   UNK     1      -8.186   8.315  67.579  1.00  0.00    -0.122 C  
HETATM    2  C   UNK     1      -8.691   8.001  68.976  1.00  0.00    -0.137 C  
HETATM    3  C   UNK     1     -10.147   8.494  69.226  1.00  0.00    -0.203 C  
HETATM    4  C   UNK     1     -10.297   9.947  68.838  1.00  0.00    -0.221 C  
HETATM    5  C   UNK     1     -11.168  10.833  69.687  1.00  0.00    -0.291 C  
HETATM    6  C   UNK     1      -9.621  10.461  67.795  1.00  0.00    -0.152 C  
HETATM    7  O   UNK     1      -9.657  11.829  67.490  1.00  0.00    -0.173 OA 
HETATM    8  C   UNK     1      -8.508   9.730  67.041  1.00  0.00    -0.117 C  
HETATM    9  C   UNK     1     -12.016  10.228  70.744  1.00  0.00    -0.456 A  
HETATM   10  O   UNK     1     -11.195  12.053  69.518  1.00  0.00    -0.226 OA 
HETATM   11  C   UNK     1     -12.994  10.995  71.399  1.00  0.00    -0.414 A  
HETATM   12  O   UNK     1      -7.396  10.602  67.280  1.00  0.00    -0.088 OA 
HETATM   13  C   UNK     1      -8.690   9.405  65.471  1.00  0.00    -0.163 C  
HETATM   14  H   UNK     1      -9.178  12.191  66.754  1.00  0.00     0.000 HD 
HETATM   15  C   UNK     1      -7.757   8.328  64.904  1.00  0.00    -0.115 C  
HETATM   16  O   UNK     1      -9.459   9.992  64.715  1.00  0.00    -0.264 OA 
HETATM   17  C   UNK     1     -13.840  10.426  72.352  1.00  0.00     0.243 A  
HETATM   18  H   UNK     1      -7.594  11.471  66.950  1.00  0.00     0.000 HD 
HETATM   19  O   UNK     1     -13.175  12.335  71.181  1.00  0.00    -0.125 OA 
HETATM   20  H   UNK     1     -11.157   6.504  71.532  1.00  0.00     0.000 HD 
HETATM   21  H   UNK     1     -13.836  12.854  71.624  1.00  0.00     0.000 HD 
HETATM   22  C   UNK     1     -13.718   9.079  72.666  1.00  0.00    -0.422 A  
HETATM   23  C   UNK     1      -6.609   8.373  65.621  1.00  0.00    -0.052 C  
HETATM   24  C   UNK     1      -6.720   7.885  67.133  1.00  0.00    -0.068 C  
HETATM   25  C   UNK     1      -9.480   8.376  71.719  1.00  0.00    -0.302 C  
HETATM   26  O   UNK     1     -10.887   6.726  70.648  1.00  0.00    -0.230 OA 
HETATM   27  O   UNK     1      -5.723   9.439  65.425  1.00  0.00    -0.055 OA 
HETATM   28  C   UNK     1     -12.714   8.320  72.065  1.00  0.00    -0.376 A  
HETATM   29  C   UNK     1     -10.589   8.130  70.674  1.00  0.00    -0.215 C  
HETATM   30  C   UNK     1     -11.826   8.886  71.122  1.00  0.00    -0.353 A  
HETATM   31  H   UNK     1      -4.918   9.471  65.928  1.00  0.00     0.000 HD 
ENDROOT
BRANCH  15  32
HETATM   32  C   UNK     1      -8.114   6.870  64.699  1.00  0.00    -0.082 C  
HETATM   33  H   UNK     1      -9.286   6.622  66.417  1.00  0.00     0.000 HD 
HETATM   34  O   UNK     1      -7.716   6.283  63.686  1.00  0.00    -0.097 OA 
HETATM   35  N   UNK     1      -8.882   6.171  65.595  1.00  0.00    -0.131 N  
BRANCH  35  36
HETATM   36  C   UNK     1      -9.094   4.768  65.322  1.00  0.00    -0.155 C  
BRANCH  36  37
HETATM   37  N   UNK     1      -7.824   4.092  65.492  1.00  0.00    -0.089 NA 
HETATM   38  H   UNK     1      -7.034   4.695  65.262  1.00  0.00     0.000 HD 
BRANCH  37  39
HETATM   39  C   UNK     1      -7.727   3.548  66.859  1.00  0.00    -0.080 C  
BRANCH  39  40
HETATM   40  C   UNK     1      -8.962   2.718  67.255  1.00  0.00    -0.183 C  
BRANCH  40  41
HETATM   41  C   UNK     1      -9.408   2.934  68.706  1.00  0.00    -0.234 C  
BRANCH  41  42
HETATM   42  C   UNK     1      -8.794   4.209  69.309  1.00  0.00    -0.142 C  
BRANCH  42  43
HETATM   43  C   UNK     1      -8.272   4.048  70.745  1.00  0.00    -0.066 C  
HETATM   44  C   UNK     1      -6.908   4.734  70.914  1.00  0.00    -0.036 C  
HETATM   45  N   UNK     1      -9.220   4.614  71.748  1.00  0.00    -0.134 NA 
HETATM   46  O   UNK     1      -5.842   4.288  70.525  1.00  0.00    -0.013 OA 
HETATM   47  O   UNK     1      -7.038   5.932  71.544  1.00  0.00    -0.073 OA 
HETATM   48  H2  UNK     1     -10.152   4.213  71.645  1.00  0.00     0.000 HD 
HETATM   49  H1  UNK     1      -8.873   4.507  72.702  1.00  0.00     0.000 HD 
ENDBRANCH  42  43
ENDBRANCH  41  42
ENDBRANCH  40  41
ENDBRANCH  39  40
ENDBRANCH  37  39
ENDBRANCH  36  37
ENDBRANCH  35  36
ENDBRANCH  15  32
BRANCH  24  50
HETATM   50  N   UNK     1      -5.503   8.302  67.870  1.00  0.00    -0.034 NA 
HETATM   51  C   UNK     1      -5.477   9.631  68.442  1.00  0.00    -0.036 C  
HETATM   52  C   UNK     1      -5.149   7.307  68.890  1.00  0.00    -0.014 C  
ENDBRANCH  24  50
TORSDOF 9
ENDMDL
MODEL       91
REMARK 921   NORMALIZED FREE ENERGY PREDICTED BY IDOCK:   -3.66 KCAL/MOL
REMARK 922        TOTAL FREE ENERGY PREDICTED BY IDOCK:   -6.97 KCAL/MOL
REMARK 923 INTER-LIGAND FREE ENERGY PREDICTED BY IDOCK:   -6.62 KCAL/MOL
REMARK 924 INTRA-LIGAND FREE ENERGY PREDICTED BY IDOCK:   -0.35 KCAL/MOL
REMARK 927      BINDING AFFINITY PREDICTED BY RF-SCORE:    0.00 PKD
ROOT
HETATM    1  C   UNK     1      -8.446  10.046  67.321  1.00  0.00    -0.122 C  
HETATM    2  C   UNK     1      -9.626  10.741  66.665  1.00  0.00    -0.208 C  
HETATM    3  C   UNK     1      -9.322  12.213  66.260  1.00  0.00    -0.221 C  
HETATM    4  C   UNK     1      -8.733  12.980  67.421  1.00  0.00    -0.205 C  
HETATM    5  C   UNK     1      -9.136  14.418  67.612  1.00  0.00    -0.194 C  
HETATM    6  C   UNK     1      -7.917  12.382  68.306  1.00  0.00    -0.160 C  
HETATM    7  O   UNK     1      -7.454  13.044  69.452  1.00  0.00    -0.308 OA 
HETATM    8  C   UNK     1      -7.664  10.874  68.369  1.00  0.00    -0.116 C  
HETATM    9  C   UNK     1      -9.920  15.104  66.556  1.00  0.00    -0.279 A  
HETATM   10  O   UNK     1      -8.820  15.039  68.629  1.00  0.00    -0.170 OA 
HETATM   11  C   UNK     1     -10.119  16.494  66.605  1.00  0.00    -0.294 A  
HETATM   12  O   UNK     1      -8.148  10.570  69.683  1.00  0.00    -0.305 OA 
HETATM   13  C   UNK     1      -6.174  10.305  68.130  1.00  0.00    -0.052 C  
HETATM   14  H   UNK     1      -6.877  12.621  70.077  1.00  0.00     0.000 HD 
HETATM   15  C   UNK     1      -6.079   8.812  67.790  1.00  0.00    -0.048 C  
HETATM   16  O   UNK     1      -5.141  10.958  68.262  1.00  0.00    -0.037 OA 
HETATM   17  C   UNK     1     -10.803  17.163  65.589  1.00  0.00    -0.050 A  
HETATM   18  H   UNK     1      -7.668  11.078  70.326  1.00  0.00     0.000 HD 
HETATM   19  O   UNK     1      -9.694  17.282  67.642  1.00  0.00    -0.262 OA 
HETATM   20  H   UNK     1     -11.392  12.702  63.856  1.00  0.00     0.000 HD 
HETATM   21  H   UNK     1      -9.829  18.222  67.675  1.00  0.00     0.000 HD 
HETATM   22  C   UNK     1     -11.300  16.449  64.507  1.00  0.00    -0.120 A  
HETATM   23  C   UNK     1      -7.123   8.196  68.395  1.00  0.00    -0.077 C  
HETATM   24  C   UNK     1      -8.562   8.533  67.801  1.00  0.00    -0.134 C  
HETATM   25  C   UNK     1     -11.891  12.484  66.317  1.00  0.00    -0.453 C  
HETATM   26  O   UNK     1     -10.626  12.313  64.263  1.00  0.00    -0.305 OA 
HETATM   27  O   UNK     1      -7.101   8.023  69.783  1.00  0.00    -0.058 OA 
HETATM   28  C   UNK     1     -11.159  15.062  64.474  1.00  0.00    -0.248 A  
HETATM   29  C   UNK     1     -10.578  12.850  65.593  1.00  0.00    -0.277 C  
HETATM   30  C   UNK     1     -10.499  14.362  65.510  1.00  0.00    -0.366 A  
HETATM   31  H   UNK     1      -7.833   7.591  70.207  1.00  0.00     0.000 HD 
ENDROOT
BRANCH  15  32
HETATM   32  C   UNK     1      -5.947   8.231  66.397  1.00  0.00    -0.041 C  
HETATM   33  H   UNK     1      -4.899   9.822  65.526  1.00  0.00     0.000 HD 
HETATM   34  O   UNK     1      -6.389   7.100  66.166  1.00  0.00    -0.041 OA 
HETATM   35  N   UNK     1      -5.335   8.912  65.375  1.00  0.00    -0.038 N  
BRANCH  35  36
HETATM   36  C   UNK     1      -5.334   8.279  64.076  1.00  0.00    -0.045 C  
BRANCH  36  37
HETATM   37  N   UNK     1      -6.384   8.893  63.288  1.00  0.00    -0.090 NA 
HETATM   38  H   UNK     1      -6.092   9.063  62.326  1.00  0.00     0.000 HD 
BRANCH  37  39
HETATM   39  C   UNK     1      -7.607   8.071  63.359  1.00  0.00    -0.130 C  
BRANCH  39  40
HETATM   40  C   UNK     1      -7.605   6.919  62.339  1.00  0.00    -0.098 C  
BRANCH  40  41
HETATM   41  C   UNK     1      -7.199   5.568  62.937  1.00  0.00    -0.043 C  
BRANCH  41  42
HETATM   42  C   UNK     1      -8.407   4.818  63.526  1.00  0.00    -0.117 C  
BRANCH  42  43
HETATM   43  C   UNK     1      -8.523   3.350  63.087  1.00  0.00    -0.089 C  
HETATM   44  C   UNK     1      -7.847   2.417  64.104  1.00  0.00    -0.076 C  
HETATM   45  N   UNK     1      -9.945   2.929  62.924  1.00  0.00    -0.094 NA 
HETATM   46  O   UNK     1      -6.644   2.244  64.209  1.00  0.00    -0.025 OA 
HETATM   47  O   UNK     1      -8.768   1.813  64.901  1.00  0.00    -0.098 OA 
HETATM   48  H2  UNK     1     -10.443   3.548  62.284  1.00  0.00     0.000 HD 
HETATM   49  H1  UNK     1     -10.021   1.955  62.632  1.00  0.00     0.000 HD 
ENDBRANCH  42  43
ENDBRANCH  41  42
ENDBRANCH  40  41
ENDBRANCH  39  40
ENDBRANCH  37  39
ENDBRANCH  36  37
ENDBRANCH  35  36
ENDBRANCH  15  32
BRANCH  24  50
HETATM   50  N   UNK     1      -9.601   8.071  68.751  1.00  0.00    -0.148 NA 
HETATM   51  C   UNK     1     -10.607   9.022  69.172  1.00  0.00    -0.203 C  
HETATM   52  C   UNK     1     -10.241   6.844  68.262  1.00  0.00    -0.180 C  
ENDBRANCH  24  50
TORSDOF 9
ENDMDL
MODEL       92
REMARK 921   NORMALIZED FREE ENERGY PREDICTED BY IDOCK:   -3.65 KCAL/MOL
REMARK 922        TOTAL FREE ENERGY PREDICTED BY IDOCK:   -6.96 KCAL/MOL
REMARK 923 INTER-LIGAND FREE ENERGY PREDICTED BY IDOCK:   -5.49 KCAL/MOL
REMARK 924 INTRA-LIGAND FREE ENERGY PREDICTED BY IDOCK:   -1.47 KCAL/MOL
REMARK 927      BINDING AFFINITY PREDICTED BY RF-SCORE:    0.00 PKD
ROOT
HETATM    1  C   UNK     1      -8.124   5.950  66.743  1.00  0.00    -0.102 C  
HETATM    2  C   UNK     1      -7.247   7.136  66.383  1.00  0.00    -0.078 C  
HETATM    3  C   UNK     1      -7.428   8.346  67.345  1.00  0.00    -0.093 C  
HETATM    4  C   UNK     1      -8.890   8.697  67.499  1.00  0.00    -0.139 C  
HETATM    5  C   UNK     1      -9.277  10.149  67.593  1.00  0.00    -0.141 C  
HETATM    6  C   UNK     1      -9.837   7.742  67.492  1.00  0.00    -0.171 C  
HETATM    7  O   UNK     1     -11.204   8.055  67.518  1.00  0.00    -0.417 OA 
HETATM    8  C   UNK     1      -9.587   6.277  67.128  1.00  0.00    -0.132 C  
HETATM    9  C   UNK     1      -8.219  11.178  67.743  1.00  0.00    -0.119 A  
HETATM   10  O   UNK     1     -10.457  10.498  67.552  1.00  0.00    -0.208 OA 
HETATM   11  C   UNK     1      -8.556  12.507  68.051  1.00  0.00    -0.185 A  
HETATM   12  O   UNK     1     -10.433   6.132  65.981  1.00  0.00    -0.416 OA 
HETATM   13  C   UNK     1      -9.858   5.127  68.226  1.00  0.00    -0.156 C  
HETATM   14  H   UNK     1     -11.873   7.381  67.512  1.00  0.00     0.000 HD 
HETATM   15  C   UNK     1      -9.198   3.772  67.944  1.00  0.00    -0.218 C  
HETATM   16  O   UNK     1     -10.589   5.247  69.206  1.00  0.00    -0.225 OA 
HETATM   17  C   UNK     1      -7.571  13.475  68.255  1.00  0.00    -0.135 A  
HETATM   18  H   UNK     1     -11.331   6.332  66.217  1.00  0.00     0.000 HD 
HETATM   19  O   UNK     1      -9.847  12.956  68.146  1.00  0.00    -0.217 OA 
HETATM   20  H   UNK     1      -4.607   9.855  67.084  1.00  0.00     0.000 HD 
HETATM   21  H   UNK     1     -10.075  13.855  68.354  1.00  0.00     0.000 HD 
HETATM   22  C   UNK     1      -6.231  13.126  68.151  1.00  0.00    -0.106 A  
HETATM   23  C   UNK     1      -9.109   3.640  66.599  1.00  0.00    -0.162 C  
HETATM   24  C   UNK     1      -8.077   4.615  65.877  1.00  0.00    -0.103 C  
HETATM   25  C   UNK     1      -6.460   9.717  65.381  1.00  0.00    -0.083 C  
HETATM   26  O   UNK     1      -5.178   9.143  67.349  1.00  0.00    -0.036 OA 
HETATM   27  O   UNK     1     -10.269   3.383  65.861  1.00  0.00    -0.338 OA 
HETATM   28  C   UNK     1      -5.884  11.824  67.790  1.00  0.00    -0.057 A  
HETATM   29  C   UNK     1      -6.493   9.514  66.910  1.00  0.00    -0.067 C  
HETATM   30  C   UNK     1      -6.867  10.839  67.547  1.00  0.00    -0.079 A  
HETATM   31  H   UNK     1     -10.207   3.291  64.917  1.00  0.00     0.000 HD 
ENDROOT
BRANCH  15  32
HETATM   32  C   UNK     1      -7.893   3.285  68.541  1.00  0.00    -0.058 C  
HETATM   33  H   UNK     1      -7.598   4.856  69.895  1.00  0.00     0.000 HD 
HETATM   34  O   UNK     1      -7.417   2.208  68.165  1.00  0.00    -0.050 OA 
HETATM   35  N   UNK     1      -7.220   3.992  69.505  1.00  0.00    -0.049 N  
BRANCH  35  36
HETATM   36  C   UNK     1      -5.951   3.457  69.943  1.00  0.00    -0.023 C  
BRANCH  36  37
HETATM   37  N   UNK     1      -6.136   2.926  71.278  1.00  0.00    -0.014 NA 
HETATM   38  H   UNK     1      -5.414   2.249  71.525  1.00  0.00     0.000 HD 
BRANCH  37  39
HETATM   39  C   UNK     1      -6.214   4.033  72.250  1.00  0.00    -0.017 C  
BRANCH  39  40
HETATM   40  C   UNK     1      -7.629   4.215  72.827  1.00  0.00    -0.075 C  
BRANCH  40  41
HETATM   41  C   UNK     1      -8.030   5.681  73.024  1.00  0.00    -0.104 C  
BRANCH  41  42
HETATM   42  C   UNK     1      -7.841   6.502  71.736  1.00  0.00    -0.103 C  
BRANCH  42  43
HETATM   43  C   UNK     1      -8.119   8.005  71.891  1.00  0.00    -0.121 C  
HETATM   44  C   UNK     1      -6.841   8.827  71.661  1.00  0.00    -0.078 C  
HETATM   45  N   UNK     1      -9.169   8.477  70.942  1.00  0.00    -0.162 NA 
HETATM   46  O   UNK     1      -5.934   8.958  72.466  1.00  0.00    -0.079 OA 
HETATM   47  O   UNK     1      -6.835   9.385  70.421  1.00  0.00    -0.065 OA 
HETATM   48  H2  UNK     1     -10.024   7.930  71.034  1.00  0.00     0.000 HD 
HETATM   49  H1  UNK     1      -9.354   9.475  71.046  1.00  0.00     0.000 HD 
ENDBRANCH  42  43
ENDBRANCH  41  42
ENDBRANCH  40  41
ENDBRANCH  39  40
ENDBRANCH  37  39
ENDBRANCH  36  37
ENDBRANCH  35  36
ENDBRANCH  15  32
BRANCH  24  50
HETATM   50  N   UNK     1      -8.329   4.597  64.417  1.00  0.00    -0.112 NA 
HETATM   51  C   UNK     1      -8.027   5.793  63.661  1.00  0.00    -0.120 C  
HETATM   52  C   UNK     1      -7.689   3.432  63.795  1.00  0.00    -0.079 C  
ENDBRANCH  24  50
TORSDOF 9
ENDMDL
MODEL       93
REMARK 921   NORMALIZED FREE ENERGY PREDICTED BY IDOCK:   -3.61 KCAL/MOL
REMARK 922        TOTAL FREE ENERGY PREDICTED BY IDOCK:   -6.91 KCAL/MOL
REMARK 923 INTER-LIGAND FREE ENERGY PREDICTED BY IDOCK:   -5.23 KCAL/MOL
REMARK 924 INTRA-LIGAND FREE ENERGY PREDICTED BY IDOCK:   -1.68 KCAL/MOL
REMARK 927      BINDING AFFINITY PREDICTED BY RF-SCORE:    0.00 PKD
ROOT
HETATM    1  C   UNK     1      -8.323   5.628  71.101  1.00  0.00    -0.122 C  
HETATM    2  C   UNK     1      -9.438   6.658  71.088  1.00  0.00    -0.167 C  
HETATM    3  C   UNK     1      -9.299   7.696  69.936  1.00  0.00    -0.150 C  
HETATM    4  C   UNK     1      -7.914   8.300  69.921  1.00  0.00    -0.108 C  
HETATM    5  C   UNK     1      -7.769   9.762  69.592  1.00  0.00    -0.136 C  
HETATM    6  C   UNK     1      -6.835   7.570  70.254  1.00  0.00    -0.047 C  
HETATM    7  O   UNK     1      -5.558   8.141  70.357  1.00  0.00    -0.023 OA 
HETATM    8  C   UNK     1      -6.893   6.169  70.866  1.00  0.00    -0.063 C  
HETATM    9  C   UNK     1      -8.944  10.518  69.091  1.00  0.00    -0.171 A  
HETATM   10  O   UNK     1      -6.690  10.342  69.726  1.00  0.00    -0.071 OA 
HETATM   11  C   UNK     1      -8.788  11.814  68.571  1.00  0.00    -0.122 A  
HETATM   12  O   UNK     1      -6.249   6.395  72.127  1.00  0.00    -0.041 OA 
HETATM   13  C   UNK     1      -6.242   4.925  70.072  1.00  0.00    -0.026 C  
HETATM   14  H   UNK     1      -4.796   7.625  70.592  1.00  0.00     0.000 HD 
HETATM   15  C   UNK     1      -6.702   3.534  70.526  1.00  0.00    -0.033 C  
HETATM   16  O   UNK     1      -5.381   5.019  69.200  1.00  0.00    -0.003 OA 
HETATM   17  C   UNK     1      -9.871  12.516  68.041  1.00  0.00    -0.214 A  
HETATM   18  H   UNK     1      -5.371   6.727  71.982  1.00  0.00     0.000 HD 
HETATM   19  O   UNK     1      -7.596  12.489  68.569  1.00  0.00    -0.123 OA 
HETATM   20  H   UNK     1     -12.337   8.633  69.491  1.00  0.00     0.000 HD 
HETATM   21  H   UNK     1      -7.491  13.366  68.218  1.00  0.00     0.000 HD 
HETATM   22  C   UNK     1     -11.130  11.929  68.024  1.00  0.00    -0.293 A  
HETATM   23  C   UNK     1      -7.002   3.621  71.844  1.00  0.00    -0.030 C  
HETATM   24  C   UNK     1      -8.294   4.479  72.203  1.00  0.00    -0.109 C  
HETATM   25  C   UNK     1     -10.815   9.163  71.429  1.00  0.00    -0.419 C  
HETATM   26  O   UNK     1     -11.616   8.014  69.457  1.00  0.00     0.298 OA 
HETATM   27  O   UNK     1      -5.962   3.732  72.774  1.00  0.00    -0.007 OA 
HETATM   28  C   UNK     1     -11.309  10.666  68.587  1.00  0.00    -0.345 A  
HETATM   29  C   UNK     1     -10.481   8.710  69.992  1.00  0.00    -0.223 C  
HETATM   30  C   UNK     1     -10.231   9.954  69.160  1.00  0.00    -0.218 A  
HETATM   31  H   UNK     1      -6.173   3.793  73.699  1.00  0.00     0.000 HD 
ENDROOT
BRANCH  15  32
HETATM   32  C   UNK     1      -7.779   2.701  69.863  1.00  0.00    -0.043 C  
HETATM   33  H   UNK     1      -7.552   3.443  67.917  1.00  0.00     0.000 HD 
HETATM   34  O   UNK     1      -8.407   1.874  70.533  1.00  0.00    -0.041 OA 
HETATM   35  N   UNK     1      -8.079   2.820  68.529  1.00  0.00    -0.059 N  
BRANCH  35  36
HETATM   36  C   UNK     1      -9.175   2.020  68.032  1.00  0.00    -0.190 C  
BRANCH  36  37
HETATM   37  N   UNK     1      -9.646   2.634  66.807  1.00  0.00    -0.395 NA 
HETATM   38  H   UNK     1     -10.631   2.435  66.632  1.00  0.00     0.000 HD 
BRANCH  37  39
HETATM   39  C   UNK     1      -9.370   4.083  66.837  1.00  0.00    -0.182 C  
BRANCH  39  40
HETATM   40  C   UNK     1     -10.653   4.928  66.911  1.00  0.00    -0.119 C  
BRANCH  40  41
HETATM   41  C   UNK     1     -10.417   6.427  66.693  1.00  0.00    -0.240 C  
BRANCH  41  42
HETATM   42  C   UNK     1      -8.920   6.755  66.556  1.00  0.00    -0.162 C  
BRANCH  42  43
HETATM   43  C   UNK     1      -8.523   7.377  65.208  1.00  0.00    -0.056 C  
HETATM   44  C   UNK     1      -8.209   8.873  65.365  1.00  0.00    -0.129 C  
HETATM   45  N   UNK     1      -7.337   6.699  64.610  1.00  0.00    -0.079 NA 
HETATM   46  O   UNK     1      -9.039   9.759  65.479  1.00  0.00    -0.168 OA 
HETATM   47  O   UNK     1      -6.867   9.091  65.382  1.00  0.00    -0.071 OA 
HETATM   48  H2  UNK     1      -7.488   5.694  64.524  1.00  0.00     0.000 HD 
HETATM   49  H1  UNK     1      -7.074   7.112  63.715  1.00  0.00     0.000 HD 
ENDBRANCH  42  43
ENDBRANCH  41  42
ENDBRANCH  40  41
ENDBRANCH  39  40
ENDBRANCH  37  39
ENDBRANCH  36  37
ENDBRANCH  35  36
ENDBRANCH  15  32
BRANCH  24  50
HETATM   50  N   UNK     1      -8.303   4.763  73.657  1.00  0.00    -0.106 NA 
HETATM   51  C   UNK     1      -8.335   6.147  74.079  1.00  0.00    -0.115 C  
HETATM   52  C   UNK     1      -9.368   4.007  74.327  1.00  0.00    -0.105 C  
ENDBRANCH  24  50
TORSDOF 9
ENDMDL
MODEL       94
REMARK 921   NORMALIZED FREE ENERGY PREDICTED BY IDOCK:   -3.61 KCAL/MOL
REMARK 922        TOTAL FREE ENERGY PREDICTED BY IDOCK:   -6.90 KCAL/MOL
REMARK 923 INTER-LIGAND FREE ENERGY PREDICTED BY IDOCK:   -6.12 KCAL/MOL
REMARK 924 INTRA-LIGAND FREE ENERGY PREDICTED BY IDOCK:   -0.78 KCAL/MOL
REMARK 927      BINDING AFFINITY PREDICTED BY RF-SCORE:    0.00 PKD
ROOT
HETATM    1  C   UNK     1      -9.730  13.122  67.430  1.00  0.00    -0.220 C  
HETATM    2  C   UNK     1      -8.854  12.225  68.286  1.00  0.00    -0.178 C  
HETATM    3  C   UNK     1      -8.146  11.102  67.472  1.00  0.00    -0.119 C  
HETATM    4  C   UNK     1      -9.140  10.347  66.620  1.00  0.00    -0.169 C  
HETATM    5  C   UNK     1      -8.971   8.860  66.464  1.00  0.00    -0.155 C  
HETATM    6  C   UNK     1     -10.192  10.972  66.062  1.00  0.00    -0.252 C  
HETATM    7  O   UNK     1     -11.186  10.269  65.366  1.00  0.00     0.617 OA 
HETATM    8  C   UNK     1     -10.614  12.408  66.379  1.00  0.00    -0.244 C  
HETATM    9  C   UNK     1      -7.734   8.208  66.963  1.00  0.00    -0.096 A  
HETATM   10  O   UNK     1      -9.838   8.172  65.923  1.00  0.00    -0.015 OA 
HETATM   11  C   UNK     1      -7.452   6.871  66.638  1.00  0.00    -0.082 A  
HETATM   12  O   UNK     1     -11.926  12.196  66.915  1.00  0.00    -0.603 OA 
HETATM   13  C   UNK     1     -10.614  13.515  65.206  1.00  0.00    -0.328 C  
HETATM   14  H   UNK     1     -11.930  10.711  64.973  1.00  0.00     0.000 HD 
HETATM   15  C   UNK     1     -10.630  14.976  65.672  1.00  0.00    -0.360 C  
HETATM   16  O   UNK     1     -10.665  13.267  64.004  1.00  0.00    -0.377 OA 
HETATM   17  C   UNK     1      -6.266   6.261  67.049  1.00  0.00    -0.036 A  
HETATM   18  H   UNK     1     -12.468  11.758  66.269  1.00  0.00     0.000 HD 
HETATM   19  O   UNK     1      -8.309   6.068  65.933  1.00  0.00    -0.125 OA 
HETATM   20  H   UNK     1      -5.557  10.485  69.266  1.00  0.00     0.000 HD 
HETATM   21  H   UNK     1      -8.118   5.163  65.713  1.00  0.00     0.000 HD 
HETATM   22  C   UNK     1      -5.343   6.984  67.795  1.00  0.00    -0.016 A  
HETATM   23  C   UNK     1     -11.286  15.012  66.856  1.00  0.00    -0.302 C  
HETATM   24  C   UNK     1     -10.533  14.331  68.083  1.00  0.00    -0.246 C  
HETATM   25  C   UNK     1      -7.963   9.919  69.761  1.00  0.00    -0.181 C  
HETATM   26  O   UNK     1      -6.094  11.016  68.688  1.00  0.00    -0.043 OA 
HETATM   27  O   UNK     1     -12.676  14.848  66.872  1.00  0.00    -0.100 OA 
HETATM   28  C   UNK     1      -5.636   8.294  68.172  1.00  0.00    -0.034 A  
HETATM   29  C   UNK     1      -7.267  10.233  68.420  1.00  0.00    -0.080 C  
HETATM   30  C   UNK     1      -6.847   8.917  67.794  1.00  0.00    -0.070 A  
HETATM   31  H   UNK     1     -13.135  14.873  67.703  1.00  0.00     0.000 HD 
ENDROOT
BRANCH  15  32
HETATM   32  C   UNK     1      -9.419  15.879  65.789  1.00  0.00    -0.281 C  
HETATM   33  H   UNK     1     -10.438  17.702  65.933  1.00  0.00     0.000 HD 
HETATM   34  O   UNK     1      -8.289  15.378  65.812  1.00  0.00     0.581 OA 
HETATM   35  N   UNK     1      -9.529  17.242  65.887  1.00  0.00    -0.095 N  
BRANCH  35  36
HETATM   36  C   UNK     1      -8.297  17.997  65.923  1.00  0.00     0.106 C  
BRANCH  36  37
HETATM   37  N   UNK     1      -8.613  19.370  65.584  1.00  0.00    -0.254 NA 
HETATM   38  H   UNK     1      -9.619  19.540  65.572  1.00  0.00     0.000 HD 
BRANCH  37  39
HETATM   39  C   UNK     1      -7.907  20.286  66.500  1.00  0.00    -0.238 C  
BRANCH  39  40
HETATM   40  C   UNK     1      -7.353  19.568  67.743  1.00  0.00    -0.297 C  
BRANCH  40  41
HETATM   41  C   UNK     1      -5.834  19.695  67.902  1.00  0.00    -0.222 C  
BRANCH  41  42
HETATM   42  C   UNK     1      -5.225  18.456  68.582  1.00  0.00    -0.177 C  
BRANCH  42  43
HETATM   43  C   UNK     1      -6.031  17.923  69.777  1.00  0.00    -0.230 C  
HETATM   44  C   UNK     1      -6.028  16.387  69.801  1.00  0.00    -0.201 C  
HETATM   45  N   UNK     1      -5.495  18.423  71.076  1.00  0.00    -0.216 NA 
HETATM   46  O   UNK     1      -6.704  15.671  69.082  1.00  0.00    -0.130 OA 
HETATM   47  O   UNK     1      -5.147  15.914  70.723  1.00  0.00    -0.165 OA 
HETATM   48  H2  UNK     1      -5.442  19.441  71.089  1.00  0.00     0.000 HD 
HETATM   49  H1  UNK     1      -6.030  18.069  71.870  1.00  0.00     0.000 HD 
ENDBRANCH  42  43
ENDBRANCH  41  42
ENDBRANCH  40  41
ENDBRANCH  39  40
ENDBRANCH  37  39
ENDBRANCH  36  37
ENDBRANCH  35  36
ENDBRANCH  15  32
BRANCH  24  50
HETATM   50  N   UNK     1     -11.489  14.148  69.201  1.00  0.00    -0.277 NA 
HETATM   51  C   UNK     1     -11.318  12.995  70.059  1.00  0.00     0.113 C  
HETATM   52  C   UNK     1     -11.581  15.369  70.010  1.00  0.00    -0.321 C  
ENDBRANCH  24  50
TORSDOF 9
ENDMDL
MODEL       95
REMARK 921   NORMALIZED FREE ENERGY PREDICTED BY IDOCK:   -3.59 KCAL/MOL
REMARK 922        TOTAL FREE ENERGY PREDICTED BY IDOCK:   -6.87 KCAL/MOL
REMARK 923 INTER-LIGAND FREE ENERGY PREDICTED BY IDOCK:   -7.17 KCAL/MOL
REMARK 924 INTRA-LIGAND FREE ENERGY PREDICTED BY IDOCK:    0.30 KCAL/MOL
REMARK 927      BINDING AFFINITY PREDICTED BY RF-SCORE:    0.00 PKD
ROOT
HETATM    1  C   UNK     1      -8.018   7.777  67.805  1.00  0.00    -0.124 C  
HETATM    2  C   UNK     1      -8.747   6.553  68.330  1.00  0.00    -0.117 C  
HETATM    3  C   UNK     1      -8.821   6.504  69.885  1.00  0.00    -0.143 C  
HETATM    4  C   UNK     1      -7.453   6.705  70.495  1.00  0.00    -0.087 C  
HETATM    5  C   UNK     1      -7.087   5.912  71.720  1.00  0.00    -0.085 C  
HETATM    6  C   UNK     1      -6.553   7.526  69.925  1.00  0.00    -0.039 C  
HETATM    7  O   UNK     1      -5.242   7.638  70.410  1.00  0.00    -0.023 OA 
HETATM    8  C   UNK     1      -6.714   8.162  68.543  1.00  0.00    -0.063 C  
HETATM    9  C   UNK     1      -8.132   5.121  72.417  1.00  0.00    -0.110 A  
HETATM   10  O   UNK     1      -5.936   5.911  72.160  1.00  0.00    -0.037 OA 
HETATM   11  C   UNK     1      -7.874   4.552  73.676  1.00  0.00    -0.090 A  
HETATM   12  O   UNK     1      -5.587   7.606  67.853  1.00  0.00    -0.029 OA 
HETATM   13  C   UNK     1      -6.770   9.768  68.406  1.00  0.00    -0.060 C  
HETATM   14  H   UNK     1      -4.606   8.218  70.008  1.00  0.00     0.000 HD 
HETATM   15  C   UNK     1      -7.346  10.303  67.089  1.00  0.00    -0.091 C  
HETATM   16  O   UNK     1      -6.335  10.561  69.237  1.00  0.00    -0.045 OA 
HETATM   17  C   UNK     1      -8.864   3.857  74.373  1.00  0.00    -0.097 A  
HETATM   18  H   UNK     1      -4.786   7.842  68.306  1.00  0.00     0.000 HD 
HETATM   19  O   UNK     1      -6.653   4.610  74.295  1.00  0.00    -0.059 OA 
HETATM   20  H   UNK     1     -11.441   4.720  70.388  1.00  0.00     0.000 HD 
HETATM   21  H   UNK     1      -6.479   4.225  75.146  1.00  0.00     0.000 HD 
HETATM   22  C   UNK     1     -10.128   3.718  73.816  1.00  0.00    -0.185 A  
HETATM   23  C   UNK     1      -7.064   9.390  66.128  1.00  0.00    -0.091 C  
HETATM   24  C   UNK     1      -7.845   8.007  66.240  1.00  0.00    -0.099 C  
HETATM   25  C   UNK     1      -9.193   3.973  69.526  1.00  0.00    -0.220 C  
HETATM   26  O   UNK     1     -10.975   5.500  70.111  1.00  0.00    -0.286 OA 
HETATM   27  O   UNK     1      -5.749   9.272  65.665  1.00  0.00    -0.051 OA 
HETATM   28  C   UNK     1     -10.381   4.228  72.543  1.00  0.00    -0.239 A  
HETATM   29  C   UNK     1      -9.585   5.225  70.339  1.00  0.00    -0.179 C  
HETATM   30  C   UNK     1      -9.382   4.906  71.808  1.00  0.00    -0.185 A  
HETATM   31  H   UNK     1      -5.551   8.632  64.991  1.00  0.00     0.000 HD 
ENDROOT
BRANCH  15  32
HETATM   32  C   UNK     1      -8.771  10.771  66.875  1.00  0.00    -0.141 C  
HETATM   33  H   UNK     1      -8.537  11.506  64.928  1.00  0.00     0.000 HD 
HETATM   34  O   UNK     1      -9.611  10.587  67.763  1.00  0.00    -0.154 OA 
HETATM   35  N   UNK     1      -9.174  11.383  65.715  1.00  0.00    -0.216 N  
BRANCH  35  36
HETATM   36  C   UNK     1     -10.542  11.847  65.661  1.00  0.00    -0.268 C  
BRANCH  36  37
HETATM   37  N   UNK     1     -10.916  12.267  66.996  1.00  0.00    -0.256 NA 
HETATM   38  H   UNK     1     -10.102  12.435  67.587  1.00  0.00     0.000 HD 
BRANCH  37  39
HETATM   39  C   UNK     1     -11.798  13.447  66.919  1.00  0.00    -0.403 C  
BRANCH  39  40
HETATM   40  C   UNK     1     -11.761  14.298  68.200  1.00  0.00    -0.385 C  
BRANCH  40  41
HETATM   41  C   UNK     1     -10.943  15.587  68.060  1.00  0.00    -0.311 C  
BRANCH  41  42
HETATM   42  C   UNK     1      -9.450  15.294  67.828  1.00  0.00    -0.197 C  
BRANCH  42  43
HETATM   43  C   UNK     1      -8.880  15.875  66.525  1.00  0.00    -0.305 C  
HETATM   44  C   UNK     1      -9.953  16.667  65.761  1.00  0.00    -0.243 C  
HETATM   45  N   UNK     1      -7.715  16.771  66.778  1.00  0.00    -0.221 NA 
HETATM   46  O   UNK     1     -10.850  16.176  65.097  1.00  0.00    -0.435 OA 
HETATM   47  O   UNK     1      -9.789  18.005  65.935  1.00  0.00    -0.535 OA 
HETATM   48  H2  UNK     1      -6.993  16.296  67.320  1.00  0.00     0.000 HD 
HETATM   49  H1  UNK     1      -7.336  17.156  65.913  1.00  0.00     0.000 HD 
ENDBRANCH  42  43
ENDBRANCH  41  42
ENDBRANCH  40  41
ENDBRANCH  39  40
ENDBRANCH  37  39
ENDBRANCH  36  37
ENDBRANCH  35  36
ENDBRANCH  15  32
BRANCH  24  50
HETATM   50  N   UNK     1      -7.201   7.011  65.350  1.00  0.00    -0.071 NA 
HETATM   51  C   UNK     1      -7.230   5.622  65.753  1.00  0.00    -0.072 C  
HETATM   52  C   UNK     1      -7.698   7.147  63.975  1.00  0.00    -0.123 C  
ENDBRANCH  24  50
TORSDOF 9
ENDMDL
MODEL       96
REMARK 921   NORMALIZED FREE ENERGY PREDICTED BY IDOCK:   -3.58 KCAL/MOL
REMARK 922        TOTAL FREE ENERGY PREDICTED BY IDOCK:   -6.86 KCAL/MOL
REMARK 923 INTER-LIGAND FREE ENERGY PREDICTED BY IDOCK:   -6.80 KCAL/MOL
REMARK 924 INTRA-LIGAND FREE ENERGY PREDICTED BY IDOCK:   -0.06 KCAL/MOL
REMARK 927      BINDING AFFINITY PREDICTED BY RF-SCORE:    0.00 PKD
ROOT
HETATM    1  C   UNK     1      -7.993   8.972  67.121  1.00  0.00    -0.102 C  
HETATM    2  C   UNK     1      -8.283   7.552  66.669  1.00  0.00    -0.125 C  
HETATM    3  C   UNK     1      -8.358   6.537  67.848  1.00  0.00    -0.115 C  
HETATM    4  C   UNK     1      -7.141   6.656  68.737  1.00  0.00    -0.082 C  
HETATM    5  C   UNK     1      -6.551   5.400  69.320  1.00  0.00    -0.047 C  
HETATM    6  C   UNK     1      -6.555   7.846  68.957  1.00  0.00    -0.044 C  
HETATM    7  O   UNK     1      -5.361   7.960  69.683  1.00  0.00    -0.023 OA 
HETATM    8  C   UNK     1      -6.898   9.132  68.203  1.00  0.00    -0.068 C  
HETATM    9  C   UNK     1      -7.284   4.117  69.187  1.00  0.00    -0.051 A  
HETATM   10  O   UNK     1      -5.470   5.418  69.911  1.00  0.00    -0.004 OA 
HETATM   11  C   UNK     1      -6.871   2.982  69.904  1.00  0.00    -0.034 A  
HETATM   12  O   UNK     1      -5.642   9.427  67.579  1.00  0.00    -0.037 OA 
HETATM   13  C   UNK     1      -7.480  10.400  69.013  1.00  0.00    -0.106 C  
HETATM   14  H   UNK     1      -4.947   8.801  69.838  1.00  0.00     0.000 HD 
HETATM   15  C   UNK     1      -8.182  11.466  68.163  1.00  0.00    -0.143 C  
HETATM   16  O   UNK     1      -7.342  10.588  70.219  1.00  0.00    -0.206 OA 
HETATM   17  C   UNK     1      -7.584   1.784  69.838  1.00  0.00    -0.042 A  
HETATM   18  H   UNK     1      -4.970   9.525  68.243  1.00  0.00     0.000 HD 
HETATM   19  O   UNK     1      -5.745   2.950  70.685  1.00  0.00    -0.015 OA 
HETATM   20  H   UNK     1     -10.248   4.236  66.651  1.00  0.00     0.000 HD 
HETATM   21  H   UNK     1      -5.465   2.182  71.170  1.00  0.00     0.000 HD 
HETATM   22  C   UNK     1      -8.725   1.706  69.049  1.00  0.00    -0.106 A  
HETATM   23  C   UNK     1      -7.602  11.450  66.939  1.00  0.00    -0.151 C  
HETATM   24  C   UNK     1      -7.883  10.153  66.059  1.00  0.00    -0.122 C  
HETATM   25  C   UNK     1      -7.868   4.778  66.020  1.00  0.00    -0.095 C  
HETATM   26  O   UNK     1     -10.062   5.107  66.984  1.00  0.00    -0.177 OA 
HETATM   27  O   UNK     1      -6.315  11.979  66.787  1.00  0.00    -0.314 OA 
HETATM   28  C   UNK     1      -9.115   2.808  68.289  1.00  0.00    -0.227 A  
HETATM   29  C   UNK     1      -8.662   5.111  67.302  1.00  0.00    -0.103 C  
HETATM   30  C   UNK     1      -8.385   4.018  68.317  1.00  0.00    -0.100 A  
HETATM   31  H   UNK     1      -5.909  11.968  65.929  1.00  0.00     0.000 HD 
ENDROOT
BRANCH  15  32
HETATM   32  C   UNK     1      -9.679  11.588  67.961  1.00  0.00    -0.186 C  
HETATM   33  H   UNK     1      -9.855  13.631  68.384  1.00  0.00     0.000 HD 
HETATM   34  O   UNK     1     -10.326  10.598  67.602  1.00  0.00    -0.188 OA 
HETATM   35  N   UNK     1     -10.348  12.770  68.147  1.00  0.00    -0.232 N  
BRANCH  35  36
HETATM   36  C   UNK     1     -11.785  12.740  67.991  1.00  0.00    -0.356 C  
BRANCH  36  37
HETATM   37  N   UNK     1     -12.078  12.922  66.584  1.00  0.00    -0.458 NA 
HETATM   38  H   UNK     1     -13.034  12.651  66.353  1.00  0.00     0.000 HD 
BRANCH  37  39
HETATM   39  C   UNK     1     -11.785  14.313  66.189  1.00  0.00    -0.390 C  
BRANCH  39  40
HETATM   40  C   UNK     1     -10.568  14.418  65.253  1.00  0.00    -0.398 C  
BRANCH  40  41
HETATM   41  C   UNK     1      -9.638  15.591  65.582  1.00  0.00    -0.328 C  
BRANCH  41  42
HETATM   42  C   UNK     1     -10.366  16.692  66.373  1.00  0.00    -0.310 C  
BRANCH  42  43
HETATM   43  C   UNK     1      -9.897  16.848  67.828  1.00  0.00    -0.252 C  
HETATM   44  C   UNK     1      -8.738  17.851  67.927  1.00  0.00    -0.252 C  
HETATM   45  N   UNK     1     -11.002  17.304  68.722  1.00  0.00    -0.263 NA 
HETATM   46  O   UNK     1      -7.579  17.619  67.626  1.00  0.00    -0.198 OA 
HETATM   47  O   UNK     1      -9.172  19.057  68.380  1.00  0.00    -0.323 OA 
HETATM   48  H2  UNK     1     -11.810  16.686  68.657  1.00  0.00     0.000 HD 
HETATM   49  H1  UNK     1     -10.690  17.407  69.688  1.00  0.00     0.000 HD 
ENDBRANCH  42  43
ENDBRANCH  41  42
ENDBRANCH  40  41
ENDBRANCH  39  40
ENDBRANCH  37  39
ENDBRANCH  36  37
ENDBRANCH  35  36
ENDBRANCH  15  32
BRANCH  24  50
HETATM   50  N   UNK     1      -6.936  10.121  64.920  1.00  0.00    -0.136 NA 
HETATM   51  C   UNK     1      -6.298   8.862  64.602  1.00  0.00    -0.066 C  
HETATM   52  C   UNK     1      -7.552  10.692  63.717  1.00  0.00     0.177 C  
ENDBRANCH  24  50
TORSDOF 9
ENDMDL
MODEL       97
REMARK 921   NORMALIZED FREE ENERGY PREDICTED BY IDOCK:   -3.49 KCAL/MOL
REMARK 922        TOTAL FREE ENERGY PREDICTED BY IDOCK:   -6.72 KCAL/MOL
REMARK 923 INTER-LIGAND FREE ENERGY PREDICTED BY IDOCK:   -7.36 KCAL/MOL
REMARK 924 INTRA-LIGAND FREE ENERGY PREDICTED BY IDOCK:    0.64 KCAL/MOL
REMARK 927      BINDING AFFINITY PREDICTED BY RF-SCORE:    0.00 PKD
ROOT
HETATM    1  C   UNK     1      -9.371  14.209  67.808  1.00  0.00    -0.200 C  
HETATM    2  C   UNK     1      -8.096  14.712  68.460  1.00  0.00    -0.146 C  
HETATM    3  C   UNK     1      -8.043  16.264  68.584  1.00  0.00    -0.213 C  
HETATM    4  C   UNK     1      -8.347  16.920  67.257  1.00  0.00    -0.204 C  
HETATM    5  C   UNK     1      -7.585  18.160  66.876  1.00  0.00    -0.217 C  
HETATM    6  C   UNK     1      -9.234  16.380  66.402  1.00  0.00    -0.302 C  
HETATM    7  O   UNK     1      -9.445  16.909  65.122  1.00  0.00     0.164 OA 
HETATM    8  C   UNK     1      -9.854  14.990  66.563  1.00  0.00    -0.260 C  
HETATM    9  C   UNK     1      -6.718  18.823  67.881  1.00  0.00    -0.226 A  
HETATM   10  O   UNK     1      -7.672  18.640  65.744  1.00  0.00    -0.491 OA 
HETATM   11  C   UNK     1      -6.172  20.093  67.625  1.00  0.00    -0.217 A  
HETATM   12  O   UNK     1      -9.384  14.342  65.374  1.00  0.00    -0.469 OA 
HETATM   13  C   UNK     1     -11.452  14.846  66.735  1.00  0.00    -0.301 C  
HETATM   14  H   UNK     1     -10.071  16.527  64.518  1.00  0.00     0.000 HD 
HETATM   15  C   UNK     1     -11.940  13.508  67.304  1.00  0.00    -0.408 C  
HETATM   16  O   UNK     1     -12.276  15.689  66.391  1.00  0.00     0.724 OA 
HETATM   17  C   UNK     1      -5.404  20.757  68.583  1.00  0.00    -0.347 A  
HETATM   18  H   UNK     1      -9.681  14.822  64.609  1.00  0.00     0.000 HD 
HETATM   19  O   UNK     1      -6.322  20.754  66.434  1.00  0.00    -0.224 OA 
HETATM   20  H   UNK     1      -6.065  16.682  71.077  1.00  0.00     0.000 HD 
HETATM   21  H   UNK     1      -5.952  21.612  66.261  1.00  0.00     0.000 HD 
HETATM   22  C   UNK     1      -5.169  20.157  69.813  1.00  0.00    -0.255 A  
HETATM   23  C   UNK     1     -11.050  12.560  66.920  1.00  0.00    -0.278 C  
HETATM   24  C   UNK     1      -9.612  12.650  67.598  1.00  0.00    -0.188 C  
HETATM   25  C   UNK     1      -5.490  15.901  68.751  1.00  0.00    -0.104 C  
HETATM   26  O   UNK     1      -6.879  16.418  70.662  1.00  0.00     0.997 OA 
HETATM   27  O   UNK     1     -11.032  12.143  65.585  1.00  0.00    -0.276 OA 
HETATM   28  C   UNK     1      -5.658  18.874  70.059  1.00  0.00    -0.245 A  
HETATM   29  C   UNK     1      -6.709  16.696  69.264  1.00  0.00    -0.221 C  
HETATM   30  C   UNK     1      -6.409  18.172  69.089  1.00  0.00    -0.249 A  
HETATM   31  H   UNK     1     -10.408  11.479  65.316  1.00  0.00     0.000 HD 
ENDROOT
BRANCH  15  32
HETATM   32  C   UNK     1     -12.298  13.242  68.752  1.00  0.00     0.099 C  
HETATM   33  H   UNK     1     -12.762  15.212  69.294  1.00  0.00     0.000 HD 
HETATM   34  O   UNK     1     -12.274  12.084  69.182  1.00  0.00    -0.210 OA 
HETATM   35  N   UNK     1     -12.667  14.247  69.610  1.00  0.00    -0.050 N  
BRANCH  35  36
HETATM   36  C   UNK     1     -12.917  13.874  70.985  1.00  0.00    -0.287 C  
BRANCH  36  37
HETATM   37  N   UNK     1     -12.036  12.771  71.307  1.00  0.00    -0.049 NA 
HETATM   38  H   UNK     1     -11.133  13.090  71.660  1.00  0.00     0.000 HD 
BRANCH  37  39
HETATM   39  C   UNK     1     -12.707  11.855  72.249  1.00  0.00     0.461 C  
BRANCH  39  40
HETATM   40  C   UNK     1     -13.426  10.696  71.536  1.00  0.00    -0.222 C  
BRANCH  40  41
HETATM   41  C   UNK     1     -13.448   9.395  72.346  1.00  0.00    -0.506 C  
BRANCH  41  42
HETATM   42  C   UNK     1     -12.142   8.598  72.184  1.00  0.00    -0.451 C  
BRANCH  42  43
HETATM   43  C   UNK     1     -12.303   7.245  71.475  1.00  0.00    -0.362 C  
HETATM   44  C   UNK     1     -11.049   6.900  70.656  1.00  0.00    -0.278 C  
HETATM   45  N   UNK     1     -12.562   6.138  72.441  1.00  0.00    -0.501 NA 
HETATM   46  O   UNK     1     -10.761   7.382  69.574  1.00  0.00    -0.235 OA 
HETATM   47  O   UNK     1     -10.275   5.991  71.307  1.00  0.00    -0.194 OA 
HETATM   48  H2  UNK     1     -13.366   6.345  73.034  1.00  0.00     0.000 HD 
HETATM   49  H1  UNK     1     -12.670   5.240  71.970  1.00  0.00     0.000 HD 
ENDBRANCH  42  43
ENDBRANCH  41  42
ENDBRANCH  40  41
ENDBRANCH  39  40
ENDBRANCH  37  39
ENDBRANCH  36  37
ENDBRANCH  35  36
ENDBRANCH  15  32
BRANCH  24  50
HETATM   50  N   UNK     1      -8.667  11.787  66.850  1.00  0.00    -0.183 NA 
HETATM   51  C   UNK     1      -7.252  12.067  66.968  1.00  0.00    -0.096 C  
HETATM   52  C   UNK     1      -8.925  10.369  67.132  1.00  0.00    -0.139 C  
ENDBRANCH  24  50
TORSDOF 9
ENDMDL
MODEL       98
REMARK 921   NORMALIZED FREE ENERGY PREDICTED BY IDOCK:   -3.46 KCAL/MOL
REMARK 922        TOTAL FREE ENERGY PREDICTED BY IDOCK:   -6.67 KCAL/MOL
REMARK 923 INTER-LIGAND FREE ENERGY PREDICTED BY IDOCK:   -6.29 KCAL/MOL
REMARK 924 INTRA-LIGAND FREE ENERGY PREDICTED BY IDOCK:   -0.38 KCAL/MOL
REMARK 927      BINDING AFFINITY PREDICTED BY RF-SCORE:    0.00 PKD
ROOT
HETATM    1  C   UNK     1      -8.857   7.737  70.449  1.00  0.00    -0.146 C  
HETATM    2  C   UNK     1      -9.964   8.390  69.642  1.00  0.00    -0.193 C  
HETATM    3  C   UNK     1      -9.431   9.343  68.532  1.00  0.00    -0.150 C  
HETATM    4  C   UNK     1      -8.432  10.325  69.100  1.00  0.00    -0.164 C  
HETATM    5  C   UNK     1      -8.438  11.739  68.584  1.00  0.00    -0.068 C  
HETATM    6  C   UNK     1      -7.594   9.969  70.090  1.00  0.00    -0.155 C  
HETATM    7  O   UNK     1      -6.742  10.895  70.707  1.00  0.00    -0.458 OA 
HETATM    8  C   UNK     1      -7.688   8.657  70.873  1.00  0.00    -0.097 C  
HETATM    9  C   UNK     1      -9.265  12.081  67.400  1.00  0.00    -0.180 A  
HETATM   10  O   UNK     1      -7.765  12.618  69.123  1.00  0.00     0.116 OA 
HETATM   11  C   UNK     1      -9.123  13.328  66.767  1.00  0.00    -0.210 A  
HETATM   12  O   UNK     1      -7.914   9.147  72.200  1.00  0.00    -0.310 OA 
HETATM   13  C   UNK     1      -6.463   7.609  70.818  1.00  0.00    -0.038 C  
HETATM   14  H   UNK     1      -6.150  10.643  71.407  1.00  0.00     0.000 HD 
HETATM   15  C   UNK     1      -6.794   6.178  71.261  1.00  0.00    -0.067 C  
HETATM   16  O   UNK     1      -5.306   7.891  70.517  1.00  0.00    -0.023 OA 
HETATM   17  C   UNK     1      -9.848  13.642  65.617  1.00  0.00    -0.196 A  
HETATM   18  H   UNK     1      -7.196   9.712  72.460  1.00  0.00     0.000 HD 
HETATM   19  O   UNK     1      -8.302  14.321  67.231  1.00  0.00    -0.191 OA 
HETATM   20  H   UNK     1     -11.827   9.314  66.396  1.00  0.00     0.000 HD 
HETATM   21  H   UNK     1      -8.206  15.164  66.804  1.00  0.00     0.000 HD 
HETATM   22  C   UNK     1     -10.731  12.712  65.084  1.00  0.00    -0.321 A  
HETATM   23  C   UNK     1      -7.784   6.262  72.181  1.00  0.00    -0.096 C  
HETATM   24  C   UNK     1      -9.204   6.724  71.628  1.00  0.00    -0.144 C  
HETATM   25  C   UNK     1     -11.785  10.397  68.672  1.00  0.00    -0.076 C  
HETATM   26  O   UNK     1     -11.098   8.933  66.874  1.00  0.00     0.102 OA 
HETATM   27  O   UNK     1      -7.485   6.736  73.463  1.00  0.00    -0.083 OA 
HETATM   28  C   UNK     1     -10.923  11.493  65.733  1.00  0.00    -0.305 A  
HETATM   29  C   UNK     1     -10.625   9.967  67.750  1.00  0.00    -0.261 C  
HETATM   30  C   UNK     1     -10.222  11.170  66.918  1.00  0.00    -0.260 A  
HETATM   31  H   UNK     1      -8.180   6.794  74.109  1.00  0.00     0.000 HD 
ENDROOT
BRANCH  15  32
HETATM   32  C   UNK     1      -7.121   5.022  70.337  1.00  0.00    -0.053 C  
HETATM   33  H   UNK     1      -5.598   5.341  68.936  1.00  0.00     0.000 HD 
HETATM   34  O   UNK     1      -8.050   4.258  70.625  1.00  0.00    -0.061 OA 
HETATM   35  N   UNK     1      -6.410   4.778  69.190  1.00  0.00    -0.031 N  
BRANCH  35  36
HETATM   36  C   UNK     1      -6.865   3.688  68.357  1.00  0.00    -0.046 C  
BRANCH  36  37
HETATM   37  N   UNK     1      -7.813   4.228  67.405  1.00  0.00    -0.091 NA 
HETATM   38  H   UNK     1      -8.370   4.983  67.805  1.00  0.00     0.000 HD 
BRANCH  37  39
HETATM   39  C   UNK     1      -7.105   4.650  66.181  1.00  0.00    -0.075 C  
BRANCH  39  40
HETATM   40  C   UNK     1      -7.794   5.834  65.479  1.00  0.00    -0.102 C  
BRANCH  40  41
HETATM   41  C   UNK     1      -8.385   5.478  64.110  1.00  0.00    -0.102 C  
BRANCH  41  42
HETATM   42  C   UNK     1      -7.937   4.083  63.639  1.00  0.00    -0.088 C  
BRANCH  42  43
HETATM   43  C   UNK     1      -9.056   3.031  63.605  1.00  0.00    -0.096 C  
HETATM   44  C   UNK     1     -10.439   3.699  63.624  1.00  0.00    -0.257 C  
HETATM   45  N   UNK     1      -8.962   2.158  62.399  1.00  0.00    -0.074 NA 
HETATM   46  O   UNK     1     -10.978   4.176  64.609  1.00  0.00    -0.263 OA 
HETATM   47  O   UNK     1     -10.991   3.714  62.381  1.00  0.00    -0.159 OA 
HETATM   48  H2  UNK     1      -8.042   1.724  62.326  1.00  0.00     0.000 HD 
HETATM   49  H1  UNK     1      -9.705   1.460  62.377  1.00  0.00     0.000 HD 
ENDBRANCH  42  43
ENDBRANCH  41  42
ENDBRANCH  40  41
ENDBRANCH  39  40
ENDBRANCH  37  39
ENDBRANCH  36  37
ENDBRANCH  35  36
ENDBRANCH  15  32
BRANCH  24  50
HETATM   50  N   UNK     1     -10.076   7.091  72.768  1.00  0.00    -0.176 NA 
HETATM   51  C   UNK     1     -11.062   8.130  72.563  1.00  0.00    -0.377 C  
HETATM   52  C   UNK     1     -10.713   5.897  73.338  1.00  0.00    -0.267 C  
ENDBRANCH  24  50
TORSDOF 9
ENDMDL
MODEL       99
REMARK 921   NORMALIZED FREE ENERGY PREDICTED BY IDOCK:   -3.40 KCAL/MOL
REMARK 922        TOTAL FREE ENERGY PREDICTED BY IDOCK:   -6.58 KCAL/MOL
REMARK 923 INTER-LIGAND FREE ENERGY PREDICTED BY IDOCK:   -5.84 KCAL/MOL
REMARK 924 INTRA-LIGAND FREE ENERGY PREDICTED BY IDOCK:   -0.75 KCAL/MOL
REMARK 927      BINDING AFFINITY PREDICTED BY RF-SCORE:    0.00 PKD
ROOT
HETATM    1  C   UNK     1      -8.734  12.845  67.945  1.00  0.00    -0.186 C  
HETATM    2  C   UNK     1      -9.257  14.212  67.541  1.00  0.00    -0.192 C  
HETATM    3  C   UNK     1      -8.130  15.274  67.373  1.00  0.00    -0.205 C  
HETATM    4  C   UNK     1      -7.231  15.301  68.587  1.00  0.00    -0.121 C  
HETATM    5  C   UNK     1      -6.709  16.629  69.067  1.00  0.00    -0.202 C  
HETATM    6  C   UNK     1      -6.950  14.176  69.269  1.00  0.00    -0.103 C  
HETATM    7  O   UNK     1      -6.214  14.197  70.462  1.00  0.00    -0.249 OA 
HETATM    8  C   UNK     1      -7.641  12.830  69.040  1.00  0.00     0.149 C  
HETATM    9  C   UNK     1      -6.908  17.838  68.230  1.00  0.00    -0.213 A  
HETATM   10  O   UNK     1      -6.113  16.730  70.140  1.00  0.00    -0.203 OA 
HETATM   11  C   UNK     1      -6.247  19.038  68.542  1.00  0.00    -0.225 A  
HETATM   12  O   UNK     1      -8.244  12.611  70.321  1.00  0.00     2.377 OA 
HETATM   13  C   UNK     1      -6.771  11.560  68.559  1.00  0.00    -0.067 C  
HETATM   14  H   UNK     1      -6.016  13.403  70.943  1.00  0.00     0.000 HD 
HETATM   15  C   UNK     1      -7.570  10.398  67.955  1.00  0.00    -0.088 C  
HETATM   16  O   UNK     1      -5.557  11.443  68.702  1.00  0.00    -0.043 OA 
HETATM   17  C   UNK     1      -6.375  20.167  67.731  1.00  0.00    -0.263 A  
HETATM   18  H   UNK     1      -7.573  12.602  70.994  1.00  0.00     0.000 HD 
HETATM   19  O   UNK     1      -5.464  19.202  69.654  1.00  0.00    -0.194 OA 
HETATM   20  H   UNK     1      -9.447  17.348  65.307  1.00  0.00     0.000 HD 
HETATM   21  H   UNK     1      -5.017  20.013  69.865  1.00  0.00     0.000 HD 
HETATM   22  C   UNK     1      -7.172  20.111  66.595  1.00  0.00    -0.296 A  
HETATM   23  C   UNK     1      -8.791  10.403  68.542  1.00  0.00    -0.142 C  
HETATM   24  C   UNK     1      -9.736  11.627  68.161  1.00  0.00    -0.189 C  
HETATM   25  C   UNK     1     -10.041  16.976  67.729  1.00  0.00    -0.302 C  
HETATM   26  O   UNK     1      -9.070  16.513  65.562  1.00  0.00    -0.404 OA 
HETATM   27  O   UNK     1      -8.911   9.976  69.869  1.00  0.00    -0.277 OA 
HETATM   28  C   UNK     1      -7.878  18.944  66.304  1.00  0.00    -0.299 A  
HETATM   29  C   UNK     1      -8.748  16.641  66.955  1.00  0.00    -0.214 C  
HETATM   30  C   UNK     1      -7.787  17.802  67.132  1.00  0.00    -0.229 A  
HETATM   31  H   UNK     1      -9.767   9.979  70.281  1.00  0.00     0.000 HD 
ENDROOT
BRANCH  15  32
HETATM   32  C   UNK     1      -7.772  10.142  66.475  1.00  0.00    -0.108 C  
HETATM   33  H   UNK     1      -6.182  11.306  65.767  1.00  0.00     0.000 HD 
HETATM   34  O   UNK     1      -8.673   9.379  66.108  1.00  0.00    -0.138 OA 
HETATM   35  N   UNK     1      -6.976  10.717  65.518  1.00  0.00    -0.042 N  
BRANCH  35  36
HETATM   36  C   UNK     1      -7.315  10.449  64.138  1.00  0.00     0.013 C  
BRANCH  36  37
HETATM   37  N   UNK     1      -8.389  11.347  63.768  1.00  0.00    -0.025 NA 
HETATM   38  H   UNK     1      -8.131  11.955  62.990  1.00  0.00     0.000 HD 
BRANCH  37  39
HETATM   39  C   UNK     1      -9.612  10.573  63.484  1.00  0.00    -0.326 C  
BRANCH  39  40
HETATM   40  C   UNK     1     -10.848  11.129  64.214  1.00  0.00    -0.354 C  
BRANCH  40  41
HETATM   41  C   UNK     1     -11.195  12.571  63.825  1.00  0.00    -0.524 C  
BRANCH  41  42
HETATM   42  C   UNK     1     -10.901  13.558  64.968  1.00  0.00    -0.348 C  
BRANCH  42  43
HETATM   43  C   UNK     1     -12.069  14.491  65.321  1.00  0.00    -0.337 C  
HETATM   44  C   UNK     1     -12.217  15.607  64.275  1.00  0.00    -0.002 C  
HETATM   45  N   UNK     1     -13.362  13.753  65.418  1.00  0.00    -0.592 NA 
HETATM   46  O   UNK     1     -11.508  16.596  64.197  1.00  0.00    -1.131 OA 
HETATM   47  O   UNK     1     -13.239  15.342  63.419  1.00  0.00     0.569 OA 
HETATM   48  H2  UNK     1     -13.296  12.975  66.075  1.00  0.00     0.000 HD 
HETATM   49  H1  UNK     1     -14.137  14.373  65.653  1.00  0.00     0.000 HD 
ENDBRANCH  42  43
ENDBRANCH  41  42
ENDBRANCH  40  41
ENDBRANCH  39  40
ENDBRANCH  37  39
ENDBRANCH  36  37
ENDBRANCH  35  36
ENDBRANCH  15  32
BRANCH  24  50
HETATM   50  N   UNK     1     -10.871  11.682  69.112  1.00  0.00    -0.211 NA 
HETATM   51  C   UNK     1     -11.105  12.922  69.820  1.00  0.00     0.189 C  
HETATM   52  C   UNK     1     -12.109  11.227  68.468  1.00  0.00    -0.091 C  
ENDBRANCH  24  50
TORSDOF 9
ENDMDL
MODEL      100
REMARK 921   NORMALIZED FREE ENERGY PREDICTED BY IDOCK:   -3.34 KCAL/MOL
REMARK 922        TOTAL FREE ENERGY PREDICTED BY IDOCK:   -6.49 KCAL/MOL
REMARK 923 INTER-LIGAND FREE ENERGY PREDICTED BY IDOCK:   -5.56 KCAL/MOL
REMARK 924 INTRA-LIGAND FREE ENERGY PREDICTED BY IDOCK:   -0.93 KCAL/MOL
REMARK 927      BINDING AFFINITY PREDICTED BY RF-SCORE:    0.00 PKD
ROOT
HETATM    1  C   UNK     1      -9.659  14.182  68.592  1.00  0.00    -0.179 C  
HETATM    2  C   UNK     1      -9.206  12.734  68.577  1.00  0.00    -0.062 C  
HETATM    3  C   UNK     1     -10.378  11.723  68.752  1.00  0.00    -0.198 C  
HETATM    4  C   UNK     1     -11.223  12.083  69.952  1.00  0.00    -0.020 C  
HETATM    5  C   UNK     1     -11.773  10.972  70.805  1.00  0.00    -0.181 C  
HETATM    6  C   UNK     1     -11.432  13.367  70.294  1.00  0.00     0.090 C  
HETATM    7  O   UNK     1     -12.115  13.719  71.467  1.00  0.00    -0.325 OA 
HETATM    8  C   UNK     1     -10.702  14.559  69.672  1.00  0.00    -0.103 C  
HETATM    9  C   UNK     1     -11.656   9.567  70.340  1.00  0.00    -0.268 A  
HETATM   10  O   UNK     1     -12.325  11.207  71.881  1.00  0.00    -0.061 OA 
HETATM   11  C   UNK     1     -12.348   8.538  71.000  1.00  0.00    -0.131 A  
HETATM   12  O   UNK     1     -10.036  15.101  70.818  1.00  0.00    -0.311 OA 
HETATM   13  C   UNK     1     -11.544  15.682  68.878  1.00  0.00    -0.383 C  
HETATM   14  H   UNK     1     -12.263  14.626  71.709  1.00  0.00     0.000 HD 
HETATM   15  C   UNK     1     -10.730  16.586  67.944  1.00  0.00    -0.337 C  
HETATM   16  O   UNK     1     -12.746  15.893  69.019  1.00  0.00     0.332 OA 
HETATM   17  C   UNK     1     -12.297   7.221  70.540  1.00  0.00    -0.055 A  
HETATM   18  H   UNK     1     -10.676  15.332  71.481  1.00  0.00     0.000 HD 
HETATM   19  O   UNK     1     -13.087   8.732  72.137  1.00  0.00    -0.355 OA 
HETATM   20  H   UNK     1      -9.231   9.090  67.320  1.00  0.00     0.000 HD 
HETATM   21  H   UNK     1     -13.554   8.036  72.584  1.00  0.00     0.000 HD 
HETATM   22  C   UNK     1     -11.550   6.915  69.410  1.00  0.00    -0.042 A  
HETATM   23  C   UNK     1      -9.485  16.688  68.469  1.00  0.00    -0.239 C  
HETATM   24  C   UNK     1      -8.605  15.362  68.422  1.00  0.00    -0.162 C  
HETATM   25  C   UNK     1      -8.519  10.101  69.516  1.00  0.00    -0.179 C  
HETATM   26  O   UNK     1      -9.565   9.980  67.339  1.00  0.00    -0.150 OA 
HETATM   27  O   UNK     1      -9.291  17.466  69.616  1.00  0.00     0.330 OA 
HETATM   28  C   UNK     1     -10.814   7.917  68.778  1.00  0.00     0.009 A  
HETATM   29  C   UNK     1      -9.831  10.265  68.720  1.00  0.00    -0.180 C  
HETATM   30  C   UNK     1     -10.826   9.250  69.249  1.00  0.00    -0.170 A  
HETATM   31  H   UNK     1      -8.419  17.538  69.984  1.00  0.00     0.000 HD 
ENDROOT
BRANCH  15  32
HETATM   32  C   UNK     1     -10.583  16.404  66.447  1.00  0.00    -0.236 C  
HETATM   33  H   UNK     1     -12.491  15.628  66.068  1.00  0.00     0.000 HD 
HETATM   34  O   UNK     1      -9.535  16.753  65.892  1.00  0.00    -0.466 OA 
HETATM   35  N   UNK     1     -11.585  15.877  65.672  1.00  0.00     0.281 N  
BRANCH  35  36
HETATM   36  C   UNK     1     -11.296  15.689  64.268  1.00  0.00    -0.171 C  
BRANCH  36  37
HETATM   37  N   UNK     1     -12.405  14.961  63.686  1.00  0.00    -1.053 NA 
HETATM   38  H   UNK     1     -12.364  14.950  62.666  1.00  0.00     0.000 HD 
BRANCH  37  39
HETATM   39  C   UNK     1     -12.461  13.600  64.252  1.00  0.00    -0.248 C  
BRANCH  39  40
HETATM   40  C   UNK     1     -12.820  12.536  63.200  1.00  0.00     0.070 C  
BRANCH  40  41
HETATM   41  C   UNK     1     -11.684  11.548  62.912  1.00  0.00     0.422 C  
BRANCH  41  42
HETATM   42  C   UNK     1     -11.314  10.724  64.157  1.00  0.00     0.930 C  
BRANCH  42  43
HETATM   43  C   UNK     1      -9.805  10.507  64.355  1.00  0.00    -0.341 C  
HETATM   44  C   UNK     1      -9.123  10.153  63.025  1.00  0.00    -0.279 C  
HETATM   45  N   UNK     1      -9.141  11.713  64.927  1.00  0.00    -0.413 NA 
HETATM   46  O   UNK     1      -9.163   9.061  62.482  1.00  0.00    -0.061 OA 
HETATM   47  O   UNK     1      -8.473  11.229  62.507  1.00  0.00    -0.221 OA 
HETATM   48  H2  UNK     1      -9.589  12.008  65.794  1.00  0.00     0.000 HD 
HETATM   49  H1  UNK     1      -8.139  11.569  65.059  1.00  0.00     0.000 HD 
ENDBRANCH  42  43
ENDBRANCH  41  42
ENDBRANCH  40  41
ENDBRANCH  39  40
ENDBRANCH  37  39
ENDBRANCH  36  37
ENDBRANCH  35  36
ENDBRANCH  15  32
BRANCH  24  50
HETATM   50  N   UNK     1      -7.432  15.524  69.313  1.00  0.00    -0.196 NA 
HETATM   51  C   UNK     1      -6.720  14.332  69.721  1.00  0.00    -0.095 C  
HETATM   52  C   UNK     1      -6.493  16.509  68.761  1.00  0.00    -0.152 C  
ENDBRANCH  24  50
TORSDOF 9
ENDMDL
MODEL      101
REMARK 921   NORMALIZED FREE ENERGY PREDICTED BY IDOCK:   -3.19 KCAL/MOL
REMARK 922        TOTAL FREE ENERGY PREDICTED BY IDOCK:   -6.26 KCAL/MOL
REMARK 923 INTER-LIGAND FREE ENERGY PREDICTED BY IDOCK:   -5.42 KCAL/MOL
REMARK 924 INTRA-LIGAND FREE ENERGY PREDICTED BY IDOCK:   -0.84 KCAL/MOL
REMARK 927      BINDING AFFINITY PREDICTED BY RF-SCORE:    0.00 PKD
ROOT
HETATM    1  C   UNK     1     -10.156   6.867  70.761  1.00  0.00    -0.208 C  
HETATM    2  C   UNK     1     -10.283   7.018  69.256  1.00  0.00    -0.193 C  
HETATM    3  C   UNK     1      -8.909   7.064  68.526  1.00  0.00    -0.124 C  
HETATM    4  C   UNK     1      -7.995   8.084  69.165  1.00  0.00    -0.114 C  
HETATM    5  C   UNK     1      -7.100   8.905  68.275  1.00  0.00    -0.078 C  
HETATM    6  C   UNK     1      -8.020   8.306  70.491  1.00  0.00    -0.099 C  
HETATM    7  O   UNK     1      -7.264   9.326  71.085  1.00  0.00    -0.210 OA 
HETATM    8  C   UNK     1      -9.072   7.736  71.444  1.00  0.00    -0.134 C  
HETATM    9  C   UNK     1      -6.979   8.556  66.838  1.00  0.00    -0.074 A  
HETATM   10  O   UNK     1      -6.461   9.860  68.720  1.00  0.00    -0.045 OA 
HETATM   11  C   UNK     1      -5.993   9.159  66.038  1.00  0.00    -0.051 A  
HETATM   12  O   UNK     1      -9.665   8.939  71.948  1.00  0.00    -0.307 OA 
HETATM   13  C   UNK     1      -8.617   6.745  72.633  1.00  0.00    -0.122 C  
HETATM   14  H   UNK     1      -7.282   9.483  72.022  1.00  0.00     0.000 HD 
HETATM   15  C   UNK     1      -9.734   5.901  73.258  1.00  0.00    -0.155 C  
HETATM   16  O   UNK     1      -7.481   6.675  73.095  1.00  0.00    -0.088 OA 
HETATM   17  C   UNK     1      -5.826   8.798  64.701  1.00  0.00    -0.064 A  
HETATM   18  H   UNK     1      -9.000   9.472  72.367  1.00  0.00     0.000 HD 
HETATM   19  O   UNK     1      -5.155  10.145  66.488  1.00  0.00    -0.038 OA 
HETATM   20  H   UNK     1      -9.658   6.009  65.589  1.00  0.00     0.000 HD 
HETATM   21  H   UNK     1      -4.489  10.553  65.947  1.00  0.00     0.000 HD 
HETATM   22  C   UNK     1      -6.646   7.827  64.142  1.00  0.00    -0.057 A  
HETATM   23  C   UNK     1     -10.881   6.614  73.156  1.00  0.00    -0.269 C  
HETATM   24  C   UNK     1     -11.453   6.796  71.681  1.00  0.00    -0.282 C  
HETATM   25  C   UNK     1     -10.243   8.223  66.642  1.00  0.00    -0.333 C  
HETATM   26  O   UNK     1      -9.525   5.916  66.526  1.00  0.00    -0.148 OA 
HETATM   27  O   UNK     1     -11.069   7.726  73.986  1.00  0.00    -0.136 OA 
HETATM   28  C   UNK     1      -7.665   7.261  64.908  1.00  0.00    -0.117 A  
HETATM   29  C   UNK     1      -9.128   7.215  66.991  1.00  0.00    -0.134 C  
HETATM   30  C   UNK     1      -7.872   7.638  66.255  1.00  0.00    -0.091 A  
HETATM   31  H   UNK     1     -11.873   8.226  73.914  1.00  0.00     0.000 HD 
ENDROOT
BRANCH  15  32
HETATM   32  C   UNK     1     -10.055   4.462  72.906  1.00  0.00    -0.163 C  
HETATM   33  H   UNK     1      -8.392   4.091  71.688  1.00  0.00     0.000 HD 
HETATM   34  O   UNK     1     -11.057   3.926  73.394  1.00  0.00    -0.229 OA 
HETATM   35  N   UNK     1      -9.261   3.718  72.071  1.00  0.00    -0.116 N  
BRANCH  35  36
HETATM   36  C   UNK     1      -9.713   2.381  71.758  1.00  0.00    -0.150 C  
BRANCH  36  37
HETATM   37  N   UNK     1      -8.622   1.472  72.040  1.00  0.00    -0.051 NA 
HETATM   38  H   UNK     1      -8.314   0.970  71.207  1.00  0.00     0.000 HD 
BRANCH  37  39
HETATM   39  C   UNK     1      -7.516   2.204  72.685  1.00  0.00    -0.039 C  
BRANCH  39  40
HETATM   40  C   UNK     1      -6.133   1.737  72.197  1.00  0.00    -0.009 C  
BRANCH  40  41
HETATM   41  C   UNK     1      -5.340   2.824  71.463  1.00  0.00    -0.004 C  
BRANCH  41  42
HETATM   42  C   UNK     1      -5.383   2.630  69.937  1.00  0.00    -0.012 C  
BRANCH  42  43
HETATM   43  C   UNK     1      -5.898   3.847  69.153  1.00  0.00    -0.022 C  
HETATM   44  C   UNK     1      -7.312   3.592  68.609  1.00  0.00    -0.050 C  
HETATM   45  N   UNK     1      -5.924   5.079  69.993  1.00  0.00    -0.017 NA 
HETATM   46  O   UNK     1      -7.579   2.908  67.635  1.00  0.00    -0.057 OA 
HETATM   47  O   UNK     1      -8.250   4.216  69.372  1.00  0.00    -0.059 OA 
HETATM   48  H2  UNK     1      -5.011   5.265  70.408  1.00  0.00     0.000 HD 
HETATM   49  H1  UNK     1      -6.266   5.887  69.473  1.00  0.00     0.000 HD 
ENDBRANCH  42  43
ENDBRANCH  41  42
ENDBRANCH  40  41
ENDBRANCH  39  40
ENDBRANCH  37  39
ENDBRANCH  36  37
ENDBRANCH  35  36
ENDBRANCH  15  32
BRANCH  24  50
HETATM   50  N   UNK     1     -12.490   7.854  71.687  1.00  0.00    -0.310 NA 
HETATM   51  C   UNK     1     -12.241   9.054  70.916  1.00  0.00    -0.157 C  
HETATM   52  C   UNK     1     -13.803   7.296  71.340  1.00  0.00    -0.304 C  
ENDBRANCH  24  50
TORSDOF 9
ENDMDL
MODEL      102
REMARK 921   NORMALIZED FREE ENERGY PREDICTED BY IDOCK:   -3.18 KCAL/MOL
REMARK 922        TOTAL FREE ENERGY PREDICTED BY IDOCK:   -6.25 KCAL/MOL
REMARK 923 INTER-LIGAND FREE ENERGY PREDICTED BY IDOCK:   -6.17 KCAL/MOL
REMARK 924 INTRA-LIGAND FREE ENERGY PREDICTED BY IDOCK:   -0.07 KCAL/MOL
REMARK 927      BINDING AFFINITY PREDICTED BY RF-SCORE:    0.00 PKD
ROOT
HETATM    1  C   UNK     1      -8.472   8.817  69.777  1.00  0.00    -0.129 C  
HETATM    2  C   UNK     1      -9.802   9.491  69.492  1.00  0.00    -0.205 C  
HETATM    3  C   UNK     1      -9.718  10.559  68.362  1.00  0.00    -0.166 C  
HETATM    4  C   UNK     1      -8.589  11.529  68.623  1.00  0.00    -0.109 C  
HETATM    5  C   UNK     1      -8.795  12.981  68.283  1.00  0.00    -0.172 C  
HETATM    6  C   UNK     1      -7.445  11.124  69.202  1.00  0.00    -0.109 C  
HETATM    7  O   UNK     1      -6.434  12.029  69.556  1.00  0.00    -0.113 OA 
HETATM    8  C   UNK     1      -7.236   9.747  69.835  1.00  0.00    -0.116 C  
HETATM    9  C   UNK     1      -9.999  13.389  67.518  1.00  0.00    -0.230 A  
HETATM   10  O   UNK     1      -7.978  13.838  68.625  1.00  0.00    -0.138 OA 
HETATM   11  C   UNK     1     -10.107  14.691  67.000  1.00  0.00    -0.249 A  
HETATM   12  O   UNK     1      -6.968  10.109  71.196  1.00  0.00    -0.289 OA 
HETATM   13  C   UNK     1      -6.107   8.761  69.240  1.00  0.00    -0.042 C  
HETATM   14  H   UNK     1      -5.626  11.742  69.967  1.00  0.00     0.000 HD 
HETATM   15  C   UNK     1      -6.243   7.284  69.632  1.00  0.00    -0.031 C  
HETATM   16  O   UNK     1      -5.142   9.118  68.570  1.00  0.00    -0.034 OA 
HETATM   17  C   UNK     1     -11.205  15.074  66.228  1.00  0.00    -0.309 A  
HETATM   18  H   UNK     1      -6.209  10.679  71.231  1.00  0.00     0.000 HD 
HETATM   19  O   UNK     1      -9.182  15.675  67.230  1.00  0.00    -0.198 OA 
HETATM   20  H   UNK     1     -12.728  10.613  67.247  1.00  0.00     0.000 HD 
HETATM   21  H   UNK     1      -9.255  16.555  66.881  1.00  0.00     0.000 HD 
HETATM   22  C   UNK     1     -12.213  14.156  65.962  1.00  0.00    -0.464 A  
HETATM   23  C   UNK     1      -6.830   7.244  70.852  1.00  0.00    -0.052 C  
HETATM   24  C   UNK     1      -8.358   7.692  70.897  1.00  0.00    -0.112 C  
HETATM   25  C   UNK     1     -11.869  11.494  69.447  1.00  0.00    -0.417 C  
HETATM   26  O   UNK     1     -11.872  10.223  67.389  1.00  0.00     0.176 OA 
HETATM   27  O   UNK     1      -6.088   7.617  71.978  1.00  0.00    -0.039 OA 
HETATM   28  C   UNK     1     -12.145  12.878  66.516  1.00  0.00    -0.375 A  
HETATM   29  C   UNK     1     -11.121  11.196  68.130  1.00  0.00    -0.264 C  
HETATM   30  C   UNK     1     -11.059  12.483  67.329  1.00  0.00    -0.319 A  
HETATM   31  H   UNK     1      -6.500   7.590  72.834  1.00  0.00     0.000 HD 
ENDROOT
BRANCH  15  32
HETATM   32  C   UNK     1      -6.874   6.200  68.782  1.00  0.00    -0.066 C  
HETATM   33  H   UNK     1      -5.291   5.938  67.437  1.00  0.00     0.000 HD 
HETATM   34  O   UNK     1      -7.994   5.769  69.080  1.00  0.00    -0.095 OA 
HETATM   35  N   UNK     1      -6.239   5.662  67.692  1.00  0.00    -0.029 N  
BRANCH  35  36
HETATM   36  C   UNK     1      -6.975   4.685  66.922  1.00  0.00    -0.060 C  
BRANCH  36  37
HETATM   37  N   UNK     1      -6.306   3.410  67.074  1.00  0.00    -0.035 NA 
HETATM   38  H   UNK     1      -5.419   3.499  67.572  1.00  0.00     0.000 HD 
BRANCH  37  39
HETATM   39  C   UNK     1      -7.211   2.445  67.726  1.00  0.00    -0.048 C  
BRANCH  39  40
HETATM   40  C   UNK     1      -8.646   2.513  67.172  1.00  0.00    -0.121 C  
BRANCH  40  41
HETATM   41  C   UNK     1      -9.709   2.764  68.247  1.00  0.00     0.062 C  
BRANCH  41  42
HETATM   42  C   UNK     1      -9.398   2.001  69.547  1.00  0.00    -0.160 C  
BRANCH  42  43
HETATM   43  C   UNK     1      -9.471   2.856  70.822  1.00  0.00    -0.153 C  
HETATM   44  C   UNK     1      -9.784   1.986  72.049  1.00  0.00    -0.129 C  
HETATM   45  N   UNK     1      -8.198   3.593  71.070  1.00  0.00    -0.065 NA 
HETATM   46  O   UNK     1     -10.884   1.545  72.336  1.00  0.00    -0.155 OA 
HETATM   47  O   UNK     1      -8.662   1.747  72.778  1.00  0.00    -0.061 OA 
HETATM   48  H2  UNK     1      -7.930   4.154  70.262  1.00  0.00     0.000 HD 
HETATM   49  H1  UNK     1      -8.246   4.160  71.916  1.00  0.00     0.000 HD 
ENDBRANCH  42  43
ENDBRANCH  41  42
ENDBRANCH  40  41
ENDBRANCH  39  40
ENDBRANCH  37  39
ENDBRANCH  36  37
ENDBRANCH  35  36
ENDBRANCH  15  32
BRANCH  24  50
HETATM   50  N   UNK     1      -8.757   7.920  72.306  1.00  0.00    -0.133 NA 
HETATM   51  C   UNK     1     -10.133   8.281  72.572  1.00  0.00    -0.306 C  
HETATM   52  C   UNK     1      -8.362   6.784  73.147  1.00  0.00    -0.114 C  
ENDBRANCH  24  50
TORSDOF 9
ENDMDL
MODEL      103
REMARK 921   NORMALIZED FREE ENERGY PREDICTED BY IDOCK:   -3.17 KCAL/MOL
REMARK 922        TOTAL FREE ENERGY PREDICTED BY IDOCK:   -6.23 KCAL/MOL
REMARK 923 INTER-LIGAND FREE ENERGY PREDICTED BY IDOCK:   -7.12 KCAL/MOL
REMARK 924 INTRA-LIGAND FREE ENERGY PREDICTED BY IDOCK:    0.89 KCAL/MOL
REMARK 927      BINDING AFFINITY PREDICTED BY RF-SCORE:    0.00 PKD
ROOT
HETATM    1  C   UNK     1      -9.048   8.084  68.800  1.00  0.00    -0.144 C  
HETATM    2  C   UNK     1      -8.335   7.734  67.506  1.00  0.00    -0.120 C  
HETATM    3  C   UNK     1      -9.103   6.687  66.647  1.00  0.00    -0.159 C  
HETATM    4  C   UNK     1      -9.480   5.482  67.478  1.00  0.00    -0.123 C  
HETATM    5  C   UNK     1      -9.408   4.119  66.844  1.00  0.00    -0.174 C  
HETATM    6  C   UNK     1      -9.813   5.610  68.775  1.00  0.00    -0.146 C  
HETATM    7  O   UNK     1     -10.053   4.495  69.591  1.00  0.00    -0.221 OA 
HETATM    8  C   UNK     1      -9.652   6.897  69.587  1.00  0.00    -0.146 C  
HETATM    9  C   UNK     1      -9.179   4.004  65.383  1.00  0.00    -0.150 A  
HETATM   10  O   UNK     1      -9.542   3.095  67.516  1.00  0.00    -0.194 OA 
HETATM   11  C   UNK     1      -9.325   2.766  64.733  1.00  0.00    -0.143 A  
HETATM   12  O   UNK     1      -8.731   6.469  70.598  1.00  0.00    -0.141 OA 
HETATM   13  C   UNK     1     -10.955   7.606  70.221  1.00  0.00    -0.252 C  
HETATM   14  H   UNK     1     -10.287   4.586  70.507  1.00  0.00     0.000 HD 
HETATM   15  C   UNK     1     -10.775   9.071  70.640  1.00  0.00    -0.292 C  
HETATM   16  O   UNK     1     -12.025   7.045  70.442  1.00  0.00    -0.289 OA 
HETATM   17  C   UNK     1      -9.173   2.652  63.351  1.00  0.00    -0.096 A  
HETATM   18  H   UNK     1      -9.101   5.740  71.081  1.00  0.00     0.000 HD 
HETATM   19  O   UNK     1      -9.596   1.596  65.391  1.00  0.00    -0.332 OA 
HETATM   20  H   UNK     1      -8.055   7.332  63.683  1.00  0.00     0.000 HD 
HETATM   21  H   UNK     1      -9.694   0.759  64.952  1.00  0.00     0.000 HD 
HETATM   22  C   UNK     1      -8.869   3.778  62.596  1.00  0.00    -0.093 A  
HETATM   23  C   UNK     1      -9.478   9.230  70.997  1.00  0.00    -0.243 C  
HETATM   24  C   UNK     1      -8.420   9.141  69.810  1.00  0.00    -0.139 C  
HETATM   25  C   UNK     1      -6.791   6.255  65.579  1.00  0.00    -0.052 C  
HETATM   26  O   UNK     1      -8.539   7.515  64.480  1.00  0.00     0.075 OA 
HETATM   27  O   UNK     1      -9.032   8.686  72.206  1.00  0.00    -0.282 OA 
HETATM   28  C   UNK     1      -8.665   5.001  63.235  1.00  0.00    -0.080 A  
HETATM   29  C   UNK     1      -8.310   6.388  65.340  1.00  0.00    -0.141 C  
HETATM   30  C   UNK     1      -8.782   5.130  64.637  1.00  0.00    -0.120 A  
HETATM   31  H   UNK     1      -8.122   8.798  72.457  1.00  0.00     0.000 HD 
ENDROOT
BRANCH  15  32
HETATM   32  C   UNK     1     -11.178  10.279  69.819  1.00  0.00    -0.282 C  
HETATM   33  H   UNK     1     -10.652   9.529  67.936  1.00  0.00     0.000 HD 
HETATM   34  O   UNK     1     -11.688  11.254  70.383  1.00  0.00    -0.328 OA 
HETATM   35  N   UNK     1     -11.012  10.327  68.458  1.00  0.00    -0.242 N  
BRANCH  35  36
HETATM   36  C   UNK     1     -11.370  11.563  67.799  1.00  0.00    -0.296 C  
BRANCH  36  37
HETATM   37  N   UNK     1     -10.613  12.628  68.422  1.00  0.00    -0.238 NA 
HETATM   38  H   UNK     1     -10.152  12.322  69.279  1.00  0.00     0.000 HD 
BRANCH  37  39
HETATM   39  C   UNK     1      -9.657  13.195  67.452  1.00  0.00    -0.219 C  
BRANCH  39  40
HETATM   40  C   UNK     1      -9.410  14.698  67.673  1.00  0.00    -0.200 C  
BRANCH  40  41
HETATM   41  C   UNK     1      -8.032  15.172  67.199  1.00  0.00    -0.248 C  
BRANCH  41  42
HETATM   42  C   UNK     1      -6.935  14.136  67.505  1.00  0.00    -0.173 C  
BRANCH  42  43
HETATM   43  C   UNK     1      -5.744  14.685  68.305  1.00  0.00    -0.117 C  
HETATM   44  C   UNK     1      -6.103  16.017  68.982  1.00  0.00    -0.128 C  
HETATM   45  N   UNK     1      -5.287  13.725  69.351  1.00  0.00    -0.082 NA 
HETATM   46  O   UNK     1      -6.167  17.098  68.419  1.00  0.00    -0.142 OA 
HETATM   47  O   UNK     1      -6.368  15.838  70.303  1.00  0.00    -0.093 OA 
HETATM   48  H2  UNK     1      -5.075  12.812  68.949  1.00  0.00     0.000 HD 
HETATM   49  H1  UNK     1      -4.496  14.090  69.882  1.00  0.00     0.000 HD 
ENDBRANCH  42  43
ENDBRANCH  41  42
ENDBRANCH  40  41
ENDBRANCH  39  40
ENDBRANCH  37  39
ENDBRANCH  36  37
ENDBRANCH  35  36
ENDBRANCH  15  32
BRANCH  24  50
HETATM   50  N   UNK     1      -7.060   8.995  70.380  1.00  0.00    -0.056 NA 
HETATM   51  C   UNK     1      -6.476   7.672  70.413  1.00  0.00    -0.038 C  
HETATM   52  C   UNK     1      -6.130   9.941  69.750  1.00  0.00    -0.045 C  
ENDBRANCH  24  50
TORSDOF 9
ENDMDL
MODEL      104
REMARK 921   NORMALIZED FREE ENERGY PREDICTED BY IDOCK:   -3.17 KCAL/MOL
REMARK 922        TOTAL FREE ENERGY PREDICTED BY IDOCK:   -6.23 KCAL/MOL
REMARK 923 INTER-LIGAND FREE ENERGY PREDICTED BY IDOCK:   -8.81 KCAL/MOL
REMARK 924 INTRA-LIGAND FREE ENERGY PREDICTED BY IDOCK:    2.58 KCAL/MOL
REMARK 927      BINDING AFFINITY PREDICTED BY RF-SCORE:    0.00 PKD
ROOT
HETATM    1  C   UNK     1      -9.515  12.595  66.701  1.00  0.00    -0.244 C  
HETATM    2  C   UNK     1      -8.714  13.751  67.270  1.00  0.00    -0.226 C  
HETATM    3  C   UNK     1      -9.552  15.052  67.442  1.00  0.00    -0.205 C  
HETATM    4  C   UNK     1     -10.285  15.392  66.164  1.00  0.00    -0.324 C  
HETATM    5  C   UNK     1     -10.408  16.838  65.768  1.00  0.00    -0.305 C  
HETATM    6  C   UNK     1     -10.765  14.426  65.362  1.00  0.00    -0.348 C  
HETATM    7  O   UNK     1     -11.345  14.716  64.119  1.00  0.00    -0.618 OA 
HETATM    8  C   UNK     1     -10.458  12.935  65.522  1.00  0.00    -0.289 C  
HETATM    9  C   UNK     1     -10.001  17.896  66.726  1.00  0.00    -0.339 A  
HETATM   10  O   UNK     1     -10.845  17.162  64.662  1.00  0.00    -0.852 OA 
HETATM   11  C   UNK     1     -10.307  19.244  66.472  1.00  0.00    -0.450 A  
HETATM   12  O   UNK     1      -9.799  12.656  64.280  1.00  0.00    -0.573 OA 
HETATM   13  C   UNK     1     -11.663  11.901  65.810  1.00  0.00    -0.139 C  
HETATM   14  H   UNK     1     -11.684  14.034  63.551  1.00  0.00     0.000 HD 
HETATM   15  C   UNK     1     -11.245  10.535  66.369  1.00  0.00     0.270 C  
HETATM   16  O   UNK     1     -12.846  12.110  65.556  1.00  0.00    -0.099 OA 
HETATM   17  C   UNK     1      -9.986  20.244  67.391  1.00  0.00    -0.567 A  
HETATM   18  H   UNK     1     -10.378  12.865  63.557  1.00  0.00     0.000 HD 
HETATM   19  O   UNK     1     -10.905  19.679  65.319  1.00  0.00    -0.407 OA 
HETATM   20  H   UNK     1      -7.981  16.573  69.792  1.00  0.00     0.000 HD 
HETATM   21  H   UNK     1     -11.112  20.590  65.147  1.00  0.00     0.000 HD 
HETATM   22  C   UNK     1      -9.351  19.909  68.579  1.00  0.00    -0.300 A  
HETATM   23  C   UNK     1     -10.007  10.266  65.888  1.00  0.00    -0.256 C  
HETATM   24  C   UNK     1      -8.832  11.178  66.457  1.00  0.00    -0.171 C  
HETATM   25  C   UNK     1      -7.252  16.227  67.404  1.00  0.00    -0.200 C  
HETATM   26  O   UNK     1      -8.526  15.883  69.430  1.00  0.00    -0.255 OA 
HETATM   27  O   UNK     1      -9.860   9.914  64.542  1.00  0.00    -0.395 OA 
HETATM   28  C   UNK     1      -8.992  18.583  68.819  1.00  0.00    -0.268 A  
HETATM   29  C   UNK     1      -8.660  16.184  68.033  1.00  0.00    -0.171 C  
HETATM   30  C   UNK     1      -9.278  17.561  67.885  1.00  0.00    -0.265 A  
HETATM   31  H   UNK     1      -8.992   9.725  64.205  1.00  0.00     0.000 HD 
ENDROOT
BRANCH  15  32
HETATM   32  C   UNK     1     -11.267  10.136  67.830  1.00  0.00    -0.133 C  
HETATM   33  H   UNK     1     -10.209   8.338  67.648  1.00  0.00     0.000 HD 
HETATM   34  O   UNK     1     -11.793  10.888  68.658  1.00  0.00    -0.417 OA 
HETATM   35  N   UNK     1     -10.707   8.966  68.278  1.00  0.00    -0.139 N  
BRANCH  35  36
HETATM   36  C   UNK     1     -10.857   8.665  69.684  1.00  0.00    -0.157 C  
BRANCH  36  37
HETATM   37  N   UNK     1     -10.490   7.278  69.877  1.00  0.00    -0.220 NA 
HETATM   38  H   UNK     1     -11.137   6.793  70.499  1.00  0.00     0.000 HD 
BRANCH  37  39
HETATM   39  C   UNK     1     -10.370   6.606  68.569  1.00  0.00    -0.192 C  
BRANCH  39  40
HETATM   40  C   UNK     1      -8.912   6.507  68.087  1.00  0.00    -0.116 C  
BRANCH  40  41
HETATM   41  C   UNK     1      -8.201   7.861  67.993  1.00  0.00    -0.127 C  
BRANCH  41  42
HETATM   42  C   UNK     1      -6.791   7.811  68.607  1.00  0.00    -0.062 C  
BRANCH  42  43
HETATM   43  C   UNK     1      -6.557   8.811  69.750  1.00  0.00    -0.041 C  
HETATM   44  C   UNK     1      -6.458  10.247  69.213  1.00  0.00    -0.049 C  
HETATM   45  N   UNK     1      -7.645   8.755  70.769  1.00  0.00    -0.082 NA 
HETATM   46  O   UNK     1      -5.484  10.724  68.655  1.00  0.00    -0.041 OA 
HETATM   47  O   UNK     1      -7.617  10.927  69.419  1.00  0.00    -0.142 OA 
HETATM   48  H2  UNK     1      -7.772   7.808  71.125  1.00  0.00     0.000 HD 
HETATM   49  H1  UNK     1      -7.489   9.419  71.528  1.00  0.00     0.000 HD 
ENDBRANCH  42  43
ENDBRANCH  41  42
ENDBRANCH  40  41
ENDBRANCH  39  40
ENDBRANCH  37  39
ENDBRANCH  36  37
ENDBRANCH  35  36
ENDBRANCH  15  32
BRANCH  24  50
HETATM   50  N   UNK     1      -7.627  11.004  65.612  1.00  0.00     0.031 NA 
HETATM   51  C   UNK     1      -6.937   9.734  65.668  1.00  0.00    -0.101 C  
HETATM   52  C   UNK     1      -7.916  11.361  64.218  1.00  0.00     1.175 C  
ENDBRANCH  24  50
TORSDOF 9
ENDMDL
MODEL      105
REMARK 921   NORMALIZED FREE ENERGY PREDICTED BY IDOCK:   -3.13 KCAL/MOL
REMARK 922        TOTAL FREE ENERGY PREDICTED BY IDOCK:   -6.17 KCAL/MOL
REMARK 923 INTER-LIGAND FREE ENERGY PREDICTED BY IDOCK:   -8.51 KCAL/MOL
REMARK 924 INTRA-LIGAND FREE ENERGY PREDICTED BY IDOCK:    2.34 KCAL/MOL
REMARK 927      BINDING AFFINITY PREDICTED BY RF-SCORE:    0.00 PKD
ROOT
HETATM    1  C   UNK     1      -9.984  14.318  68.312  1.00  0.00    -0.239 C  
HETATM    2  C   UNK     1      -8.840  13.334  68.473  1.00  0.00    -0.055 C  
HETATM    3  C   UNK     1      -8.404  12.675  67.131  1.00  0.00    -0.172 C  
HETATM    4  C   UNK     1      -9.597  12.106  66.399  1.00  0.00    -0.243 C  
HETATM    5  C   UNK     1      -9.436  10.803  65.662  1.00  0.00    -0.209 C  
HETATM    6  C   UNK     1     -10.797  12.710  66.452  1.00  0.00    -0.269 C  
HETATM    7  O   UNK     1     -11.941  12.138  65.876  1.00  0.00    -0.561 OA 
HETATM    8  C   UNK     1     -11.141  13.872  67.386  1.00  0.00    -0.298 C  
HETATM    9  C   UNK     1      -8.081  10.223  65.493  1.00  0.00    -0.156 A  
HETATM   10  O   UNK     1     -10.409  10.212  65.190  1.00  0.00    -0.257 OA 
HETATM   11  C   UNK     1      -7.874   9.133  64.629  1.00  0.00    -0.118 A  
HETATM   12  O   UNK     1     -12.190  13.292  68.170  1.00  0.00    -0.266 OA 
HETATM   13  C   UNK     1     -11.573  15.295  66.761  1.00  0.00    -0.051 C  
HETATM   14  H   UNK     1     -12.789  12.565  65.914  1.00  0.00     0.000 HD 
HETATM   15  C   UNK     1     -11.486  16.493  67.716  1.00  0.00     0.132 C  
HETATM   16  O   UNK     1     -12.014  15.462  65.627  1.00  0.00     0.123 OA 
HETATM   17  C   UNK     1      -6.598   8.614  64.412  1.00  0.00    -0.070 A  
HETATM   18  H   UNK     1     -12.900  13.018  67.603  1.00  0.00     0.000 HD 
HETATM   19  O   UNK     1      -8.888   8.492  63.967  1.00  0.00    -0.414 OA 
HETATM   20  H   UNK     1      -5.344  11.901  67.711  1.00  0.00     0.000 HD 
HETATM   21  H   UNK     1      -8.749   7.756  63.383  1.00  0.00     0.000 HD 
HETATM   22  C   UNK     1      -5.506   9.177  65.061  1.00  0.00    -0.046 A  
HETATM   23  C   UNK     1     -11.710  16.026  68.967  1.00  0.00    -0.318 C  
HETATM   24  C   UNK     1     -10.566  15.097  69.572  1.00  0.00    -0.270 C  
HETATM   25  C   UNK     1      -7.423  10.834  68.655  1.00  0.00    -0.102 C  
HETATM   26  O   UNK     1      -6.061  12.504  67.558  1.00  0.00    -0.126 OA 
HETATM   27  O   UNK     1     -13.007  15.652  69.334  1.00  0.00    -0.292 OA 
HETATM   28  C   UNK     1      -5.704  10.221  65.963  1.00  0.00    -0.080 A  
HETATM   29  C   UNK     1      -7.228  11.685  67.383  1.00  0.00    -0.128 C  
HETATM   30  C   UNK     1      -6.993  10.739  66.222  1.00  0.00    -0.134 A  
HETATM   31  H   UNK     1     -13.163  15.325  70.212  1.00  0.00     0.000 HD 
ENDROOT
BRANCH  15  32
HETATM   32  C   UNK     1     -10.339  17.480  67.791  1.00  0.00    -0.367 C  
HETATM   33  H   UNK     1     -10.618  18.381  65.921  1.00  0.00     0.000 HD 
HETATM   34  O   UNK     1      -9.647  17.531  68.814  1.00  0.00    -0.291 OA 
HETATM   35  N   UNK     1     -10.044  18.339  66.763  1.00  0.00    -0.344 N  
BRANCH  35  36
HETATM   36  C   UNK     1      -8.882  19.182  66.928  1.00  0.00    -0.305 C  
BRANCH  36  37
HETATM   37  N   UNK     1      -8.519  19.691  65.621  1.00  0.00    -0.311 NA 
HETATM   38  H   UNK     1      -9.088  20.493  65.350  1.00  0.00     0.000 HD 
BRANCH  37  39
HETATM   39  C   UNK     1      -7.077  19.997  65.587  1.00  0.00    -0.315 C  
BRANCH  39  40
HETATM   40  C   UNK     1      -6.325  19.441  66.809  1.00  0.00    -0.186 C  
BRANCH  40  41
HETATM   41  C   UNK     1      -5.863  17.989  66.640  1.00  0.00    -0.192 C  
BRANCH  41  42
HETATM   42  C   UNK     1      -5.132  17.472  67.891  1.00  0.00    -0.130 C  
BRANCH  42  43
HETATM   43  C   UNK     1      -5.874  17.722  69.213  1.00  0.00    -0.221 C  
HETATM   44  C   UNK     1      -6.074  16.410  69.988  1.00  0.00    -0.151 C  
HETATM   45  N   UNK     1      -5.145  18.687  70.086  1.00  0.00    -0.192 NA 
HETATM   46  O   UNK     1      -6.911  15.561  69.730  1.00  0.00    -0.178 OA 
HETATM   47  O   UNK     1      -5.174  16.299  71.001  1.00  0.00    -0.172 OA 
HETATM   48  H2  UNK     1      -4.956  19.561  69.596  1.00  0.00     0.000 HD 
HETATM   49  H1  UNK     1      -5.638  18.853  70.964  1.00  0.00     0.000 HD 
ENDBRANCH  42  43
ENDBRANCH  41  42
ENDBRANCH  40  41
ENDBRANCH  39  40
ENDBRANCH  37  39
ENDBRANCH  36  37
ENDBRANCH  35  36
ENDBRANCH  15  32
BRANCH  24  50
HETATM   50  N   UNK     1     -11.086  14.402  70.773  1.00  0.00     0.122 NA 
HETATM   51  C   UNK     1     -11.349  15.194  71.955  1.00  0.00    -0.300 C  
HETATM   52  C   UNK     1     -12.265  13.595  70.435  1.00  0.00    -0.363 C  
ENDBRANCH  24  50
TORSDOF 9
ENDMDL
MODEL      106
REMARK 921   NORMALIZED FREE ENERGY PREDICTED BY IDOCK:   -3.09 KCAL/MOL
REMARK 922        TOTAL FREE ENERGY PREDICTED BY IDOCK:   -6.11 KCAL/MOL
REMARK 923 INTER-LIGAND FREE ENERGY PREDICTED BY IDOCK:   -6.06 KCAL/MOL
REMARK 924 INTRA-LIGAND FREE ENERGY PREDICTED BY IDOCK:   -0.05 KCAL/MOL
REMARK 927      BINDING AFFINITY PREDICTED BY RF-SCORE:    0.00 PKD
ROOT
HETATM    1  C   UNK     1      -9.311   7.283  69.514  1.00  0.00    -0.152 C  
HETATM    2  C   UNK     1      -9.597   5.832  69.855  1.00  0.00    -0.201 C  
HETATM    3  C   UNK     1      -9.069   5.417  71.260  1.00  0.00    -0.162 C  
HETATM    4  C   UNK     1      -7.618   5.805  71.426  1.00  0.00    -0.105 C  
HETATM    5  C   UNK     1      -6.703   4.871  72.171  1.00  0.00    -0.051 C  
HETATM    6  C   UNK     1      -7.132   6.929  70.869  1.00  0.00    -0.068 C  
HETATM    7  O   UNK     1      -5.768   7.247  70.914  1.00  0.00    -0.027 OA 
HETATM    8  C   UNK     1      -7.896   7.800  69.869  1.00  0.00    -0.105 C  
HETATM    9  C   UNK     1      -7.277   3.711  72.898  1.00  0.00    -0.054 A  
HETATM   10  O   UNK     1      -5.485   5.054  72.193  1.00  0.00    -0.007 OA 
HETATM   11  C   UNK     1      -6.481   2.955  73.775  1.00  0.00    -0.024 A  
HETATM   12  O   UNK     1      -7.045   7.708  68.720  1.00  0.00    -0.075 OA 
HETATM   13  C   UNK     1      -8.237   9.331  70.245  1.00  0.00    -0.172 C  
HETATM   14  H   UNK     1      -5.425   8.041  70.520  1.00  0.00     0.000 HD 
HETATM   15  C   UNK     1      -9.340   9.990  69.409  1.00  0.00    -0.237 C  
HETATM   16  O   UNK     1      -7.642   9.999  71.088  1.00  0.00    -0.072 OA 
HETATM   17  C   UNK     1      -7.020   1.900  74.512  1.00  0.00    -0.027 A  
HETATM   18  H   UNK     1      -6.177   8.025  68.938  1.00  0.00     0.000 HD 
HETATM   19  O   UNK     1      -5.140   3.170  73.953  1.00  0.00     0.000 OA 
HETATM   20  H   UNK     1     -11.009   2.977  72.026  1.00  0.00     0.000 HD 
HETATM   21  H   UNK     1      -4.602   2.658  74.546  1.00  0.00     0.000 HD 
HETATM   22  C   UNK     1      -8.365   1.583  74.380  1.00  0.00    -0.049 A  
HETATM   23  C   UNK     1      -9.311   9.416  68.182  1.00  0.00    -0.133 C  
HETATM   24  C   UNK     1      -9.778   7.895  68.121  1.00  0.00    -0.159 C  
HETATM   25  C   UNK     1      -9.171   3.020  70.302  1.00  0.00    -0.213 C  
HETATM   26  O   UNK     1     -10.804   3.890  71.860  1.00  0.00     0.241 OA 
HETATM   27  O   UNK     1      -8.267   9.732  67.305  1.00  0.00    -0.116 OA 
HETATM   28  C   UNK     1      -9.153   2.289  73.471  1.00  0.00    -0.082 A  
HETATM   29  C   UNK     1      -9.406   3.920  71.533  1.00  0.00    -0.136 C  
HETATM   30  C   UNK     1      -8.618   3.339  72.691  1.00  0.00    -0.090 A  
HETATM   31  H   UNK     1      -8.247   9.330  66.445  1.00  0.00     0.000 HD 
ENDROOT
BRANCH  15  32
HETATM   32  C   UNK     1     -10.793  10.130  69.817  1.00  0.00    -0.279 C  
HETATM   33  H   UNK     1     -10.473  10.884  71.744  1.00  0.00     0.000 HD 
HETATM   34  O   UNK     1     -11.682   9.845  69.006  1.00  0.00     0.053 OA 
HETATM   35  N   UNK     1     -11.164  10.579  71.059  1.00  0.00    -0.045 N  
BRANCH  35  36
HETATM   36  C   UNK     1     -12.580  10.600  71.350  1.00  0.00    -0.421 C  
BRANCH  36  37
HETATM   37  N   UNK     1     -13.110  11.855  70.859  1.00  0.00     0.017 NA 
HETATM   38  H   UNK     1     -13.999  11.732  70.373  1.00  0.00     0.000 HD 
BRANCH  37  39
HETATM   39  C   UNK     1     -13.214  12.822  71.968  1.00  0.00    -0.436 C  
BRANCH  39  40
HETATM   40  C   UNK     1     -12.237  14.002  71.817  1.00  0.00    -0.170 C  
BRANCH  40  41
HETATM   41  C   UNK     1     -12.881  15.262  71.227  1.00  0.00    -0.494 C  
BRANCH  41  42
HETATM   42  C   UNK     1     -12.277  15.626  69.860  1.00  0.00    -0.317 C  
BRANCH  42  43
HETATM   43  C   UNK     1     -11.201  14.651  69.357  1.00  0.00    -0.279 C  
HETATM   44  C   UNK     1     -11.252  14.517  67.827  1.00  0.00    -0.298 C  
HETATM   45  N   UNK     1      -9.830  15.083  69.754  1.00  0.00    -0.459 NA 
HETATM   46  O   UNK     1     -12.073  13.864  67.205  1.00  0.00    -0.407 OA 
HETATM   47  O   UNK     1     -10.267  15.247  67.239  1.00  0.00    -0.243 OA 
HETATM   48  H2  UNK     1      -9.762  15.222  70.762  1.00  0.00     0.000 HD 
HETATM   49  H1  UNK     1      -9.116  14.435  69.420  1.00  0.00     0.000 HD 
ENDBRANCH  42  43
ENDBRANCH  41  42
ENDBRANCH  40  41
ENDBRANCH  39  40
ENDBRANCH  37  39
ENDBRANCH  36  37
ENDBRANCH  35  36
ENDBRANCH  15  32
BRANCH  24  50
HETATM   50  N   UNK     1      -9.379   7.315  66.817  1.00  0.00    -0.156 NA 
HETATM   51  C   UNK     1      -9.782   5.955  66.527  1.00  0.00    -0.155 C  
HETATM   52  C   UNK     1      -9.769   8.202  65.714  1.00  0.00     0.302 C  
ENDBRANCH  24  50
TORSDOF 9
ENDMDL
MODEL      107
REMARK 921   NORMALIZED FREE ENERGY PREDICTED BY IDOCK:   -3.08 KCAL/MOL
REMARK 922        TOTAL FREE ENERGY PREDICTED BY IDOCK:   -6.09 KCAL/MOL
REMARK 923 INTER-LIGAND FREE ENERGY PREDICTED BY IDOCK:   -7.80 KCAL/MOL
REMARK 924 INTRA-LIGAND FREE ENERGY PREDICTED BY IDOCK:    1.72 KCAL/MOL
REMARK 927      BINDING AFFINITY PREDICTED BY RF-SCORE:    0.00 PKD
ROOT
HETATM    1  C   UNK     1      -9.532  13.324  66.791  1.00  0.00    -0.257 C  
HETATM    2  C   UNK     1      -8.394  14.315  66.627  1.00  0.00     0.171 C  
HETATM    3  C   UNK     1      -8.257  15.296  67.828  1.00  0.00    -0.157 C  
HETATM    4  C   UNK     1      -9.585  15.943  68.147  1.00  0.00    -0.208 C  
HETATM    5  C   UNK     1      -9.599  17.390  68.563  1.00  0.00    -0.298 C  
HETATM    6  C   UNK     1     -10.739  15.268  68.004  1.00  0.00    -0.268 C  
HETATM    7  O   UNK     1     -11.985  15.885  68.183  1.00  0.00    -0.306 OA 
HETATM    8  C   UNK     1     -10.864  13.900  67.330  1.00  0.00    -0.286 C  
HETATM    9  C   UNK     1      -8.317  18.079  68.853  1.00  0.00    -0.137 A  
HETATM   10  O   UNK     1     -10.657  18.012  68.673  1.00  0.00    -0.283 OA 
HETATM   11  C   UNK     1      -8.311  19.351  69.450  1.00  0.00     0.113 A  
HETATM   12  O   UNK     1     -11.734  14.212  66.235  1.00  0.00    -0.359 OA 
HETATM   13  C   UNK     1     -11.398  12.638  68.182  1.00  0.00    -0.290 C  
HETATM   14  H   UNK     1     -12.801  15.408  68.082  1.00  0.00     0.000 HD 
HETATM   15  C   UNK     1     -11.096  11.258  67.584  1.00  0.00    -0.336 C  
HETATM   16  O   UNK     1     -12.064  12.715  69.211  1.00  0.00    -0.259 OA 
HETATM   17  C   UNK     1      -7.116  19.988  69.785  1.00  0.00    -0.044 A  
HETATM   18  H   UNK     1     -12.551  14.566  66.566  1.00  0.00     0.000 HD 
HETATM   19  O   UNK     1      -9.450  20.064  69.721  1.00  0.00     0.146 OA 
HETATM   20  H   UNK     1      -5.154  16.106  67.700  1.00  0.00     0.000 HD 
HETATM   21  H   UNK     1      -9.446  20.924  70.124  1.00  0.00     0.000 HD 
HETATM   22  C   UNK     1      -5.905  19.359  69.524  1.00  0.00    -0.273 A  
HETATM   23  C   UNK     1     -11.059  11.404  66.238  1.00  0.00    -0.221 C  
HETATM   24  C   UNK     1      -9.827  12.236  65.667  1.00  0.00    -0.231 C  
HETATM   25  C   UNK     1      -7.005  16.787  66.130  1.00  0.00     0.130 C  
HETATM   26  O   UNK     1      -5.880  15.511  67.849  1.00  0.00    -0.127 OA 
HETATM   27  O   UNK     1     -12.257  11.598  65.539  1.00  0.00    -0.127 OA 
HETATM   28  C   UNK     1      -5.895  18.122  68.880  1.00  0.00    -0.206 A  
HETATM   29  C   UNK     1      -7.068  16.272  67.584  1.00  0.00    -0.141 C  
HETATM   30  C   UNK     1      -7.095  17.477  68.503  1.00  0.00    -0.226 A  
HETATM   31  H   UNK     1     -12.230  11.700  64.595  1.00  0.00     0.000 HD 
ENDROOT
BRANCH  15  32
HETATM   32  C   UNK     1      -9.945  10.357  67.981  1.00  0.00    -0.155 C  
HETATM   33  H   UNK     1     -10.215   8.890  66.510  1.00  0.00     0.000 HD 
HETATM   34  O   UNK     1      -9.208  10.688  68.916  1.00  0.00    -0.172 OA 
HETATM   35  N   UNK     1      -9.676   9.182  67.326  1.00  0.00    -0.163 N  
BRANCH  35  36
HETATM   36  C   UNK     1      -8.594   8.376  67.845  1.00  0.00    -0.131 C  
BRANCH  36  37
HETATM   37  N   UNK     1      -9.010   7.860  69.133  1.00  0.00    -0.145 NA 
HETATM   38  H   UNK     1      -9.929   8.209  69.407  1.00  0.00     0.000 HD 
BRANCH  37  39
HETATM   39  C   UNK     1      -8.956   6.386  69.121  1.00  0.00    -0.129 C  
BRANCH  39  40
HETATM   40  C   UNK     1     -10.299   5.743  69.512  1.00  0.00    -0.333 C  
BRANCH  40  41
HETATM   41  C   UNK     1     -10.736   6.053  70.948  1.00  0.00    -0.329 C  
BRANCH  41  42
HETATM   42  C   UNK     1      -9.561   5.950  71.937  1.00  0.00    -0.169 C  
BRANCH  42  43
HETATM   43  C   UNK     1      -9.913   5.293  73.280  1.00  0.00    -0.165 C  
HETATM   44  C   UNK     1      -9.768   3.766  73.201  1.00  0.00    -0.120 C  
HETATM   45  N   UNK     1      -9.052   5.799  74.389  1.00  0.00    -0.122 NA 
HETATM   46  O   UNK     1     -10.566   3.010  72.673  1.00  0.00    -0.132 OA 
HETATM   47  O   UNK     1      -8.610   3.354  73.782  1.00  0.00    -0.081 OA 
HETATM   48  H2  UNK     1      -9.088   6.816  74.452  1.00  0.00     0.000 HD 
HETATM   49  H1  UNK     1      -9.287   5.363  75.281  1.00  0.00     0.000 HD 
ENDBRANCH  42  43
ENDBRANCH  41  42
ENDBRANCH  40  41
ENDBRANCH  39  40
ENDBRANCH  37  39
ENDBRANCH  36  37
ENDBRANCH  35  36
ENDBRANCH  15  32
BRANCH  24  50
HETATM   50  N   UNK     1     -10.095  12.595  64.254  1.00  0.00    -0.307 NA 
HETATM   51  C   UNK     1      -9.552  11.739  63.222  1.00  0.00    -0.256 C  
HETATM   52  C   UNK     1     -11.531  12.802  64.035  1.00  0.00    -0.417 C  
ENDBRANCH  24  50
TORSDOF 9
ENDMDL
MODEL      108
REMARK 921   NORMALIZED FREE ENERGY PREDICTED BY IDOCK:   -3.01 KCAL/MOL
REMARK 922        TOTAL FREE ENERGY PREDICTED BY IDOCK:   -5.99 KCAL/MOL
REMARK 923 INTER-LIGAND FREE ENERGY PREDICTED BY IDOCK:   -5.48 KCAL/MOL
REMARK 924 INTRA-LIGAND FREE ENERGY PREDICTED BY IDOCK:   -0.50 KCAL/MOL
REMARK 927      BINDING AFFINITY PREDICTED BY RF-SCORE:    0.00 PKD
ROOT
HETATM    1  C   UNK     1     -10.138   8.382  69.399  1.00  0.00    -0.198 C  
HETATM    2  C   UNK     1      -9.828   9.318  68.246  1.00  0.00    -0.179 C  
HETATM    3  C   UNK     1      -9.857  10.822  68.651  1.00  0.00    -0.187 C  
HETATM    4  C   UNK     1     -11.138  11.157  69.379  1.00  0.00    -0.314 C  
HETATM    5  C   UNK     1     -11.786  12.491  69.118  1.00  0.00    -0.321 C  
HETATM    6  C   UNK     1     -11.727  10.266  70.195  1.00  0.00    -0.284 C  
HETATM    7  O   UNK     1     -12.974  10.515  70.787  1.00  0.00    -0.370 OA 
HETATM    8  C   UNK     1     -11.313   8.798  70.317  1.00  0.00    -0.147 C  
HETATM    9  C   UNK     1     -11.057  13.516  68.330  1.00  0.00    -0.298 A  
HETATM   10  O   UNK     1     -12.910  12.750  69.552  1.00  0.00     0.499 OA 
HETATM   11  C   UNK     1     -11.538  14.834  68.258  1.00  0.00    -0.323 A  
HETATM   12  O   UNK     1     -12.513   8.139  69.894  1.00  0.00     0.439 OA 
HETATM   13  C   UNK     1     -10.784   8.235  71.733  1.00  0.00    -0.266 C  
HETATM   14  H   UNK     1     -13.390   9.885  71.364  1.00  0.00     0.000 HD 
HETATM   15  C   UNK     1     -10.006   6.915  71.673  1.00  0.00    -0.180 C  
HETATM   16  O   UNK     1     -11.014   8.748  72.825  1.00  0.00    -0.038 OA 
HETATM   17  C   UNK     1     -10.833  15.825  67.572  1.00  0.00    -0.315 A  
HETATM   18  H   UNK     1     -13.234   8.394  70.457  1.00  0.00     0.000 HD 
HETATM   19  O   UNK     1     -12.721  15.239  68.817  1.00  0.00    -0.289 OA 
HETATM   20  H   UNK     1      -7.902  12.153  66.482  1.00  0.00     0.000 HD 
HETATM   21  H   UNK     1     -13.046  16.130  68.768  1.00  0.00     0.000 HD 
HETATM   22  C   UNK     1      -9.635  15.508  66.945  1.00  0.00    -0.241 A  
HETATM   23  C   UNK     1     -10.488   6.212  70.621  1.00  0.00    -0.236 C  
HETATM   24  C   UNK     1     -10.151   6.806  69.182  1.00  0.00    -0.171 C  
HETATM   25  C   UNK     1     -10.218  11.226  66.125  1.00  0.00    -0.291 C  
HETATM   26  O   UNK     1      -8.104  11.611  67.236  1.00  0.00    -0.144 OA 
HETATM   27  O   UNK     1     -11.753   5.621  70.717  1.00  0.00     0.207 OA 
HETATM   28  C   UNK     1      -9.175  14.192  66.961  1.00  0.00    -0.249 A  
HETATM   29  C   UNK     1      -9.525  11.711  67.416  1.00  0.00    -0.167 C  
HETATM   30  C   UNK     1      -9.892  13.168  67.622  1.00  0.00    -0.219 A  
HETATM   31  H   UNK     1     -12.091   5.128  69.979  1.00  0.00     0.000 HD 
ENDROOT
BRANCH  15  32
HETATM   32  C   UNK     1      -8.497   6.780  71.664  1.00  0.00    -0.115 C  
HETATM   33  H   UNK     1      -8.396   4.780  71.049  1.00  0.00     0.000 HD 
HETATM   34  O   UNK     1      -7.797   7.760  71.941  1.00  0.00    -0.086 OA 
HETATM   35  N   UNK     1      -7.869   5.603  71.342  1.00  0.00    -0.109 N  
BRANCH  35  36
HETATM   36  C   UNK     1      -6.427   5.583  71.439  1.00  0.00    -0.040 C  
BRANCH  36  37
HETATM   37  N   UNK     1      -5.982   4.251  71.085  1.00  0.00    -0.013 NA 
HETATM   38  H   UNK     1      -6.056   3.601  71.869  1.00  0.00     0.000 HD 
BRANCH  37  39
HETATM   39  C   UNK     1      -6.721   3.775  69.900  1.00  0.00    -0.034 C  
BRANCH  39  40
HETATM   40  C   UNK     1      -5.815   3.608  68.667  1.00  0.00    -0.023 C  
BRANCH  40  41
HETATM   41  C   UNK     1      -6.568   3.167  67.407  1.00  0.00    -0.037 C  
BRANCH  41  42
HETATM   42  C   UNK     1      -7.376   4.322  66.790  1.00  0.00    -0.080 C  
BRANCH  42  43
HETATM   43  C   UNK     1      -7.483   4.281  65.258  1.00  0.00    -0.073 C  
HETATM   44  C   UNK     1      -7.900   2.884  64.774  1.00  0.00    -0.078 C  
HETATM   45  N   UNK     1      -8.464   5.279  64.742  1.00  0.00    -0.148 NA 
HETATM   46  O   UNK     1      -7.164   1.914  64.704  1.00  0.00    -0.050 OA 
HETATM   47  O   UNK     1      -9.219   2.854  64.446  1.00  0.00    -0.118 OA 
HETATM   48  H2  UNK     1      -8.246   6.219  65.074  1.00  0.00     0.000 HD 
HETATM   49  H1  UNK     1      -8.534   5.252  63.725  1.00  0.00     0.000 HD 
ENDBRANCH  42  43
ENDBRANCH  41  42
ENDBRANCH  40  41
ENDBRANCH  39  40
ENDBRANCH  37  39
ENDBRANCH  36  37
ENDBRANCH  35  36
ENDBRANCH  15  32
BRANCH  24  50
HETATM   50  N   UNK     1     -11.007   6.144  68.169  1.00  0.00    -0.326 NA 
HETATM   51  C   UNK     1     -11.146   6.780  66.877  1.00  0.00    -0.213 C  
HETATM   52  C   UNK     1     -10.617   4.738  68.000  1.00  0.00     0.342 C  
ENDBRANCH  24  50
TORSDOF 9
ENDMDL
MODEL      109
REMARK 921   NORMALIZED FREE ENERGY PREDICTED BY IDOCK:   -2.96 KCAL/MOL
REMARK 922        TOTAL FREE ENERGY PREDICTED BY IDOCK:   -5.92 KCAL/MOL
REMARK 923 INTER-LIGAND FREE ENERGY PREDICTED BY IDOCK:   -7.38 KCAL/MOL
REMARK 924 INTRA-LIGAND FREE ENERGY PREDICTED BY IDOCK:    1.47 KCAL/MOL
REMARK 927      BINDING AFFINITY PREDICTED BY RF-SCORE:    0.00 PKD
ROOT
HETATM    1  C   UNK     1      -9.501  12.928  67.167  1.00  0.00    -0.229 C  
HETATM    2  C   UNK     1      -8.363  13.931  67.092  1.00  0.00    -0.171 C  
HETATM    3  C   UNK     1      -8.494  15.084  68.131  1.00  0.00    -0.151 C  
HETATM    4  C   UNK     1      -9.866  15.715  68.064  1.00  0.00    -0.209 C  
HETATM    5  C   UNK     1      -9.983  17.205  68.241  1.00  0.00    -0.300 C  
HETATM    6  C   UNK     1     -10.957  14.977  67.791  1.00  0.00    -0.298 C  
HETATM    7  O   UNK     1     -12.219  15.561  67.611  1.00  0.00    -0.136 OA 
HETATM    8  C   UNK     1     -10.922  13.521  67.324  1.00  0.00    -0.280 C  
HETATM    9  C   UNK     1      -8.798  17.984  68.680  1.00  0.00    -0.272 A  
HETATM   10  O   UNK     1     -11.047  17.791  68.033  1.00  0.00    -0.195 OA 
HETATM   11  C   UNK     1      -8.932  19.330  69.063  1.00  0.00    -0.234 A  
HETATM   12  O   UNK     1     -11.544  13.630  66.038  1.00  0.00    -0.318 OA 
HETATM   13  C   UNK     1     -11.610  12.377  68.231  1.00  0.00    -0.333 C  
HETATM   14  H   UNK     1     -12.989  15.039  67.418  1.00  0.00     0.000 HD 
HETATM   15  C   UNK     1     -11.175  10.938  67.928  1.00  0.00    -0.387 C  
HETATM   16  O   UNK     1     -12.479  12.577  69.076  1.00  0.00     0.088 OA 
HETATM   17  C   UNK     1      -7.840  20.059  69.536  1.00  0.00     0.309 A  
HETATM   18  H   UNK     1     -12.416  13.993  66.135  1.00  0.00     0.000 HD 
HETATM   19  O   UNK     1     -10.109  20.025  68.979  1.00  0.00    -0.414 OA 
HETATM   20  H   UNK     1      -5.443  15.998  68.525  1.00  0.00     0.000 HD 
HETATM   21  H   UNK     1     -10.200  20.935  69.238  1.00  0.00     0.000 HD 
HETATM   22  C   UNK     1      -6.595  19.451  69.631  1.00  0.00    -0.307 A  
HETATM   23  C   UNK     1     -10.856  10.884  66.612  1.00  0.00    -0.197 C  
HETATM   24  C   UNK     1      -9.540  11.675  66.188  1.00  0.00    -0.232 C  
HETATM   25  C   UNK     1      -6.927  16.360  66.520  1.00  0.00    -0.004 C  
HETATM   26  O   UNK     1      -6.177  15.401  68.610  1.00  0.00    -0.092 OA 
HETATM   27  O   UNK     1     -11.881  10.921  65.660  1.00  0.00     0.554 OA 
HETATM   28  C   UNK     1      -6.437  18.134  69.202  1.00  0.00    -0.257 A  
HETATM   29  C   UNK     1      -7.290  16.063  67.991  1.00  0.00    -0.130 C  
HETATM   30  C   UNK     1      -7.523  17.389  68.688  1.00  0.00    -0.263 A  
HETATM   31  H   UNK     1     -11.657  10.883  64.738  1.00  0.00     0.000 HD 
ENDROOT
BRANCH  15  32
HETATM   32  C   UNK     1     -10.124  10.155  68.688  1.00  0.00    -0.172 C  
HETATM   33  H   UNK     1     -10.202   8.399  67.550  1.00  0.00     0.000 HD 
HETATM   34  O   UNK     1      -9.533  10.690  69.632  1.00  0.00    -0.091 OA 
HETATM   35  N   UNK     1      -9.789   8.867  68.356  1.00  0.00    -0.168 N  
BRANCH  35  36
HETATM   36  C   UNK     1      -8.822   8.204  69.203  1.00  0.00    -0.144 C  
BRANCH  36  37
HETATM   37  N   UNK     1      -9.552   7.348  70.115  1.00  0.00    -0.165 NA 
HETATM   38  H   UNK     1     -10.543   7.290  69.878  1.00  0.00     0.000 HD 
BRANCH  37  39
HETATM   39  C   UNK     1      -8.917   6.018  70.168  1.00  0.00    -0.147 C  
BRANCH  39  40
HETATM   40  C   UNK     1      -9.944   4.873  70.213  1.00  0.00    -0.321 C  
BRANCH  40  41
HETATM   41  C   UNK     1      -9.609   3.709  69.273  1.00  0.00    -0.185 C  
BRANCH  41  42
HETATM   42  C   UNK     1      -8.492   4.079  68.281  1.00  0.00    -0.105 C  
BRANCH  42  43
HETATM   43  C   UNK     1      -8.904   4.012  66.802  1.00  0.00    -0.122 C  
HETATM   44  C   UNK     1      -9.526   5.340  66.344  1.00  0.00    -0.153 C  
HETATM   45  N   UNK     1      -7.746   3.695  65.917  1.00  0.00    -0.088 NA 
HETATM   46  O   UNK     1     -10.660   5.710  66.597  1.00  0.00    -0.272 OA 
HETATM   47  O   UNK     1      -8.635   6.075  65.628  1.00  0.00    -0.150 OA 
HETATM   48  H2  UNK     1      -7.277   2.838  66.211  1.00  0.00     0.000 HD 
HETATM   49  H1  UNK     1      -8.019   3.650  64.935  1.00  0.00     0.000 HD 
ENDBRANCH  42  43
ENDBRANCH  41  42
ENDBRANCH  40  41
ENDBRANCH  39  40
ENDBRANCH  37  39
ENDBRANCH  36  37
ENDBRANCH  35  36
ENDBRANCH  15  32
BRANCH  24  50
HETATM   50  N   UNK     1      -9.507  11.809  64.712  1.00  0.00    -0.087 NA 
HETATM   51  C   UNK     1      -9.030  10.683  63.939  1.00  0.00    -0.192 C  
HETATM   52  C   UNK     1     -10.810  12.254  64.203  1.00  0.00    -0.365 C  
ENDBRANCH  24  50
TORSDOF 9
ENDMDL
MODEL      110
REMARK 921   NORMALIZED FREE ENERGY PREDICTED BY IDOCK:   -2.76 KCAL/MOL
REMARK 922        TOTAL FREE ENERGY PREDICTED BY IDOCK:   -5.60 KCAL/MOL
REMARK 923 INTER-LIGAND FREE ENERGY PREDICTED BY IDOCK:   -5.78 KCAL/MOL
REMARK 924 INTRA-LIGAND FREE ENERGY PREDICTED BY IDOCK:    0.18 KCAL/MOL
REMARK 927      BINDING AFFINITY PREDICTED BY RF-SCORE:    0.00 PKD
ROOT
HETATM    1  C   UNK     1      -8.977  12.844  67.909  1.00  0.00    -0.193 C  
HETATM    2  C   UNK     1     -10.011  13.916  67.614  1.00  0.00    -0.237 C  
HETATM    3  C   UNK     1      -9.391  15.225  67.042  1.00  0.00    -0.238 C  
HETATM    4  C   UNK     1      -8.250  15.703  67.910  1.00  0.00    -0.155 C  
HETATM    5  C   UNK     1      -8.082  17.183  68.127  1.00  0.00    -0.219 C  
HETATM    6  C   UNK     1      -7.436  14.830  68.530  1.00  0.00    -0.117 C  
HETATM    7  O   UNK     1      -6.446  15.251  69.429  1.00  0.00    -0.122 OA 
HETATM    8  C   UNK     1      -7.680  13.322  68.605  1.00  0.00    -0.080 C  
HETATM    9  C   UNK     1      -8.893  18.135  67.329  1.00  0.00    -0.251 A  
HETATM   10  O   UNK     1      -7.277  17.619  68.952  1.00  0.00    -0.259 OA 
HETATM   11  C   UNK     1      -8.604  19.510  67.351  1.00  0.00    -0.304 A  
HETATM   12  O   UNK     1      -7.794  13.133  70.020  1.00  0.00     0.902 OA 
HETATM   13  C   UNK     1      -6.612  12.308  67.946  1.00  0.00    -0.087 C  
HETATM   14  H   UNK     1      -5.871  14.634  69.867  1.00  0.00     0.000 HD 
HETATM   15  C   UNK     1      -7.120  10.884  67.688  1.00  0.00    -0.087 C  
HETATM   16  O   UNK     1      -5.438  12.580  67.707  1.00  0.00    -0.081 OA 
HETATM   17  C   UNK     1      -9.318  20.412  66.561  1.00  0.00    -0.360 A  
HETATM   18  H   UNK     1      -6.998  13.426  70.448  1.00  0.00     0.000 HD 
HETATM   19  O   UNK     1      -7.641  20.067  68.151  1.00  0.00    -0.298 OA 
HETATM   20  H   UNK     1     -11.839  16.473  65.383  1.00  0.00     0.000 HD 
HETATM   21  H   UNK     1      -7.445  20.997  68.166  1.00  0.00     0.000 HD 
HETATM   22  C   UNK     1     -10.335  19.950  65.737  1.00  0.00    -0.512 A  
HETATM   23  C   UNK     1      -8.058  10.616  68.627  1.00  0.00    -0.132 C  
HETATM   24  C   UNK     1      -9.420  11.432  68.495  1.00  0.00    -0.183 C  
HETATM   25  C   UNK     1     -11.575  16.318  67.885  1.00  0.00     0.059 C  
HETATM   26  O   UNK     1     -11.153  15.837  65.553  1.00  0.00    -0.283 OA 
HETATM   27  O   UNK     1      -7.655  10.381  69.947  1.00  0.00    -0.225 OA 
HETATM   28  C   UNK     1     -10.670  18.596  65.748  1.00  0.00    -0.224 A  
HETATM   29  C   UNK     1     -10.515  16.267  66.765  1.00  0.00    -0.287 C  
HETATM   30  C   UNK     1      -9.981  17.673  66.566  1.00  0.00    -0.332 A  
HETATM   31  H   UNK     1      -8.314  10.194  70.605  1.00  0.00     0.000 HD 
ENDROOT
BRANCH  15  32
HETATM   32  C   UNK     1      -7.631  10.356  66.363  1.00  0.00    -0.123 C  
HETATM   33  H   UNK     1      -8.285   8.484  67.039  1.00  0.00     0.000 HD 
HETATM   34  O   UNK     1      -7.582  11.078  65.362  1.00  0.00     0.051 OA 
HETATM   35  N   UNK     1      -8.166   9.099  66.234  1.00  0.00    -0.110 N  
BRANCH  35  36
HETATM   36  C   UNK     1      -8.553   8.687  64.903  1.00  0.00    -0.135 C  
BRANCH  36  37
HETATM   37  N   UNK     1      -8.552   7.239  64.875  1.00  0.00    -0.355 NA 
HETATM   38  H   UNK     1      -7.607   6.855  64.910  1.00  0.00     0.000 HD 
BRANCH  37  39
HETATM   39  C   UNK     1      -9.403   6.717  65.961  1.00  0.00     0.016 C  
BRANCH  39  40
HETATM   40  C   UNK     1      -8.590   6.030  67.072  1.00  0.00    -0.107 C  
BRANCH  40  41
HETATM   41  C   UNK     1      -8.410   4.523  66.860  1.00  0.00    -0.105 C  
BRANCH  41  42
HETATM   42  C   UNK     1      -7.704   3.858  68.055  1.00  0.00    -0.066 C  
BRANCH  42  43
HETATM   43  C   UNK     1      -7.946   2.346  68.180  1.00  0.00    -0.058 C  
HETATM   44  C   UNK     1      -7.255   1.780  69.430  1.00  0.00    -0.036 C  
HETATM   45  N   UNK     1      -9.400   2.019  68.247  1.00  0.00    -0.188 NA 
HETATM   46  O   UNK     1      -6.062   1.552  69.532  1.00  0.00    -0.023 OA 
HETATM   47  O   UNK     1      -8.150   1.579  70.434  1.00  0.00    -0.041 OA 
HETATM   48  H2  UNK     1      -9.906   2.412  67.453  1.00  0.00     0.000 HD 
HETATM   49  H1  UNK     1      -9.560   1.015  68.329  1.00  0.00     0.000 HD 
ENDBRANCH  42  43
ENDBRANCH  41  42
ENDBRANCH  40  41
ENDBRANCH  39  40
ENDBRANCH  37  39
ENDBRANCH  36  37
ENDBRANCH  35  36
ENDBRANCH  15  32
BRANCH  24  50
HETATM   50  N   UNK     1     -10.195  11.293  69.750  1.00  0.00     0.305 NA 
HETATM   51  C   UNK     1     -11.514  11.886  69.802  1.00  0.00    -0.229 C  
HETATM   52  C   UNK     1     -10.258   9.886  70.167  1.00  0.00    -0.273 C  
ENDBRANCH  24  50
TORSDOF 9
ENDMDL
MODEL      111
REMARK 921   NORMALIZED FREE ENERGY PREDICTED BY IDOCK:   -2.75 KCAL/MOL
REMARK 922        TOTAL FREE ENERGY PREDICTED BY IDOCK:   -5.59 KCAL/MOL
REMARK 923 INTER-LIGAND FREE ENERGY PREDICTED BY IDOCK:   -6.27 KCAL/MOL
REMARK 924 INTRA-LIGAND FREE ENERGY PREDICTED BY IDOCK:    0.68 KCAL/MOL
REMARK 927      BINDING AFFINITY PREDICTED BY RF-SCORE:    0.00 PKD
ROOT
HETATM    1  C   UNK     1      -7.809  10.598  68.135  1.00  0.00    -0.110 C  
HETATM    2  C   UNK     1      -8.722  11.675  68.694  1.00  0.00    -0.083 C  
HETATM    3  C   UNK     1      -8.835  12.923  67.770  1.00  0.00    -0.188 C  
HETATM    4  C   UNK     1      -7.466  13.429  67.380  1.00  0.00    -0.134 C  
HETATM    5  C   UNK     1      -7.248  14.916  67.287  1.00  0.00    -0.107 C  
HETATM    6  C   UNK     1      -6.442  12.581  67.182  1.00  0.00    -0.047 C  
HETATM    7  O   UNK     1      -5.140  13.036  66.933  1.00  0.00    -0.234 OA 
HETATM    8  C   UNK     1      -6.478  11.088  67.517  1.00  0.00    -0.063 C  
HETATM    9  C   UNK     1      -8.412  15.832  67.368  1.00  0.00    -0.191 A  
HETATM   10  O   UNK     1      -6.119  15.387  67.137  1.00  0.00    -0.306 OA 
HETATM   11  C   UNK     1      -8.269  17.197  67.066  1.00  0.00    -0.207 A  
HETATM   12  O   UNK     1      -5.432  11.002  68.493  1.00  0.00    -0.044 OA 
HETATM   13  C   UNK     1      -6.292  10.002  66.338  1.00  0.00    -0.073 C  
HETATM   14  H   UNK     1      -4.416  12.436  66.793  1.00  0.00     0.000 HD 
HETATM   15  C   UNK     1      -6.754   8.578  66.669  1.00  0.00    -0.068 C  
HETATM   16  O   UNK     1      -5.761  10.225  65.253  1.00  0.00    -0.091 OA 
HETATM   17  C   UNK     1      -9.365  18.060  67.079  1.00  0.00    -0.265 A  
HETATM   18  H   UNK     1      -4.614  11.303  68.114  1.00  0.00     0.000 HD 
HETATM   19  O   UNK     1      -7.066  17.782  66.769  1.00  0.00    -0.176 OA 
HETATM   20  H   UNK     1     -11.701  14.118  68.583  1.00  0.00     0.000 HD 
HETATM   21  H   UNK     1      -6.969  18.704  66.565  1.00  0.00     0.000 HD 
HETATM   22  C   UNK     1     -10.624  17.569  67.398  1.00  0.00    -0.311 A  
HETATM   23  C   UNK     1      -6.591   8.402  68.003  1.00  0.00    -0.058 C  
HETATM   24  C   UNK     1      -7.570   9.243  68.935  1.00  0.00    -0.075 C  
HETATM   25  C   UNK     1      -9.572  14.131  69.931  1.00  0.00     1.130 C  
HETATM   26  O   UNK     1     -11.119  13.477  68.191  1.00  0.00    -0.240 OA 
HETATM   27  O   UNK     1      -5.298   8.250  68.517  1.00  0.00    -0.031 OA 
HETATM   28  C   UNK     1     -10.772  16.229  67.754  1.00  0.00    -0.325 A  
HETATM   29  C   UNK     1      -9.790  13.973  68.412  1.00  0.00    -0.232 C  
HETATM   30  C   UNK     1      -9.667  15.346  67.779  1.00  0.00    -0.211 A  
HETATM   31  H   UNK     1      -5.184   8.127  69.452  1.00  0.00     0.000 HD 
ENDROOT
BRANCH  15  32
HETATM   32  C   UNK     1      -8.089   7.972  66.286  1.00  0.00    -0.112 C  
HETATM   33  H   UNK     1      -9.230   8.799  67.836  1.00  0.00     0.000 HD 
HETATM   34  O   UNK     1      -8.170   7.274  65.269  1.00  0.00    -0.130 OA 
HETATM   35  N   UNK     1      -9.227   8.184  67.022  1.00  0.00    -0.146 N  
BRANCH  35  36
HETATM   36  C   UNK     1     -10.422   7.494  66.592  1.00  0.00    -0.131 C  
BRANCH  36  37
HETATM   37  N   UNK     1     -10.320   6.119  67.038  1.00  0.00    -0.207 NA 
HETATM   38  H   UNK     1      -9.350   5.824  67.152  1.00  0.00     0.000 HD 
BRANCH  37  39
HETATM   39  C   UNK     1     -11.105   5.934  68.273  1.00  0.00    -0.043 C  
BRANCH  39  40
HETATM   40  C   UNK     1     -10.296   6.259  69.542  1.00  0.00    -0.263 C  
BRANCH  40  41
HETATM   41  C   UNK     1     -11.115   6.167  70.834  1.00  0.00    -0.371 C  
BRANCH  41  42
HETATM   42  C   UNK     1     -12.519   6.774  70.664  1.00  0.00    -0.142 C  
BRANCH  42  43
HETATM   43  C   UNK     1     -12.883   7.844  71.705  1.00  0.00    -0.328 C  
HETATM   44  C   UNK     1     -11.620   8.512  72.270  1.00  0.00    -0.374 C  
HETATM   45  N   UNK     1     -13.767   8.899  71.132  1.00  0.00    -0.578 NA 
HETATM   46  O   UNK     1     -10.875   8.020  73.102  1.00  0.00    -0.335 OA 
HETATM   47  O   UNK     1     -11.418   9.732  71.706  1.00  0.00    -0.322 OA 
HETATM   48  H2  UNK     1     -14.602   8.494  70.709  1.00  0.00     0.000 HD 
HETATM   49  H1  UNK     1     -14.009   9.609  71.824  1.00  0.00     0.000 HD 
ENDBRANCH  42  43
ENDBRANCH  41  42
ENDBRANCH  40  41
ENDBRANCH  39  40
ENDBRANCH  37  39
ENDBRANCH  36  37
ENDBRANCH  35  36
ENDBRANCH  15  32
BRANCH  24  50
HETATM   50  N   UNK     1      -7.063   9.213  70.327  1.00  0.00    -0.053 NA 
HETATM   51  C   UNK     1      -6.535  10.440  70.884  1.00  0.00     0.151 C  
HETATM   52  C   UNK     1      -8.067   8.640  71.232  1.00  0.00    -0.147 C  
ENDBRANCH  24  50
TORSDOF 9
ENDMDL
MODEL      112
REMARK 921   NORMALIZED FREE ENERGY PREDICTED BY IDOCK:   -2.61 KCAL/MOL
REMARK 922        TOTAL FREE ENERGY PREDICTED BY IDOCK:   -5.37 KCAL/MOL
REMARK 923 INTER-LIGAND FREE ENERGY PREDICTED BY IDOCK:   -6.60 KCAL/MOL
REMARK 924 INTRA-LIGAND FREE ENERGY PREDICTED BY IDOCK:    1.23 KCAL/MOL
REMARK 927      BINDING AFFINITY PREDICTED BY RF-SCORE:    0.00 PKD
ROOT
HETATM    1  C   UNK     1      -8.685   9.872  68.493  1.00  0.00    -0.121 C  
HETATM    2  C   UNK     1      -9.986  10.475  67.996  1.00  0.00    -0.177 C  
HETATM    3  C   UNK     1      -9.778  11.571  66.910  1.00  0.00    -0.205 C  
HETATM    4  C   UNK     1      -8.768  12.597  67.368  1.00  0.00    -0.191 C  
HETATM    5  C   UNK     1      -8.999  14.042  67.017  1.00  0.00    -0.235 C  
HETATM    6  C   UNK     1      -7.715  12.245  68.127  1.00  0.00    -0.138 C  
HETATM    7  O   UNK     1      -6.833  13.197  68.657  1.00  0.00    -0.087 OA 
HETATM    8  C   UNK     1      -7.534  10.868  68.770  1.00  0.00    -0.112 C  
HETATM    9  C   UNK     1     -10.080  14.399  66.064  1.00  0.00    -0.338 A  
HETATM   10  O   UNK     1      -8.303  14.936  67.501  1.00  0.00    -0.155 OA 
HETATM   11  C   UNK     1     -10.177  15.704  65.552  1.00  0.00    -0.385 A  
HETATM   12  O   UNK     1      -7.519  11.214  70.160  1.00  0.00    -0.373 OA 
HETATM   13  C   UNK     1      -6.264   9.960  68.361  1.00  0.00    -0.050 C  
HETATM   14  H   UNK     1      -6.090  12.947  69.194  1.00  0.00     0.000 HD 
HETATM   15  C   UNK     1      -6.376   8.470  68.707  1.00  0.00    -0.049 C  
HETATM   16  O   UNK     1      -5.224  10.386  67.867  1.00  0.00    -0.038 OA 
HETATM   17  C   UNK     1     -11.150  16.041  64.610  1.00  0.00    -0.346 A  
HETATM   18  H   UNK     1      -6.812  11.826  70.330  1.00  0.00     0.000 HD 
HETATM   19  O   UNK     1      -9.363  16.733  65.946  1.00  0.00    -0.476 OA 
HETATM   20  H   UNK     1     -12.556  11.479  65.304  1.00  0.00     0.000 HD 
HETATM   21  H   UNK     1      -9.429  17.615  65.600  1.00  0.00     0.000 HD 
HETATM   22  C   UNK     1     -12.044  15.074  64.167  1.00  0.00    -0.244 A  
HETATM   23  C   UNK     1      -7.156   8.370  69.810  1.00  0.00    -0.051 C  
HETATM   24  C   UNK     1      -8.694   8.731  69.603  1.00  0.00    -0.136 C  
HETATM   25  C   UNK     1     -12.131  12.360  67.628  1.00  0.00    -0.076 C  
HETATM   26  O   UNK     1     -11.714  11.136  65.583  1.00  0.00     0.094 OA 
HETATM   27  O   UNK     1      -6.637   8.760  71.049  1.00  0.00    -0.047 OA 
HETATM   28  C   UNK     1     -11.995  13.790  64.709  1.00  0.00    -0.429 A  
HETATM   29  C   UNK     1     -11.157  12.134  66.452  1.00  0.00    -0.314 C  
HETATM   30  C   UNK     1     -11.038  13.439  65.689  1.00  0.00    -0.298 A  
HETATM   31  H   UNK     1      -7.184   8.690  71.823  1.00  0.00     0.000 HD 
ENDROOT
BRANCH  15  32
HETATM   32  C   UNK     1      -6.791   7.371  67.749  1.00  0.00    -0.074 C  
HETATM   33  H   UNK     1      -8.864   7.573  67.970  1.00  0.00     0.000 HD 
HETATM   34  O   UNK     1      -5.924   6.746  67.129  1.00  0.00    -0.020 OA 
HETATM   35  N   UNK     1      -8.107   7.050  67.530  1.00  0.00    -0.112 N  
BRANCH  35  36
HETATM   36  C   UNK     1      -8.370   5.936  66.647  1.00  0.00    -0.110 C  
BRANCH  36  37
HETATM   37  N   UNK     1      -9.027   6.457  65.467  1.00  0.00    -0.360 NA 
HETATM   38  H   UNK     1      -9.753   7.136  65.700  1.00  0.00     0.000 HD 
BRANCH  37  39
HETATM   39  C   UNK     1      -8.023   7.015  64.541  1.00  0.00    -0.104 C  
BRANCH  39  40
HETATM   40  C   UNK     1      -7.868   6.174  63.261  1.00  0.00    -0.100 C  
BRANCH  40  41
HETATM   41  C   UNK     1      -9.140   5.416  62.865  1.00  0.00     0.274 C  
BRANCH  41  42
HETATM   42  C   UNK     1      -9.379   4.192  63.766  1.00  0.00    -0.147 C  
BRANCH  42  43
HETATM   43  C   UNK     1      -8.663   2.912  63.307  1.00  0.00    -0.085 C  
HETATM   44  C   UNK     1      -7.304   2.761  64.009  1.00  0.00    -0.065 C  
HETATM   45  N   UNK     1      -9.478   1.692  63.575  1.00  0.00    -0.101 NA 
HETATM   46  O   UNK     1      -6.291   3.377  63.722  1.00  0.00    -0.021 OA 
HETATM   47  O   UNK     1      -7.374   1.856  65.021  1.00  0.00    -0.058 OA 
HETATM   48  H2  UNK     1     -10.406   1.767  63.159  1.00  0.00     0.000 HD 
HETATM   49  H1  UNK     1      -9.002   0.842  63.270  1.00  0.00     0.000 HD 
ENDBRANCH  42  43
ENDBRANCH  41  42
ENDBRANCH  40  41
ENDBRANCH  39  40
ENDBRANCH  37  39
ENDBRANCH  36  37
ENDBRANCH  35  36
ENDBRANCH  15  32
BRANCH  24  50
HETATM   50  N   UNK     1      -9.336   8.905  70.926  1.00  0.00    -0.215 NA 
HETATM   51  C   UNK     1     -10.436   9.839  71.030  1.00  0.00    -0.160 C  
HETATM   52  C   UNK     1      -9.724   7.606  71.490  1.00  0.00    -0.165 C  
ENDBRANCH  24  50
TORSDOF 9
ENDMDL
MODEL      113
REMARK 921   NORMALIZED FREE ENERGY PREDICTED BY IDOCK:   -2.47 KCAL/MOL
REMARK 922        TOTAL FREE ENERGY PREDICTED BY IDOCK:   -5.16 KCAL/MOL
REMARK 923 INTER-LIGAND FREE ENERGY PREDICTED BY IDOCK:   -4.80 KCAL/MOL
REMARK 924 INTRA-LIGAND FREE ENERGY PREDICTED BY IDOCK:   -0.37 KCAL/MOL
REMARK 927      BINDING AFFINITY PREDICTED BY RF-SCORE:    0.00 PKD
ROOT
HETATM    1  C   UNK     1      -9.676   6.407  70.640  1.00  0.00    -0.197 C  
HETATM    2  C   UNK     1     -10.166   6.040  69.251  1.00  0.00    -0.263 C  
HETATM    3  C   UNK     1      -9.016   5.919  68.208  1.00  0.00    -0.112 C  
HETATM    4  C   UNK     1      -8.134   7.145  68.237  1.00  0.00    -0.124 C  
HETATM    5  C   UNK     1      -7.591   7.673  66.936  1.00  0.00    -0.102 C  
HETATM    6  C   UNK     1      -7.884   7.794  69.388  1.00  0.00    -0.115 C  
HETATM    7  O   UNK     1      -7.164   8.997  69.419  1.00  0.00    -0.055 OA 
HETATM    8  C   UNK     1      -8.599   7.515  70.712  1.00  0.00    -0.135 C  
HETATM    9  C   UNK     1      -7.755   6.872  65.697  1.00  0.00    -0.102 A  
HETATM   10  O   UNK     1      -7.008   8.757  66.880  1.00  0.00    -0.072 OA 
HETATM   11  C   UNK     1      -7.074   7.230  64.521  1.00  0.00    -0.058 A  
HETATM   12  O   UNK     1      -9.223   8.781  70.958  1.00  0.00    -0.181 OA 
HETATM   13  C   UNK     1      -7.747   7.005  71.984  1.00  0.00    -0.092 C  
HETATM   14  H   UNK     1      -6.988   9.455  70.232  1.00  0.00     0.000 HD 
HETATM   15  C   UNK     1      -8.561   6.354  73.109  1.00  0.00    -0.120 C  
HETATM   16  O   UNK     1      -6.537   7.159  72.130  1.00  0.00    -0.055 OA 
HETATM   17  C   UNK     1      -7.170   6.454  63.365  1.00  0.00    -0.059 A  
HETATM   18  H   UNK     1      -8.561   9.461  71.002  1.00  0.00     0.000 HD 
HETATM   19  O   UNK     1      -6.303   8.356  64.408  1.00  0.00    -0.065 OA 
HETATM   20  H   UNK     1     -10.265   3.904  66.044  1.00  0.00     0.000 HD 
HETATM   21  H   UNK     1      -5.843   8.599  63.613  1.00  0.00     0.000 HD 
HETATM   22  C   UNK     1      -7.952   5.306  63.369  1.00  0.00    -0.097 A  
HETATM   23  C   UNK     1      -9.790   6.926  73.099  1.00  0.00    -0.186 C  
HETATM   24  C   UNK     1     -10.705   6.571  71.844  1.00  0.00    -0.219 C  
HETATM   25  C   UNK     1     -10.897   6.304  66.479  1.00  0.00    -0.137 C  
HETATM   26  O   UNK     1      -9.908   4.137  66.894  1.00  0.00    -0.216 OA 
HETATM   27  O   UNK     1      -9.936   8.237  73.564  1.00  0.00    -0.033 OA 
HETATM   28  C   UNK     1      -8.677   4.970  64.512  1.00  0.00    -0.132 A  
HETATM   29  C   UNK     1      -9.601   5.537  66.816  1.00  0.00    -0.146 C  
HETATM   30  C   UNK     1      -8.620   5.762  65.681  1.00  0.00    -0.151 A  
HETATM   31  H   UNK     1     -10.797   8.638  73.556  1.00  0.00     0.000 HD 
ENDROOT
BRANCH  15  32
HETATM   32  C   UNK     1      -8.749   4.865  73.315  1.00  0.00    -0.104 C  
HETATM   33  H   UNK     1      -9.808   4.467  71.553  1.00  0.00     0.000 HD 
HETATM   34  O   UNK     1      -8.259   4.323  74.312  1.00  0.00    -0.090 OA 
HETATM   35  N   UNK     1      -9.435   4.083  72.421  1.00  0.00    -0.125 N  
BRANCH  35  36
HETATM   36  C   UNK     1      -9.605   2.690  72.766  1.00  0.00    -0.102 C  
BRANCH  36  37
HETATM   37  N   UNK     1      -9.659   1.935  71.531  1.00  0.00    -0.127 NA 
HETATM   38  H   UNK     1     -10.613   1.838  71.182  1.00  0.00     0.000 HD 
BRANCH  37  39
HETATM   39  C   UNK     1      -8.763   2.548  70.532  1.00  0.00    -0.062 C  
BRANCH  39  40
HETATM   40  C   UNK     1      -8.242   1.531  69.502  1.00  0.00    -0.063 C  
BRANCH  40  41
HETATM   41  C   UNK     1      -6.713   1.481  69.406  1.00  0.00    -0.029 C  
BRANCH  41  42
HETATM   42  C   UNK     1      -6.231   1.481  67.945  1.00  0.00    -0.024 C  
BRANCH  42  43
HETATM   43  C   UNK     1      -6.828   2.599  67.076  1.00  0.00    -0.044 C  
HETATM   44  C   UNK     1      -5.899   3.821  67.038  1.00  0.00    -0.023 C  
HETATM   45  N   UNK     1      -7.077   2.143  65.677  1.00  0.00    -0.051 NA 
HETATM   46  O   UNK     1      -5.778   4.642  67.933  1.00  0.00    -0.019 OA 
HETATM   47  O   UNK     1      -5.198   3.867  65.874  1.00  0.00    -0.008 OA 
HETATM   48  H2  UNK     1      -7.660   1.307  65.657  1.00  0.00     0.000 HD 
HETATM   49  H1  UNK     1      -7.473   2.886  65.101  1.00  0.00     0.000 HD 
ENDBRANCH  42  43
ENDBRANCH  41  42
ENDBRANCH  40  41
ENDBRANCH  39  40
ENDBRANCH  37  39
ENDBRANCH  36  37
ENDBRANCH  35  36
ENDBRANCH  15  32
BRANCH  24  50
HETATM   50  N   UNK     1     -11.851   7.510  71.796  1.00  0.00    -0.283 NA 
HETATM   51  C   UNK     1     -11.804   8.591  70.836  1.00  0.00    -0.217 C  
HETATM   52  C   UNK     1     -13.116   6.776  71.668  1.00  0.00    -0.195 C  
ENDBRANCH  24  50
TORSDOF 9
ENDMDL
MODEL      114
REMARK 921   NORMALIZED FREE ENERGY PREDICTED BY IDOCK:   -2.44 KCAL/MOL
REMARK 922        TOTAL FREE ENERGY PREDICTED BY IDOCK:   -5.12 KCAL/MOL
REMARK 923 INTER-LIGAND FREE ENERGY PREDICTED BY IDOCK:   -6.37 KCAL/MOL
REMARK 924 INTRA-LIGAND FREE ENERGY PREDICTED BY IDOCK:    1.25 KCAL/MOL
REMARK 927      BINDING AFFINITY PREDICTED BY RF-SCORE:    0.00 PKD
ROOT
HETATM    1  C   UNK     1      -8.464   8.945  68.069  1.00  0.00    -0.126 C  
HETATM    2  C   UNK     1      -9.548   8.626  69.084  1.00  0.00    -0.163 C  
HETATM    3  C   UNK     1      -9.092   7.602  70.165  1.00  0.00    -0.150 C  
HETATM    4  C   UNK     1      -8.480   6.378  69.523  1.00  0.00    -0.133 C  
HETATM    5  C   UNK     1      -8.754   5.031  70.137  1.00  0.00    -0.109 C  
HETATM    6  C   UNK     1      -7.758   6.475  68.393  1.00  0.00    -0.105 C  
HETATM    7  O   UNK     1      -7.281   5.341  67.721  1.00  0.00    -0.069 OA 
HETATM    8  C   UNK     1      -7.651   7.740  67.540  1.00  0.00    -0.109 C  
HETATM    9  C   UNK     1      -9.429   4.952  71.456  1.00  0.00    -0.208 A  
HETATM   10  O   UNK     1      -8.422   3.991  69.566  1.00  0.00    -0.060 OA 
HETATM   11  C   UNK     1      -9.499   3.732  72.149  1.00  0.00    -0.133 A  
HETATM   12  O   UNK     1      -8.212   7.285  66.303  1.00  0.00    -0.112 OA 
HETATM   13  C   UNK     1      -6.211   8.437  67.328  1.00  0.00    -0.056 C  
HETATM   14  H   UNK     1      -6.771   5.409  66.922  1.00  0.00     0.000 HD 
HETATM   15  C   UNK     1      -6.244   9.891  66.838  1.00  0.00    -0.064 C  
HETATM   16  O   UNK     1      -5.128   7.874  67.467  1.00  0.00    -0.029 OA 
HETATM   17  C   UNK     1     -10.077   3.652  73.417  1.00  0.00    -0.202 A  
HETATM   18  H   UNK     1      -7.712   6.545  65.978  1.00  0.00     0.000 HD 
HETATM   19  O   UNK     1      -9.043   2.546  71.638  1.00  0.00    -0.079 OA 
HETATM   20  H   UNK     1     -11.011   8.318  72.636  1.00  0.00     0.000 HD 
HETATM   21  H   UNK     1      -9.090   1.720  72.106  1.00  0.00     0.000 HD 
HETATM   22  C   UNK     1     -10.596   4.795  74.010  1.00  0.00    -0.351 A  
HETATM   23  C   UNK     1      -7.363  10.037  66.090  1.00  0.00    -0.109 C  
HETATM   24  C   UNK     1      -8.740   9.975  66.888  1.00  0.00    -0.128 C  
HETATM   25  C   UNK     1     -11.624   7.190  70.467  1.00  0.00    -0.331 C  
HETATM   26  O   UNK     1     -10.301   8.482  72.026  1.00  0.00    -0.280 OA 
HETATM   27  O   UNK     1      -7.412   9.462  64.815  1.00  0.00    -0.101 OA 
HETATM   28  C   UNK     1     -10.583   6.001  73.310  1.00  0.00    -0.276 A  
HETATM   29  C   UNK     1     -10.256   7.334  71.166  1.00  0.00    -0.190 C  
HETATM   30  C   UNK     1     -10.033   6.095  72.012  1.00  0.00    -0.194 A  
HETATM   31  H   UNK     1      -8.197   9.565  64.290  1.00  0.00     0.000 HD 
ENDROOT
BRANCH  15  32
HETATM   32  C   UNK     1      -6.111  11.120  67.714  1.00  0.00    -0.047 C  
HETATM   33  H   UNK     1      -7.917  12.039  67.184  1.00  0.00     0.000 HD 
HETATM   34  O   UNK     1      -5.128  11.236  68.453  1.00  0.00    -0.040 OA 
HETATM   35  N   UNK     1      -7.058  12.112  67.729  1.00  0.00    -0.098 N  
BRANCH  35  36
HETATM   36  C   UNK     1      -6.782  13.267  68.555  1.00  0.00    -0.092 C  
BRANCH  36  37
HETATM   37  N   UNK     1      -6.896  12.854  69.938  1.00  0.00    -0.328 NA 
HETATM   38  H   UNK     1      -6.629  11.879  70.071  1.00  0.00     0.000 HD 
BRANCH  37  39
HETATM   39  C   UNK     1      -6.115  13.765  70.797  1.00  0.00    -0.088 C  
BRANCH  39  40
HETATM   40  C   UNK     1      -5.595  14.996  70.034  1.00  0.00    -0.121 C  
BRANCH  40  41
HETATM   41  C   UNK     1      -6.649  16.093  69.845  1.00  0.00    -0.059 C  
BRANCH  41  42
HETATM   42  C   UNK     1      -6.278  17.051  68.700  1.00  0.00    -0.153 C  
BRANCH  42  43
HETATM   43  C   UNK     1      -7.333  18.128  68.400  1.00  0.00    -0.270 C  
HETATM   44  C   UNK     1      -6.705  19.530  68.409  1.00  0.00    -0.280 C  
HETATM   45  N   UNK     1      -7.993  17.907  67.081  1.00  0.00    -0.206 NA 
HETATM   46  O   UNK     1      -6.409  20.162  69.408  1.00  0.00    -0.314 OA 
HETATM   47  O   UNK     1      -6.497  19.980  67.143  1.00  0.00    -0.194 OA 
HETATM   48  H2  UNK     1      -8.390  16.970  67.017  1.00  0.00     0.000 HD 
HETATM   49  H1  UNK     1      -8.694  18.621  66.883  1.00  0.00     0.000 HD 
ENDBRANCH  42  43
ENDBRANCH  41  42
ENDBRANCH  40  41
ENDBRANCH  39  40
ENDBRANCH  37  39
ENDBRANCH  36  37
ENDBRANCH  35  36
ENDBRANCH  15  32
BRANCH  24  50
HETATM   50  N   UNK     1      -9.855   9.811  65.925  1.00  0.00    -0.268 NA 
HETATM   51  C   UNK     1     -11.156  10.321  66.300  1.00  0.00     0.354 C  
HETATM   52  C   UNK     1      -9.475  10.321  64.602  1.00  0.00    -0.293 C  
ENDBRANCH  24  50
TORSDOF 9
ENDMDL
MODEL      115
REMARK 921   NORMALIZED FREE ENERGY PREDICTED BY IDOCK:   -2.38 KCAL/MOL
REMARK 922        TOTAL FREE ENERGY PREDICTED BY IDOCK:   -5.02 KCAL/MOL
REMARK 923 INTER-LIGAND FREE ENERGY PREDICTED BY IDOCK:   -5.25 KCAL/MOL
REMARK 924 INTRA-LIGAND FREE ENERGY PREDICTED BY IDOCK:    0.24 KCAL/MOL
REMARK 927      BINDING AFFINITY PREDICTED BY RF-SCORE:    0.00 PKD
ROOT
HETATM    1  C   UNK     1      -9.427   8.348  68.364  1.00  0.00    -0.145 C  
HETATM    2  C   UNK     1      -9.743   9.328  67.249  1.00  0.00    -0.218 C  
HETATM    3  C   UNK     1      -9.585  10.816  67.678  1.00  0.00    -0.174 C  
HETATM    4  C   UNK     1     -10.338  11.089  68.959  1.00  0.00    -0.229 C  
HETATM    5  C   UNK     1     -11.046  12.409  69.111  1.00  0.00    -0.203 C  
HETATM    6  C   UNK     1     -10.432  10.155  69.922  1.00  0.00    -0.275 C  
HETATM    7  O   UNK     1     -11.221  10.347  71.065  1.00  0.00    -0.318 OA 
HETATM    8  C   UNK     1      -9.994   8.698  69.760  1.00  0.00    -0.190 C  
HETATM    9  C   UNK     1     -10.819  13.480  68.109  1.00  0.00    -0.271 A  
HETATM   10  O   UNK     1     -11.808  12.619  70.056  1.00  0.00    -0.329 OA 
HETATM   11  C   UNK     1     -11.288  14.784  68.340  1.00  0.00    -0.299 A  
HETATM   12  O   UNK     1     -11.237   8.015  69.962  1.00  0.00    -0.399 OA 
HETATM   13  C   UNK     1      -8.824   8.110  70.702  1.00  0.00    -0.140 C  
HETATM   14  H   UNK     1     -11.288   9.687  71.745  1.00  0.00     0.000 HD 
HETATM   15  C   UNK     1      -8.162   6.817  70.208  1.00  0.00    -0.125 C  
HETATM   16  O   UNK     1      -8.486   8.582  71.785  1.00  0.00    -0.153 OA 
HETATM   17  C   UNK     1     -11.031  15.816  67.437  1.00  0.00    -0.279 A  
HETATM   18  H   UNK     1     -11.586   8.230  70.819  1.00  0.00     0.000 HD 
HETATM   19  O   UNK     1     -12.041  15.134  69.430  1.00  0.00    -0.416 OA 
HETATM   20  H   UNK     1      -8.985  12.274  64.882  1.00  0.00     0.000 HD 
HETATM   21  H   UNK     1     -12.358  16.015  69.586  1.00  0.00     0.000 HD 
HETATM   22  C   UNK     1     -10.299  15.557  66.285  1.00  0.00    -0.312 A  
HETATM   23  C   UNK     1      -9.096   6.131  69.506  1.00  0.00    -0.139 C  
HETATM   24  C   UNK     1      -9.527   6.779  68.116  1.00  0.00    -0.120 C  
HETATM   25  C   UNK     1     -11.160  11.286  65.685  1.00  0.00    -0.141 C  
HETATM   26  O   UNK     1      -8.779  11.703  65.613  1.00  0.00    -0.045 OA 
HETATM   27  O   UNK     1     -10.138   5.498  70.193  1.00  0.00    -0.200 OA 
HETATM   28  C   UNK     1      -9.876  14.256  66.016  1.00  0.00    -0.336 A  
HETATM   29  C   UNK     1      -9.922  11.753  66.480  1.00  0.00    -0.204 C  
HETATM   30  C   UNK     1     -10.156  13.191  66.902  1.00  0.00    -0.245 A  
HETATM   31  H   UNK     1     -10.792   5.018  69.700  1.00  0.00     0.000 HD 
ENDROOT
BRANCH  15  32
HETATM   32  C   UNK     1      -6.856   6.730  69.445  1.00  0.00    -0.061 C  
HETATM   33  H   UNK     1      -6.979   8.575  68.463  1.00  0.00     0.000 HD 
HETATM   34  O   UNK     1      -6.123   5.747  69.605  1.00  0.00    -0.023 OA 
HETATM   35  N   UNK     1      -6.443   7.717  68.586  1.00  0.00    -0.047 N  
BRANCH  35  36
HETATM   36  C   UNK     1      -5.213   7.483  67.865  1.00  0.00    -0.026 C  
BRANCH  36  37
HETATM   37  N   UNK     1      -5.360   8.064  66.546  1.00  0.00    -0.028 NA 
HETATM   38  H   UNK     1      -4.503   7.993  65.997  1.00  0.00     0.000 HD 
BRANCH  37  39
HETATM   39  C   UNK     1      -6.512   7.454  65.857  1.00  0.00    -0.045 C  
BRANCH  39  40
HETATM   40  C   UNK     1      -6.190   6.061  65.286  1.00  0.00    -0.037 C  
BRANCH  40  41
HETATM   41  C   UNK     1      -6.760   4.908  66.119  1.00  0.00    -0.050 C  
BRANCH  41  42
HETATM   42  C   UNK     1      -7.842   4.128  65.351  1.00  0.00    -0.086 C  
BRANCH  42  43
HETATM   43  C   UNK     1      -8.302   2.832  66.035  1.00  0.00    -0.094 C  
HETATM   44  C   UNK     1      -8.386   3.014  67.558  1.00  0.00    -0.083 C  
HETATM   45  N   UNK     1      -9.632   2.380  65.532  1.00  0.00    -0.358 NA 
HETATM   46  O   UNK     1      -7.434   3.024  68.319  1.00  0.00    -0.052 OA 
HETATM   47  O   UNK     1      -9.674   3.185  67.959  1.00  0.00    -0.138 OA 
HETATM   48  H2  UNK     1      -9.632   2.284  64.517  1.00  0.00     0.000 HD 
HETATM   49  H1  UNK     1      -9.937   1.518  65.986  1.00  0.00     0.000 HD 
ENDBRANCH  42  43
ENDBRANCH  41  42
ENDBRANCH  40  41
ENDBRANCH  39  40
ENDBRANCH  37  39
ENDBRANCH  36  37
ENDBRANCH  35  36
ENDBRANCH  15  32
BRANCH  24  50
HETATM   50  N   UNK     1     -10.765   6.121  67.635  1.00  0.00    -0.277 NA 
HETATM   51  C   UNK     1     -12.008   6.854  67.739  1.00  0.00     2.165 C  
HETATM   52  C   UNK     1     -10.587   5.620  66.267  1.00  0.00    -0.111 C  
ENDBRANCH  24  50
TORSDOF 9
ENDMDL
MODEL      116
REMARK 921   NORMALIZED FREE ENERGY PREDICTED BY IDOCK:   -2.17 KCAL/MOL
REMARK 922        TOTAL FREE ENERGY PREDICTED BY IDOCK:   -4.70 KCAL/MOL
REMARK 923 INTER-LIGAND FREE ENERGY PREDICTED BY IDOCK:   -6.56 KCAL/MOL
REMARK 924 INTRA-LIGAND FREE ENERGY PREDICTED BY IDOCK:    1.85 KCAL/MOL
REMARK 927      BINDING AFFINITY PREDICTED BY RF-SCORE:    0.00 PKD
ROOT
HETATM    1  C   UNK     1     -10.203  12.548  67.944  1.00  0.00    -0.219 C  
HETATM    2  C   UNK     1     -10.520  13.877  68.606  1.00  0.00    -0.249 C  
HETATM    3  C   UNK     1      -9.433  14.963  68.351  1.00  0.00    -0.209 C  
HETATM    4  C   UNK     1      -8.056  14.434  68.679  1.00  0.00    -0.146 C  
HETATM    5  C   UNK     1      -7.065  15.360  69.331  1.00  0.00    -0.193 C  
HETATM    6  C   UNK     1      -7.736  13.147  68.455  1.00  0.00    -0.117 C  
HETATM    7  O   UNK     1      -6.505  12.610  68.858  1.00  0.00    -0.079 OA 
HETATM    8  C   UNK     1      -8.739  12.061  68.061  1.00  0.00    -0.175 C  
HETATM    9  C   UNK     1      -7.380  16.806  69.442  1.00  0.00    -0.067 A  
HETATM   10  O   UNK     1      -5.993  14.941  69.769  1.00  0.00    -0.107 OA 
HETATM   11  C   UNK     1      -6.393  17.722  69.842  1.00  0.00    -0.036 A  
HETATM   12  O   UNK     1      -8.617  11.160  69.169  1.00  0.00    -0.352 OA 
HETATM   13  C   UNK     1      -8.575  11.301  66.647  1.00  0.00    -0.167 C  
HETATM   14  H   UNK     1      -6.279  11.701  68.701  1.00  0.00     0.000 HD 
HETATM   15  C   UNK     1      -9.819  10.558  66.145  1.00  0.00    -0.271 C  
HETATM   16  O   UNK     1      -7.532  11.231  66.002  1.00  0.00    -0.034 OA 
HETATM   17  C   UNK     1      -6.655  19.092  69.894  1.00  0.00    -0.115 A  
HETATM   18  H   UNK     1      -7.718  10.861  69.241  1.00  0.00     0.000 HD 
HETATM   19  O   UNK     1      -5.132  17.353  70.230  1.00  0.00    -0.184 OA 
HETATM   20  H   UNK     1     -11.102  17.687  68.667  1.00  0.00     0.000 HD 
HETATM   21  H   UNK     1      -4.464  17.972  70.500  1.00  0.00     0.000 HD 
HETATM   22  C   UNK     1      -7.914  19.566  69.547  1.00  0.00     0.133 A  
HETATM   23  C   UNK     1     -10.513  10.155  67.237  1.00  0.00    -0.256 C  
HETATM   24  C   UNK     1     -11.198  11.315  68.086  1.00  0.00    -0.286 C  
HETATM   25  C   UNK     1     -10.414  16.067  70.471  1.00  0.00     0.100 C  
HETATM   26  O   UNK     1     -10.857  16.876  68.236  1.00  0.00    -0.362 OA 
HETATM   27  O   UNK     1     -10.020   9.094  68.005  1.00  0.00    -0.162 OA 
HETATM   28  C   UNK     1      -8.919  18.663  69.203  1.00  0.00    -0.001 A  
HETATM   29  C   UNK     1      -9.836  16.292  69.058  1.00  0.00    -0.257 C  
HETATM   30  C   UNK     1      -8.682  17.269  69.178  1.00  0.00     0.035 A  
HETATM   31  H   UNK     1     -10.507   8.812  68.770  1.00  0.00     0.000 HD 
ENDROOT
BRANCH  15  32
HETATM   32  C   UNK     1     -10.817  11.088  65.136  1.00  0.00    -0.112 C  
HETATM   33  H   UNK     1     -11.964  12.244  66.453  1.00  0.00     0.000 HD 
HETATM   34  O   UNK     1     -10.695  10.784  63.944  1.00  0.00    -0.259 OA 
HETATM   35  N   UNK     1     -11.852  11.914  65.494  1.00  0.00    -0.184 N  
BRANCH  35  36
HETATM   36  C   UNK     1     -12.777  12.295  64.450  1.00  0.00    -0.288 C  
BRANCH  36  37
HETATM   37  N   UNK     1     -12.527  13.685  64.129  1.00  0.00    -0.674 NA 
HETATM   38  H   UNK     1     -13.390  14.227  64.076  1.00  0.00     0.000 HD 
BRANCH  37  39
HETATM   39  C   UNK     1     -11.571  14.257  65.095  1.00  0.00    -0.355 C  
BRANCH  39  40
HETATM   40  C   UNK     1     -10.707  15.373  64.482  1.00  0.00    -0.035 C  
BRANCH  40  41
HETATM   41  C   UNK     1     -10.417  16.528  65.447  1.00  0.00    -0.291 C  
BRANCH  41  42
HETATM   42  C   UNK     1      -8.938  16.952  65.403  1.00  0.00     1.068 C  
BRANCH  42  43
HETATM   43  C   UNK     1      -8.613  18.219  66.209  1.00  0.00    -0.184 C  
HETATM   44  C   UNK     1      -7.190  18.712  65.908  1.00  0.00    -0.232 C  
HETATM   45  N   UNK     1      -9.573  19.324  65.919  1.00  0.00    -0.423 NA 
HETATM   46  O   UNK     1      -6.166  18.220  66.354  1.00  0.00    -0.164 OA 
HETATM   47  O   UNK     1      -7.208  19.768  65.053  1.00  0.00    -0.342 OA 
HETATM   48  H2  UNK     1     -10.537  19.027  66.067  1.00  0.00     0.000 HD 
HETATM   49  H1  UNK     1      -9.357  20.165  66.454  1.00  0.00     0.000 HD 
ENDBRANCH  42  43
ENDBRANCH  41  42
ENDBRANCH  40  41
ENDBRANCH  39  40
ENDBRANCH  37  39
ENDBRANCH  36  37
ENDBRANCH  35  36
ENDBRANCH  15  32
BRANCH  24  50
HETATM   50  N   UNK     1     -11.620  10.773  69.399  1.00  0.00    -0.287 NA 
HETATM   51  C   UNK     1     -10.590  10.452  70.364  1.00  0.00    -0.041 C  
HETATM   52  C   UNK     1     -12.636  11.636  70.014  1.00  0.00     0.019 C  
ENDBRANCH  24  50
TORSDOF 9
ENDMDL
MODEL      117
REMARK 921   NORMALIZED FREE ENERGY PREDICTED BY IDOCK:   -1.85 KCAL/MOL
REMARK 922        TOTAL FREE ENERGY PREDICTED BY IDOCK:   -4.21 KCAL/MOL
REMARK 923 INTER-LIGAND FREE ENERGY PREDICTED BY IDOCK:   -6.32 KCAL/MOL
REMARK 924 INTRA-LIGAND FREE ENERGY PREDICTED BY IDOCK:    2.11 KCAL/MOL
REMARK 927      BINDING AFFINITY PREDICTED BY RF-SCORE:    0.00 PKD
ROOT
HETATM    1  C   UNK     1     -10.126  11.854  69.034  1.00  0.00     0.032 C  
HETATM    2  C   UNK     1      -9.794  10.772  70.045  1.00  0.00     0.497 C  
HETATM    3  C   UNK     1      -9.038   9.562  69.421  1.00  0.00    -0.172 C  
HETATM    4  C   UNK     1      -9.762   9.049  68.197  1.00  0.00    -0.172 C  
HETATM    5  C   UNK     1      -9.803   7.564  67.954  1.00  0.00    -0.154 C  
HETATM    6  C   UNK     1     -10.411   9.889  67.372  1.00  0.00    -0.267 C  
HETATM    7  O   UNK     1     -11.183   9.423  66.298  1.00  0.00     0.745 OA 
HETATM    8  C   UNK     1     -10.668  11.368  67.669  1.00  0.00    -0.216 C  
HETATM    9  C   UNK     1      -8.968   6.664  68.788  1.00  0.00    -0.125 A  
HETATM   10  O   UNK     1     -10.513   7.082  67.071  1.00  0.00    -0.259 OA 
HETATM   11  C   UNK     1      -8.818   5.310  68.444  1.00  0.00    -0.101 A  
HETATM   12  O   UNK     1     -12.101  11.400  67.678  1.00  0.00    -0.630 OA 
HETATM   13  C   UNK     1     -10.047  12.495  66.696  1.00  0.00    -0.230 C  
HETATM   14  H   UNK     1     -11.642  10.016  65.716  1.00  0.00     0.000 HD 
HETATM   15  C   UNK     1      -9.985  13.913  67.278  1.00  0.00    -0.242 C  
HETATM   16  O   UNK     1      -9.694  12.306  65.535  1.00  0.00    -0.234 OA 
HETATM   17  C   UNK     1      -7.989   4.464  69.182  1.00  0.00    -0.068 A  
HETATM   18  H   UNK     1     -12.433  11.102  66.840  1.00  0.00     0.000 HD 
HETATM   19  O   UNK     1      -9.478   4.718  67.400  1.00  0.00    -0.130 OA 
HETATM   20  H   UNK     1      -7.438   8.382  71.940  1.00  0.00     0.000 HD 
HETATM   21  H   UNK     1      -9.377   3.802  67.168  1.00  0.00     0.000 HD 
HETATM   22  C   UNK     1      -7.297   4.962  70.279  1.00  0.00    -0.055 A  
HETATM   23  C   UNK     1     -11.015  14.035  68.150  1.00  0.00    -0.252 C  
HETATM   24  C   UNK     1     -10.894  13.174  69.484  1.00  0.00     0.179 C  
HETATM   25  C   UNK     1      -9.915   8.283  71.487  1.00  0.00    -0.260 C  
HETATM   26  O   UNK     1      -7.625   9.028  71.269  1.00  0.00    -0.178 OA 
HETATM   27  O   UNK     1     -12.318  14.147  67.654  1.00  0.00    -0.567 OA 
HETATM   28  C   UNK     1      -7.481   6.290  70.664  1.00  0.00    -0.087 A  
HETATM   29  C   UNK     1      -8.732   8.503  70.521  1.00  0.00    -0.152 C  
HETATM   30  C   UNK     1      -8.342   7.153  69.950  1.00  0.00    -0.135 A  
HETATM   31  H   UNK     1     -13.040  14.233  68.265  1.00  0.00     0.000 HD 
ENDROOT
BRANCH  15  32
HETATM   32  C   UNK     1      -8.767  14.553  67.912  1.00  0.00    -0.165 C  
HETATM   33  H   UNK     1      -9.486  14.644  69.877  1.00  0.00     0.000 HD 
HETATM   34  O   UNK     1      -7.773  14.789  67.216  1.00  0.00    -0.194 OA 
HETATM   35  N   UNK     1      -8.718  14.871  69.245  1.00  0.00    -0.143 N  
BRANCH  35  36
HETATM   36  C   UNK     1      -7.527  15.543  69.715  1.00  0.00    -0.081 C  
BRANCH  36  37
HETATM   37  N   UNK     1      -6.418  14.623  69.570  1.00  0.00    -0.127 NA 
HETATM   38  H   UNK     1      -6.415  14.167  68.657  1.00  0.00     0.000 HD 
BRANCH  37  39
HETATM   39  C   UNK     1      -5.149  15.322  69.845  1.00  0.00    -0.097 C  
BRANCH  39  40
HETATM   40  C   UNK     1      -5.180  16.797  69.407  1.00  0.00    -0.135 C  
BRANCH  40  41
HETATM   41  C   UNK     1      -5.650  17.756  70.507  1.00  0.00    -0.179 C  
BRANCH  41  42
HETATM   42  C   UNK     1      -6.228  19.057  69.922  1.00  0.00    -0.226 C  
BRANCH  42  43
HETATM   43  C   UNK     1      -6.716  18.943  68.470  1.00  0.00    -0.255 C  
HETATM   44  C   UNK     1      -6.773  20.324  67.799  1.00  0.00    -0.279 C  
HETATM   45  N   UNK     1      -5.837  18.053  67.657  1.00  0.00    -0.149 NA 
HETATM   46  O   UNK     1      -7.645  21.158  67.980  1.00  0.00     0.059 OA 
HETATM   47  O   UNK     1      -5.704  20.516  66.982  1.00  0.00    -0.170 OA 
HETATM   48  H2  UNK     1      -5.739  17.134  68.088  1.00  0.00     0.000 HD 
HETATM   49  H1  UNK     1      -6.162  17.977  66.692  1.00  0.00     0.000 HD 
ENDBRANCH  42  43
ENDBRANCH  41  42
ENDBRANCH  40  41
ENDBRANCH  39  40
ENDBRANCH  37  39
ENDBRANCH  36  37
ENDBRANCH  35  36
ENDBRANCH  15  32
BRANCH  24  50
HETATM   50  N   UNK     1     -12.211  13.143  70.164  1.00  0.00    -0.318 NA 
HETATM   51  C   UNK     1     -12.521  11.996  70.991  1.00  0.00    -0.276 C  
HETATM   52  C   UNK     1     -12.435  14.383  70.917  1.00  0.00    -0.354 C  
ENDBRANCH  24  50
TORSDOF 9
ENDMDL
MODEL      118
REMARK 921   NORMALIZED FREE ENERGY PREDICTED BY IDOCK:   -1.82 KCAL/MOL
REMARK 922        TOTAL FREE ENERGY PREDICTED BY IDOCK:   -4.17 KCAL/MOL
REMARK 923 INTER-LIGAND FREE ENERGY PREDICTED BY IDOCK:   -4.92 KCAL/MOL
REMARK 924 INTRA-LIGAND FREE ENERGY PREDICTED BY IDOCK:    0.75 KCAL/MOL
REMARK 927      BINDING AFFINITY PREDICTED BY RF-SCORE:    0.00 PKD
ROOT
HETATM    1  C   UNK     1      -8.395   9.468  69.134  1.00  0.00    -0.125 C  
HETATM    2  C   UNK     1      -9.817   9.876  68.793  1.00  0.00    -0.177 C  
HETATM    3  C   UNK     1      -9.891  11.002  67.720  1.00  0.00    -0.190 C  
HETATM    4  C   UNK     1      -9.000  12.163  68.097  1.00  0.00    -0.195 C  
HETATM    5  C   UNK     1      -9.480  13.560  67.810  1.00  0.00    -0.216 C  
HETATM    6  C   UNK     1      -7.832  11.964  68.732  1.00  0.00    -0.052 C  
HETATM    7  O   UNK     1      -7.048  13.032  69.191  1.00  0.00    -0.234 OA 
HETATM    8  C   UNK     1      -7.381  10.623  69.315  1.00  0.00    -0.119 C  
HETATM    9  C   UNK     1     -10.697  13.761  66.986  1.00  0.00    -0.283 A  
HETATM   10  O   UNK     1      -8.875  14.543  68.242  1.00  0.00    -0.166 OA 
HETATM   11  C   UNK     1     -11.041  15.042  66.521  1.00  0.00    -0.329 A  
HETATM   12  O   UNK     1      -7.267  10.953  70.704  1.00  0.00    -0.316 OA 
HETATM   13  C   UNK     1      -6.042   9.920  68.752  1.00  0.00    -0.041 C  
HETATM   14  H   UNK     1      -6.222  12.891  69.640  1.00  0.00     0.000 HD 
HETATM   15  C   UNK     1      -5.895   8.426  69.067  1.00  0.00    -0.039 C  
HETATM   16  O   UNK     1      -5.135  10.502  68.162  1.00  0.00    -0.035 OA 
HETATM   17  C   UNK     1     -12.149  15.239  65.696  1.00  0.00     0.364 A  
HETATM   18  H   UNK     1      -6.644  11.662  70.815  1.00  0.00     0.000 HD 
HETATM   19  O   UNK     1     -10.350  16.177  66.855  1.00  0.00    -0.287 OA 
HETATM   20  H   UNK     1     -12.782  10.512  66.413  1.00  0.00     0.000 HD 
HETATM   21  H   UNK     1     -10.582  17.043  66.541  1.00  0.00     0.000 HD 
HETATM   22  C   UNK     1     -12.932  14.154  65.324  1.00  0.00    -0.268 A  
HETATM   23  C   UNK     1      -6.528   8.200  70.243  1.00  0.00    -0.036 C  
HETATM   24  C   UNK     1      -8.115   8.328  70.208  1.00  0.00    -0.104 C  
HETATM   25  C   UNK     1     -12.244  11.422  68.702  1.00  0.00    -0.038 C  
HETATM   26  O   UNK     1     -11.874  10.295  66.594  1.00  0.00     0.851 OA 
HETATM   27  O   UNK     1      -5.942   8.649  71.431  1.00  0.00    -0.038 OA 
HETATM   28  C   UNK     1     -12.636  12.886  65.824  1.00  0.00    -0.174 A  
HETATM   29  C   UNK     1     -11.379  11.356  67.425  1.00  0.00    -0.288 C  
HETATM   30  C   UNK     1     -11.538  12.672  66.688  1.00  0.00    -0.443 A  
HETATM   31  H   UNK     1      -6.386   8.491  72.256  1.00  0.00     0.000 HD 
ENDROOT
BRANCH  15  32
HETATM   32  C   UNK     1      -6.244   7.288  68.130  1.00  0.00    -0.036 C  
HETATM   33  H   UNK     1      -5.133   5.788  69.081  1.00  0.00     0.000 HD 
HETATM   34  O   UNK     1      -7.025   7.489  67.194  1.00  0.00    -0.078 OA 
HETATM   35  N   UNK     1      -5.734   6.025  68.291  1.00  0.00    -0.011 N  
BRANCH  35  36
HETATM   36  C   UNK     1      -6.087   5.043  67.291  1.00  0.00    -0.031 C  
BRANCH  36  37
HETATM   37  N   UNK     1      -5.166   3.933  67.420  1.00  0.00    -0.011 NA 
HETATM   38  H   UNK     1      -4.273   4.220  67.821  1.00  0.00     0.000 HD 
BRANCH  37  39
HETATM   39  C   UNK     1      -5.799   2.848  68.194  1.00  0.00    -0.023 C  
BRANCH  39  40
HETATM   40  C   UNK     1      -7.185   3.238  68.736  1.00  0.00    -0.049 C  
BRANCH  40  41
HETATM   41  C   UNK     1      -8.237   3.450  67.642  1.00  0.00    -0.088 C  
BRANCH  41  42
HETATM   42  C   UNK     1      -9.044   4.740  67.867  1.00  0.00    -0.133 C  
BRANCH  42  43
HETATM   43  C   UNK     1      -9.897   5.178  66.667  1.00  0.00    -0.189 C  
HETATM   44  C   UNK     1     -10.634   6.493  66.966  1.00  0.00    -0.332 C  
HETATM   45  N   UNK     1      -9.073   5.360  65.436  1.00  0.00    -0.280 NA 
HETATM   46  O   UNK     1     -11.633   6.598  67.657  1.00  0.00     0.048 OA 
HETATM   47  O   UNK     1     -10.013   7.547  66.372  1.00  0.00    -0.164 OA 
HETATM   48  H2  UNK     1      -8.535   4.521  65.223  1.00  0.00     0.000 HD 
HETATM   49  H1  UNK     1      -9.640   5.650  64.639  1.00  0.00     0.000 HD 
ENDBRANCH  42  43
ENDBRANCH  41  42
ENDBRANCH  40  41
ENDBRANCH  39  40
ENDBRANCH  37  39
ENDBRANCH  36  37
ENDBRANCH  35  36
ENDBRANCH  15  32
BRANCH  24  50
HETATM   50  N   UNK     1      -8.630   8.390  71.596  1.00  0.00    -0.154 NA 
HETATM   51  C   UNK     1     -10.045   8.624  71.786  1.00  0.00    -0.310 C  
HETATM   52  C   UNK     1      -8.207   7.209  72.359  1.00  0.00    -0.104 C  
ENDBRANCH  24  50
TORSDOF 9
ENDMDL
MODEL      119
REMARK 921   NORMALIZED FREE ENERGY PREDICTED BY IDOCK:   -1.79 KCAL/MOL
REMARK 922        TOTAL FREE ENERGY PREDICTED BY IDOCK:   -4.12 KCAL/MOL
REMARK 923 INTER-LIGAND FREE ENERGY PREDICTED BY IDOCK:   -5.29 KCAL/MOL
REMARK 924 INTRA-LIGAND FREE ENERGY PREDICTED BY IDOCK:    1.17 KCAL/MOL
REMARK 927      BINDING AFFINITY PREDICTED BY RF-SCORE:    0.00 PKD
ROOT
HETATM    1  C   UNK     1      -7.843  10.487  68.157  1.00  0.00    -0.109 C  
HETATM    2  C   UNK     1      -8.861  11.541  68.551  1.00  0.00    -0.139 C  
HETATM    3  C   UNK     1      -8.925  12.735  67.553  1.00  0.00    -0.192 C  
HETATM    4  C   UNK     1      -7.545  13.291  67.291  1.00  0.00    -0.079 C  
HETATM    5  C   UNK     1      -7.385  14.780  67.140  1.00  0.00     0.015 C  
HETATM    6  C   UNK     1      -6.468  12.487  67.254  1.00  0.00    -0.121 C  
HETATM    7  O   UNK     1      -5.168  12.996  67.127  1.00  0.00    -0.340 OA 
HETATM    8  C   UNK     1      -6.473  11.013  67.665  1.00  0.00    -0.060 C  
HETATM    9  C   UNK     1      -8.592  15.638  67.041  1.00  0.00    -0.253 A  
HETATM   10  O   UNK     1      -6.270  15.301  67.091  1.00  0.00    -0.293 OA 
HETATM   11  C   UNK     1      -8.477  16.992  66.682  1.00  0.00    -0.248 A  
HETATM   12  O   UNK     1      -5.542  11.030  68.754  1.00  0.00    -0.041 OA 
HETATM   13  C   UNK     1      -6.106   9.881  66.576  1.00  0.00    -0.064 C  
HETATM   14  H   UNK     1      -4.406  12.428  67.101  1.00  0.00     0.000 HD 
HETATM   15  C   UNK     1      -6.538   8.453  66.931  1.00  0.00    -0.058 C  
HETATM   16  O   UNK     1      -5.466  10.077  65.545  1.00  0.00    -0.050 OA 
HETATM   17  C   UNK     1      -9.606  17.798  66.526  1.00  0.00    -0.315 A  
HETATM   18  H   UNK     1      -4.702  11.353  68.452  1.00  0.00     0.000 HD 
HETATM   19  O   UNK     1      -7.277  17.623  66.488  1.00  0.00    -0.204 OA 
HETATM   20  H   UNK     1     -11.916  13.820  67.976  1.00  0.00     0.000 HD 
HETATM   21  H   UNK     1      -7.198  18.538  66.246  1.00  0.00     0.000 HD 
HETATM   22  C   UNK     1     -10.870  17.259  66.729  1.00  0.00     0.031 A  
HETATM   23  C   UNK     1      -6.518   8.353  68.282  1.00  0.00    -0.059 C  
HETATM   24  C   UNK     1      -7.635   9.188  69.052  1.00  0.00    -0.074 C  
HETATM   25  C   UNK     1      -9.956  14.010  69.550  1.00  0.00     0.448 C  
HETATM   26  O   UNK     1     -11.265  13.191  67.687  1.00  0.00    -0.259 OA 
HETATM   27  O   UNK     1      -5.287   8.292  68.944  1.00  0.00    -0.030 OA 
HETATM   28  C   UNK     1     -10.995  15.932  67.141  1.00  0.00    -0.214 A  
HETATM   29  C   UNK     1      -9.993  13.765  68.026  1.00  0.00    -0.246 C  
HETATM   30  C   UNK     1      -9.862  15.110  67.337  1.00  0.00    -0.224 A  
HETATM   31  H   UNK     1      -5.274   8.222  69.891  1.00  0.00     0.000 HD 
ENDROOT
BRANCH  15  32
HETATM   32  C   UNK     1      -7.791   7.762  66.436  1.00  0.00    -0.094 C  
HETATM   33  H   UNK     1      -9.186   8.918  67.488  1.00  0.00     0.000 HD 
HETATM   34  O   UNK     1      -7.695   6.843  65.614  1.00  0.00    -0.091 OA 
HETATM   35  N   UNK     1      -9.044   8.129  66.857  1.00  0.00    -0.147 N  
BRANCH  35  36
HETATM   36  C   UNK     1     -10.155   7.345  66.365  1.00  0.00     0.003 C  
BRANCH  36  37
HETATM   37  N   UNK     1     -10.183   6.105  67.114  1.00  0.00    -0.173 NA 
HETATM   38  H   UNK     1      -9.248   5.800  67.385  1.00  0.00     0.000 HD 
BRANCH  37  39
HETATM   39  C   UNK     1     -11.081   6.243  68.276  1.00  0.00    -0.269 C  
BRANCH  39  40
HETATM   40  C   UNK     1     -10.391   6.909  69.480  1.00  0.00    -0.224 C  
BRANCH  40  41
HETATM   41  C   UNK     1      -9.406   5.990  70.210  1.00  0.00    -0.176 C  
BRANCH  41  42
HETATM   42  C   UNK     1     -10.031   4.621  70.530  1.00  0.00    -0.295 C  
BRANCH  42  43
HETATM   43  C   UNK     1      -9.903   4.188  71.999  1.00  0.00    -0.174 C  
HETATM   44  C   UNK     1      -9.289   2.784  72.106  1.00  0.00    -0.103 C  
HETATM   45  N   UNK     1      -9.065   5.137  72.787  1.00  0.00    -0.133 NA 
HETATM   46  O   UNK     1      -9.882   1.739  71.896  1.00  0.00    -0.118 OA 
HETATM   47  O   UNK     1      -7.975   2.849  72.449  1.00  0.00    -0.054 OA 
HETATM   48  H2  UNK     1      -9.415   6.092  72.711  1.00  0.00     0.000 HD 
HETATM   49  H1  UNK     1      -8.980   4.850  73.762  1.00  0.00     0.000 HD 
ENDBRANCH  42  43
ENDBRANCH  41  42
ENDBRANCH  40  41
ENDBRANCH  39  40
ENDBRANCH  37  39
ENDBRANCH  36  37
ENDBRANCH  35  36
ENDBRANCH  15  32
BRANCH  24  50
HETATM   50  N   UNK     1      -7.288   9.253  70.491  1.00  0.00    -0.102 NA 
HETATM   51  C   UNK     1      -6.436  10.334  70.936  1.00  0.00     0.089 C  
HETATM   52  C   UNK     1      -8.499   9.192  71.319  1.00  0.00    -0.047 C  
ENDBRANCH  24  50
TORSDOF 9
ENDMDL
MODEL      120
REMARK 921   NORMALIZED FREE ENERGY PREDICTED BY IDOCK:   -1.67 KCAL/MOL
REMARK 922        TOTAL FREE ENERGY PREDICTED BY IDOCK:   -3.94 KCAL/MOL
REMARK 923 INTER-LIGAND FREE ENERGY PREDICTED BY IDOCK:   -6.39 KCAL/MOL
REMARK 924 INTRA-LIGAND FREE ENERGY PREDICTED BY IDOCK:    2.45 KCAL/MOL
REMARK 927      BINDING AFFINITY PREDICTED BY RF-SCORE:    0.00 PKD
ROOT
HETATM    1  C   UNK     1      -9.620   8.962  68.637  1.00  0.00    -0.158 C  
HETATM    2  C   UNK     1     -10.421   7.732  69.026  1.00  0.00    -0.215 C  
HETATM    3  C   UNK     1      -9.952   7.094  70.366  1.00  0.00    -0.191 C  
HETATM    4  C   UNK     1      -8.458   6.869  70.361  1.00  0.00    -0.134 C  
HETATM    5  C   UNK     1      -7.915   5.622  71.008  1.00  0.00    -0.111 C  
HETATM    6  C   UNK     1      -7.629   7.726  69.740  1.00  0.00    -0.091 C  
HETATM    7  O   UNK     1      -6.254   7.475  69.625  1.00  0.00    -0.030 OA 
HETATM    8  C   UNK     1      -8.087   8.862  68.824  1.00  0.00    -0.114 C  
HETATM    9  C   UNK     1      -8.820   4.761  71.809  1.00  0.00    -0.139 A  
HETATM   10  O   UNK     1      -6.730   5.306  70.889  1.00  0.00    -0.040 OA 
HETATM   11  C   UNK     1      -8.301   3.722  72.599  1.00  0.00    -0.090 A  
HETATM   12  O   UNK     1      -7.473   8.480  67.586  1.00  0.00    -0.091 OA 
HETATM   13  C   UNK     1      -7.746  10.389  69.218  1.00  0.00    -0.140 C  
HETATM   14  H   UNK     1      -5.668   8.080  69.186  1.00  0.00     0.000 HD 
HETATM   15  C   UNK     1      -8.580  11.461  68.504  1.00  0.00    -0.150 C  
HETATM   16  O   UNK     1      -6.847  10.736  69.979  1.00  0.00    -0.154 OA 
HETATM   17  C   UNK     1      -9.131   2.941  73.405  1.00  0.00    -0.093 A  
HETATM   18  H   UNK     1      -6.532   8.419  67.700  1.00  0.00     0.000 HD 
HETATM   19  O   UNK     1      -6.974   3.380  72.621  1.00  0.00    -0.039 OA 
HETATM   20  H   UNK     1     -12.607   5.599  71.376  1.00  0.00     0.000 HD 
HETATM   21  H   UNK     1      -6.623   2.677  73.155  1.00  0.00     0.000 HD 
HETATM   22  C   UNK     1     -10.497   3.190  73.430  1.00  0.00    -0.252 A  
HETATM   23  C   UNK     1      -8.916  10.965  67.289  1.00  0.00    -0.137 C  
HETATM   24  C   UNK     1      -9.953   9.757  67.299  1.00  0.00    -0.191 C  
HETATM   25  C   UNK     1     -11.104   4.968  69.454  1.00  0.00     1.295 C  
HETATM   26  O   UNK     1     -12.075   6.361  71.177  1.00  0.00    -0.307 OA 
HETATM   27  O   UNK     1      -7.935  10.871  66.296  1.00  0.00    -0.155 OA 
HETATM   28  C   UNK     1     -11.033   4.181  72.609  1.00  0.00    -0.030 A  
HETATM   29  C   UNK     1     -10.825   5.845  70.693  1.00  0.00    -0.292 C  
HETATM   30  C   UNK     1     -10.212   4.959  71.761  1.00  0.00    -0.268 A  
HETATM   31  H   UNK     1      -8.170  10.523  65.444  1.00  0.00     0.000 HD 
ENDROOT
BRANCH  15  32
HETATM   32  C   UNK     1      -9.803  12.150  69.074  1.00  0.00     0.212 C  
HETATM   33  H   UNK     1      -9.322  14.104  68.491  1.00  0.00     0.000 HD 
HETATM   34  O   UNK     1     -10.680  11.476  69.624  1.00  0.00    -0.089 OA 
HETATM   35  N   UNK     1      -9.985  13.507  68.987  1.00  0.00     0.040 N  
BRANCH  35  36
HETATM   36  C   UNK     1     -11.158  14.053  69.631  1.00  0.00    -0.104 C  
BRANCH  36  37
HETATM   37  N   UNK     1     -11.911  14.779  68.629  1.00  0.00    -0.444 NA 
HETATM   38  H   UNK     1     -12.918  14.677  68.757  1.00  0.00     0.000 HD 
BRANCH  37  39
HETATM   39  C   UNK     1     -11.494  16.194  68.619  1.00  0.00    -0.340 C  
BRANCH  39  40
HETATM   40  C   UNK     1     -10.230  16.432  67.775  1.00  0.00    -0.274 C  
BRANCH  40  41
HETATM   41  C   UNK     1     -10.520  16.699  66.294  1.00  0.00    -0.272 C  
BRANCH  41  42
HETATM   42  C   UNK     1      -9.980  15.574  65.394  1.00  0.00    -0.339 C  
BRANCH  42  43
HETATM   43  C   UNK     1     -10.611  14.196  65.645  1.00  0.00    -0.310 C  
HETATM   44  C   UNK     1     -12.107  14.204  65.292  1.00  0.00    -0.405 C  
HETATM   45  N   UNK     1      -9.939  13.124  64.856  1.00  0.00    -0.551 NA 
HETATM   46  O   UNK     1     -12.990  14.685  65.981  1.00  0.00     0.005 OA 
HETATM   47  O   UNK     1     -12.327  13.617  64.085  1.00  0.00    -0.592 OA 
HETATM   48  H2  UNK     1      -8.934  13.109  65.031  1.00  0.00     0.000 HD 
HETATM   49  H1  UNK     1     -10.358  12.209  65.024  1.00  0.00     0.000 HD 
ENDBRANCH  42  43
ENDBRANCH  41  42
ENDBRANCH  40  41
ENDBRANCH  39  40
ENDBRANCH  37  39
ENDBRANCH  36  37
ENDBRANCH  35  36
ENDBRANCH  15  32
BRANCH  24  50
HETATM   50  N   UNK     1      -9.963   9.112  65.965  1.00  0.00    -0.281 NA 
HETATM   51  C   UNK     1      -9.430   9.858  64.846  1.00  0.00    -0.291 C  
HETATM   52  C   UNK     1      -9.341   7.783  66.027  1.00  0.00    -0.037 C  
ENDBRANCH  24  50
TORSDOF 9
ENDMDL
MODEL      121
REMARK 921   NORMALIZED FREE ENERGY PREDICTED BY IDOCK:   -1.48 KCAL/MOL
REMARK 922        TOTAL FREE ENERGY PREDICTED BY IDOCK:   -3.65 KCAL/MOL
REMARK 923 INTER-LIGAND FREE ENERGY PREDICTED BY IDOCK:   -2.29 KCAL/MOL
REMARK 924 INTRA-LIGAND FREE ENERGY PREDICTED BY IDOCK:   -1.36 KCAL/MOL
REMARK 927      BINDING AFFINITY PREDICTED BY RF-SCORE:    0.00 PKD
ROOT
HETATM    1  C   UNK     1      -8.116  14.247  67.653  1.00  0.00    -0.188 C  
HETATM    2  C   UNK     1      -7.082  13.319  67.043  1.00  0.00     0.370 C  
HETATM    3  C   UNK     1      -7.626  11.883  66.781  1.00  0.00    -0.034 C  
HETATM    4  C   UNK     1      -8.288  11.325  68.019  1.00  0.00    -0.136 C  
HETATM    5  C   UNK     1      -8.109   9.864  68.334  1.00  0.00    -0.101 C  
HETATM    6  C   UNK     1      -8.971  12.121  68.860  1.00  0.00     0.249 C  
HETATM    7  O   UNK     1      -9.493  11.644  70.071  1.00  0.00     1.024 OA 
HETATM    8  C   UNK     1      -8.982  13.649  68.788  1.00  0.00     0.074 C  
HETATM    9  C   UNK     1      -7.477   8.972  67.331  1.00  0.00    -0.085 A  
HETATM   10  O   UNK     1      -8.484   9.393  69.409  1.00  0.00    -0.125 OA 
HETATM   11  C   UNK     1      -7.496   7.577  67.505  1.00  0.00    -0.104 A  
HETATM   12  O   UNK     1      -8.413  13.988  70.059  1.00  0.00     0.585 OA 
HETATM   13  C   UNK     1     -10.373  14.424  68.525  1.00  0.00    -0.248 C  
HETATM   14  H   UNK     1      -9.976  12.207  70.665  1.00  0.00     0.000 HD 
HETATM   15  C   UNK     1     -10.244  15.877  68.051  1.00  0.00    -0.238 C  
HETATM   16  O   UNK     1     -11.490  13.958  68.737  1.00  0.00    -0.252 OA 
HETATM   17  C   UNK     1      -6.959   6.721  66.542  1.00  0.00    -0.063 A  
HETATM   18  H   UNK     1      -8.945  13.621  70.756  1.00  0.00     0.000 HD 
HETATM   19  O   UNK     1      -8.005   6.962  68.618  1.00  0.00    -0.116 OA 
HETATM   20  H   UNK     1      -5.738  10.863  64.393  1.00  0.00     0.000 HD 
HETATM   21  H   UNK     1      -8.018   6.019  68.735  1.00  0.00     0.000 HD 
HETATM   22  C   UNK     1      -6.393   7.250  65.390  1.00  0.00    -0.038 A  
HETATM   23  C   UNK     1      -9.097  16.371  68.577  1.00  0.00    -0.223 C  
HETATM   24  C   UNK     1      -7.749  15.759  67.990  1.00  0.00    -0.129 C  
HETATM   25  C   UNK     1      -5.130  11.215  66.814  1.00  0.00    -0.083 C  
HETATM   26  O   UNK     1      -6.420  11.402  64.777  1.00  0.00     0.852 OA 
HETATM   27  O   UNK     1      -9.046  16.667  69.944  1.00  0.00     0.501 OA 
HETATM   28  C   UNK     1      -6.317   8.633  65.231  1.00  0.00    -0.056 A  
HETATM   29  C   UNK     1      -6.507  10.999  66.152  1.00  0.00    -0.082 C  
HETATM   30  C   UNK     1      -6.824   9.517  66.210  1.00  0.00    -0.086 A  
HETATM   31  H   UNK     1      -8.241  17.013  70.312  1.00  0.00     0.000 HD 
ENDROOT
BRANCH  15  32
HETATM   32  C   UNK     1     -10.330  16.347  66.613  1.00  0.00    -0.292 C  
HETATM   33  H   UNK     1     -11.395  14.715  65.846  1.00  0.00     0.000 HD 
HETATM   34  O   UNK     1      -9.855  17.446  66.304  1.00  0.00    -0.284 OA 
HETATM   35  N   UNK     1     -10.934  15.600  65.635  1.00  0.00    -0.304 N  
BRANCH  35  36
HETATM   36  C   UNK     1     -10.889  16.126  64.289  1.00  0.00     0.551 C  
BRANCH  36  37
HETATM   37  N   UNK     1     -12.077  15.667  63.598  1.00  0.00    -0.910 NA 
HETATM   38  H   UNK     1     -11.926  15.576  62.593  1.00  0.00     0.000 HD 
BRANCH  37  39
HETATM   39  C   UNK     1     -12.551  14.407  64.203  1.00  0.00    -0.037 C  
BRANCH  39  40
HETATM   40  C   UNK     1     -12.877  13.333  63.151  1.00  0.00     0.558 C  
BRANCH  40  41
HETATM   41  C   UNK     1     -12.305  11.950  63.485  1.00  0.00    -0.603 C  
BRANCH  41  42
HETATM   42  C   UNK     1     -11.536  11.958  64.818  1.00  0.00    -0.302 C  
BRANCH  42  43
HETATM   43  C   UNK     1     -10.033  11.666  64.689  1.00  0.00    -0.253 C  
HETATM   44  C   UNK     1      -9.781  10.168  64.460  1.00  0.00    -0.293 C  
HETATM   45  N   UNK     1      -9.412  12.432  63.570  1.00  0.00    -0.583 NA 
HETATM   46  O   UNK     1      -9.829   9.306  65.322  1.00  0.00    -0.168 OA 
HETATM   47  O   UNK     1      -9.515   9.912  63.152  1.00  0.00    -0.271 OA 
HETATM   48  H2  UNK     1      -9.589  13.432  63.662  1.00  0.00     0.000 HD 
HETATM   49  H1  UNK     1      -8.414  12.239  63.485  1.00  0.00     0.000 HD 
ENDBRANCH  42  43
ENDBRANCH  41  42
ENDBRANCH  40  41
ENDBRANCH  39  40
ENDBRANCH  37  39
ENDBRANCH  36  37
ENDBRANCH  35  36
ENDBRANCH  15  32
BRANCH  24  50
HETATM   50  N   UNK     1      -6.619  16.132  68.873  1.00  0.00    -0.130 NA 
HETATM   51  C   UNK     1      -5.769  15.073  69.373  1.00  0.00    -0.101 C  
HETATM   52  C   UNK     1      -5.803  17.183  68.254  1.00  0.00    -0.135 C  
ENDBRANCH  24  50
TORSDOF 9
ENDMDL
MODEL      122
REMARK 921   NORMALIZED FREE ENERGY PREDICTED BY IDOCK:   -1.06 KCAL/MOL
REMARK 922        TOTAL FREE ENERGY PREDICTED BY IDOCK:   -3.02 KCAL/MOL
REMARK 923 INTER-LIGAND FREE ENERGY PREDICTED BY IDOCK:   -2.96 KCAL/MOL
REMARK 924 INTRA-LIGAND FREE ENERGY PREDICTED BY IDOCK:   -0.05 KCAL/MOL
REMARK 927      BINDING AFFINITY PREDICTED BY RF-SCORE:    0.00 PKD
ROOT
HETATM    1  C   UNK     1      -8.563  12.688  68.066  1.00  0.00    -0.189 C  
HETATM    2  C   UNK     1      -9.686  13.556  67.527  1.00  0.00    -0.228 C  
HETATM    3  C   UNK     1      -9.231  15.007  67.191  1.00  0.00    -0.229 C  
HETATM    4  C   UNK     1      -8.492  15.623  68.357  1.00  0.00    -0.164 C  
HETATM    5  C   UNK     1      -8.709  17.082  68.658  1.00  0.00    -0.261 C  
HETATM    6  C   UNK     1      -7.705  14.877  69.153  1.00  0.00    -0.164 C  
HETATM    7  O   UNK     1      -7.105  15.404  70.305  1.00  0.00     0.021 OA 
HETATM    8  C   UNK     1      -7.632  13.349  69.111  1.00  0.00     0.200 C  
HETATM    9  C   UNK     1      -9.463  17.922  67.694  1.00  0.00    -0.260 A  
HETATM   10  O   UNK     1      -8.266  17.594  69.687  1.00  0.00     0.498 OA 
HETATM   11  C   UNK     1      -9.492  19.320  67.838  1.00  0.00    -0.325 A  
HETATM   12  O   UNK     1      -8.076  13.017  70.432  1.00  0.00     2.461 OA 
HETATM   13  C   UNK     1      -6.235  12.629  68.746  1.00  0.00    -0.075 C  
HETATM   14  H   UNK     1      -6.549  14.876  70.867  1.00  0.00     0.000 HD 
HETATM   15  C   UNK     1      -6.338  11.161  68.313  1.00  0.00    -0.049 C  
HETATM   16  O   UNK     1      -5.126  13.147  68.852  1.00  0.00    -0.065 OA 
HETATM   17  C   UNK     1     -10.145  20.129  66.908  1.00  0.00    -0.592 A  
HETATM   18  H   UNK     1      -7.504  13.422  71.073  1.00  0.00     0.000 HD 
HETATM   19  O   UNK     1      -8.919  19.983  68.891  1.00  0.00    -0.087 OA 
HETATM   20  H   UNK     1     -11.356  15.889  64.954  1.00  0.00     0.000 HD 
HETATM   21  H   UNK     1      -8.938  20.928  68.988  1.00  0.00     0.000 HD 
HETATM   22  C   UNK     1     -10.783  19.549  65.818  1.00  0.00    -0.490 A  
HETATM   23  C   UNK     1      -7.413  10.631  68.945  1.00  0.00    -0.108 C  
HETATM   24  C   UNK     1      -8.832  11.170  68.462  1.00  0.00    -0.161 C  
HETATM   25  C   UNK     1     -11.742  15.568  67.424  1.00  0.00     0.047 C  
HETATM   26  O   UNK     1     -10.621  15.388  65.289  1.00  0.00    -0.368 OA 
HETATM   27  O   UNK     1      -7.336  10.365  70.317  1.00  0.00    -0.338 OA 
HETATM   28  C   UNK     1     -10.810  18.160  65.694  1.00  0.00     0.068 A  
HETATM   29  C   UNK     1     -10.436  15.827  66.643  1.00  0.00    -0.302 C  
HETATM   30  C   UNK     1     -10.182  17.323  66.644  1.00  0.00    -0.319 A  
HETATM   31  H   UNK     1      -8.090   9.993  70.759  1.00  0.00     0.000 HD 
ENDROOT
BRANCH  15  32
HETATM   32  C   UNK     1      -6.353  10.661  66.883  1.00  0.00    -0.082 C  
HETATM   33  H   UNK     1      -6.421   8.610  67.301  1.00  0.00     0.000 HD 
HETATM   34  O   UNK     1      -6.364  11.477  65.955  1.00  0.00     0.108 OA 
HETATM   35  N   UNK     1      -6.369   9.325  66.575  1.00  0.00    -0.065 N  
BRANCH  35  36
HETATM   36  C   UNK     1      -6.310   8.976  65.173  1.00  0.00    -0.061 C  
BRANCH  36  37
HETATM   37  N   UNK     1      -6.247   7.531  65.083  1.00  0.00    -0.038 NA 
HETATM   38  H   UNK     1      -6.381   7.084  65.990  1.00  0.00     0.000 HD 
BRANCH  37  39
HETATM   39  C   UNK     1      -7.214   7.050  64.079  1.00  0.00    -0.069 C  
BRANCH  39  40
HETATM   40  C   UNK     1      -8.196   6.013  64.653  1.00  0.00    -0.108 C  
BRANCH  40  41
HETATM   41  C   UNK     1      -8.175   4.671  63.913  1.00  0.00    -0.111 C  
BRANCH  41  42
HETATM   42  C   UNK     1      -9.531   4.362  63.254  1.00  0.00    -0.072 C  
BRANCH  42  43
HETATM   43  C   UNK     1     -10.147   3.014  63.662  1.00  0.00    -0.170 C  
HETATM   44  C   UNK     1      -9.124   2.147  64.411  1.00  0.00    -0.123 C  
HETATM   45  N   UNK     1     -11.349   3.192  64.527  1.00  0.00     0.024 NA 
HETATM   46  O   UNK     1      -8.214   1.523  63.891  1.00  0.00    -0.064 OA 
HETATM   47  O   UNK     1      -9.347   2.177  65.752  1.00  0.00    -0.053 OA 
HETATM   48  H2  UNK     1     -12.040   3.796  64.082  1.00  0.00     0.000 HD 
HETATM   49  H1  UNK     1     -11.758   2.297  64.797  1.00  0.00     0.000 HD 
ENDBRANCH  42  43
ENDBRANCH  41  42
ENDBRANCH  40  41
ENDBRANCH  39  40
ENDBRANCH  37  39
ENDBRANCH  36  37
ENDBRANCH  35  36
ENDBRANCH  15  32
BRANCH  24  50
HETATM   50  N   UNK     1      -9.866  10.770  69.446  1.00  0.00    -0.145 NA 
HETATM   51  C   UNK     1     -11.170  11.388  69.350  1.00  0.00    -0.268 C  
HETATM   52  C   UNK     1     -10.002   9.309  69.489  1.00  0.00    -0.187 C  
ENDBRANCH  24  50
TORSDOF 9
ENDMDL
MODEL      123
REMARK 921   NORMALIZED FREE ENERGY PREDICTED BY IDOCK:   -1.02 KCAL/MOL
REMARK 922        TOTAL FREE ENERGY PREDICTED BY IDOCK:   -2.95 KCAL/MOL
REMARK 923 INTER-LIGAND FREE ENERGY PREDICTED BY IDOCK:   -5.11 KCAL/MOL
REMARK 924 INTRA-LIGAND FREE ENERGY PREDICTED BY IDOCK:    2.15 KCAL/MOL
REMARK 927      BINDING AFFINITY PREDICTED BY RF-SCORE:    0.00 PKD
ROOT
HETATM    1  C   UNK     1     -10.653   6.506  70.495  1.00  0.00    -0.282 C  
HETATM    2  C   UNK     1     -10.694   6.034  69.053  1.00  0.00    -0.393 C  
HETATM    3  C   UNK     1      -9.286   5.964  68.391  1.00  0.00    -0.118 C  
HETATM    4  C   UNK     1      -8.536   7.262  68.585  1.00  0.00    -0.128 C  
HETATM    5  C   UNK     1      -7.678   7.773  67.459  1.00  0.00    -0.117 C  
HETATM    6  C   UNK     1      -8.675   7.983  69.712  1.00  0.00    -0.136 C  
HETATM    7  O   UNK     1      -8.079   9.243  69.863  1.00  0.00    -0.096 OA 
HETATM    8  C   UNK     1      -9.721   7.705  70.794  1.00  0.00    -0.173 C  
HETATM    9  C   UNK     1      -7.422   6.904  66.283  1.00  0.00    -0.077 A  
HETATM   10  O   UNK     1      -7.180   8.899  67.496  1.00  0.00    -0.079 OA 
HETATM   11  C   UNK     1      -6.456   7.264  65.328  1.00  0.00    -0.044 A  
HETATM   12  O   UNK     1     -10.475   8.922  70.764  1.00  0.00    -0.202 OA 
HETATM   13  C   UNK     1      -9.241   7.330  72.288  1.00  0.00    -0.131 C  
HETATM   14  H   UNK     1      -8.178   9.752  70.659  1.00  0.00     0.000 HD 
HETATM   15  C   UNK     1     -10.298   6.664  73.177  1.00  0.00    -0.256 C  
HETATM   16  O   UNK     1      -8.138   7.594  72.760  1.00  0.00    -0.099 OA 
HETATM   17  C   UNK     1      -6.160   6.430  64.249  1.00  0.00    -0.026 A  
HETATM   18  H   UNK     1      -9.903   9.658  70.947  1.00  0.00     0.000 HD 
HETATM   19  O   UNK     1      -5.765   8.446  65.361  1.00  0.00    -0.043 OA 
HETATM   20  H   UNK     1      -9.713   3.750  66.107  1.00  0.00     0.000 HD 
HETATM   21  H   UNK     1      -5.113   8.690  64.715  1.00  0.00     0.000 HD 
HETATM   22  C   UNK     1      -6.829   5.221  64.110  1.00  0.00    -0.047 A  
HETATM   23  C   UNK     1     -11.507   7.127  72.778  1.00  0.00    -0.195 C  
HETATM   24  C   UNK     1     -11.994   6.637  71.343  1.00  0.00    -0.353 C  
HETATM   25  C   UNK     1     -10.609   6.105  66.177  1.00  0.00     0.218 C  
HETATM   26  O   UNK     1      -9.634   4.052  67.005  1.00  0.00    -0.189 OA 
HETATM   27  O   UNK     1     -11.872   8.441  73.091  1.00  0.00    -0.370 OA 
HETATM   28  C   UNK     1      -7.828   4.877  65.019  1.00  0.00    -0.092 A  
HETATM   29  C   UNK     1      -9.416   5.469  66.920  1.00  0.00    -0.135 C  
HETATM   30  C   UNK     1      -8.166   5.724  66.099  1.00  0.00    -0.111 A  
HETATM   31  H   UNK     1     -12.720   8.766  72.810  1.00  0.00     0.000 HD 
ENDROOT
BRANCH  15  32
HETATM   32  C   UNK     1     -10.434   5.176  73.424  1.00  0.00    -0.232 C  
HETATM   33  H   UNK     1      -9.804   4.518  71.538  1.00  0.00     0.000 HD 
HETATM   34  O   UNK     1     -10.791   4.774  74.537  1.00  0.00    -0.347 OA 
HETATM   35  N   UNK     1     -10.158   4.245  72.454  1.00  0.00    -0.171 N  
BRANCH  35  36
HETATM   36  C   UNK     1     -10.394   2.860  72.792  1.00  0.00    -0.151 C  
BRANCH  36  37
HETATM   37  N   UNK     1      -9.563   2.049  71.925  1.00  0.00    -0.111 NA 
HETATM   38  H   UNK     1     -10.070   1.725  71.101  1.00  0.00     0.000 HD 
BRANCH  37  39
HETATM   39  C   UNK     1      -8.341   2.793  71.568  1.00  0.00    -0.063 C  
BRANCH  39  40
HETATM   40  C   UNK     1      -7.281   1.902  70.895  1.00  0.00    -0.033 C  
BRANCH  40  41
HETATM   41  C   UNK     1      -5.845   2.220  71.327  1.00  0.00    -0.013 C  
BRANCH  41  42
HETATM   42  C   UNK     1      -5.474   3.685  71.038  1.00  0.00    -0.008 C  
BRANCH  42  43
HETATM   43  C   UNK     1      -6.298   4.719  71.820  1.00  0.00    -0.022 C  
HETATM   44  C   UNK     1      -5.962   4.671  73.318  1.00  0.00    -0.021 C  
HETATM   45  N   UNK     1      -6.067   6.106  71.323  1.00  0.00    -0.031 NA 
HETATM   46  O   UNK     1      -6.360   3.826  74.102  1.00  0.00    -0.029 OA 
HETATM   47  O   UNK     1      -5.133   5.691  73.667  1.00  0.00    -0.021 OA 
HETATM   48  H2  UNK     1      -6.241   6.175  70.320  1.00  0.00     0.000 HD 
HETATM   49  H1  UNK     1      -6.615   6.793  71.842  1.00  0.00     0.000 HD 
ENDBRANCH  42  43
ENDBRANCH  41  42
ENDBRANCH  40  41
ENDBRANCH  39  40
ENDBRANCH  37  39
ENDBRANCH  36  37
ENDBRANCH  35  36
ENDBRANCH  15  32
BRANCH  24  50
HETATM   50  N   UNK     1     -13.139   7.470  70.906  1.00  0.00    -0.068 NA 
HETATM   51  C   UNK     1     -14.334   7.463  71.722  1.00  0.00    -0.436 C  
HETATM   52  C   UNK     1     -12.709   8.851  70.654  1.00  0.00     0.326 C  
ENDBRANCH  24  50
TORSDOF 9
ENDMDL
MODEL      124
REMARK 921   NORMALIZED FREE ENERGY PREDICTED BY IDOCK:   -1.01 KCAL/MOL
REMARK 922        TOTAL FREE ENERGY PREDICTED BY IDOCK:   -2.94 KCAL/MOL
REMARK 923 INTER-LIGAND FREE ENERGY PREDICTED BY IDOCK:   -4.04 KCAL/MOL
REMARK 924 INTRA-LIGAND FREE ENERGY PREDICTED BY IDOCK:    1.10 KCAL/MOL
REMARK 927      BINDING AFFINITY PREDICTED BY RF-SCORE:    0.00 PKD
ROOT
HETATM    1  C   UNK     1     -10.029   6.591  70.565  1.00  0.00    -0.206 C  
HETATM    2  C   UNK     1     -10.145   7.599  69.437  1.00  0.00    -0.196 C  
HETATM    3  C   UNK     1      -8.773   8.197  69.006  1.00  0.00    -0.144 C  
HETATM    4  C   UNK     1      -8.011   8.713  70.206  1.00  0.00    -0.106 C  
HETATM    5  C   UNK     1      -7.212   9.980  70.060  1.00  0.00    -0.156 C  
HETATM    6  C   UNK     1      -8.090   8.094  71.397  1.00  0.00    -0.115 C  
HETATM    7  O   UNK     1      -7.485   8.621  72.546  1.00  0.00    -0.300 OA 
HETATM    8  C   UNK     1      -9.080   6.974  71.726  1.00  0.00    -0.137 C  
HETATM    9  C   UNK     1      -7.018  10.572  68.714  1.00  0.00    -0.070 A  
HETATM   10  O   UNK     1      -6.710  10.533  71.040  1.00  0.00    -0.280 OA 
HETATM   11  C   UNK     1      -6.102  11.620  68.521  1.00  0.00    -0.050 A  
HETATM   12  O   UNK     1      -9.832   7.577  72.786  1.00  0.00    -0.175 OA 
HETATM   13  C   UNK     1      -8.524   5.516  72.136  1.00  0.00    -0.126 C  
HETATM   14  H   UNK     1      -7.541   8.183  73.388  1.00  0.00     0.000 HD 
HETATM   15  C   UNK     1      -9.536   4.368  72.034  1.00  0.00    -0.196 C  
HETATM   16  O   UNK     1      -7.398   5.288  72.571  1.00  0.00    -0.089 OA 
HETATM   17  C   UNK     1      -5.864  12.148  67.251  1.00  0.00    -0.146 A  
HETATM   18  H   UNK     1      -9.250   7.812  73.499  1.00  0.00     0.000 HD 
HETATM   19  O   UNK     1      -5.408  12.214  69.541  1.00  0.00    -0.065 OA 
HETATM   20  H   UNK     1      -9.322   9.044  65.959  1.00  0.00     0.000 HD 
HETATM   21  H   UNK     1      -4.789  12.923  69.411  1.00  0.00     0.000 HD 
HETATM   22  C   UNK     1      -6.541  11.633  66.153  1.00  0.00     0.377 A  
HETATM   23  C   UNK     1     -10.763   4.892  72.268  1.00  0.00    -0.150 C  
HETATM   24  C   UNK     1     -11.324   5.866  71.140  1.00  0.00    -0.159 C  
HETATM   25  C   UNK     1     -10.208  10.125  68.057  1.00  0.00    -0.205 C  
HETATM   26  O   UNK     1      -9.197   8.423  66.668  1.00  0.00    -0.157 OA 
HETATM   27  O   UNK     1     -11.108   5.264  73.572  1.00  0.00    -0.340 OA 
HETATM   28  C   UNK     1      -7.494  10.631  66.338  1.00  0.00    -0.138 A  
HETATM   29  C   UNK     1      -8.979   9.215  67.845  1.00  0.00    -0.128 C  
HETATM   30  C   UNK     1      -7.774  10.108  67.621  1.00  0.00    -0.091 A  
HETATM   31  H   UNK     1     -11.968   5.632  73.736  1.00  0.00     0.000 HD 
ENDROOT
BRANCH  15  32
HETATM   32  C   UNK     1      -9.662   3.403  70.873  1.00  0.00    -0.130 C  
HETATM   33  H   UNK     1      -8.603   4.525  69.457  1.00  0.00     0.000 HD 
HETATM   34  O   UNK     1     -10.240   2.323  71.040  1.00  0.00     0.168 OA 
HETATM   35  N   UNK     1      -9.141   3.677  69.634  1.00  0.00    -0.113 N  
BRANCH  35  36
HETATM   36  C   UNK     1      -9.388   2.707  68.591  1.00  0.00    -0.181 C  
BRANCH  36  37
HETATM   37  N   UNK     1      -8.112   2.364  67.998  1.00  0.00    -0.058 NA 
HETATM   38  H   UNK     1      -8.221   1.873  67.110  1.00  0.00     0.000 HD 
BRANCH  37  39
HETATM   39  C   UNK     1      -7.282   3.576  67.864  1.00  0.00    -0.051 C  
BRANCH  39  40
HETATM   40  C   UNK     1      -6.006   3.330  67.039  1.00  0.00    -0.024 C  
BRANCH  40  41
HETATM   41  C   UNK     1      -6.166   3.645  65.548  1.00  0.00    -0.031 C  
BRANCH  41  42
HETATM   42  C   UNK     1      -7.269   4.690  65.300  1.00  0.00    -0.068 C  
BRANCH  42  43
HETATM   43  C   UNK     1      -7.066   5.545  64.040  1.00  0.00    -0.049 C  
HETATM   44  C   UNK     1      -6.461   6.912  64.394  1.00  0.00    -0.036 C  
HETATM   45  N   UNK     1      -6.179   4.871  63.048  1.00  0.00    -0.021 NA 
HETATM   46  O   UNK     1      -7.074   7.849  64.877  1.00  0.00    -0.064 OA 
HETATM   47  O   UNK     1      -5.130   6.943  64.118  1.00  0.00    -0.026 OA 
HETATM   48  H2  UNK     1      -6.524   3.941  62.813  1.00  0.00     0.000 HD 
HETATM   49  H1  UNK     1      -6.045   5.439  62.211  1.00  0.00     0.000 HD 
ENDBRANCH  42  43
ENDBRANCH  41  42
ENDBRANCH  40  41
ENDBRANCH  39  40
ENDBRANCH  37  39
ENDBRANCH  36  37
ENDBRANCH  35  36
ENDBRANCH  15  32
BRANCH  24  50
HETATM   50  N   UNK     1     -12.488   6.611  71.674  1.00  0.00    -0.344 NA 
HETATM   51  C   UNK     1     -12.268   7.508  72.787  1.00  0.00     0.155 C  
HETATM   52  C   UNK     1     -13.195   7.311  70.595  1.00  0.00     0.374 C  
ENDBRANCH  24  50
TORSDOF 9
ENDMDL
MODEL      125
REMARK 921   NORMALIZED FREE ENERGY PREDICTED BY IDOCK:   -0.95 KCAL/MOL
REMARK 922        TOTAL FREE ENERGY PREDICTED BY IDOCK:   -2.84 KCAL/MOL
REMARK 923 INTER-LIGAND FREE ENERGY PREDICTED BY IDOCK:   -5.60 KCAL/MOL
REMARK 924 INTRA-LIGAND FREE ENERGY PREDICTED BY IDOCK:    2.75 KCAL/MOL
REMARK 927      BINDING AFFINITY PREDICTED BY RF-SCORE:    0.00 PKD
ROOT
HETATM    1  C   UNK     1     -10.822  14.837  68.510  1.00  0.00    -0.255 C  
HETATM    2  C   UNK     1     -10.974  16.285  68.078  1.00  0.00    -0.328 C  
HETATM    3  C   UNK     1      -9.665  16.889  67.488  1.00  0.00    -0.249 C  
HETATM    4  C   UNK     1      -8.498  16.652  68.417  1.00  0.00    -0.216 C  
HETATM    5  C   UNK     1      -7.465  17.737  68.568  1.00  0.00    -0.272 C  
HETATM    6  C   UNK     1      -8.407  15.524  69.145  1.00  0.00    -0.253 C  
HETATM    7  O   UNK     1      -7.394  15.336  70.096  1.00  0.00    -0.083 OA 
HETATM    8  C   UNK     1      -9.526  14.489  69.280  1.00  0.00     0.079 C  
HETATM    9  C   UNK     1      -7.500  18.910  67.660  1.00  0.00    -0.245 A  
HETATM   10  O   UNK     1      -6.588  17.667  69.430  1.00  0.00    -0.251 OA 
HETATM   11  C   UNK     1      -6.430  19.821  67.631  1.00  0.00    -0.218 A  
HETATM   12  O   UNK     1      -9.774  14.537  70.690  1.00  0.00     0.601 OA 
HETATM   13  C   UNK     1      -9.281  12.981  68.763  1.00  0.00     0.160 C  
HETATM   14  H   UNK     1      -7.331  14.540  70.610  1.00  0.00     0.000 HD 
HETATM   15  C   UNK     1     -10.546  12.142  68.541  1.00  0.00    -0.252 C  
HETATM   16  O   UNK     1      -8.180  12.460  68.603  1.00  0.00    -0.107 OA 
HETATM   17  C   UNK     1      -6.419  20.895  66.740  1.00  0.00    -0.362 A  
HETATM   18  H   UNK     1      -8.979  14.323  71.163  1.00  0.00     0.000 HD 
HETATM   19  O   UNK     1      -5.353  19.748  68.474  1.00  0.00    -0.191 OA 
HETATM   20  H   UNK     1     -10.786  19.211  65.577  1.00  0.00     0.000 HD 
HETATM   21  H   UNK     1      -4.630  20.364  68.455  1.00  0.00     0.000 HD 
HETATM   22  C   UNK     1      -7.481  21.074  65.864  1.00  0.00     0.465 A  
HETATM   23  C   UNK     1     -11.480  12.586  69.416  1.00  0.00    -0.263 C  
HETATM   24  C   UNK     1     -12.053  14.045  69.133  1.00  0.00    -0.337 C  
HETATM   25  C   UNK     1     -10.749  19.155  68.096  1.00  0.00    -0.228 C  
HETATM   26  O   UNK     1     -10.638  18.308  65.834  1.00  0.00    -0.477 OA 
HETATM   27  O   UNK     1     -11.346  12.275  70.774  1.00  0.00     0.119 OA 
HETATM   28  C   UNK     1      -8.574  20.210  65.920  1.00  0.00    -0.085 A  
HETATM   29  C   UNK     1      -9.908  18.369  67.068  1.00  0.00    -0.326 C  
HETATM   30  C   UNK     1      -8.619  19.136  66.838  1.00  0.00    -0.315 A  
HETATM   31  H   UNK     1     -12.001  12.586  71.387  1.00  0.00     0.000 HD 
ENDROOT
BRANCH  15  32
HETATM   32  C   UNK     1     -11.233  11.916  67.210  1.00  0.00    -0.317 C  
HETATM   33  H   UNK     1     -10.151  13.318  66.092  1.00  0.00     0.000 HD 
HETATM   34  O   UNK     1     -12.109  11.049  67.117  1.00  0.00     0.016 OA 
HETATM   35  N   UNK     1     -10.907  12.633  66.087  1.00  0.00    -0.268 N  
BRANCH  35  36
HETATM   36  C   UNK     1     -11.683  12.373  64.896  1.00  0.00    -0.365 C  
BRANCH  36  37
HETATM   37  N   UNK     1     -10.841  12.658  63.752  1.00  0.00    -0.427 NA 
HETATM   38  H   UNK     1     -10.544  13.634  63.728  1.00  0.00     0.000 HD 
BRANCH  37  39
HETATM   39  C   UNK     1      -9.696  11.728  63.731  1.00  0.00    -0.232 C  
BRANCH  39  40
HETATM   40  C   UNK     1      -9.107  11.483  65.131  1.00  0.00     0.008 C  
BRANCH  40  41
HETATM   41  C   UNK     1      -8.914  10.000  65.466  1.00  0.00    -0.206 C  
BRANCH  41  42
HETATM   42  C   UNK     1      -8.178   9.252  64.341  1.00  0.00    -0.151 C  
BRANCH  42  43
HETATM   43  C   UNK     1      -7.835   7.789  64.665  1.00  0.00    -0.130 C  
HETATM   44  C   UNK     1      -7.546   6.996  63.382  1.00  0.00    -0.105 C  
HETATM   45  N   UNK     1      -6.653   7.683  65.569  1.00  0.00    -0.045 NA 
HETATM   46  O   UNK     1      -8.390   6.579  62.606  1.00  0.00    -0.067 OA 
HETATM   47  O   UNK     1      -6.208   6.829  63.200  1.00  0.00    -0.041 OA 
HETATM   48  H2  UNK     1      -6.787   8.230  66.420  1.00  0.00     0.000 HD 
HETATM   49  H1  UNK     1      -6.426   6.712  65.785  1.00  0.00     0.000 HD 
ENDBRANCH  42  43
ENDBRANCH  41  42
ENDBRANCH  40  41
ENDBRANCH  39  40
ENDBRANCH  37  39
ENDBRANCH  36  37
ENDBRANCH  35  36
ENDBRANCH  15  32
BRANCH  24  50
HETATM   50  N   UNK     1     -12.790  14.519  70.328  1.00  0.00    -0.280 NA 
HETATM   51  C   UNK     1     -12.019  14.952  71.474  1.00  0.00    -0.350 C  
HETATM   52  C   UNK     1     -13.766  15.551  69.959  1.00  0.00     1.250 C  
ENDBRANCH  24  50
TORSDOF 9
ENDMDL
MODEL      126
REMARK 921   NORMALIZED FREE ENERGY PREDICTED BY IDOCK:   -0.08 KCAL/MOL
REMARK 922        TOTAL FREE ENERGY PREDICTED BY IDOCK:   -1.51 KCAL/MOL
REMARK 923 INTER-LIGAND FREE ENERGY PREDICTED BY IDOCK:   -2.93 KCAL/MOL
REMARK 924 INTRA-LIGAND FREE ENERGY PREDICTED BY IDOCK:    1.42 KCAL/MOL
REMARK 927      BINDING AFFINITY PREDICTED BY RF-SCORE:    0.00 PKD
ROOT
HETATM    1  C   UNK     1      -8.559  11.931  67.645  1.00  0.00    -0.156 C  
HETATM    2  C   UNK     1      -9.226  13.014  68.475  1.00  0.00    -0.062 C  
HETATM    3  C   UNK     1      -8.817  14.454  68.046  1.00  0.00    -0.178 C  
HETATM    4  C   UNK     1      -7.313  14.586  67.970  1.00  0.00    -0.143 C  
HETATM    5  C   UNK     1      -6.680  15.873  68.425  1.00  0.00    -0.116 C  
HETATM    6  C   UNK     1      -6.546  13.559  67.565  1.00  0.00    -0.117 C  
HETATM    7  O   UNK     1      -5.145  13.623  67.598  1.00  0.00    -0.273 OA 
HETATM    8  C   UNK     1      -7.053  12.132  67.347  1.00  0.00    -0.146 C  
HETATM    9  C   UNK     1      -7.540  17.042  68.734  1.00  0.00    -0.243 A  
HETATM   10  O   UNK     1      -5.457  15.976  68.542  1.00  0.00    -0.096 OA 
HETATM   11  C   UNK     1      -6.971  18.309  68.946  1.00  0.00    -0.278 A  
HETATM   12  O   UNK     1      -6.271  11.413  68.309  1.00  0.00    -0.046 OA 
HETATM   13  C   UNK     1      -6.961  11.469  65.879  1.00  0.00     0.511 C  
HETATM   14  H   UNK     1      -4.603  12.897  67.312  1.00  0.00     0.000 HD 
HETATM   15  C   UNK     1      -7.852  10.242  65.648  1.00  0.00    -0.151 C  
HETATM   16  O   UNK     1      -6.199  11.835  64.988  1.00  0.00     1.395 OA 
HETATM   17  C   UNK     1      -7.769  19.431  69.177  1.00  0.00    -0.287 A  
HETATM   18  H   UNK     1      -5.347  11.536  68.126  1.00  0.00     0.000 HD 
HETATM   19  O   UNK     1      -5.621  18.537  68.971  1.00  0.00    -0.195 OA 
HETATM   20  H   UNK     1     -11.340  16.193  69.001  1.00  0.00     0.000 HD 
HETATM   21  H   UNK     1      -5.236  19.394  69.114  1.00  0.00     0.000 HD 
HETATM   22  C   UNK     1      -9.152  19.299  69.201  1.00  0.00    -0.203 A  
HETATM   23  C   UNK     1      -7.992   9.617  66.841  1.00  0.00    -0.105 C  
HETATM   24  C   UNK     1      -8.855  10.394  67.930  1.00  0.00    -0.125 C  
HETATM   25  C   UNK     1      -9.576  15.097  70.430  1.00  0.00     0.579 C  
HETATM   26  O   UNK     1     -10.895  15.554  68.455  1.00  0.00    -0.252 OA 
HETATM   27  O   UNK     1      -6.910   8.903  67.368  1.00  0.00    -0.069 OA 
HETATM   28  C   UNK     1      -9.727  18.038  69.048  1.00  0.00    -0.208 A  
HETATM   29  C   UNK     1      -9.545  15.500  68.941  1.00  0.00    -0.220 C  
HETATM   30  C   UNK     1      -8.934  16.885  68.847  1.00  0.00    -0.215 A  
HETATM   31  H   UNK     1      -7.008   8.464  68.205  1.00  0.00     0.000 HD 
ENDROOT
BRANCH  15  32
HETATM   32  C   UNK     1      -9.207  10.252  64.971  1.00  0.00    -0.213 C  
HETATM   33  H   UNK     1      -8.820  11.771  63.582  1.00  0.00     0.000 HD 
HETATM   34  O   UNK     1     -10.070   9.442  65.328  1.00  0.00    -0.076 OA 
HETATM   35  N   UNK     1      -9.513  11.122  63.956  1.00  0.00    -0.224 N  
BRANCH  35  36
HETATM   36  C   UNK     1     -10.863  11.079  63.441  1.00  0.00     0.004 C  
BRANCH  36  37
HETATM   37  N   UNK     1     -11.165  12.384  62.891  1.00  0.00    -0.559 NA 
HETATM   38  H   UNK     1     -11.081  12.401  61.874  1.00  0.00     0.000 HD 
BRANCH  37  39
HETATM   39  C   UNK     1     -12.498  12.822  63.344  1.00  0.00    -0.339 C  
BRANCH  39  40
HETATM   40  C   UNK     1     -12.499  14.267  63.874  1.00  0.00    -0.062 C  
BRANCH  40  41
HETATM   41  C   UNK     1     -11.710  14.444  65.176  1.00  0.00    -0.372 C  
BRANCH  41  42
HETATM   42  C   UNK     1     -10.523  15.407  64.998  1.00  0.00    -0.411 C  
BRANCH  42  43
HETATM   43  C   UNK     1     -10.401  16.480  66.091  1.00  0.00    -0.334 C  
HETATM   44  C   UNK     1      -9.414  17.581  65.674  1.00  0.00     0.385 C  
HETATM   45  N   UNK     1     -11.717  17.110  66.401  1.00  0.00     1.655 NA 
HETATM   46  O   UNK     1      -8.198  17.482  65.698  1.00  0.00    -0.505 OA 
HETATM   47  O   UNK     1     -10.072  18.691  65.247  1.00  0.00    -0.062 OA 
HETATM   48  H2  UNK     1     -12.416  16.408  66.646  1.00  0.00     0.000 HD 
HETATM   49  H1  UNK     1     -11.636  17.821  67.128  1.00  0.00     0.000 HD 
ENDBRANCH  42  43
ENDBRANCH  41  42
ENDBRANCH  40  41
ENDBRANCH  39  40
ENDBRANCH  37  39
ENDBRANCH  36  37
ENDBRANCH  35  36
ENDBRANCH  15  32
BRANCH  24  50
HETATM   50  N   UNK     1      -8.642   9.769  69.257  1.00  0.00    -0.145 NA 
HETATM   51  C   UNK     1      -7.594  10.304  70.099  1.00  0.00    -0.022 C  
HETATM   52  C   UNK     1      -9.903   9.699  70.005  1.00  0.00    -0.246 C  
ENDBRANCH  24  50
TORSDOF 9
ENDMDL
MODEL      127
REMARK 921   NORMALIZED FREE ENERGY PREDICTED BY IDOCK:    0.08 KCAL/MOL
REMARK 922        TOTAL FREE ENERGY PREDICTED BY IDOCK:   -1.27 KCAL/MOL
REMARK 923 INTER-LIGAND FREE ENERGY PREDICTED BY IDOCK:   -1.30 KCAL/MOL
REMARK 924 INTRA-LIGAND FREE ENERGY PREDICTED BY IDOCK:    0.03 KCAL/MOL
REMARK 927      BINDING AFFINITY PREDICTED BY RF-SCORE:    0.00 PKD
ROOT
HETATM    1  C   UNK     1      -8.664   4.612  70.947  1.00  0.00    -0.137 C  
HETATM    2  C   UNK     1      -9.958   4.974  71.655  1.00  0.00    -0.249 C  
HETATM    3  C   UNK     1     -10.654   6.231  71.056  1.00  0.00    -0.289 C  
HETATM    4  C   UNK     1      -9.680   7.382  70.943  1.00  0.00    -0.169 C  
HETATM    5  C   UNK     1     -10.174   8.773  71.236  1.00  0.00    -0.262 C  
HETATM    6  C   UNK     1      -8.386   7.170  70.648  1.00  0.00    -0.126 C  
HETATM    7  O   UNK     1      -7.446   8.210  70.652  1.00  0.00    -0.061 OA 
HETATM    8  C   UNK     1      -7.722   5.792  70.605  1.00  0.00    -0.093 C  
HETATM    9  C   UNK     1     -11.627   9.010  71.419  1.00  0.00    -0.396 A  
HETATM   10  O   UNK     1      -9.393   9.722  71.321  1.00  0.00    -0.008 OA 
HETATM   11  C   UNK     1     -12.135  10.319  71.474  1.00  0.00    -0.314 A  
HETATM   12  O   UNK     1      -6.733   5.932  71.632  1.00  0.00    -0.055 OA 
HETATM   13  C   UNK     1      -7.084   5.258  69.223  1.00  0.00    -0.057 C  
HETATM   14  H   UNK     1      -6.531   8.060  70.445  1.00  0.00     0.000 HD 
HETATM   15  C   UNK     1      -6.831   3.747  69.149  1.00  0.00    -0.045 C  
HETATM   16  O   UNK     1      -6.741   5.971  68.284  1.00  0.00    -0.056 OA 
HETATM   17  C   UNK     1     -13.505  10.560  71.586  1.00  0.00    -0.310 A  
HETATM   18  H   UNK     1      -6.154   6.656  71.422  1.00  0.00     0.000 HD 
HETATM   19  O   UNK     1     -11.344  11.438  71.452  1.00  0.00     0.676 OA 
HETATM   20  H   UNK     1     -13.729   5.749  71.840  1.00  0.00     0.000 HD 
HETATM   21  H   UNK     1     -11.687  12.323  71.490  1.00  0.00     0.000 HD 
HETATM   22  C   UNK     1     -14.389   9.490  71.645  1.00  0.00     0.137 A  
HETATM   23  C   UNK     1      -6.575   3.320  70.409  1.00  0.00    -0.032 C  
HETATM   24  C   UNK     1      -7.810   3.353  71.413  1.00  0.00    -0.056 C  
HETATM   25  C   UNK     1     -11.815   6.364  73.360  1.00  0.00     1.011 C  
HETATM   26  O   UNK     1     -12.925   5.566  71.365  1.00  0.00     1.975 OA 
HETATM   27  O   UNK     1      -5.346   3.636  70.999  1.00  0.00    -0.004 OA 
HETATM   28  C   UNK     1     -13.895   8.186  71.648  1.00  0.00    -0.434 A  
HETATM   29  C   UNK     1     -11.970   6.530  71.834  1.00  0.00    -0.341 C  
HETATM   30  C   UNK     1     -12.508   7.923  71.570  1.00  0.00    -0.341 A  
HETATM   31  H   UNK     1      -5.167   3.337  71.883  1.00  0.00     0.000 HD 
ENDROOT
BRANCH  15  32
HETATM   32  C   UNK     1      -7.746   2.730  68.496  1.00  0.00    -0.054 C  
HETATM   33  H   UNK     1      -7.083   2.978  66.525  1.00  0.00     0.000 HD 
HETATM   34  O   UNK     1      -8.517   2.067  69.199  1.00  0.00    -0.051 OA 
HETATM   35  N   UNK     1      -7.740   2.503  67.144  1.00  0.00    -0.069 N  
BRANCH  35  36
HETATM   36  C   UNK     1      -8.709   1.558  66.635  1.00  0.00    -0.115 C  
BRANCH  36  37
HETATM   37  N   UNK     1      -9.622   2.285  65.777  1.00  0.00    -0.349 NA 
HETATM   38  H   UNK     1     -10.375   1.692  65.427  1.00  0.00     0.000 HD 
BRANCH  37  39
HETATM   39  C   UNK     1     -10.135   3.472  66.486  1.00  0.00     0.545 C  
BRANCH  39  40
HETATM   40  C   UNK     1     -10.041   4.754  65.639  1.00  0.00    -0.198 C  
BRANCH  40  41
HETATM   41  C   UNK     1     -10.751   5.959  66.266  1.00  0.00    -0.041 C  
BRANCH  41  42
HETATM   42  C   UNK     1      -9.925   6.579  67.407  1.00  0.00    -0.180 C  
BRANCH  42  43
HETATM   43  C   UNK     1      -9.703   8.094  67.284  1.00  0.00    -0.178 C  
HETATM   44  C   UNK     1      -8.890   8.430  66.024  1.00  0.00    -0.167 C  
HETATM   45  N   UNK     1     -10.992   8.843  67.235  1.00  0.00    -0.370 NA 
HETATM   46  O   UNK     1      -7.684   8.288  65.906  1.00  0.00    -0.082 OA 
HETATM   47  O   UNK     1      -9.695   8.893  65.032  1.00  0.00     0.210 OA 
HETATM   48  H2  UNK     1     -11.582   8.619  68.036  1.00  0.00     0.000 HD 
HETATM   49  H1  UNK     1     -10.844   9.849  67.154  1.00  0.00     0.000 HD 
ENDBRANCH  42  43
ENDBRANCH  41  42
ENDBRANCH  40  41
ENDBRANCH  39  40
ENDBRANCH  37  39
ENDBRANCH  36  37
ENDBRANCH  35  36
ENDBRANCH  15  32
BRANCH  24  50
HETATM   50  N   UNK     1      -7.315   3.190  72.800  1.00  0.00    -0.048 NA 
HETATM   51  C   UNK     1      -7.249   4.366  73.641  1.00  0.00    -0.072 C  
HETATM   52  C   UNK     1      -8.046   2.119  73.489  1.00  0.00    -0.050 C  
ENDBRANCH  24  50
TORSDOF 9
ENDMDL
MODEL      128
REMARK 921   NORMALIZED FREE ENERGY PREDICTED BY IDOCK:    0.44 KCAL/MOL
REMARK 922        TOTAL FREE ENERGY PREDICTED BY IDOCK:   -0.71 KCAL/MOL
REMARK 923 INTER-LIGAND FREE ENERGY PREDICTED BY IDOCK:   -3.07 KCAL/MOL
REMARK 924 INTRA-LIGAND FREE ENERGY PREDICTED BY IDOCK:    2.35 KCAL/MOL
REMARK 927      BINDING AFFINITY PREDICTED BY RF-SCORE:    0.00 PKD
ROOT
HETATM    1  C   UNK     1      -9.513   5.963  71.029  1.00  0.00    -0.189 C  
HETATM    2  C   UNK     1      -9.471   7.159  70.095  1.00  0.00    -0.161 C  
HETATM    3  C   UNK     1      -8.081   7.861  70.061  1.00  0.00    -0.117 C  
HETATM    4  C   UNK     1      -7.598   8.165  71.461  1.00  0.00    -0.090 C  
HETATM    5  C   UNK     1      -6.864   9.456  71.704  1.00  0.00     0.222 C  
HETATM    6  C   UNK     1      -7.868   7.335  72.484  1.00  0.00    -0.095 C  
HETATM    7  O   UNK     1      -7.529   7.655  73.806  1.00  0.00    -0.109 OA 
HETATM    8  C   UNK     1      -8.832   6.149  72.405  1.00  0.00    -0.136 C  
HETATM    9  C   UNK     1      -6.451  10.291  70.549  1.00  0.00    -0.104 A  
HETATM   10  O   UNK     1      -6.596   9.831  72.847  1.00  0.00     0.322 OA 
HETATM   11  C   UNK     1      -5.581  11.380  70.732  1.00  0.00    -0.111 A  
HETATM   12  O   UNK     1      -9.810   6.527  73.382  1.00  0.00    -0.162 OA 
HETATM   13  C   UNK     1      -8.277   4.655  72.656  1.00  0.00    -0.107 C  
HETATM   14  H   UNK     1      -7.720   7.069  74.529  1.00  0.00     0.000 HD 
HETATM   15  C   UNK     1      -9.179   3.520  72.152  1.00  0.00    -0.165 C  
HETATM   16  O   UNK     1      -7.245   4.378  73.261  1.00  0.00    -0.070 OA 
HETATM   17  C   UNK     1      -5.134  12.138  69.649  1.00  0.00    -0.071 A  
HETATM   18  H   UNK     1      -9.392   6.641  74.227  1.00  0.00     0.000 HD 
HETATM   19  O   UNK     1      -5.134  11.792  71.959  1.00  0.00    -0.335 OA 
HETATM   20  H   UNK     1      -8.082   9.241  67.163  1.00  0.00     0.000 HD 
HETATM   21  H   UNK     1      -4.546  12.528  72.083  1.00  0.00     0.000 HD 
HETATM   22  C   UNK     1      -5.554  11.818  68.364  1.00  0.00    -0.045 A  
HETATM   23  C   UNK     1     -10.457   3.961  72.224  1.00  0.00    -0.032 C  
HETATM   24  C   UNK     1     -10.848   5.113  71.195  1.00  0.00     0.010 C  
HETATM   25  C   UNK     1      -9.420   9.894  69.197  1.00  0.00    -0.201 C  
HETATM   26  O   UNK     1      -8.058   8.503  67.762  1.00  0.00    -0.113 OA 
HETATM   27  O   UNK     1     -11.070   4.078  73.476  1.00  0.00    -0.240 OA 
HETATM   28  C   UNK     1      -6.461  10.776  68.175  1.00  0.00    -0.058 A  
HETATM   29  C   UNK     1      -8.121   9.070  69.080  1.00  0.00    -0.107 C  
HETATM   30  C   UNK     1      -6.951  10.018  69.263  1.00  0.00    -0.063 A  
HETATM   31  H   UNK     1     -11.967   4.388  73.526  1.00  0.00     0.000 HD 
ENDROOT
BRANCH  15  32
HETATM   32  C   UNK     1      -9.019   2.783  70.838  1.00  0.00    -0.096 C  
HETATM   33  H   UNK     1      -8.836   4.459  69.595  1.00  0.00     0.000 HD 
HETATM   34  O   UNK     1      -8.994   1.547  70.834  1.00  0.00    -0.057 OA 
HETATM   35  N   UNK     1      -8.883   3.441  69.642  1.00  0.00    -0.080 N  
BRANCH  35  36
HETATM   36  C   UNK     1      -8.809   2.625  68.451  1.00  0.00    -0.118 C  
BRANCH  36  37
HETATM   37  N   UNK     1      -7.725   3.134  67.637  1.00  0.00    -0.068 NA 
HETATM   38  H   UNK     1      -7.489   2.500  66.873  1.00  0.00     0.000 HD 
BRANCH  37  39
HETATM   39  C   UNK     1      -8.058   4.487  67.152  1.00  0.00    -0.102 C  
BRANCH  39  40
HETATM   40  C   UNK     1      -7.102   4.971  66.047  1.00  0.00    -0.072 C  
BRANCH  40  41
HETATM   41  C   UNK     1      -7.800   5.257  64.713  1.00  0.00    -0.097 C  
BRANCH  41  42
HETATM   42  C   UNK     1      -7.670   4.076  63.735  1.00  0.00    -0.082 C  
BRANCH  42  43
HETATM   43  C   UNK     1      -8.798   3.981  62.696  1.00  0.00    -0.100 C  
HETATM   44  C   UNK     1      -9.913   3.042  63.180  1.00  0.00    -0.115 C  
HETATM   45  N   UNK     1      -9.392   5.315  62.396  1.00  0.00    -0.358 NA 
HETATM   46  O   UNK     1      -9.861   1.823  63.170  1.00  0.00    -0.099 OA 
HETATM   47  O   UNK     1     -10.977   3.747  63.649  1.00  0.00    -0.226 OA 
HETATM   48  H2  UNK     1      -8.678   5.983  62.108  1.00  0.00     0.000 HD 
HETATM   49  H1  UNK     1     -10.141   5.252  61.706  1.00  0.00     0.000 HD 
ENDBRANCH  42  43
ENDBRANCH  41  42
ENDBRANCH  40  41
ENDBRANCH  39  40
ENDBRANCH  37  39
ENDBRANCH  36  37
ENDBRANCH  35  36
ENDBRANCH  15  32
BRANCH  24  50
HETATM   50  N   UNK     1     -12.137   5.717  71.606  1.00  0.00     0.442 NA 
HETATM   51  C   UNK     1     -12.686   5.338  72.891  1.00  0.00     0.829 C  
HETATM   52  C   UNK     1     -12.084   7.180  71.493  1.00  0.00    -0.342 C  
ENDBRANCH  24  50
TORSDOF 9
ENDMDL
MODEL      129
REMARK 921   NORMALIZED FREE ENERGY PREDICTED BY IDOCK:    0.65 KCAL/MOL
REMARK 922        TOTAL FREE ENERGY PREDICTED BY IDOCK:   -0.41 KCAL/MOL
REMARK 923 INTER-LIGAND FREE ENERGY PREDICTED BY IDOCK:   -2.67 KCAL/MOL
REMARK 924 INTRA-LIGAND FREE ENERGY PREDICTED BY IDOCK:    2.26 KCAL/MOL
REMARK 927      BINDING AFFINITY PREDICTED BY RF-SCORE:    0.00 PKD
ROOT
HETATM    1  C   UNK     1      -8.752   9.136  65.596  1.00  0.00    -0.203 C  
HETATM    2  C   UNK     1      -9.628   7.952  65.963  1.00  0.00    -0.037 C  
HETATM    3  C   UNK     1      -8.843   6.802  66.660  1.00  0.00    -0.142 C  
HETATM    4  C   UNK     1      -7.617   6.426  65.861  1.00  0.00    -0.084 C  
HETATM    5  C   UNK     1      -7.229   4.974  65.779  1.00  0.00    -0.072 C  
HETATM    6  C   UNK     1      -6.919   7.354  65.184  1.00  0.00    -0.058 C  
HETATM    7  O   UNK     1      -5.849   7.010  64.345  1.00  0.00    -0.035 OA 
HETATM    8  C   UNK     1      -7.377   8.798  64.971  1.00  0.00    -0.089 C  
HETATM    9  C   UNK     1      -7.919   3.983  66.641  1.00  0.00    -0.097 A  
HETATM   10  O   UNK     1      -6.343   4.594  65.012  1.00  0.00    -0.033 OA 
HETATM   11  C   UNK     1      -7.432   2.669  66.746  1.00  0.00    -0.070 A  
HETATM   12  O   UNK     1      -7.471   8.849  63.542  1.00  0.00    -0.100 OA 
HETATM   13  C   UNK     1      -6.490  10.010  65.560  1.00  0.00    -0.095 C  
HETATM   14  H   UNK     1      -5.356   7.666  63.866  1.00  0.00     0.000 HD 
HETATM   15  C   UNK     1      -7.207  11.360  65.681  1.00  0.00     0.564 C  
HETATM   16  O   UNK     1      -5.297   9.936  65.845  1.00  0.00    -0.041 OA 
HETATM   17  C   UNK     1      -8.033   1.741  67.598  1.00  0.00    -0.060 A  
HETATM   18  H   UNK     1      -6.627   8.641  63.159  1.00  0.00     0.000 HD 
HETATM   19  O   UNK     1      -6.373   2.195  66.018  1.00  0.00    -0.023 OA 
HETATM   20  H   UNK     1     -11.137   5.350  68.373  1.00  0.00     0.000 HD 
HETATM   21  H   UNK     1      -6.044   1.306  66.089  1.00  0.00     0.000 HD 
HETATM   22  C   UNK     1      -9.134   2.116  68.358  1.00  0.00    -0.213 A  
HETATM   23  C   UNK     1      -8.143  11.407  64.703  1.00  0.00     0.914 C  
HETATM   24  C   UNK     1      -9.375  10.413  64.879  1.00  0.00    -0.243 C  
HETATM   25  C   UNK     1     -10.817   5.331  65.873  1.00  0.00     0.009 C  
HETATM   26  O   UNK     1     -10.546   6.064  68.162  1.00  0.00    -0.211 OA 
HETATM   27  O   UNK     1      -7.736  11.586  63.376  1.00  0.00     0.374 OA 
HETATM   28  C   UNK     1      -9.661   3.400  68.221  1.00  0.00    -0.149 A  
HETATM   29  C   UNK     1      -9.813   5.632  67.006  1.00  0.00    -0.154 C  
HETATM   30  C   UNK     1      -9.087   4.342  67.338  1.00  0.00    -0.148 A  
HETATM   31  H   UNK     1      -8.392  11.619  62.691  1.00  0.00     0.000 HD 
ENDROOT
BRANCH  15  32
HETATM   32  C   UNK     1      -7.833  11.917  66.943  1.00  0.00    -0.120 C  
HETATM   33  H   UNK     1      -9.817  11.973  66.274  1.00  0.00     0.000 HD 
HETATM   34  O   UNK     1      -7.122  12.127  67.932  1.00  0.00    -0.084 OA 
HETATM   35  N   UNK     1      -9.175  12.184  67.038  1.00  0.00    -0.195 N  
BRANCH  35  36
HETATM   36  C   UNK     1      -9.638  12.779  68.272  1.00  0.00    -0.211 C  
BRANCH  36  37
HETATM   37  N   UNK     1      -9.007  14.077  68.397  1.00  0.00    -0.192 NA 
HETATM   38  H   UNK     1      -9.317  14.726  67.674  1.00  0.00     0.000 HD 
BRANCH  37  39
HETATM   39  C   UNK     1      -9.229  14.611  69.754  1.00  0.00     0.456 C  
BRANCH  39  40
HETATM   40  C   UNK     1     -10.566  15.363  69.883  1.00  0.00    -0.315 C  
BRANCH  40  41
HETATM   41  C   UNK     1     -10.415  16.888  69.892  1.00  0.00     0.018 C  
BRANCH  41  42
HETATM   42  C   UNK     1     -10.471  17.477  68.472  1.00  0.00    -0.361 C  
BRANCH  42  43
HETATM   43  C   UNK     1      -9.517  18.657  68.232  1.00  0.00    -0.336 C  
HETATM   44  C   UNK     1      -9.032  18.684  66.774  1.00  0.00    -0.297 C  
HETATM   45  N   UNK     1     -10.161  19.965  68.546  1.00  0.00    -0.449 NA 
HETATM   46  O   UNK     1      -8.176  17.954  66.304  1.00  0.00    -0.353 OA 
HETATM   47  O   UNK     1      -9.700  19.624  66.054  1.00  0.00    -0.387 OA 
HETATM   48  H2  UNK     1     -10.534  19.977  69.495  1.00  0.00     0.000 HD 
HETATM   49  H1  UNK     1      -9.527  20.749  68.387  1.00  0.00     0.000 HD 
ENDBRANCH  42  43
ENDBRANCH  41  42
ENDBRANCH  40  41
ENDBRANCH  39  40
ENDBRANCH  37  39
ENDBRANCH  36  37
ENDBRANCH  35  36
ENDBRANCH  15  32
BRANCH  24  50
HETATM   50  N   UNK     1     -10.121  10.330  63.602  1.00  0.00    -0.026 NA 
HETATM   51  C   UNK     1     -11.428  10.948  63.537  1.00  0.00     0.959 C  
HETATM   52  C   UNK     1      -9.289  10.793  62.484  1.00  0.00    -0.278 C  
ENDBRANCH  24  50
TORSDOF 9
ENDMDL
MODEL      130
REMARK 921   NORMALIZED FREE ENERGY PREDICTED BY IDOCK:    1.32 KCAL/MOL
REMARK 922        TOTAL FREE ENERGY PREDICTED BY IDOCK:    0.61 KCAL/MOL
REMARK 923 INTER-LIGAND FREE ENERGY PREDICTED BY IDOCK:   -0.92 KCAL/MOL
REMARK 924 INTRA-LIGAND FREE ENERGY PREDICTED BY IDOCK:    1.54 KCAL/MOL
REMARK 927      BINDING AFFINITY PREDICTED BY RF-SCORE:    0.00 PKD
ROOT
HETATM    1  C   UNK     1     -10.179  10.005  66.322  1.00  0.00    -0.285 C  
HETATM    2  C   UNK     1     -10.651   8.590  66.041  1.00  0.00     1.140 C  
HETATM    3  C   UNK     1      -9.548   7.518  66.283  1.00  0.00    -0.134 C  
HETATM    4  C   UNK     1      -8.272   7.887  65.562  1.00  0.00    -0.140 C  
HETATM    5  C   UNK     1      -7.462   6.789  64.926  1.00  0.00    -0.094 C  
HETATM    6  C   UNK     1      -7.894   9.171  65.432  1.00  0.00    -0.100 C  
HETATM    7  O   UNK     1      -6.777   9.540  64.670  1.00  0.00    -0.086 OA 
HETATM    8  C   UNK     1      -8.772  10.371  65.792  1.00  0.00    -0.168 C  
HETATM    9  C   UNK     1      -7.811   5.373  65.195  1.00  0.00    -0.095 A  
HETATM   10  O   UNK     1      -6.508   7.046  64.188  1.00  0.00    -0.038 OA 
HETATM   11  C   UNK     1      -6.947   4.337  64.797  1.00  0.00    -0.050 A  
HETATM   12  O   UNK     1      -8.888  11.017  64.518  1.00  0.00    -0.338 OA 
HETATM   13  C   UNK     1      -8.289  11.394  66.943  1.00  0.00    -0.159 C  
HETATM   14  H   UNK     1      -6.511  10.448  64.578  1.00  0.00     0.000 HD 
HETATM   15  C   UNK     1      -9.382  12.296  67.530  1.00  0.00    -0.183 C  
HETATM   16  O   UNK     1      -7.128  11.534  67.319  1.00  0.00    -0.109 OA 
HETATM   17  C   UNK     1      -7.231   3.004  65.096  1.00  0.00    -0.066 A  
HETATM   18  H   UNK     1      -8.024  11.242  64.193  1.00  0.00     0.000 HD 
HETATM   19  O   UNK     1      -5.800   4.545  64.078  1.00  0.00    -0.016 OA 
HETATM   20  H   UNK     1     -11.278   4.890  66.919  1.00  0.00     0.000 HD 
HETATM   21  H   UNK     1      -5.216   3.846  63.809  1.00  0.00     0.000 HD 
HETATM   22  C   UNK     1      -8.387   2.686  65.797  1.00  0.00    -0.094 A  
HETATM   23  C   UNK     1     -10.296  12.507  66.552  1.00  0.00    -0.237 C  
HETATM   24  C   UNK     1     -11.167  11.240  66.136  1.00  0.00    -0.065 C  
HETATM   25  C   UNK     1     -10.988   6.062  64.707  1.00  0.00     4.508 C  
HETATM   26  O   UNK     1     -10.933   5.756  67.105  1.00  0.00    -0.268 OA 
HETATM   27  O   UNK     1      -9.973  13.357  65.488  1.00  0.00    -0.388 OA 
HETATM   28  C   UNK     1      -9.280   3.698  66.148  1.00  0.00    -0.171 A  
HETATM   29  C   UNK     1     -10.113   6.098  65.978  1.00  0.00     0.247 C  
HETATM   30  C   UNK     1      -9.027   5.051  65.825  1.00  0.00    -0.145 A  
HETATM   31  H   UNK     1     -10.614  13.504  64.803  1.00  0.00     0.000 HD 
ENDROOT
BRANCH  15  32
HETATM   32  C   UNK     1     -10.137  12.044  68.819  1.00  0.00    -0.099 C  
HETATM   33  H   UNK     1     -11.948  12.938  68.266  1.00  0.00     0.000 HD 
HETATM   34  O   UNK     1      -9.587  11.419  69.733  1.00  0.00     0.646 OA 
HETATM   35  N   UNK     1     -11.426  12.472  69.008  1.00  0.00    -0.284 N  
BRANCH  35  36
HETATM   36  C   UNK     1     -12.012  12.231  70.307  1.00  0.00    -0.290 C  
BRANCH  36  37
HETATM   37  N   UNK     1     -12.421  10.842  70.353  1.00  0.00    -0.342 NA 
HETATM   38  H   UNK     1     -11.624  10.210  70.432  1.00  0.00     0.000 HD 
BRANCH  37  39
HETATM   39  C   UNK     1     -13.395  10.644  71.443  1.00  0.00    -0.205 C  
BRANCH  39  40
HETATM   40  C   UNK     1     -13.146   9.346  72.231  1.00  0.00    -0.509 C  
BRANCH  40  41
HETATM   41  C   UNK     1     -12.550   8.216  71.384  1.00  0.00    -0.301 C  
BRANCH  41  42
HETATM   42  C   UNK     1     -12.349   6.931  72.205  1.00  0.00    -0.227 C  
BRANCH  42  43
HETATM   43  C   UNK     1     -10.880   6.576  72.486  1.00  0.00    -0.239 C  
HETATM   44  C   UNK     1     -10.603   5.097  72.174  1.00  0.00    -0.211 C  
HETATM   45  N   UNK     1      -9.942   7.417  71.687  1.00  0.00    -0.176 NA 
HETATM   46  O   UNK     1     -10.919   4.157  72.884  1.00  0.00    -0.167 OA 
HETATM   47  O   UNK     1      -9.969   4.959  70.980  1.00  0.00    -0.189 OA 
HETATM   48  H2  UNK     1     -10.118   8.411  71.833  1.00  0.00     0.000 HD 
HETATM   49  H1  UNK     1      -8.968   7.181  71.874  1.00  0.00     0.000 HD 
ENDBRANCH  42  43
ENDBRANCH  41  42
ENDBRANCH  40  41
ENDBRANCH  39  40
ENDBRANCH  37  39
ENDBRANCH  36  37
ENDBRANCH  35  36
ENDBRANCH  15  32
BRANCH  24  50
HETATM   50  N   UNK     1     -11.863  11.525  64.860  1.00  0.00     0.022 NA 
HETATM   51  C   UNK     1     -12.602  12.764  64.751  1.00  0.00    -0.446 C  
HETATM   52  C   UNK     1     -10.942  11.386  63.725  1.00  0.00    -0.370 C  
ENDBRANCH  24  50
TORSDOF 9
ENDMDL
MODEL      131
REMARK 921   NORMALIZED FREE ENERGY PREDICTED BY IDOCK:    1.79 KCAL/MOL
REMARK 922        TOTAL FREE ENERGY PREDICTED BY IDOCK:    1.34 KCAL/MOL
REMARK 923 INTER-LIGAND FREE ENERGY PREDICTED BY IDOCK:   -0.23 KCAL/MOL
REMARK 924 INTRA-LIGAND FREE ENERGY PREDICTED BY IDOCK:    1.57 KCAL/MOL
REMARK 927      BINDING AFFINITY PREDICTED BY RF-SCORE:    0.00 PKD
ROOT
HETATM    1  C   UNK     1     -10.494  10.365  68.418  1.00  0.00    -0.216 C  
HETATM    2  C   UNK     1     -11.462  11.048  67.469  1.00  0.00    -0.266 C  
HETATM    3  C   UNK     1     -10.822  12.237  66.693  1.00  0.00    -0.296 C  
HETATM    4  C   UNK     1     -10.128  13.187  67.642  1.00  0.00    -0.221 C  
HETATM    5  C   UNK     1     -10.210  14.665  67.368  1.00  0.00    -0.240 C  
HETATM    6  C   UNK     1      -9.503  12.736  68.743  1.00  0.00     0.124 C  
HETATM    7  O   UNK     1      -8.954  13.608  69.693  1.00  0.00     0.398 OA 
HETATM    8  C   UNK     1      -9.593  11.299  69.262  1.00  0.00     0.170 C  
HETATM    9  C   UNK     1     -10.778  15.140  66.082  1.00  0.00    -0.327 A  
HETATM   10  O   UNK     1      -9.808  15.490  68.191  1.00  0.00    -0.214 OA 
HETATM   11  C   UNK     1     -10.667  16.490  65.708  1.00  0.00    -0.225 A  
HETATM   12  O   UNK     1     -10.188  11.510  70.549  1.00  0.00     1.323 OA 
HETATM   13  C   UNK     1      -8.257  10.401  69.356  1.00  0.00    -0.151 C  
HETATM   14  H   UNK     1      -8.512  13.289  70.471  1.00  0.00     0.000 HD 
HETATM   15  C   UNK     1      -8.481   8.888  69.471  1.00  0.00    -0.128 C  
HETATM   16  O   UNK     1      -7.112  10.844  69.405  1.00  0.00    -0.108 OA 
HETATM   17  C   UNK     1     -11.141  16.942  64.476  1.00  0.00     0.379 A  
HETATM   18  H   UNK     1      -9.635  12.084  71.066  1.00  0.00     0.000 HD 
HETATM   19  O   UNK     1     -10.121  17.454  66.515  1.00  0.00    -0.295 OA 
HETATM   20  H   UNK     1     -12.629  12.375  64.044  1.00  0.00     0.000 HD 
HETATM   21  H   UNK     1     -10.046  18.367  66.262  1.00  0.00     0.000 HD 
HETATM   22  C   UNK     1     -11.738  16.046  63.598  1.00  0.00     1.190 A  
HETATM   23  C   UNK     1      -9.660   8.704  70.113  1.00  0.00    -0.172 C  
HETATM   24  C   UNK     1     -10.962   9.124  69.297  1.00  0.00    -0.061 C  
HETATM   25  C   UNK     1     -13.268  13.017  66.396  1.00  0.00     2.214 C  
HETATM   26  O   UNK     1     -11.986  11.984  64.624  1.00  0.00    -0.323 OA 
HETATM   27  O   UNK     1      -9.735   8.959  71.487  1.00  0.00    -0.261 OA 
HETATM   28  C   UNK     1     -11.906  14.715  63.979  1.00  0.00    -0.135 A  
HETATM   29  C   UNK     1     -11.877  12.878  65.742  1.00  0.00    -0.419 C  
HETATM   30  C   UNK     1     -11.462  14.247  65.237  1.00  0.00    -0.344 A  
HETATM   31  H   UNK     1     -10.562   8.830  71.936  1.00  0.00     0.000 HD 
ENDROOT
BRANCH  15  32
HETATM   32  C   UNK     1      -8.421   7.898  68.326  1.00  0.00    -0.124 C  
HETATM   33  H   UNK     1      -9.627   6.410  69.176  1.00  0.00     0.000 HD 
HETATM   34  O   UNK     1      -7.799   8.192  67.299  1.00  0.00    -0.102 OA 
HETATM   35  N   UNK     1      -9.051   6.680  68.378  1.00  0.00    -0.126 N  
BRANCH  35  36
HETATM   36  C   UNK     1      -8.860   5.796  67.250  1.00  0.00    -0.106 C  
BRANCH  36  37
HETATM   37  N   UNK     1      -9.514   4.541  67.561  1.00  0.00    -0.151 NA 
HETATM   38  H   UNK     1      -9.549   3.917  66.754  1.00  0.00     0.000 HD 
BRANCH  37  39
HETATM   39  C   UNK     1      -8.858   3.910  68.722  1.00  0.00    -0.108 C  
BRANCH  39  40
HETATM   40  C   UNK     1      -9.843   3.611  69.866  1.00  0.00    -0.024 C  
BRANCH  40  41
HETATM   41  C   UNK     1      -9.478   4.296  71.188  1.00  0.00    -0.233 C  
BRANCH  41  42
HETATM   42  C   UNK     1      -8.041   4.847  71.167  1.00  0.00    -0.101 C  
BRANCH  42  43
HETATM   43  C   UNK     1      -7.321   4.803  72.524  1.00  0.00    -0.084 C  
HETATM   44  C   UNK     1      -6.451   3.542  72.645  1.00  0.00    -0.014 C  
HETATM   45  N   UNK     1      -6.459   6.002  72.735  1.00  0.00    -0.062 NA 
HETATM   46  O   UNK     1      -6.867   2.420  72.879  1.00  0.00    -0.024 OA 
HETATM   47  O   UNK     1      -5.140   3.831  72.433  1.00  0.00     0.000 OA 
HETATM   48  H2  UNK     1      -6.990   6.865  72.625  1.00  0.00     0.000 HD 
HETATM   49  H1  UNK     1      -5.981   5.972  73.636  1.00  0.00     0.000 HD 
ENDBRANCH  42  43
ENDBRANCH  41  42
ENDBRANCH  40  41
ENDBRANCH  39  40
ENDBRANCH  37  39
ENDBRANCH  36  37
ENDBRANCH  35  36
ENDBRANCH  15  32
BRANCH  24  50
HETATM   50  N   UNK     1     -12.117   9.188  70.223  1.00  0.00     0.124 NA 
HETATM   51  C   UNK     1     -11.942   8.674  71.564  1.00  0.00    -0.306 C  
HETATM   52  C   UNK     1     -12.668  10.548  70.272  1.00  0.00    -0.188 C  
ENDBRANCH  24  50
TORSDOF 9
ENDMDL
MODEL      132
REMARK 921   NORMALIZED FREE ENERGY PREDICTED BY IDOCK:    2.15 KCAL/MOL
REMARK 922        TOTAL FREE ENERGY PREDICTED BY IDOCK:    1.88 KCAL/MOL
REMARK 923 INTER-LIGAND FREE ENERGY PREDICTED BY IDOCK:    3.13 KCAL/MOL
REMARK 924 INTRA-LIGAND FREE ENERGY PREDICTED BY IDOCK:   -1.25 KCAL/MOL
REMARK 927      BINDING AFFINITY PREDICTED BY RF-SCORE:    0.00 PKD
ROOT
HETATM    1  C   UNK     1      -8.181   4.866  71.612  1.00  0.00    -0.114 C  
HETATM    2  C   UNK     1      -9.698   4.929  71.648  1.00  0.00    -0.231 C  
HETATM    3  C   UNK     1     -10.266   6.286  71.136  1.00  0.00    -0.238 C  
HETATM    4  C   UNK     1      -9.592   7.447  71.829  1.00  0.00    -0.168 C  
HETATM    5  C   UNK     1     -10.423   8.649  72.191  1.00  0.00    -0.340 C  
HETATM    6  C   UNK     1      -8.294   7.391  72.175  1.00  0.00    -0.109 C  
HETATM    7  O   UNK     1      -7.682   8.409  72.920  1.00  0.00    -0.241 OA 
HETATM    8  C   UNK     1      -7.435   6.127  72.109  1.00  0.00    -0.095 C  
HETATM    9  C   UNK     1     -11.812   8.759  71.680  1.00  0.00    -0.399 A  
HETATM   10  O   UNK     1      -9.968   9.549  72.899  1.00  0.00     1.745 OA 
HETATM   11  C   UNK     1     -12.529   9.960  71.816  1.00  0.00    -0.397 A  
HETATM   12  O   UNK     1      -7.078   5.966  73.487  1.00  0.00    -0.084 OA 
HETATM   13  C   UNK     1      -6.142   6.093  71.144  1.00  0.00    -0.035 C  
HETATM   14  H   UNK     1      -6.765   8.369  73.165  1.00  0.00     0.000 HD 
HETATM   15  C   UNK     1      -5.598   4.698  70.812  1.00  0.00    -0.015 C  
HETATM   16  O   UNK     1      -5.548   7.084  70.726  1.00  0.00    -0.026 OA 
HETATM   17  C   UNK     1     -13.813  10.099  71.289  1.00  0.00     0.116 A  
HETATM   18  H   UNK     1      -6.620   6.740  73.792  1.00  0.00     0.000 HD 
HETATM   19  O   UNK     1     -12.049  11.055  72.485  1.00  0.00     1.538 OA 
HETATM   20  H   UNK     1     -13.199   5.459  70.125  1.00  0.00     0.000 HD 
HETATM   21  H   UNK     1     -12.533  11.866  72.578  1.00  0.00     0.000 HD 
HETATM   22  C   UNK     1     -14.401   9.035  70.617  1.00  0.00     0.582 A  
HETATM   23  C   UNK     1      -5.875   3.897  71.870  1.00  0.00    -0.009 C  
HETATM   24  C   UNK     1      -7.414   3.557  72.093  1.00  0.00    -0.057 C  
HETATM   25  C   UNK     1     -12.360   5.622  72.497  1.00  0.00     0.161 C  
HETATM   26  O   UNK     1     -12.249   5.471  70.085  1.00  0.00     2.121 OA 
HETATM   27  O   UNK     1      -5.143   4.052  73.052  1.00  0.00     0.000 OA 
HETATM   28  C   UNK     1     -13.723   7.820  70.524  1.00  0.00     0.951 A  
HETATM   29  C   UNK     1     -11.823   6.267  71.201  1.00  0.00    -0.168 C  
HETATM   30  C   UNK     1     -12.435   7.649  71.081  1.00  0.00    -0.273 A  
HETATM   31  H   UNK     1      -5.338   3.491  73.794  1.00  0.00     0.000 HD 
ENDROOT
BRANCH  15  32
HETATM   32  C   UNK     1      -5.893   3.913  69.551  1.00  0.00    -0.018 C  
HETATM   33  H   UNK     1      -7.293   5.230  68.719  1.00  0.00     0.000 HD 
HETATM   34  O   UNK     1      -5.286   2.858  69.335  1.00  0.00    -0.010 OA 
HETATM   35  N   UNK     1      -6.807   4.339  68.621  1.00  0.00    -0.047 N  
BRANCH  35  36
HETATM   36  C   UNK     1      -7.051   3.465  67.495  1.00  0.00    -0.058 C  
BRANCH  36  37
HETATM   37  N   UNK     1      -6.293   3.977  66.371  1.00  0.00    -0.035 NA 
HETATM   38  H   UNK     1      -6.835   3.965  65.506  1.00  0.00     0.000 HD 
BRANCH  37  39
HETATM   39  C   UNK     1      -5.781   5.324  66.686  1.00  0.00    -0.018 C  
BRANCH  39  40
HETATM   40  C   UNK     1      -6.530   6.433  65.925  1.00  0.00    -0.043 C  
BRANCH  40  41
HETATM   41  C   UNK     1      -5.872   7.813  66.045  1.00  0.00    -0.037 C  
BRANCH  41  42
HETATM   42  C   UNK     1      -6.887   8.950  65.835  1.00  0.00    -0.072 C  
BRANCH  42  43
HETATM   43  C   UNK     1      -7.266   9.713  67.114  1.00  0.00    -0.087 C  
HETATM   44  C   UNK     1      -8.789   9.725  67.316  1.00  0.00    -0.132 C  
HETATM   45  N   UNK     1      -6.627   9.120  68.324  1.00  0.00    -0.059 NA 
HETATM   46  O   UNK     1      -9.573  10.437  66.712  1.00  0.00    -0.163 OA 
HETATM   47  O   UNK     1      -9.165   8.813  68.252  1.00  0.00    -0.140 OA 
HETATM   48  H2  UNK     1      -5.615   9.056  68.216  1.00  0.00     0.000 HD 
HETATM   49  H1  UNK     1      -6.878   9.626  69.173  1.00  0.00     0.000 HD 
ENDBRANCH  42  43
ENDBRANCH  41  42
ENDBRANCH  40  41
ENDBRANCH  39  40
ENDBRANCH  37  39
ENDBRANCH  36  37
ENDBRANCH  35  36
ENDBRANCH  15  32
BRANCH  24  50
HETATM   50  N   UNK     1      -7.594   2.973  73.443  1.00  0.00    -0.051 NA 
HETATM   51  C   UNK     1      -8.815   3.275  74.157  1.00  0.00    -0.083 C  
HETATM   52  C   UNK     1      -7.372   1.522  73.414  1.00  0.00    -0.028 C  
ENDBRANCH  24  50
TORSDOF 9
ENDMDL
MODEL      133
REMARK 921   NORMALIZED FREE ENERGY PREDICTED BY IDOCK:    2.70 KCAL/MOL
REMARK 922        TOTAL FREE ENERGY PREDICTED BY IDOCK:    2.73 KCAL/MOL
REMARK 923 INTER-LIGAND FREE ENERGY PREDICTED BY IDOCK:    3.01 KCAL/MOL
REMARK 924 INTRA-LIGAND FREE ENERGY PREDICTED BY IDOCK:   -0.28 KCAL/MOL
REMARK 927      BINDING AFFINITY PREDICTED BY RF-SCORE:    0.00 PKD
ROOT
HETATM    1  C   UNK     1      -8.532  11.224  68.011  1.00  0.00    -0.138 C  
HETATM    2  C   UNK     1      -9.768  11.064  68.877  1.00  0.00    -0.184 C  
HETATM    3  C   UNK     1     -10.564  12.390  69.060  1.00  0.00    -0.087 C  
HETATM    4  C   UNK     1      -9.650  13.508  69.505  1.00  0.00     1.049 C  
HETATM    5  C   UNK     1     -10.168  14.506  70.507  1.00  0.00     0.978 C  
HETATM    6  C   UNK     1      -8.380  13.582  69.070  1.00  0.00     0.314 C  
HETATM    7  O   UNK     1      -7.484  14.543  69.559  1.00  0.00    -0.304 OA 
HETATM    8  C   UNK     1      -7.671  12.481  68.279  1.00  0.00    -0.141 C  
HETATM    9  C   UNK     1     -11.606  14.497  70.870  1.00  0.00    -0.243 A  
HETATM   10  O   UNK     1      -9.419  15.334  71.028  1.00  0.00     1.147 OA 
HETATM   11  C   UNK     1     -12.157  15.546  71.627  1.00  0.00    -0.401 A  
HETATM   12  O   UNK     1      -6.598  12.152  69.169  1.00  0.00    -0.094 OA 
HETATM   13  C   UNK     1      -7.141  12.789  66.786  1.00  0.00     0.574 C  
HETATM   14  H   UNK     1      -6.587  14.595  69.251  1.00  0.00     0.000 HD 
HETATM   15  C   UNK     1      -6.838  11.557  65.923  1.00  0.00     0.511 C  
HETATM   16  O   UNK     1      -6.911  13.908  66.336  1.00  0.00     1.454 OA 
HETATM   17  C   UNK     1     -13.519  15.584  71.926  1.00  0.00    -0.576 A  
HETATM   18  H   UNK     1      -6.070  12.924  69.334  1.00  0.00     0.000 HD 
HETATM   19  O   UNK     1     -11.415  16.575  72.143  1.00  0.00    -0.304 OA 
HETATM   20  H   UNK     1     -13.534  11.329  69.655  1.00  0.00     0.000 HD 
HETATM   21  H   UNK     1     -11.787  17.284  72.655  1.00  0.00     0.000 HD 
HETATM   22  C   UNK     1     -14.353  14.570  71.472  1.00  0.00    -0.501 A  
HETATM   23  C   UNK     1      -6.452  10.565  66.760  1.00  0.00    -0.081 C  
HETATM   24  C   UNK     1      -7.591   9.977  67.705  1.00  0.00    -0.091 C  
HETATM   25  C   UNK     1     -11.515  11.224  71.160  1.00  0.00     0.877 C  
HETATM   26  O   UNK     1     -12.771  11.482  69.109  1.00  0.00    -0.051 OA 
HETATM   27  O   UNK     1      -5.188  10.629  67.357  1.00  0.00    -0.039 OA 
HETATM   28  C   UNK     1     -13.810  13.495  70.768  1.00  0.00     0.848 A  
HETATM   29  C   UNK     1     -11.815  12.140  69.954  1.00  0.00    -0.319 C  
HETATM   30  C   UNK     1     -12.427  13.421  70.485  1.00  0.00    -0.350 A  
HETATM   31  H   UNK     1      -4.917   9.933  67.944  1.00  0.00     0.000 HD 
ENDROOT
BRANCH  15  32
HETATM   32  C   UNK     1      -7.768  10.953  64.891  1.00  0.00     0.304 C  
HETATM   33  H   UNK     1      -7.318   8.939  65.251  1.00  0.00     0.000 HD 
HETATM   34  O   UNK     1      -8.493  11.694  64.218  1.00  0.00     0.650 OA 
HETATM   35  N   UNK     1      -7.849   9.599  64.683  1.00  0.00    -0.126 N  
BRANCH  35  36
HETATM   36  C   UNK     1      -8.722   9.152  63.621  1.00  0.00    -0.125 C  
BRANCH  36  37
HETATM   37  N   UNK     1      -7.910   8.958  62.438  1.00  0.00    -0.122 NA 
HETATM   38  H   UNK     1      -7.398   9.802  62.181  1.00  0.00     0.000 HD 
BRANCH  37  39
HETATM   39  C   UNK     1      -7.014   7.802  62.631  1.00  0.00    -0.081 C  
BRANCH  39  40
HETATM   40  C   UNK     1      -7.779   6.506  62.952  1.00  0.00    -0.097 C  
BRANCH  40  41
HETATM   41  C   UNK     1      -7.175   5.705  64.110  1.00  0.00    -0.055 C  
BRANCH  41  42
HETATM   42  C   UNK     1      -7.805   6.090  65.461  1.00  0.00    -0.105 C  
BRANCH  42  43
HETATM   43  C   UNK     1      -9.316   5.828  65.558  1.00  0.00     0.099 C  
HETATM   44  C   UNK     1      -9.605   4.589  66.418  1.00  0.00    -0.189 C  
HETATM   45  N   UNK     1     -10.045   6.994  66.137  1.00  0.00    -0.401 NA 
HETATM   46  O   UNK     1      -9.474   3.433  66.053  1.00  0.00    -0.168 OA 
HETATM   47  O   UNK     1     -10.012   4.944  67.666  1.00  0.00    -0.164 OA 
HETATM   48  H2  UNK     1      -9.849   7.849  65.618  1.00  0.00     0.000 HD 
HETATM   49  H1  UNK     1     -11.048   6.820  66.201  1.00  0.00     0.000 HD 
ENDBRANCH  42  43
ENDBRANCH  41  42
ENDBRANCH  40  41
ENDBRANCH  39  40
ENDBRANCH  37  39
ENDBRANCH  36  37
ENDBRANCH  35  36
ENDBRANCH  15  32
BRANCH  24  50
HETATM   50  N   UNK     1      -6.966   9.163  68.774  1.00  0.00    -0.061 NA 
HETATM   51  C   UNK     1      -6.752   9.784  70.063  1.00  0.00    -0.089 C  
HETATM   52  C   UNK     1      -7.679   7.890  68.940  1.00  0.00    -0.105 C  
ENDBRANCH  24  50
TORSDOF 9
ENDMDL
MODEL      134
REMARK 921   NORMALIZED FREE ENERGY PREDICTED BY IDOCK:    2.86 KCAL/MOL
REMARK 922        TOTAL FREE ENERGY PREDICTED BY IDOCK:    2.97 KCAL/MOL
REMARK 923 INTER-LIGAND FREE ENERGY PREDICTED BY IDOCK:    3.11 KCAL/MOL
REMARK 924 INTRA-LIGAND FREE ENERGY PREDICTED BY IDOCK:   -0.14 KCAL/MOL
REMARK 927      BINDING AFFINITY PREDICTED BY RF-SCORE:    0.00 PKD
ROOT
HETATM    1  C   UNK     1      -8.956  10.529  66.269  1.00  0.00    -0.174 C  
HETATM    2  C   UNK     1      -9.090  10.863  67.744  1.00  0.00    -0.149 C  
HETATM    3  C   UNK     1     -10.505  11.385  68.128  1.00  0.00    -0.212 C  
HETATM    4  C   UNK     1     -10.931  12.508  67.210  1.00  0.00    -0.300 C  
HETATM    5  C   UNK     1     -11.701  13.662  67.794  1.00  0.00    -0.362 C  
HETATM    6  C   UNK     1     -10.581  12.514  65.912  1.00  0.00    -0.265 C  
HETATM    7  O   UNK     1     -10.868  13.600  65.073  1.00  0.00    -0.314 OA 
HETATM    8  C   UNK     1      -9.577  11.546  65.282  1.00  0.00    -0.218 C  
HETATM    9  C   UNK     1     -12.202  13.576  69.188  1.00  0.00    -0.236 A  
HETATM   10  O   UNK     1     -11.929  14.676  67.132  1.00  0.00    -0.391 OA 
HETATM   11  C   UNK     1     -13.103  14.535  69.682  1.00  0.00     0.715 A  
HETATM   12  O   UNK     1      -8.568  12.456  64.827  1.00  0.00     0.785 OA 
HETATM   13  C   UNK     1     -10.061  10.549  64.109  1.00  0.00    -0.281 C  
HETATM   14  H   UNK     1     -10.619  13.605  64.156  1.00  0.00     0.000 HD 
HETATM   15  C   UNK     1      -9.142   9.352  63.835  1.00  0.00    -0.087 C  
HETATM   16  O   UNK     1     -11.052  10.720  63.403  1.00  0.00     0.189 OA 
HETATM   17  C   UNK     1     -13.630  14.435  70.970  1.00  0.00    -0.256 A  
HETATM   18  H   UNK     1      -8.949  13.081  64.221  1.00  0.00     0.000 HD 
HETATM   19  O   UNK     1     -13.506  15.632  68.968  1.00  0.00     1.122 OA 
HETATM   20  H   UNK     1     -10.697  10.617  71.239  1.00  0.00     0.000 HD 
HETATM   21  H   UNK     1     -14.115  16.280  69.302  1.00  0.00     0.000 HD 
HETATM   22  C   UNK     1     -13.261  13.374  71.786  1.00  0.00    -0.495 A  
HETATM   23  C   UNK     1      -7.879   9.737  64.138  1.00  0.00    -0.134 C  
HETATM   24  C   UNK     1      -7.583   9.975  65.685  1.00  0.00    -0.137 C  
HETATM   25  C   UNK     1      -9.288  12.409  70.164  1.00  0.00     3.962 C  
HETATM   26  O   UNK     1     -10.664  10.425  70.308  1.00  0.00    -0.282 OA 
HETATM   27  O   UNK     1      -7.212  10.621  63.283  1.00  0.00    -0.334 OA 
HETATM   28  C   UNK     1     -12.324  12.447  71.328  1.00  0.00    -0.154 A  
HETATM   29  C   UNK     1     -10.559  11.699  69.653  1.00  0.00     0.268 C  
HETATM   30  C   UNK     1     -11.754  12.549  70.039  1.00  0.00    -0.297 A  
HETATM   31  H   UNK     1      -6.327  10.891  63.495  1.00  0.00     0.000 HD 
ENDROOT
BRANCH  15  32
HETATM   32  C   UNK     1      -9.337   7.949  64.374  1.00  0.00     1.761 C  
HETATM   33  H   UNK     1     -10.051   8.472  66.272  1.00  0.00     0.000 HD 
HETATM   34  O   UNK     1      -9.101   6.980  63.644  1.00  0.00     1.109 OA 
HETATM   35  N   UNK     1      -9.785   7.710  65.648  1.00  0.00     0.503 N  
BRANCH  35  36
HETATM   36  C   UNK     1      -9.861   6.328  66.066  1.00  0.00     0.181 C  
BRANCH  36  37
HETATM   37  N   UNK     1      -9.421   6.262  67.445  1.00  0.00    -0.114 NA 
HETATM   38  H   UNK     1      -8.614   5.648  67.561  1.00  0.00     0.000 HD 
BRANCH  37  39
HETATM   39  C   UNK     1      -9.159   7.622  67.951  1.00  0.00    -0.134 C  
BRANCH  39  40
HETATM   40  C   UNK     1      -9.452   7.759  69.456  1.00  0.00    -0.160 C  
BRANCH  40  41
HETATM   41  C   UNK     1      -8.193   7.909  70.317  1.00  0.00    -0.124 C  
BRANCH  41  42
HETATM   42  C   UNK     1      -8.346   7.211  71.680  1.00  0.00    -0.110 C  
BRANCH  42  43
HETATM   43  C   UNK     1      -9.196   7.983  72.701  1.00  0.00    -0.239 C  
HETATM   44  C   UNK     1     -10.407   7.150  73.150  1.00  0.00    -0.295 C  
HETATM   45  N   UNK     1      -8.405   8.366  73.906  1.00  0.00    -0.345 NA 
HETATM   46  O   UNK     1     -11.424   6.979  72.499  1.00  0.00    -0.266 OA 
HETATM   47  O   UNK     1     -10.194   6.599  74.374  1.00  0.00    -0.360 OA 
HETATM   48  H2  UNK     1      -7.568   8.889  73.650  1.00  0.00     0.000 HD 
HETATM   49  H1  UNK     1      -8.970   8.879  74.584  1.00  0.00     0.000 HD 
ENDBRANCH  42  43
ENDBRANCH  41  42
ENDBRANCH  40  41
ENDBRANCH  39  40
ENDBRANCH  37  39
ENDBRANCH  36  37
ENDBRANCH  35  36
ENDBRANCH  15  32
BRANCH  24  50
HETATM   50  N   UNK     1      -6.300  10.702  65.829  1.00  0.00    -0.128 NA 
HETATM   51  C   UNK     1      -6.236  11.785  66.786  1.00  0.00    -0.094 C  
HETATM   52  C   UNK     1      -5.195   9.763  66.056  1.00  0.00    -0.035 C  
ENDBRANCH  24  50
TORSDOF 9
ENDMDL
MODEL      135
REMARK 921   NORMALIZED FREE ENERGY PREDICTED BY IDOCK:    2.92 KCAL/MOL
REMARK 922        TOTAL FREE ENERGY PREDICTED BY IDOCK:    3.07 KCAL/MOL
REMARK 923 INTER-LIGAND FREE ENERGY PREDICTED BY IDOCK:   -1.75 KCAL/MOL
REMARK 924 INTRA-LIGAND FREE ENERGY PREDICTED BY IDOCK:    4.81 KCAL/MOL
REMARK 927      BINDING AFFINITY PREDICTED BY RF-SCORE:    0.00 PKD
ROOT
HETATM    1  C   UNK     1      -9.375   8.030  68.308  1.00  0.00    -0.143 C  
HETATM    2  C   UNK     1      -9.674   9.236  67.436  1.00  0.00    -0.208 C  
HETATM    3  C   UNK     1      -9.611  10.584  68.213  1.00  0.00    -0.164 C  
HETATM    4  C   UNK     1     -10.449  10.520  69.469  1.00  0.00    -0.265 C  
HETATM    5  C   UNK     1     -11.226  11.742  69.879  1.00  0.00    -0.014 C  
HETATM    6  C   UNK     1     -10.552   9.382  70.177  1.00  0.00    -0.240 C  
HETATM    7  O   UNK     1     -11.413   9.270  71.278  1.00  0.00    -0.290 OA 
HETATM    8  C   UNK     1     -10.037   8.020  69.707  1.00  0.00    -0.196 C  
HETATM    9  C   UNK     1     -10.994  13.027  69.175  1.00  0.00    -0.190 A  
HETATM   10  O   UNK     1     -12.050  11.697  70.795  1.00  0.00    -0.364 OA 
HETATM   11  C   UNK     1     -11.537  14.223  69.675  1.00  0.00    -0.296 A  
HETATM   12  O   UNK     1     -11.255   7.267  69.659  1.00  0.00    -0.419 OA 
HETATM   13  C   UNK     1      -8.895   7.264  70.559  1.00  0.00    -0.153 C  
HETATM   14  H   UNK     1     -11.487   8.465  71.778  1.00  0.00     0.000 HD 
HETATM   15  C   UNK     1      -8.145   6.148  69.821  1.00  0.00    -0.119 C  
HETATM   16  O   UNK     1      -8.642   7.476  71.743  1.00  0.00    -0.113 OA 
HETATM   17  C   UNK     1     -11.278  15.448  69.059  1.00  0.00    -0.295 A  
HETATM   18  H   UNK     1     -11.661   7.261  70.518  1.00  0.00     0.000 HD 
HETATM   19  O   UNK     1     -12.366  14.279  70.763  1.00  0.00    -0.310 OA 
HETATM   20  H   UNK     1      -8.924  12.684  65.884  1.00  0.00     0.000 HD 
HETATM   21  H   UNK     1     -12.734  15.087  71.101  1.00  0.00     0.000 HD 
HETATM   22  C   UNK     1     -10.471  15.494  67.929  1.00  0.00    -0.266 A  
HETATM   23  C   UNK     1      -9.003   5.618  68.916  1.00  0.00    -0.111 C  
HETATM   24  C   UNK     1      -9.385   6.563  67.692  1.00  0.00    -0.118 C  
HETATM   25  C   UNK     1     -11.092  11.462  66.286  1.00  0.00    -0.281 C  
HETATM   26  O   UNK     1      -8.733  11.962  66.473  1.00  0.00    -0.194 OA 
HETATM   27  O   UNK     1     -10.051   4.806  69.364  1.00  0.00    -0.218 OA 
HETATM   28  C   UNK     1      -9.972  14.309  67.390  1.00  0.00    -0.242 A  
HETATM   29  C   UNK     1      -9.925  11.767  67.249  1.00  0.00    -0.192 C  
HETATM   30  C   UNK     1     -10.251  13.055  67.980  1.00  0.00    -0.233 A  
HETATM   31  H   UNK     1     -10.653   4.435  68.730  1.00  0.00     0.000 HD 
ENDROOT
BRANCH  15  32
HETATM   32  C   UNK     1      -6.795   6.288  69.147  1.00  0.00    -0.062 C  
HETATM   33  H   UNK     1      -7.475   6.997  67.297  1.00  0.00     0.000 HD 
HETATM   34  O   UNK     1      -5.768   6.027  69.784  1.00  0.00    -0.015 OA 
HETATM   35  N   UNK     1      -6.666   6.712  67.849  1.00  0.00    -0.068 N  
BRANCH  35  36
HETATM   36  C   UNK     1      -5.329   6.736  67.299  1.00  0.00    -0.009 C  
BRANCH  36  37
HETATM   37  N   UNK     1      -5.320   7.692  66.211  1.00  0.00    -0.024 NA 
HETATM   38  H   UNK     1      -4.722   7.391  65.441  1.00  0.00     0.000 HD 
BRANCH  37  39
HETATM   39  C   UNK     1      -6.701   7.958  65.768  1.00  0.00    -0.045 C  
BRANCH  39  40
HETATM   40  C   UNK     1      -7.404   9.022  66.630  1.00  0.00    -0.086 C  
BRANCH  40  41
HETATM   41  C   UNK     1      -6.447  10.056  67.232  1.00  0.00    -0.068 C  
BRANCH  41  42
HETATM   42  C   UNK     1      -5.161  10.198  66.399  1.00  0.00    -0.041 C  
BRANCH  42  43
HETATM   43  C   UNK     1      -5.201  11.320  65.350  1.00  0.00     0.235 C  
HETATM   44  C   UNK     1      -5.918  10.853  64.074  1.00  0.00     0.353 C  
HETATM   45  N   UNK     1      -5.887  12.539  65.866  1.00  0.00     1.573 NA 
HETATM   46  O   UNK     1      -5.434  10.131  63.218  1.00  0.00    -0.100 OA 
HETATM   47  O   UNK     1      -7.189  11.335  64.023  1.00  0.00     0.938 OA 
HETATM   48  H2  UNK     1      -5.466  12.861  66.737  1.00  0.00     0.000 HD 
HETATM   49  H1  UNK     1      -5.913  13.284  65.169  1.00  0.00     0.000 HD 
ENDBRANCH  42  43
ENDBRANCH  41  42
ENDBRANCH  40  41
ENDBRANCH  39  40
ENDBRANCH  37  39
ENDBRANCH  36  37
ENDBRANCH  35  36
ENDBRANCH  15  32
BRANCH  24  50
HETATM   50  N   UNK     1     -10.561   5.998  66.989  1.00  0.00    -0.279 NA 
HETATM   51  C   UNK     1     -11.501   6.919  66.389  1.00  0.00     1.797 C  
HETATM   52  C   UNK     1     -10.142   4.992  66.005  1.00  0.00    -0.209 C  
ENDBRANCH  24  50
TORSDOF 9
ENDMDL
MODEL      136
REMARK 921   NORMALIZED FREE ENERGY PREDICTED BY IDOCK:    3.34 KCAL/MOL
REMARK 922        TOTAL FREE ENERGY PREDICTED BY IDOCK:    3.70 KCAL/MOL
REMARK 923 INTER-LIGAND FREE ENERGY PREDICTED BY IDOCK:    2.21 KCAL/MOL
REMARK 924 INTRA-LIGAND FREE ENERGY PREDICTED BY IDOCK:    1.49 KCAL/MOL
REMARK 927      BINDING AFFINITY PREDICTED BY RF-SCORE:    0.00 PKD
ROOT
HETATM    1  C   UNK     1      -8.530   9.474  66.854  1.00  0.00    -0.128 C  
HETATM    2  C   UNK     1      -8.856   9.932  68.264  1.00  0.00    -0.119 C  
HETATM    3  C   UNK     1     -10.155  10.787  68.344  1.00  0.00    -0.183 C  
HETATM    4  C   UNK     1     -10.123  11.910  67.333  1.00  0.00    -0.211 C  
HETATM    5  C   UNK     1     -10.695  13.246  67.722  1.00  0.00    -0.244 C  
HETATM    6  C   UNK     1      -9.543  11.745  66.131  1.00  0.00    -0.232 C  
HETATM    7  O   UNK     1      -9.402  12.806  65.225  1.00  0.00    -0.438 OA 
HETATM    8  C   UNK     1      -8.696  10.533  65.738  1.00  0.00    -0.177 C  
HETATM    9  C   UNK     1     -11.455  13.375  68.990  1.00  0.00    -0.348 A  
HETATM   10  O   UNK     1     -10.547  14.237  67.004  1.00  0.00    -0.276 OA 
HETATM   11  C   UNK     1     -12.181  14.545  69.271  1.00  0.00    -0.229 A  
HETATM   12  O   UNK     1      -7.433  11.156  65.471  1.00  0.00    -0.363 OA 
HETATM   13  C   UNK     1      -9.171   9.591  64.517  1.00  0.00    -0.162 C  
HETATM   14  H   UNK     1      -8.992  12.689  64.376  1.00  0.00     0.000 HD 
HETATM   15  C   UNK     1      -8.527   8.200  64.462  1.00  0.00    -0.013 C  
HETATM   16  O   UNK     1      -9.943   9.932  63.624  1.00  0.00     0.142 OA 
HETATM   17  C   UNK     1     -12.949  14.659  70.430  1.00  0.00    -0.249 A  
HETATM   18  H   UNK     1      -7.535  11.806  64.786  1.00  0.00     0.000 HD 
HETATM   19  O   UNK     1     -12.171  15.652  68.463  1.00  0.00    -0.525 OA 
HETATM   20  H   UNK     1     -11.105  10.304  71.372  1.00  0.00     0.000 HD 
HETATM   21  H   UNK     1     -12.662  16.443  68.653  1.00  0.00     0.000 HD 
HETATM   22  C   UNK     1     -13.001  13.601  71.328  1.00  0.00    -0.399 A  
HETATM   23  C   UNK     1      -7.289   8.310  65.001  1.00  0.00    -0.086 C  
HETATM   24  C   UNK     1      -7.241   8.583  66.569  1.00  0.00    -0.080 C  
HETATM   25  C   UNK     1      -9.136  11.650  70.556  1.00  0.00     5.064 C  
HETATM   26  O   UNK     1     -10.943  10.045  70.472  1.00  0.00    -0.290 OA 
HETATM   27  O   UNK     1      -6.283   8.957  64.275  1.00  0.00    -0.070 OA 
HETATM   28  C   UNK     1     -12.241  12.457  71.090  1.00  0.00    -0.092 A  
HETATM   29  C   UNK     1     -10.419  11.212  69.820  1.00  0.00     0.167 C  
HETATM   30  C   UNK     1     -11.430  12.336  69.939  1.00  0.00    -0.190 A  
HETATM   31  H   UNK     1      -5.415   9.033  64.653  1.00  0.00     0.000 HD 
ENDROOT
BRANCH  15  32
HETATM   32  C   UNK     1      -9.145   6.920  64.985  1.00  0.00     0.647 C  
HETATM   33  H   UNK     1     -10.442   7.783  66.384  1.00  0.00     0.000 HD 
HETATM   34  O   UNK     1      -8.808   5.837  64.492  1.00  0.00     0.023 OA 
HETATM   35  N   UNK     1     -10.085   6.916  65.984  1.00  0.00     0.338 N  
BRANCH  35  36
HETATM   36  C   UNK     1     -10.546   5.625  66.443  1.00  0.00    -0.191 C  
BRANCH  36  37
HETATM   37  N   UNK     1      -9.754   4.613  65.775  1.00  0.00    -0.182 NA 
HETATM   38  H   UNK     1      -9.041   5.021  65.169  1.00  0.00     0.000 HD 
BRANCH  37  39
HETATM   39  C   UNK     1      -9.175   3.693  66.772  1.00  0.00    -0.181 C  
BRANCH  39  40
HETATM   40  C   UNK     1     -10.243   3.049  67.674  1.00  0.00     1.548 C  
BRANCH  40  41
HETATM   41  C   UNK     1     -10.092   3.406  69.156  1.00  0.00     0.702 C  
BRANCH  41  42
HETATM   42  C   UNK     1     -10.452   4.877  69.429  1.00  0.00     0.002 C  
BRANCH  42  43
HETATM   43  C   UNK     1     -10.803   5.188  70.892  1.00  0.00     0.033 C  
HETATM   44  C   UNK     1      -9.656   4.782  71.831  1.00  0.00    -0.152 C  
HETATM   45  N   UNK     1     -11.100   6.636  71.098  1.00  0.00    -0.266 NA 
HETATM   46  O   UNK     1      -9.403   3.642  72.180  1.00  0.00    -0.113 OA 
HETATM   47  O   UNK     1      -8.931   5.867  72.214  1.00  0.00    -0.141 OA 
HETATM   48  H2  UNK     1     -11.831   6.958  70.464  1.00  0.00     0.000 HD 
HETATM   49  H1  UNK     1     -11.333   6.842  72.069  1.00  0.00     0.000 HD 
ENDBRANCH  42  43
ENDBRANCH  41  42
ENDBRANCH  40  41
ENDBRANCH  39  40
ENDBRANCH  37  39
ENDBRANCH  36  37
ENDBRANCH  35  36
ENDBRANCH  15  32
BRANCH  24  50
HETATM   50  N   UNK     1      -5.874   9.009  66.949  1.00  0.00    -0.048 NA 
HETATM   51  C   UNK     1      -5.733  10.196  67.763  1.00  0.00    -0.042 C  
HETATM   52  C   UNK     1      -5.132   7.894  67.550  1.00  0.00    -0.031 C  
ENDBRANCH  24  50
TORSDOF 9
ENDMDL
MODEL      137
REMARK 921   NORMALIZED FREE ENERGY PREDICTED BY IDOCK:    3.51 KCAL/MOL
REMARK 922        TOTAL FREE ENERGY PREDICTED BY IDOCK:    3.96 KCAL/MOL
REMARK 923 INTER-LIGAND FREE ENERGY PREDICTED BY IDOCK:    2.82 KCAL/MOL
REMARK 924 INTRA-LIGAND FREE ENERGY PREDICTED BY IDOCK:    1.14 KCAL/MOL
REMARK 927      BINDING AFFINITY PREDICTED BY RF-SCORE:    0.00 PKD
ROOT
HETATM    1  C   UNK     1      -9.814   8.027  68.318  1.00  0.00    -0.190 C  
HETATM    2  C   UNK     1      -9.161   6.682  68.582  1.00  0.00    -0.128 C  
HETATM    3  C   UNK     1      -8.766   5.927  67.279  1.00  0.00    -0.108 C  
HETATM    4  C   UNK     1      -9.933   5.858  66.322  1.00  0.00    -0.107 C  
HETATM    5  C   UNK     1     -10.133   4.601  65.519  1.00  0.00    -0.183 C  
HETATM    6  C   UNK     1     -10.815   6.869  66.229  1.00  0.00     0.825 C  
HETATM    7  O   UNK     1     -11.966   6.777  65.434  1.00  0.00     4.819 OA 
HETATM    8  C   UNK     1     -10.869   8.062  67.186  1.00  0.00    -0.080 C  
HETATM    9  C   UNK     1      -9.080   3.556  65.524  1.00  0.00    -0.147 A  
HETATM   10  O   UNK     1     -11.154   4.426  64.851  1.00  0.00    -0.225 OA 
HETATM   11  C   UNK     1      -9.138   2.481  64.620  1.00  0.00    -0.130 A  
HETATM   12  O   UNK     1     -12.180   7.908  67.743  1.00  0.00     2.805 OA 
HETATM   13  C   UNK     1     -10.628   9.551  66.616  1.00  0.00    -0.104 C  
HETATM   14  H   UNK     1     -12.590   7.491  65.369  1.00  0.00     0.000 HD 
HETATM   15  C   UNK     1     -10.279  10.615  67.665  1.00  0.00    -0.229 C  
HETATM   16  O   UNK     1     -10.766   9.887  65.443  1.00  0.00     0.203 OA 
HETATM   17  C   UNK     1      -8.125   1.522  64.570  1.00  0.00    -0.069 A  
HETATM   18  H   UNK     1     -12.827   7.929  67.048  1.00  0.00     0.000 HD 
HETATM   19  O   UNK     1     -10.180   2.277  63.755  1.00  0.00    -0.155 OA 
HETATM   20  H   UNK     1      -6.362   4.050  68.280  1.00  0.00     0.000 HD 
HETATM   21  H   UNK     1     -10.219   1.551  63.144  1.00  0.00     0.000 HD 
HETATM   22  C   UNK     1      -7.038   1.624  65.428  1.00  0.00    -0.047 A  
HETATM   23  C   UNK     1     -10.878  10.249  68.823  1.00  0.00    -0.230 C  
HETATM   24  C   UNK     1     -10.284   8.950  69.527  1.00  0.00    -0.204 C  
HETATM   25  C   UNK     1      -8.821   3.831  68.789  1.00  0.00    -0.156 C  
HETATM   26  O   UNK     1      -6.767   4.881  68.062  1.00  0.00    -0.051 OA 
HETATM   27  O   UNK     1     -12.266  10.385  68.946  1.00  0.00    -0.729 OA 
HETATM   28  C   UNK     1      -6.995   2.653  66.368  1.00  0.00    -0.049 A  
HETATM   29  C   UNK     1      -8.101   4.564  67.637  1.00  0.00    -0.099 C  
HETATM   30  C   UNK     1      -8.028   3.615  66.457  1.00  0.00    -0.089 A  
HETATM   31  H   UNK     1     -12.686  10.129  69.758  1.00  0.00     0.000 HD 
ENDROOT
BRANCH  15  32
HETATM   32  C   UNK     1      -8.882  11.097  68.002  1.00  0.00    -0.142 C  
HETATM   33  H   UNK     1      -7.910   9.245  67.891  1.00  0.00     0.000 HD 
HETATM   34  O   UNK     1      -8.684  12.302  68.188  1.00  0.00    -0.175 OA 
HETATM   35  N   UNK     1      -7.815  10.240  68.094  1.00  0.00    -0.102 N  
BRANCH  35  36
HETATM   36  C   UNK     1      -6.549  10.813  68.491  1.00  0.00    -0.055 C  
BRANCH  36  37
HETATM   37  N   UNK     1      -5.500  10.037  67.862  1.00  0.00    -0.039 NA 
HETATM   38  H   UNK     1      -4.693  10.611  67.616  1.00  0.00     0.000 HD 
BRANCH  37  39
HETATM   39  C   UNK     1      -5.129   8.903  68.729  1.00  0.00    -0.033 C  
BRANCH  39  40
HETATM   40  C   UNK     1      -6.175   7.774  68.705  1.00  0.00    -0.039 C  
BRANCH  40  41
HETATM   41  C   UNK     1      -6.883   7.563  70.048  1.00  0.00    -0.051 C  
BRANCH  41  42
HETATM   42  C   UNK     1      -6.132   8.247  71.204  1.00  0.00    -0.035 C  
BRANCH  42  43
HETATM   43  C   UNK     1      -6.358   7.605  72.581  1.00  0.00    -0.060 C  
HETATM   44  C   UNK     1      -6.647   8.674  73.645  1.00  0.00    -0.021 C  
HETATM   45  N   UNK     1      -7.488   6.631  72.561  1.00  0.00    -0.089 NA 
HETATM   46  O   UNK     1      -5.811   9.392  74.167  1.00  0.00    -0.300 OA 
HETATM   47  O   UNK     1      -7.976   8.739  73.925  1.00  0.00    -0.394 OA 
HETATM   48  H2  UNK     1      -7.356   5.923  71.839  1.00  0.00     0.000 HD 
HETATM   49  H1  UNK     1      -7.638   6.204  73.476  1.00  0.00     0.000 HD 
ENDBRANCH  42  43
ENDBRANCH  41  42
ENDBRANCH  40  41
ENDBRANCH  39  40
ENDBRANCH  37  39
ENDBRANCH  36  37
ENDBRANCH  35  36
ENDBRANCH  15  32
BRANCH  24  50
HETATM   50  N   UNK     1     -11.230   8.485  70.569  1.00  0.00    -0.257 NA 
HETATM   51  C   UNK     1     -11.792   7.159  70.434  1.00  0.00    -0.191 C  
HETATM   52  C   UNK     1     -10.649   8.652  71.907  1.00  0.00    -0.340 C  
ENDBRANCH  24  50
TORSDOF 9
ENDMDL
MODEL      138
REMARK 921   NORMALIZED FREE ENERGY PREDICTED BY IDOCK:    4.19 KCAL/MOL
REMARK 922        TOTAL FREE ENERGY PREDICTED BY IDOCK:    5.00 KCAL/MOL
REMARK 923 INTER-LIGAND FREE ENERGY PREDICTED BY IDOCK:    5.99 KCAL/MOL
REMARK 924 INTRA-LIGAND FREE ENERGY PREDICTED BY IDOCK:   -0.99 KCAL/MOL
REMARK 927      BINDING AFFINITY PREDICTED BY RF-SCORE:    0.00 PKD
ROOT
HETATM    1  C   UNK     1      -8.050   5.034  69.443  1.00  0.00    -0.079 C  
HETATM    2  C   UNK     1      -9.538   5.286  69.610  1.00  0.00    -0.225 C  
HETATM    3  C   UNK     1      -9.911   6.798  69.573  1.00  0.00    -0.164 C  
HETATM    4  C   UNK     1      -9.049   7.588  70.531  1.00  0.00    -0.156 C  
HETATM    5  C   UNK     1      -9.677   8.720  71.298  1.00  0.00    -0.265 C  
HETATM    6  C   UNK     1      -7.764   7.254  70.745  1.00  0.00    -0.092 C  
HETATM    7  O   UNK     1      -6.983   7.901  71.713  1.00  0.00    -0.060 OA 
HETATM    8  C   UNK     1      -7.107   5.969  70.238  1.00  0.00    -0.074 C  
HETATM    9  C   UNK     1     -11.048   9.167  70.950  1.00  0.00    -0.356 A  
HETATM   10  O   UNK     1      -9.070   9.288  72.208  1.00  0.00    -0.112 OA 
HETATM   11  C   UNK     1     -11.572  10.352  71.494  1.00  0.00     0.131 A  
HETATM   12  O   UNK     1      -6.737   5.344  71.473  1.00  0.00    -0.051 OA 
HETATM   13  C   UNK     1      -5.864   6.060  69.213  1.00  0.00    -0.023 C  
HETATM   14  H   UNK     1      -6.075   7.665  71.865  1.00  0.00     0.000 HD 
HETATM   15  C   UNK     1      -5.547   4.776  68.438  1.00  0.00    -0.016 C  
HETATM   16  O   UNK     1      -5.141   7.043  69.069  1.00  0.00    -0.013 OA 
HETATM   17  C   UNK     1     -12.836  10.819  71.131  1.00  0.00    -0.513 A  
HETATM   18  H   UNK     1      -6.158   5.918  71.961  1.00  0.00     0.000 HD 
HETATM   19  O   UNK     1     -10.912  11.113  72.423  1.00  0.00     4.947 OA 
HETATM   20  H   UNK     1     -12.964   6.725  68.584  1.00  0.00     0.000 HD 
HETATM   21  H   UNK     1     -11.266  11.914  72.791  1.00  0.00     0.000 HD 
HETATM   22  C   UNK     1     -13.597  10.102  70.216  1.00  0.00     0.595 A  
HETATM   23  C   UNK     1      -5.909   3.733  69.223  1.00  0.00    -0.022 C  
HETATM   24  C   UNK     1      -7.475   3.550  69.449  1.00  0.00    -0.048 C  
HETATM   25  C   UNK     1     -12.038   6.035  70.825  1.00  0.00     0.473 C  
HETATM   26  O   UNK     1     -12.025   6.620  68.478  1.00  0.00     0.648 OA 
HETATM   27  O   UNK     1      -5.127   3.416  70.340  1.00  0.00    -0.003 OA 
HETATM   28  C   UNK     1     -13.114   8.895  69.712  1.00  0.00     2.667 A  
HETATM   29  C   UNK     1     -11.450   6.969  69.746  1.00  0.00    -0.130 C  
HETATM   30  C   UNK     1     -11.850   8.390  70.094  1.00  0.00     0.317 A  
HETATM   31  H   UNK     1      -5.381   2.685  70.890  1.00  0.00     0.000 HD 
ENDROOT
BRANCH  15  32
HETATM   32  C   UNK     1      -5.996   4.464  67.025  1.00  0.00    -0.024 C  
HETATM   33  H   UNK     1      -7.661   5.734  66.971  1.00  0.00     0.000 HD 
HETATM   34  O   UNK     1      -5.333   3.681  66.335  1.00  0.00    -0.012 OA 
HETATM   35  N   UNK     1      -7.112   5.036  66.469  1.00  0.00    -0.067 N  
BRANCH  35  36
HETATM   36  C   UNK     1      -7.474   4.604  65.138  1.00  0.00    -0.076 C  
BRANCH  36  37
HETATM   37  N   UNK     1      -7.019   5.617  64.208  1.00  0.00    -0.050 NA 
HETATM   38  H   UNK     1      -6.668   5.212  63.340  1.00  0.00     0.000 HD 
BRANCH  37  39
HETATM   39  C   UNK     1      -8.098   6.594  63.966  1.00  0.00    -0.020 C  
BRANCH  39  40
HETATM   40  C   UNK     1      -7.608   8.050  64.050  1.00  0.00    -0.124 C  
BRANCH  40  41
HETATM   41  C   UNK     1      -7.434   8.559  65.486  1.00  0.00    -0.085 C  
BRANCH  41  42
HETATM   42  C   UNK     1      -7.298  10.091  65.536  1.00  0.00    -0.137 C  
BRANCH  42  43
HETATM   43  C   UNK     1      -7.061  10.665  66.941  1.00  0.00    -0.109 C  
HETATM   44  C   UNK     1      -8.294  11.437  67.436  1.00  0.00    -0.144 C  
HETATM   45  N   UNK     1      -6.736   9.597  67.931  1.00  0.00    -0.065 NA 
HETATM   46  O   UNK     1      -8.612  12.559  67.079  1.00  0.00    -0.193 OA 
HETATM   47  O   UNK     1      -9.014  10.694  68.319  1.00  0.00    -0.133 OA 
HETATM   48  H2  UNK     1      -5.945   9.033  67.622  1.00  0.00     0.000 HD 
HETATM   49  H1  UNK     1      -6.578   9.979  68.863  1.00  0.00     0.000 HD 
ENDBRANCH  42  43
ENDBRANCH  41  42
ENDBRANCH  40  41
ENDBRANCH  39  40
ENDBRANCH  37  39
ENDBRANCH  36  37
ENDBRANCH  35  36
ENDBRANCH  15  32
BRANCH  24  50
HETATM   50  N   UNK     1      -7.699   2.608  70.571  1.00  0.00    -0.043 NA 
HETATM   51  C   UNK     1      -8.155   3.151  71.832  1.00  0.00    -0.059 C  
HETATM   52  C   UNK     1      -8.571   1.503  70.154  1.00  0.00    -0.049 C  
ENDBRANCH  24  50
TORSDOF 9
ENDMDL
MODEL      139
REMARK 921   NORMALIZED FREE ENERGY PREDICTED BY IDOCK:    4.68 KCAL/MOL
REMARK 922        TOTAL FREE ENERGY PREDICTED BY IDOCK:    5.75 KCAL/MOL
REMARK 923 INTER-LIGAND FREE ENERGY PREDICTED BY IDOCK:    6.30 KCAL/MOL
REMARK 924 INTRA-LIGAND FREE ENERGY PREDICTED BY IDOCK:   -0.55 KCAL/MOL
REMARK 927      BINDING AFFINITY PREDICTED BY RF-SCORE:    0.00 PKD
ROOT
HETATM    1  C   UNK     1      -8.511  11.308  67.931  1.00  0.00    -0.133 C  
HETATM    2  C   UNK     1      -9.845  11.194  68.647  1.00  0.00    -0.207 C  
HETATM    3  C   UNK     1     -10.530  12.571  68.887  1.00  0.00    -0.109 C  
HETATM    4  C   UNK     1      -9.573  13.543  69.538  1.00  0.00     1.049 C  
HETATM    5  C   UNK     1     -10.104  14.488  70.582  1.00  0.00     1.351 C  
HETATM    6  C   UNK     1      -8.261  13.528  69.242  1.00  0.00     0.594 C  
HETATM    7  O   UNK     1      -7.341  14.341  69.918  1.00  0.00    -0.375 OA 
HETATM    8  C   UNK     1      -7.573  12.440  68.415  1.00  0.00    -0.129 C  
HETATM    9  C   UNK     1     -11.569  14.592  70.795  1.00  0.00    -0.289 A  
HETATM   10  O   UNK     1      -9.345  15.182  71.260  1.00  0.00     1.800 OA 
HETATM   11  C   UNK     1     -12.102  15.615  71.599  1.00  0.00    -0.426 A  
HETATM   12  O   UNK     1      -6.640  11.919  69.370  1.00  0.00    -0.108 OA 
HETATM   13  C   UNK     1      -6.855  12.832  67.024  1.00  0.00     0.190 C  
HETATM   14  H   UNK     1      -6.414  14.330  69.709  1.00  0.00     0.000 HD 
HETATM   15  C   UNK     1      -6.573  11.664  66.071  1.00  0.00     0.550 C  
HETATM   16  O   UNK     1      -6.476  13.960  66.720  1.00  0.00     0.528 OA 
HETATM   17  C   UNK     1     -13.480  15.764  71.762  1.00  0.00    -0.412 A  
HETATM   18  H   UNK     1      -6.064  12.614  69.666  1.00  0.00     0.000 HD 
HETATM   19  O   UNK     1     -11.330  16.509  72.293  1.00  0.00    -0.097 OA 
HETATM   20  H   UNK     1     -13.633  11.768  69.065  1.00  0.00     0.000 HD 
HETATM   21  H   UNK     1     -11.690  17.200  72.837  1.00  0.00     0.000 HD 
HETATM   22  C   UNK     1     -14.347  14.888  71.122  1.00  0.00    -0.331 A  
HETATM   23  C   UNK     1      -6.374  10.562  66.834  1.00  0.00    -0.074 C  
HETATM   24  C   UNK     1      -7.660  10.007  67.591  1.00  0.00    -0.091 C  
HETATM   25  C   UNK     1     -11.810  11.314  70.747  1.00  0.00    -0.288 C  
HETATM   26  O   UNK     1     -12.803  11.893  68.619  1.00  0.00     0.609 OA 
HETATM   27  O   UNK     1      -5.183  10.440  67.558  1.00  0.00    -0.040 OA 
HETATM   28  C   UNK     1     -13.831  13.835  70.367  1.00  0.00     1.390 A  
HETATM   29  C   UNK     1     -11.890  12.366  69.620  1.00  0.00    -0.311 C  
HETATM   30  C   UNK     1     -12.438  13.647  70.218  1.00  0.00    -0.335 A  
HETATM   31  H   UNK     1      -5.044   9.667  68.093  1.00  0.00     0.000 HD 
ENDROOT
BRANCH  15  32
HETATM   32  C   UNK     1      -7.435  11.259  64.893  1.00  0.00     0.980 C  
HETATM   33  H   UNK     1      -7.296   9.184  65.142  1.00  0.00     0.000 HD 
HETATM   34  O   UNK     1      -7.968  12.133  64.200  1.00  0.00     2.609 OA 
HETATM   35  N   UNK     1      -7.662   9.945  64.570  1.00  0.00    -0.137 N  
BRANCH  35  36
HETATM   36  C   UNK     1      -8.444   9.689  63.382  1.00  0.00    -0.188 C  
BRANCH  36  37
HETATM   37  N   UNK     1      -9.634   8.969  63.786  1.00  0.00     0.213 NA 
HETATM   38  H   UNK     1      -9.411   8.094  64.260  1.00  0.00     0.000 HD 
BRANCH  37  39
HETATM   39  C   UNK     1     -10.490   9.843  64.610  1.00  0.00     0.987 C  
BRANCH  39  40
HETATM   40  C   UNK     1     -10.751  11.209  63.950  1.00  0.00    -0.407 C  
BRANCH  40  41
HETATM   41  C   UNK     1     -11.678  12.119  64.764  1.00  0.00    -0.390 C  
BRANCH  41  42
HETATM   42  C   UNK     1     -10.891  13.003  65.747  1.00  0.00    -0.292 C  
BRANCH  42  43
HETATM   43  C   UNK     1     -10.795  14.482  65.340  1.00  0.00    -0.354 C  
HETATM   44  C   UNK     1     -10.552  15.375  66.566  1.00  0.00    -0.306 C  
HETATM   45  N   UNK     1      -9.702  14.717  64.352  1.00  0.00     0.009 NA 
HETATM   46  O   UNK     1     -11.400  15.700  67.380  1.00  0.00    -0.281 OA 
HETATM   47  O   UNK     1      -9.247  15.749  66.647  1.00  0.00    -0.216 OA 
HETATM   48  H2  UNK     1      -9.803  14.113  63.536  1.00  0.00     0.000 HD 
HETATM   49  H1  UNK     1      -9.640  15.699  64.082  1.00  0.00     0.000 HD 
ENDBRANCH  42  43
ENDBRANCH  41  42
ENDBRANCH  40  41
ENDBRANCH  39  40
ENDBRANCH  37  39
ENDBRANCH  36  37
ENDBRANCH  35  36
ENDBRANCH  15  32
BRANCH  24  50
HETATM   50  N   UNK     1      -7.234   9.035  68.626  1.00  0.00    -0.071 NA 
HETATM   51  C   UNK     1      -8.220   8.103  69.130  1.00  0.00    -0.123 C  
HETATM   52  C   UNK     1      -6.031   8.312  68.194  1.00  0.00    -0.042 C  
ENDBRANCH  24  50
TORSDOF 9
ENDMDL
MODEL      140
REMARK 921   NORMALIZED FREE ENERGY PREDICTED BY IDOCK:    6.34 KCAL/MOL
REMARK 922        TOTAL FREE ENERGY PREDICTED BY IDOCK:    8.28 KCAL/MOL
REMARK 923 INTER-LIGAND FREE ENERGY PREDICTED BY IDOCK:   -5.10 KCAL/MOL
REMARK 924 INTRA-LIGAND FREE ENERGY PREDICTED BY IDOCK:   13.38 KCAL/MOL
REMARK 927      BINDING AFFINITY PREDICTED BY RF-SCORE:    0.00 PKD
ROOT
HETATM    1  C   UNK     1     -10.279  13.228  67.929  1.00  0.00    -0.233 C  
HETATM    2  C   UNK     1      -9.191  12.169  67.901  1.00  0.00    -0.188 C  
HETATM    3  C   UNK     1      -8.763  11.768  66.458  1.00  0.00    -0.173 C  
HETATM    4  C   UNK     1      -9.970  11.422  65.616  1.00  0.00    -0.282 C  
HETATM    5  C   UNK     1      -9.861  10.286  64.635  1.00  0.00    -0.327 C  
HETATM    6  C   UNK     1     -11.138  12.069  65.778  1.00  0.00    -0.324 C  
HETATM    7  O   UNK     1     -12.297  11.686  65.089  1.00  0.00    -0.074 OA 
HETATM    8  C   UNK     1     -11.439  13.039  66.922  1.00  0.00    -0.339 C  
HETATM    9  C   UNK     1      -8.535   9.677  64.366  1.00  0.00    -0.189 A  
HETATM   10  O   UNK     1     -10.853   9.855  64.046  1.00  0.00     1.807 OA 
HETATM   11  C   UNK     1      -8.368   8.772  63.304  1.00  0.00    -0.161 A  
HETATM   12  O   UNK     1     -12.533  12.372  67.565  1.00  0.00    -0.121 OA 
HETATM   13  C   UNK     1     -11.785  14.579  66.590  1.00  0.00    -0.371 C  
HETATM   14  H   UNK     1     -13.122  12.143  65.203  1.00  0.00     0.000 HD 
HETATM   15  C   UNK     1     -11.655  15.556  67.766  1.00  0.00    -0.193 C  
HETATM   16  O   UNK     1     -12.194  14.992  65.508  1.00  0.00    -0.059 OA 
HETATM   17  C   UNK     1      -7.116   8.237  63.000  1.00  0.00    -0.091 A  
HETATM   18  H   UNK     1     -13.245  12.256  66.947  1.00  0.00     0.000 HD 
HETATM   19  O   UNK     1      -9.400   8.332  62.518  1.00  0.00    -0.091 OA 
HETATM   20  H   UNK     1      -5.760  10.727  66.901  1.00  0.00     0.000 HD 
HETATM   21  H   UNK     1      -9.287   7.720  61.800  1.00  0.00     0.000 HD 
HETATM   22  C   UNK     1      -6.010   8.599  63.757  1.00  0.00    -0.072 A  
HETATM   23  C   UNK     1     -11.927  14.862  68.897  1.00  0.00    -0.260 C  
HETATM   24  C   UNK     1     -10.845  13.770  69.314  1.00  0.00    -0.103 C  
HETATM   25  C   UNK     1      -7.910   9.610  67.593  1.00  0.00    -0.095 C  
HETATM   26  O   UNK     1      -6.442  11.388  66.864  1.00  0.00    -0.112 OA 
HETATM   27  O   UNK     1     -13.249  14.494  69.169  1.00  0.00     0.472 OA 
HETATM   28  C   UNK     1      -6.171   9.452  64.849  1.00  0.00    -0.072 A  
HETATM   29  C   UNK     1      -7.645  10.685  66.519  1.00  0.00    -0.134 C  
HETATM   30  C   UNK     1      -7.437   9.977  65.193  1.00  0.00    -0.139 A  
HETATM   31  H   UNK     1     -13.440  14.008  69.962  1.00  0.00     0.000 HD 
ENDROOT
BRANCH  15  32
HETATM   32  C   UNK     1     -10.460  16.444  68.047  1.00  0.00    -0.303 C  
HETATM   33  H   UNK     1     -11.249  17.466  69.696  1.00  0.00     0.000 HD 
HETATM   34  O   UNK     1      -9.441  16.329  67.357  1.00  0.00    -0.224 OA 
HETATM   35  N   UNK     1     -10.458  17.370  69.059  1.00  0.00    -0.333 N  
BRANCH  35  36
HETATM   36  C   UNK     1      -9.284  18.204  69.181  1.00  0.00     0.069 C  
BRANCH  36  37
HETATM   37  N   UNK     1      -8.141  17.416  68.771  1.00  0.00    -0.261 NA 
HETATM   38  H   UNK     1      -8.406  16.469  68.499  1.00  0.00     0.000 HD 
BRANCH  37  39
HETATM   39  C   UNK     1      -7.409  18.116  67.699  1.00  0.00    -0.213 C  
BRANCH  39  40
HETATM   40  C   UNK     1      -8.321  18.523  66.528  1.00  0.00    -0.297 C  
BRANCH  40  41
HETATM   41  C   UNK     1      -7.850  19.781  65.789  1.00  0.00    -0.230 C  
BRANCH  41  42
HETATM   42  C   UNK     1      -7.075  20.732  66.717  1.00  0.00    -0.315 C  
BRANCH  42  43
HETATM   43  C   UNK     1      -5.825  20.116  67.364  1.00  0.00    -0.182 C  
HETATM   44  C   UNK     1      -6.072  19.802  68.848  1.00  0.00    -0.264 C  
HETATM   45  N   UNK     1      -5.402  18.863  66.674  1.00  0.00    -0.140 NA 
HETATM   46  O   UNK     1      -6.079  20.624  69.750  1.00  0.00    -0.320 OA 
HETATM   47  O   UNK     1      -6.307  18.476  69.035  1.00  0.00    -0.221 OA 
HETATM   48  H2  UNK     1      -5.265  19.018  65.676  1.00  0.00     0.000 HD 
HETATM   49  H1  UNK     1      -4.572  18.454  67.104  1.00  0.00     0.000 HD 
ENDBRANCH  42  43
ENDBRANCH  41  42
ENDBRANCH  40  41
ENDBRANCH  39  40
ENDBRANCH  37  39
ENDBRANCH  36  37
ENDBRANCH  35  36
ENDBRANCH  15  32
BRANCH  24  50
HETATM   50  N   UNK     1     -11.425  12.880  70.347  1.00  0.00     0.159 NA 
HETATM   51  C   UNK     1     -12.806  13.087  70.725  1.00  0.00    -0.074 C  
HETATM   52  C   UNK     1     -11.203  11.471  70.000  1.00  0.00    -0.026 C  
ENDBRANCH  24  50
TORSDOF 9
ENDMDL
MODEL      141
REMARK 921   NORMALIZED FREE ENERGY PREDICTED BY IDOCK:    6.34 KCAL/MOL
REMARK 922        TOTAL FREE ENERGY PREDICTED BY IDOCK:    8.28 KCAL/MOL
REMARK 923 INTER-LIGAND FREE ENERGY PREDICTED BY IDOCK:    5.90 KCAL/MOL
REMARK 924 INTRA-LIGAND FREE ENERGY PREDICTED BY IDOCK:    2.38 KCAL/MOL
REMARK 927      BINDING AFFINITY PREDICTED BY RF-SCORE:    0.00 PKD
ROOT
HETATM    1  C   UNK     1      -9.235   7.499  68.539  1.00  0.00    -0.143 C  
HETATM    2  C   UNK     1      -9.426   6.556  69.713  1.00  0.00    -0.155 C  
HETATM    3  C   UNK     1      -8.113   5.835  70.140  1.00  0.00    -0.108 C  
HETATM    4  C   UNK     1      -7.441   5.193  68.948  1.00  0.00    -0.069 C  
HETATM    5  C   UNK     1      -6.774   3.856  69.132  1.00  0.00    -0.045 C  
HETATM    6  C   UNK     1      -7.486   5.767  67.733  1.00  0.00    -0.078 C  
HETATM    7  O   UNK     1      -6.969   5.132  66.595  1.00  0.00    -0.061 OA 
HETATM    8  C   UNK     1      -8.362   6.970  67.376  1.00  0.00    -0.122 C  
HETATM    9  C   UNK     1      -6.608   3.304  70.499  1.00  0.00    -0.032 A  
HETATM   10  O   UNK     1      -6.358   3.213  68.167  1.00  0.00    -0.031 OA 
HETATM   11  C   UNK     1      -5.801   2.174  70.718  1.00  0.00    -0.017 A  
HETATM   12  O   UNK     1      -9.200   6.406  66.360  1.00  0.00    -0.154 OA 
HETATM   13  C   UNK     1      -7.668   8.343  66.891  1.00  0.00    -0.092 C  
HETATM   14  H   UNK     1      -7.002   5.538  65.736  1.00  0.00     0.000 HD 
HETATM   15  C   UNK     1      -8.552   9.595  66.963  1.00  0.00    -0.131 C  
HETATM   16  O   UNK     1      -6.537   8.434  66.422  1.00  0.00    -0.057 OA 
HETATM   17  C   UNK     1      -5.586   1.678  72.004  1.00  0.00    -0.004 A  
HETATM   18  H   UNK     1      -8.664   6.082  65.646  1.00  0.00     0.000 HD 
HETATM   19  O   UNK     1      -5.199   1.469  69.710  1.00  0.00    -0.007 OA 
HETATM   20  H   UNK     1      -8.668   5.178  73.232  1.00  0.00     0.000 HD 
HETATM   21  H   UNK     1      -4.654   0.705  69.858  1.00  0.00     0.000 HD 
HETATM   22  C   UNK     1      -6.177   2.306  73.093  1.00  0.00    -0.009 A  
HETATM   23  C   UNK     1      -9.833   9.193  66.779  1.00  0.00    -0.226 C  
HETATM   24  C   UNK     1     -10.463   8.331  67.961  1.00  0.00    -0.181 C  
HETATM   25  C   UNK     1      -9.716   4.110  71.204  1.00  0.00    -0.258 C  
HETATM   26  O   UNK     1      -8.497   5.752  72.495  1.00  0.00    -0.117 OA 
HETATM   27  O   UNK     1     -10.249   8.805  65.501  1.00  0.00    -0.144 OA 
HETATM   28  C   UNK     1      -7.025   3.393  72.884  1.00  0.00    -0.043 A  
HETATM   29  C   UNK     1      -8.394   4.894  71.349  1.00  0.00    -0.116 C  
HETATM   30  C   UNK     1      -7.282   3.890  71.586  1.00  0.00    -0.046 A  
HETATM   31  H   UNK     1     -11.147   8.524  65.372  1.00  0.00     0.000 HD 
ENDROOT
BRANCH  15  32
HETATM   32  C   UNK     1      -8.547  10.615  68.083  1.00  0.00    -0.123 C  
HETATM   33  H   UNK     1      -8.108  12.304  66.925  1.00  0.00     0.000 HD 
HETATM   34  O   UNK     1      -8.811  10.254  69.236  1.00  0.00    -0.164 OA 
HETATM   35  N   UNK     1      -8.273  11.941  67.864  1.00  0.00    -0.141 N  
BRANCH  35  36
HETATM   36  C   UNK     1      -8.230  12.801  69.025  1.00  0.00     0.396 C  
BRANCH  36  37
HETATM   37  N   UNK     1      -6.861  13.244  69.192  1.00  0.00    -0.191 NA 
HETATM   38  H   UNK     1      -6.213  12.462  69.286  1.00  0.00     0.000 HD 
BRANCH  37  39
HETATM   39  C   UNK     1      -6.488  14.142  68.083  1.00  0.00    -0.126 C  
BRANCH  39  40
HETATM   40  C   UNK     1      -7.642  14.364  67.088  1.00  0.00    -0.021 C  
BRANCH  40  41
HETATM   41  C   UNK     1      -8.037  15.835  66.922  1.00  0.00    -0.292 C  
BRANCH  41  42
HETATM   42  C   UNK     1      -9.199  16.006  65.927  1.00  0.00    -0.321 C  
BRANCH  42  43
HETATM   43  C   UNK     1     -10.143  17.176  66.243  1.00  0.00    -0.320 C  
HETATM   44  C   UNK     1      -9.388  18.321  66.935  1.00  0.00    -0.286 C  
HETATM   45  N   UNK     1     -10.797  17.709  65.013  1.00  0.00    -0.733 NA 
HETATM   46  O   UNK     1      -9.052  18.334  68.108  1.00  0.00    -0.282 OA 
HETATM   47  O   UNK     1      -9.116  19.326  66.061  1.00  0.00    -0.433 OA 
HETATM   48  H2  UNK     1     -11.279  16.972  64.499  1.00  0.00     0.000 HD 
HETATM   49  H1  UNK     1     -11.425  18.486  65.223  1.00  0.00     0.000 HD 
ENDBRANCH  42  43
ENDBRANCH  41  42
ENDBRANCH  40  41
ENDBRANCH  39  40
ENDBRANCH  37  39
ENDBRANCH  36  37
ENDBRANCH  35  36
ENDBRANCH  15  32
BRANCH  24  50
HETATM   50  N   UNK     1     -11.712   7.691  67.486  1.00  0.00     1.518 NA 
HETATM   51  C   UNK     1     -11.664   6.289  67.131  1.00  0.00     1.169 C  
HETATM   52  C   UNK     1     -12.811   7.936  68.428  1.00  0.00     8.701 C  
ENDBRANCH  24  50
TORSDOF 9
ENDMDL
MODEL      142
REMARK 921   NORMALIZED FREE ENERGY PREDICTED BY IDOCK:    6.49 KCAL/MOL
REMARK 922        TOTAL FREE ENERGY PREDICTED BY IDOCK:    8.52 KCAL/MOL
REMARK 923 INTER-LIGAND FREE ENERGY PREDICTED BY IDOCK:    4.86 KCAL/MOL
REMARK 924 INTRA-LIGAND FREE ENERGY PREDICTED BY IDOCK:    3.66 KCAL/MOL
REMARK 927      BINDING AFFINITY PREDICTED BY RF-SCORE:    0.00 PKD
ROOT
HETATM    1  C   UNK     1      -7.287  15.936  68.824  1.00  0.00    -0.159 C  
HETATM    2  C   UNK     1      -7.056  14.582  68.180  1.00  0.00    -0.125 C  
HETATM    3  C   UNK     1      -8.368  13.910  67.678  1.00  0.00    -0.183 C  
HETATM    4  C   UNK     1      -9.415  13.894  68.769  1.00  0.00    -0.045 C  
HETATM    5  C   UNK     1     -10.306  12.687  68.894  1.00  0.00    -0.031 C  
HETATM    6  C   UNK     1      -9.513  14.903  69.651  1.00  0.00     0.074 C  
HETATM    7  O   UNK     1     -10.399  14.853  70.737  1.00  0.00    -0.437 OA 
HETATM    8  C   UNK     1      -8.493  16.035  69.790  1.00  0.00     0.328 C  
HETATM    9  C   UNK     1     -10.283  11.649  67.834  1.00  0.00    -0.203 A  
HETATM   10  O   UNK     1     -11.059  12.547  69.859  1.00  0.00     0.053 OA 
HETATM   11  C   UNK     1     -11.252  10.631  67.811  1.00  0.00    -0.313 A  
HETATM   12  O   UNK     1      -8.049  15.840  71.138  1.00  0.00     2.657 OA 
HETATM   13  C   UNK     1      -8.952  17.558  69.521  1.00  0.00     0.636 C  
HETATM   14  H   UNK     1     -10.468  15.567  71.361  1.00  0.00     0.000 HD 
HETATM   15  C   UNK     1      -7.817  18.557  69.264  1.00  0.00     0.070 C  
HETATM   16  O   UNK     1     -10.110  17.964  69.573  1.00  0.00    -0.114 OA 
HETATM   17  C   UNK     1     -11.282   9.683  66.788  1.00  0.00     0.598 A  
HETATM   18  H   UNK     1      -8.788  15.900  71.731  1.00  0.00     0.000 HD 
HETATM   19  O   UNK     1     -12.206  10.475  68.783  1.00  0.00    -0.779 OA 
HETATM   20  H   UNK     1      -7.302  11.988  65.339  1.00  0.00     0.000 HD 
HETATM   21  H   UNK     1     -12.860   9.787  68.768  1.00  0.00     0.000 HD 
HETATM   22  C   UNK     1     -10.339   9.738  65.771  1.00  0.00    -0.101 A  
HETATM   23  C   UNK     1      -6.732  18.118  69.946  1.00  0.00     0.233 C  
HETATM   24  C   UNK     1      -6.065  16.781  69.394  1.00  0.00    -0.211 C  
HETATM   25  C   UNK     1      -6.997  11.725  67.827  1.00  0.00    -0.094 C  
HETATM   26  O   UNK     1      -7.500  12.830  65.735  1.00  0.00     2.115 OA 
HETATM   27  O   UNK     1      -6.708  18.239  71.340  1.00  0.00     2.367 OA 
HETATM   28  C   UNK     1      -9.338  10.708  65.810  1.00  0.00    -0.223 A  
HETATM   29  C   UNK     1      -8.044  12.531  67.029  1.00  0.00    -0.105 C  
HETATM   30  C   UNK     1      -9.271  11.656  66.857  1.00  0.00    -0.187 A  
HETATM   31  H   UNK     1      -5.948  17.931  71.818  1.00  0.00     0.000 HD 
ENDROOT
BRANCH  15  32
HETATM   32  C   UNK     1      -7.345  19.025  67.902  1.00  0.00    -0.245 C  
HETATM   33  H   UNK     1      -7.528  17.197  66.897  1.00  0.00     0.000 HD 
HETATM   34  O   UNK     1      -7.053  20.215  67.736  1.00  0.00    -0.274 OA 
HETATM   35  N   UNK     1      -7.243  18.174  66.831  1.00  0.00    -0.199 N  
BRANCH  35  36
HETATM   36  C   UNK     1      -6.714  18.727  65.605  1.00  0.00    -0.276 C  
BRANCH  36  37
HETATM   37  N   UNK     1      -7.778  19.471  64.963  1.00  0.00     0.161 NA 
HETATM   38  H   UNK     1      -8.148  18.984  64.146  1.00  0.00     0.000 HD 
BRANCH  37  39
HETATM   39  C   UNK     1      -8.832  19.784  65.947  1.00  0.00    -0.126 C  
BRANCH  39  40
HETATM   40  C   UNK     1     -10.232  19.850  65.312  1.00  0.00     0.248 C  
BRANCH  40  41
HETATM   41  C   UNK     1     -11.011  18.533  65.400  1.00  0.00     0.465 C  
BRANCH  41  42
HETATM   42  C   UNK     1     -10.579  17.695  66.617  1.00  0.00    -0.211 C  
BRANCH  42  43
HETATM   43  C   UNK     1     -10.160  16.254  66.283  1.00  0.00    -0.324 C  
HETATM   44  C   UNK     1     -11.354  15.442  65.759  1.00  0.00    -0.115 C  
HETATM   45  N   UNK     1      -9.070  16.214  65.266  1.00  0.00     0.135 NA 
HETATM   46  O   UNK     1     -12.245  14.975  66.449  1.00  0.00    -0.008 OA 
HETATM   47  O   UNK     1     -11.307  15.321  64.406  1.00  0.00    -0.315 OA 
HETATM   48  H2  UNK     1      -8.270  16.776  65.557  1.00  0.00     0.000 HD 
HETATM   49  H1  UNK     1      -8.792  15.258  65.045  1.00  0.00     0.000 HD 
ENDBRANCH  42  43
ENDBRANCH  41  42
ENDBRANCH  40  41
ENDBRANCH  39  40
ENDBRANCH  37  39
ENDBRANCH  36  37
ENDBRANCH  35  36
ENDBRANCH  15  32
BRANCH  24  50
HETATM   50  N   UNK     1      -5.128  16.248  70.411  1.00  0.00    -0.169 NA 
HETATM   51  C   UNK     1      -5.230  16.758  71.762  1.00  0.00     0.402 C  
HETATM   52  C   UNK     1      -5.155  14.781  70.423  1.00  0.00    -0.109 C  
ENDBRANCH  24  50
TORSDOF 9
ENDMDL
MODEL      143
REMARK 921   NORMALIZED FREE ENERGY PREDICTED BY IDOCK:    6.60 KCAL/MOL
REMARK 922        TOTAL FREE ENERGY PREDICTED BY IDOCK:    8.68 KCAL/MOL
REMARK 923 INTER-LIGAND FREE ENERGY PREDICTED BY IDOCK:    4.95 KCAL/MOL
REMARK 924 INTRA-LIGAND FREE ENERGY PREDICTED BY IDOCK:    3.73 KCAL/MOL
REMARK 927      BINDING AFFINITY PREDICTED BY RF-SCORE:    0.00 PKD
ROOT
HETATM    1  C   UNK     1     -10.544  12.512  68.675  1.00  0.00    -0.240 C  
HETATM    2  C   UNK     1      -9.234  13.158  68.263  1.00  0.00    -0.194 C  
HETATM    3  C   UNK     1      -8.844  14.375  69.153  1.00  0.00     0.096 C  
HETATM    4  C   UNK     1      -9.993  15.350  69.264  1.00  0.00    -0.256 C  
HETATM    5  C   UNK     1      -9.689  16.824  69.269  1.00  0.00    -0.139 C  
HETATM    6  C   UNK     1     -11.267  14.921  69.295  1.00  0.00    -0.284 C  
HETATM    7  O   UNK     1     -12.349  15.812  69.282  1.00  0.00    -0.551 OA 
HETATM    8  C   UNK     1     -11.702  13.480  69.019  1.00  0.00    -0.327 C  
HETATM    9  C   UNK     1      -8.281  17.279  69.377  1.00  0.00     0.344 A  
HETATM   10  O   UNK     1     -10.589  17.662  69.191  1.00  0.00    -0.260 OA 
HETATM   11  C   UNK     1      -7.985  18.634  69.605  1.00  0.00     0.618 A  
HETATM   12  O   UNK     1     -12.537  13.662  67.868  1.00  0.00    -0.197 OA 
HETATM   13  C   UNK     1     -12.447  12.637  70.176  1.00  0.00    -0.029 C  
HETATM   14  H   UNK     1     -13.249  15.509  69.304  1.00  0.00     0.000 HD 
HETATM   15  C   UNK     1     -12.465  11.116  69.981  1.00  0.00    -0.292 C  
HETATM   16  O   UNK     1     -13.036  13.127  71.136  1.00  0.00    -0.288 OA 
HETATM   17  C   UNK     1      -6.669  19.070  69.769  1.00  0.00    -0.101 A  
HETATM   18  H   UNK     1     -13.247  14.256  68.079  1.00  0.00     0.000 HD 
HETATM   19  O   UNK     1      -8.937  19.617  69.655  1.00  0.00     0.093 OA 
HETATM   20  H   UNK     1      -5.649  14.446  68.851  1.00  0.00     0.000 HD 
HETATM   21  H   UNK     1      -8.738  20.533  69.808  1.00  0.00     0.000 HD 
HETATM   22  C   UNK     1      -5.628  18.153  69.706  1.00  0.00    -0.228 A  
HETATM   23  C   UNK     1     -12.459  10.882  68.647  1.00  0.00     0.723 C  
HETATM   24  C   UNK     1     -11.108  11.250  67.888  1.00  0.00    -0.267 C  
HETATM   25  C   UNK     1      -7.387  15.054  67.129  1.00  0.00    -0.104 C  
HETATM   26  O   UNK     1      -6.475  14.080  69.147  1.00  0.00    -0.100 OA 
HETATM   27  O   UNK     1     -13.620  11.129  67.906  1.00  0.00     6.045 OA 
HETATM   28  C   UNK     1      -5.903  16.815  69.425  1.00  0.00    -0.178 A  
HETATM   29  C   UNK     1      -7.490  14.975  68.667  1.00  0.00    -0.122 C  
HETATM   30  C   UNK     1      -7.226  16.361  69.222  1.00  0.00    -0.221 A  
HETATM   31  H   UNK     1     -13.616  10.964  66.971  1.00  0.00     0.000 HD 
ENDROOT
BRANCH  15  32
HETATM   32  C   UNK     1     -11.508  10.133  70.625  1.00  0.00    -0.349 C  
HETATM   33  H   UNK     1     -11.356  11.069  72.492  1.00  0.00     0.000 HD 
HETATM   34  O   UNK     1     -11.142   9.137  69.991  1.00  0.00    -0.235 OA 
HETATM   35  N   UNK     1     -11.040  10.298  71.904  1.00  0.00     1.167 N  
BRANCH  35  36
HETATM   36  C   UNK     1     -10.078   9.329  72.378  1.00  0.00     0.917 C  
BRANCH  36  37
HETATM   37  N   UNK     1      -9.829   8.394  71.301  1.00  0.00    -0.185 NA 
HETATM   38  H   UNK     1      -8.896   8.504  70.904  1.00  0.00     0.000 HD 
BRANCH  37  39
HETATM   39  C   UNK     1     -10.073   7.016  71.769  1.00  0.00    -0.184 C  
BRANCH  39  40
HETATM   40  C   UNK     1     -11.119   6.278  70.915  1.00  0.00    -0.366 C  
BRANCH  40  41
HETATM   41  C   UNK     1     -10.566   5.041  70.198  1.00  0.00    -0.115 C  
BRANCH  41  42
HETATM   42  C   UNK     1      -9.188   4.632  70.746  1.00  0.00    -0.200 C  
BRANCH  42  43
HETATM   43  C   UNK     1      -8.664   3.288  70.216  1.00  0.00    -0.069 C  
HETATM   44  C   UNK     1      -7.272   3.451  69.585  1.00  0.00    -0.041 C  
HETATM   45  N   UNK     1      -8.583   2.259  71.293  1.00  0.00    -0.061 NA 
HETATM   46  O   UNK     1      -7.050   3.921  68.482  1.00  0.00    -0.050 OA 
HETATM   47  O   UNK     1      -6.299   3.018  70.430  1.00  0.00    -0.026 OA 
HETATM   48  H2  UNK     1      -9.479   2.147  71.767  1.00  0.00     0.000 HD 
HETATM   49  H1  UNK     1      -8.236   1.367  70.941  1.00  0.00     0.000 HD 
ENDBRANCH  42  43
ENDBRANCH  41  42
ENDBRANCH  40  41
ENDBRANCH  39  40
ENDBRANCH  37  39
ENDBRANCH  36  37
ENDBRANCH  35  36
ENDBRANCH  15  32
BRANCH  24  50
HETATM   50  N   UNK     1     -11.358  11.263  66.427  1.00  0.00    -0.279 NA 
HETATM   51  C   UNK     1     -12.567  11.900  65.951  1.00  0.00     1.724 C  
HETATM   52  C   UNK     1     -10.193  11.789  65.706  1.00  0.00    -0.239 C  
ENDBRANCH  24  50
TORSDOF 9
ENDMDL
MODEL      144
REMARK 921   NORMALIZED FREE ENERGY PREDICTED BY IDOCK:    7.34 KCAL/MOL
REMARK 922        TOTAL FREE ENERGY PREDICTED BY IDOCK:    9.81 KCAL/MOL
REMARK 923 INTER-LIGAND FREE ENERGY PREDICTED BY IDOCK:    3.42 KCAL/MOL
REMARK 924 INTRA-LIGAND FREE ENERGY PREDICTED BY IDOCK:    6.39 KCAL/MOL
REMARK 927      BINDING AFFINITY PREDICTED BY RF-SCORE:    0.00 PKD
ROOT
HETATM    1  C   UNK     1      -9.992   7.581  70.035  1.00  0.00    -0.186 C  
HETATM    2  C   UNK     1      -9.832   6.428  69.061  1.00  0.00    -0.155 C  
HETATM    3  C   UNK     1      -8.398   6.325  68.464  1.00  0.00    -0.115 C  
HETATM    4  C   UNK     1      -7.950   7.657  67.908  1.00  0.00    -0.118 C  
HETATM    5  C   UNK     1      -7.140   7.672  66.639  1.00  0.00    -0.079 C  
HETATM    6  C   UNK     1      -8.314   8.811  68.493  1.00  0.00    -0.129 C  
HETATM    7  O   UNK     1      -8.006  10.057  67.928  1.00  0.00    -0.103 OA 
HETATM    8  C   UNK     1      -9.353   8.925  69.610  1.00  0.00    -0.163 C  
HETATM    9  C   UNK     1      -6.626   6.394  66.085  1.00  0.00    -0.048 A  
HETATM   10  O   UNK     1      -6.890   8.727  66.054  1.00  0.00    -0.071 OA 
HETATM   11  C   UNK     1      -5.692   6.397  65.035  1.00  0.00    -0.022 A  
HETATM   12  O   UNK     1     -10.340   9.753  68.984  1.00  0.00    -0.190 OA 
HETATM   13  C   UNK     1      -8.912   9.501  71.052  1.00  0.00     0.121 C  
HETATM   14  H   UNK     1      -8.264  10.873  68.341  1.00  0.00     0.000 HD 
HETATM   15  C   UNK     1      -9.868   9.192  72.211  1.00  0.00     0.332 C  
HETATM   16  O   UNK     1      -7.924  10.202  71.258  1.00  0.00     0.686 OA 
HETATM   17  C   UNK     1      -5.153   5.208  64.543  1.00  0.00    -0.009 A  
HETATM   18  H   UNK     1      -9.948  10.578  68.723  1.00  0.00     0.000 HD 
HETATM   19  O   UNK     1      -5.266   7.537  64.407  1.00  0.00    -0.029 OA 
HETATM   20  H   UNK     1      -8.194   3.212  67.710  1.00  0.00     0.000 HD 
HETATM   21  H   UNK     1      -4.634   7.540  63.697  1.00  0.00     0.000 HD 
HETATM   22  C   UNK     1      -5.545   3.995  65.094  1.00  0.00    -0.014 A  
HETATM   23  C   UNK     1     -11.115   9.106  71.690  1.00  0.00    -0.375 C  
HETATM   24  C   UNK     1     -11.387   7.847  70.753  1.00  0.00    -0.274 C  
HETATM   25  C   UNK     1      -9.562   4.999  66.576  1.00  0.00    -0.168 C  
HETATM   26  O   UNK     1      -8.243   3.948  68.309  1.00  0.00    -0.085 OA 
HETATM   27  O   UNK     1     -11.767  10.276  71.283  1.00  0.00    -0.354 OA 
HETATM   28  C   UNK     1      -6.513   3.974  66.098  1.00  0.00    -0.037 A  
HETATM   29  C   UNK     1      -8.318   5.118  67.482  1.00  0.00    -0.106 C  
HETATM   30  C   UNK     1      -7.094   5.166  66.586  1.00  0.00    -0.069 A  
HETATM   31  H   UNK     1     -12.641  10.216  70.917  1.00  0.00     0.000 HD 
ENDROOT
BRANCH  15  32
HETATM   32  C   UNK     1      -9.708   8.064  73.210  1.00  0.00    -0.238 C  
HETATM   33  H   UNK     1     -10.585   6.546  72.064  1.00  0.00     0.000 HD 
HETATM   34  O   UNK     1      -9.139   8.281  74.285  1.00  0.00     0.191 OA 
HETATM   35  N   UNK     1     -10.162   6.794  72.959  1.00  0.00    -0.198 N  
BRANCH  35  36
HETATM   36  C   UNK     1     -10.012   5.824  74.020  1.00  0.00    -0.218 C  
BRANCH  36  37
HETATM   37  N   UNK     1      -9.023   4.856  73.594  1.00  0.00    -0.108 NA 
HETATM   38  H   UNK     1      -9.440   3.951  73.377  1.00  0.00     0.000 HD 
BRANCH  37  39
HETATM   39  C   UNK     1      -8.252   5.397  72.458  1.00  0.00    -0.114 C  
BRANCH  39  40
HETATM   40  C   UNK     1      -6.773   4.973  72.492  1.00  0.00    -0.061 C  
BRANCH  40  41
HETATM   41  C   UNK     1      -5.836   6.052  73.047  1.00  0.00    -0.037 C  
BRANCH  41  42
HETATM   42  C   UNK     1      -5.187   6.878  71.922  1.00  0.00    -0.028 C  
BRANCH  42  43
HETATM   43  C   UNK     1      -6.177   7.683  71.068  1.00  0.00    -0.035 C  
HETATM   44  C   UNK     1      -5.580   9.040  70.665  1.00  0.00    -0.029 C  
HETATM   45  N   UNK     1      -6.570   6.948  69.830  1.00  0.00    -0.043 NA 
HETATM   46  O   UNK     1      -5.488  10.013  71.396  1.00  0.00    -0.075 OA 
HETATM   47  O   UNK     1      -5.138   9.019  69.380  1.00  0.00    -0.034 OA 
HETATM   48  H2  UNK     1      -6.937   6.022  70.050  1.00  0.00     0.000 HD 
HETATM   49  H1  UNK     1      -7.228   7.483  69.263  1.00  0.00     0.000 HD 
ENDBRANCH  42  43
ENDBRANCH  41  42
ENDBRANCH  40  41
ENDBRANCH  39  40
ENDBRANCH  37  39
ENDBRANCH  36  37
ENDBRANCH  35  36
ENDBRANCH  15  32
BRANCH  24  50
HETATM   50  N   UNK     1     -12.647   8.061  70.003  1.00  0.00     1.157 NA 
HETATM   51  C   UNK     1     -13.404   6.896  69.600  1.00  0.00     4.719 C  
HETATM   52  C   UNK     1     -13.518   9.008  70.711  1.00  0.00     0.328 C  
ENDBRANCH  24  50
TORSDOF 9
ENDMDL
MODEL      145
REMARK 921   NORMALIZED FREE ENERGY PREDICTED BY IDOCK:    7.40 KCAL/MOL
REMARK 922        TOTAL FREE ENERGY PREDICTED BY IDOCK:    9.90 KCAL/MOL
REMARK 923 INTER-LIGAND FREE ENERGY PREDICTED BY IDOCK:   -0.33 KCAL/MOL
REMARK 924 INTRA-LIGAND FREE ENERGY PREDICTED BY IDOCK:   10.23 KCAL/MOL
REMARK 927      BINDING AFFINITY PREDICTED BY RF-SCORE:    0.00 PKD
ROOT
HETATM    1  C   UNK     1      -9.182   6.151  70.888  1.00  0.00    -0.163 C  
HETATM    2  C   UNK     1      -9.151   7.354  69.963  1.00  0.00    -0.148 C  
HETATM    3  C   UNK     1      -7.811   8.145  70.031  1.00  0.00    -0.103 C  
HETATM    4  C   UNK     1      -7.450   8.469  71.462  1.00  0.00    -0.123 C  
HETATM    5  C   UNK     1      -6.821   9.804  71.761  1.00  0.00     0.778 C  
HETATM    6  C   UNK     1      -7.737   7.616  72.461  1.00  0.00    -0.096 C  
HETATM    7  O   UNK     1      -7.515   7.948  73.804  1.00  0.00    -0.125 OA 
HETATM    8  C   UNK     1      -8.613   6.371  72.311  1.00  0.00    -0.117 C  
HETATM    9  C   UNK     1      -6.382  10.672  70.640  1.00  0.00    -0.015 A  
HETATM   10  O   UNK     1      -6.660  10.187  72.920  1.00  0.00     1.047 OA 
HETATM   11  C   UNK     1      -5.600  11.814  70.887  1.00  0.00    -0.067 A  
HETATM   12  O   UNK     1      -9.681   6.677  73.216  1.00  0.00    -0.157 OA 
HETATM   13  C   UNK     1      -7.982   4.914  72.595  1.00  0.00    -0.094 C  
HETATM   14  H   UNK     1      -7.718   7.345  74.510  1.00  0.00     0.000 HD 
HETATM   15  C   UNK     1      -8.769   3.727  72.026  1.00  0.00    -0.119 C  
HETATM   16  O   UNK     1      -6.979   4.701  73.272  1.00  0.00    -0.068 OA 
HETATM   17  C   UNK     1      -5.128  12.607  69.841  1.00  0.00    -0.082 A  
HETATM   18  H   UNK     1      -9.332   6.812  74.089  1.00  0.00     0.000 HD 
HETATM   19  O   UNK     1      -5.269  12.245  72.145  1.00  0.00    -0.371 OA 
HETATM   20  H   UNK     1      -7.697   9.544  67.144  1.00  0.00     0.000 HD 
HETATM   21  H   UNK     1      -4.741  13.017  72.312  1.00  0.00     0.000 HD 
HETATM   22  C   UNK     1      -5.434  12.270  68.529  1.00  0.00    -0.054 A  
HETATM   23  C   UNK     1     -10.076   4.084  72.007  1.00  0.00    -0.157 C  
HETATM   24  C   UNK     1     -10.467   5.215  70.956  1.00  0.00    -0.171 C  
HETATM   25  C   UNK     1      -9.216  10.093  69.079  1.00  0.00    -0.188 C  
HETATM   26  O   UNK     1      -7.667   8.805  67.741  1.00  0.00    -0.099 OA 
HETATM   27  O   UNK     1     -10.782   4.151  73.213  1.00  0.00    -0.178 OA 
HETATM   28  C   UNK     1      -6.256  11.173  68.273  1.00  0.00    -0.049 A  
HETATM   29  C   UNK     1      -7.861   9.356  69.052  1.00  0.00    -0.079 C  
HETATM   30  C   UNK     1      -6.771  10.377  69.321  1.00  0.00    -0.067 A  
HETATM   31  H   UNK     1     -11.698   4.401  73.200  1.00  0.00     0.000 HD 
ENDROOT
BRANCH  15  32
HETATM   32  C   UNK     1      -8.469   3.012  70.725  1.00  0.00    -0.061 C  
HETATM   33  H   UNK     1      -9.572   4.259  69.455  1.00  0.00     0.000 HD 
HETATM   34  O   UNK     1      -7.715   2.032  70.730  1.00  0.00    -0.039 OA 
HETATM   35  N   UNK     1      -8.994   3.422  69.526  1.00  0.00    -0.100 N  
BRANCH  35  36
HETATM   36  C   UNK     1      -8.688   2.614  68.367  1.00  0.00    -0.093 C  
BRANCH  36  37
HETATM   37  N   UNK     1      -7.790   3.377  67.524  1.00  0.00    -0.077 NA 
HETATM   38  H   UNK     1      -7.352   2.799  66.807  1.00  0.00     0.000 HD 
BRANCH  37  39
HETATM   39  C   UNK     1      -8.507   4.530  66.946  1.00  0.00    -0.105 C  
BRANCH  39  40
HETATM   40  C   UNK     1      -7.822   5.077  65.681  1.00  0.00    -0.091 C  
BRANCH  40  41
HETATM   41  C   UNK     1      -8.776   5.815  64.735  1.00  0.00     0.030 C  
BRANCH  41  42
HETATM   42  C   UNK     1      -9.216   7.172  65.312  1.00  0.00     0.539 C  
BRANCH  42  43
HETATM   43  C   UNK     1      -9.379   7.194  66.840  1.00  0.00    -0.155 C  
HETATM   44  C   UNK     1     -10.862   7.260  67.234  1.00  0.00    -0.284 C  
HETATM   45  N   UNK     1      -8.766   5.995  67.481  1.00  0.00    -0.109 NA 
HETATM   46  O   UNK     1     -11.558   8.260  67.190  1.00  0.00     1.353 OA 
HETATM   47  O   UNK     1     -11.319   6.040  67.624  1.00  0.00    -0.104 OA 
HETATM   48  H2  UNK     1      -7.787   5.890  67.214  1.00  0.00     0.000 HD 
HETATM   49  H1  UNK     1      -8.874   6.009  68.496  1.00  0.00     0.000 HD 
ENDBRANCH  42  43
ENDBRANCH  41  42
ENDBRANCH  40  41
ENDBRANCH  39  40
ENDBRANCH  37  39
ENDBRANCH  36  37
ENDBRANCH  35  36
ENDBRANCH  15  32
BRANCH  24  50
HETATM   50  N   UNK     1     -11.819   5.731  71.277  1.00  0.00     0.217 NA 
HETATM   51  C   UNK     1     -12.206   5.802  72.669  1.00  0.00     0.096 C  
HETATM   52  C   UNK     1     -12.047   7.026  70.623  1.00  0.00    -0.284 C  
ENDBRANCH  24  50
TORSDOF 9
ENDMDL
MODEL      146
REMARK 921   NORMALIZED FREE ENERGY PREDICTED BY IDOCK:    8.37 KCAL/MOL
REMARK 922        TOTAL FREE ENERGY PREDICTED BY IDOCK:   11.39 KCAL/MOL
REMARK 923 INTER-LIGAND FREE ENERGY PREDICTED BY IDOCK:    8.24 KCAL/MOL
REMARK 924 INTRA-LIGAND FREE ENERGY PREDICTED BY IDOCK:    3.15 KCAL/MOL
REMARK 927      BINDING AFFINITY PREDICTED BY RF-SCORE:    0.00 PKD
ROOT
HETATM    1  C   UNK     1      -8.469   9.130  69.850  1.00  0.00    -0.151 C  
HETATM    2  C   UNK     1      -9.842   9.683  70.190  1.00  0.00    -0.310 C  
HETATM    3  C   UNK     1     -10.136  11.053  69.510  1.00  0.00     0.019 C  
HETATM    4  C   UNK     1      -9.009  12.029  69.759  1.00  0.00     2.151 C  
HETATM    5  C   UNK     1      -9.349  13.475  70.000  1.00  0.00     2.709 C  
HETATM    6  C   UNK     1      -7.732  11.612  69.827  1.00  0.00     0.887 C  
HETATM    7  O   UNK     1      -6.687  12.482  70.170  1.00  0.00    -0.346 OA 
HETATM    8  C   UNK     1      -7.302  10.145  69.874  1.00  0.00    -0.165 C  
HETATM    9  C   UNK     1     -10.740  13.944  69.783  1.00  0.00     0.220 A  
HETATM   10  O   UNK     1      -8.492  14.279  70.370  1.00  0.00     1.493 OA 
HETATM   11  C   UNK     1     -11.037  15.318  69.786  1.00  0.00    -0.282 A  
HETATM   12  O   UNK     1      -6.642  10.094  71.145  1.00  0.00    -0.333 OA 
HETATM   13  C   UNK     1      -6.379   9.548  68.692  1.00  0.00    -0.048 C  
HETATM   14  H   UNK     1      -5.785  12.187  70.218  1.00  0.00     0.000 HD 
HETATM   15  C   UNK     1      -6.347   8.018  68.584  1.00  0.00    -0.052 C  
HETATM   16  O   UNK     1      -5.674  10.217  67.942  1.00  0.00    -0.041 OA 
HETATM   17  C   UNK     1     -12.328  15.779  69.524  1.00  0.00    -0.084 A  
HETATM   18  H   UNK     1      -5.925  10.716  71.159  1.00  0.00     0.000 HD 
HETATM   19  O   UNK     1     -10.114  16.290  70.068  1.00  0.00    -0.120 OA 
HETATM   20  H   UNK     1     -13.342  11.067  69.359  1.00  0.00     0.000 HD 
HETATM   21  H   UNK     1     -10.315  17.219  70.071  1.00  0.00     0.000 HD 
HETATM   22  C   UNK     1     -13.343  14.870  69.256  1.00  0.00     1.867 A  
HETATM   23  C   UNK     1      -6.535   7.523  69.832  1.00  0.00    -0.034 C  
HETATM   24  C   UNK     1      -7.988   7.735  70.447  1.00  0.00    -0.095 C  
HETATM   25  C   UNK     1     -11.880  11.318  71.397  1.00  0.00     0.442 C  
HETATM   26  O   UNK     1     -12.473  10.766  69.118  1.00  0.00    -0.377 OA 
HETATM   27  O   UNK     1      -5.496   7.616  70.765  1.00  0.00    -0.026 OA 
HETATM   28  C   UNK     1     -13.074  13.503  69.304  1.00  0.00     1.676 A  
HETATM   29  C   UNK     1     -11.560  11.546  69.905  1.00  0.00    -0.308 C  
HETATM   30  C   UNK     1     -11.781  13.015  69.601  1.00  0.00    -0.364 A  
HETATM   31  H   UNK     1      -5.628   7.270  71.640  1.00  0.00     0.000 HD 
ENDROOT
BRANCH  15  32
HETATM   32  C   UNK     1      -7.176   7.183  67.629  1.00  0.00    -0.091 C  
HETATM   33  H   UNK     1      -6.013   7.479  65.913  1.00  0.00     0.000 HD 
HETATM   34  O   UNK     1      -8.171   6.583  68.053  1.00  0.00    -0.115 OA 
HETATM   35  N   UNK     1      -6.855   7.054  66.302  1.00  0.00    -0.059 N  
BRANCH  35  36
HETATM   36  C   UNK     1      -7.765   6.288  65.480  1.00  0.00    -0.095 C  
BRANCH  36  37
HETATM   37  N   UNK     1      -7.747   4.922  65.962  1.00  0.00    -0.090 NA 
HETATM   38  H   UNK     1      -8.619   4.433  65.760  1.00  0.00     0.000 HD 
BRANCH  37  39
HETATM   39  C   UNK     1      -6.575   4.214  65.414  1.00  0.00    -0.044 C  
BRANCH  39  40
HETATM   40  C   UNK     1      -6.503   4.290  63.878  1.00  0.00    -0.038 C  
BRANCH  40  41
HETATM   41  C   UNK     1      -6.955   3.004  63.177  1.00  0.00    -0.039 C  
BRANCH  41  42
HETATM   42  C   UNK     1      -8.055   2.278  63.970  1.00  0.00    -0.081 C  
BRANCH  42  43
HETATM   43  C   UNK     1      -9.115   3.203  64.587  1.00  0.00    -0.137 C  
HETATM   44  C   UNK     1     -10.484   2.991  63.924  1.00  0.00    -0.161 C  
HETATM   45  N   UNK     1      -9.256   2.985  66.056  1.00  0.00    -0.249 NA 
HETATM   46  O   UNK     1     -10.810   3.420  62.830  1.00  0.00    -0.187 OA 
HETATM   47  O   UNK     1     -11.296   2.234  64.709  1.00  0.00     1.656 OA 
HETATM   48  H2  UNK     1      -8.359   3.078  66.533  1.00  0.00     0.000 HD 
HETATM   49  H1  UNK     1      -9.959   3.600  66.466  1.00  0.00     0.000 HD 
ENDBRANCH  42  43
ENDBRANCH  41  42
ENDBRANCH  40  41
ENDBRANCH  39  40
ENDBRANCH  37  39
ENDBRANCH  36  37
ENDBRANCH  35  36
ENDBRANCH  15  32
BRANCH  24  50
HETATM   50  N   UNK     1      -7.947   7.457  71.902  1.00  0.00    -0.090 NA 
HETATM   51  C   UNK     1      -9.093   7.837  72.699  1.00  0.00    -0.173 C  
HETATM   52  C   UNK     1      -7.602   6.052  72.152  1.00  0.00    -0.097 C  
ENDBRANCH  24  50
TORSDOF 9
ENDMDL
MODEL      147
REMARK 921   NORMALIZED FREE ENERGY PREDICTED BY IDOCK:   10.52 KCAL/MOL
REMARK 922        TOTAL FREE ENERGY PREDICTED BY IDOCK:   14.66 KCAL/MOL
REMARK 923 INTER-LIGAND FREE ENERGY PREDICTED BY IDOCK:   14.46 KCAL/MOL
REMARK 924 INTRA-LIGAND FREE ENERGY PREDICTED BY IDOCK:    0.20 KCAL/MOL
REMARK 927      BINDING AFFINITY PREDICTED BY RF-SCORE:    0.00 PKD
ROOT
HETATM    1  C   UNK     1     -10.499   7.767  70.005  1.00  0.00    -0.230 C  
HETATM    2  C   UNK     1      -9.183   8.391  69.575  1.00  0.00    -0.154 C  
HETATM    3  C   UNK     1      -8.907   9.766  70.252  1.00  0.00    -0.188 C  
HETATM    4  C   UNK     1     -10.095  10.688  70.101  1.00  0.00     0.321 C  
HETATM    5  C   UNK     1      -9.843  12.152  69.857  1.00  0.00     2.118 C  
HETATM    6  C   UNK     1     -11.351  10.210  70.119  1.00  0.00    -0.303 C  
HETATM    7  O   UNK     1     -12.459  11.031  69.866  1.00  0.00    -0.299 OA 
HETATM    8  C   UNK     1     -11.713   8.724  70.082  1.00  0.00     0.165 C  
HETATM    9  C   UNK     1      -8.464  12.687  69.980  1.00  0.00     3.343 A  
HETATM   10  O   UNK     1     -10.763  12.917  69.562  1.00  0.00     0.091 OA 
HETATM   11  C   UNK     1      -8.235  14.073  69.975  1.00  0.00     1.521 A  
HETATM   12  O   UNK     1     -12.460   8.654  68.861  1.00  0.00     2.545 OA 
HETATM   13  C   UNK     1     -12.517   8.068  71.318  1.00  0.00    -0.253 C  
HETATM   14  H   UNK     1     -13.347  10.693  69.879  1.00  0.00     0.000 HD 
HETATM   15  C   UNK     1     -12.467   6.538  71.405  1.00  0.00    -0.194 C  
HETATM   16  O   UNK     1     -13.196   8.694  72.127  1.00  0.00    -0.349 OA 
HETATM   17  C   UNK     1      -6.952  14.594  70.150  1.00  0.00     0.015 A  
HETATM   18  H   UNK     1     -13.205   9.241  68.908  1.00  0.00     0.000 HD 
HETATM   19  O   UNK     1      -9.222  15.002  69.776  1.00  0.00    -0.447 OA 
HETATM   20  H   UNK     1      -5.703   9.936  70.170  1.00  0.00     0.000 HD 
HETATM   21  H   UNK     1      -9.067  15.939  69.772  1.00  0.00     0.000 HD 
HETATM   22  C   UNK     1      -5.878  13.733  70.330  1.00  0.00    -0.162 A  
HETATM   23  C   UNK     1     -12.347   6.067  70.140  1.00  0.00     1.711 C  
HETATM   24  C   UNK     1     -10.955   6.357  69.424  1.00  0.00    -0.359 C  
HETATM   25  C   UNK     1      -7.320  10.138  68.247  1.00  0.00    -0.081 C  
HETATM   26  O   UNK     1      -6.536   9.590  70.469  1.00  0.00    -0.070 OA 
HETATM   27  O   UNK     1     -13.454   6.120  69.286  1.00  0.00     5.710 OA 
HETATM   28  C   UNK     1      -6.083  12.355  70.281  1.00  0.00    -0.071 A  
HETATM   29  C   UNK     1      -7.541  10.333  69.762  1.00  0.00    -0.162 C  
HETATM   30  C   UNK     1      -7.370  11.808  70.071  1.00  0.00     1.055 A  
HETATM   31  H   UNK     1     -13.371   5.790  68.399  1.00  0.00     0.000 HD 
ENDROOT
BRANCH  15  32
HETATM   32  C   UNK     1     -11.531   5.734  72.285  1.00  0.00    -0.262 C  
HETATM   33  H   UNK     1     -10.241   5.057  70.780  1.00  0.00     0.000 HD 
HETATM   34  O   UNK     1     -11.710   5.718  73.507  1.00  0.00     0.305 OA 
HETATM   35  N   UNK     1     -10.471   5.029  71.773  1.00  0.00    -0.202 N  
BRANCH  35  36
HETATM   36  C   UNK     1      -9.694   4.246  72.708  1.00  0.00    -0.135 C  
BRANCH  36  37
HETATM   37  N   UNK     1      -8.351   4.136  72.178  1.00  0.00    -0.100 NA 
HETATM   38  H   UNK     1      -7.652   4.055  72.917  1.00  0.00     0.000 HD 
BRANCH  37  39
HETATM   39  C   UNK     1      -8.281   3.013  71.224  1.00  0.00    -0.062 C  
BRANCH  39  40
HETATM   40  C   UNK     1      -8.557   3.450  69.774  1.00  0.00    -0.110 C  
BRANCH  40  41
HETATM   41  C   UNK     1      -7.943   2.519  68.723  1.00  0.00    -0.062 C  
BRANCH  41  42
HETATM   42  C   UNK     1      -6.868   3.233  67.885  1.00  0.00    -0.049 C  
BRANCH  42  43
HETATM   43  C   UNK     1      -7.140   4.725  67.635  1.00  0.00    -0.062 C  
HETATM   44  C   UNK     1      -5.841   5.541  67.708  1.00  0.00    -0.017 C  
HETATM   45  N   UNK     1      -7.778   4.958  66.307  1.00  0.00    -0.091 NA 
HETATM   46  O   UNK     1      -5.269   5.864  68.736  1.00  0.00    -0.003 OA 
HETATM   47  O   UNK     1      -5.385   5.847  66.464  1.00  0.00    -0.008 OA 
HETATM   48  H2  UNK     1      -8.627   4.403  66.200  1.00  0.00     0.000 HD 
HETATM   49  H1  UNK     1      -7.959   5.948  66.141  1.00  0.00     0.000 HD 
ENDBRANCH  42  43
ENDBRANCH  41  42
ENDBRANCH  40  41
ENDBRANCH  39  40
ENDBRANCH  37  39
ENDBRANCH  36  37
ENDBRANCH  35  36
ENDBRANCH  15  32
BRANCH  24  50
HETATM   50  N   UNK     1     -11.089   6.094  67.972  1.00  0.00    -0.308 NA 
HETATM   51  C   UNK     1     -10.403   6.979  67.055  1.00  0.00    -0.290 C  
HETATM   52  C   UNK     1     -10.760   4.697  67.666  1.00  0.00     0.642 C  
ENDBRANCH  24  50
TORSDOF 9
ENDMDL
MODEL      148
REMARK 921   NORMALIZED FREE ENERGY PREDICTED BY IDOCK:   10.73 KCAL/MOL
REMARK 922        TOTAL FREE ENERGY PREDICTED BY IDOCK:   14.98 KCAL/MOL
REMARK 923 INTER-LIGAND FREE ENERGY PREDICTED BY IDOCK:   12.87 KCAL/MOL
REMARK 924 INTRA-LIGAND FREE ENERGY PREDICTED BY IDOCK:    2.11 KCAL/MOL
REMARK 927      BINDING AFFINITY PREDICTED BY RF-SCORE:    0.00 PKD
ROOT
HETATM    1  C   UNK     1      -8.272   8.965  64.461  1.00  0.00    -0.166 C  
HETATM    2  C   UNK     1      -9.376   8.041  63.978  1.00  0.00     1.930 C  
HETATM    3  C   UNK     1      -9.115   6.544  64.319  1.00  0.00     1.111 C  
HETATM    4  C   UNK     1      -7.733   6.125  63.874  1.00  0.00    -0.106 C  
HETATM    5  C   UNK     1      -7.550   4.745  63.300  1.00  0.00    -0.060 C  
HETATM    6  C   UNK     1      -6.697   6.980  63.927  1.00  0.00    -0.043 C  
HETATM    7  O   UNK     1      -5.435   6.648  63.413  1.00  0.00    -0.025 OA 
HETATM    8  C   UNK     1      -6.823   8.475  64.227  1.00  0.00    -0.074 C  
HETATM    9  C   UNK     1      -8.663   3.767  63.378  1.00  0.00    -0.098 A  
HETATM   10  O   UNK     1      -6.488   4.410  62.771  1.00  0.00    -0.025 OA 
HETATM   11  C   UNK     1      -8.450   2.417  63.053  1.00  0.00    -0.077 A  
HETATM   12  O   UNK     1      -6.312   9.041  63.014  1.00  0.00    -0.090 OA 
HETATM   13  C   UNK     1      -6.098   9.090  65.530  1.00  0.00    -0.055 C  
HETATM   14  H   UNK     1      -4.703   7.252  63.450  1.00  0.00     0.000 HD 
HETATM   15  C   UNK     1      -6.608  10.462  65.988  1.00  0.00    -0.120 C  
HETATM   16  O   UNK     1      -5.152   8.573  66.120  1.00  0.00    -0.027 OA 
HETATM   17  C   UNK     1      -9.470   1.473  63.178  1.00  0.00    -0.092 A  
HETATM   18  H   UNK     1      -5.422   8.741  62.870  1.00  0.00     0.000 HD 
HETATM   19  O   UNK     1      -7.261   1.934  62.573  1.00  0.00    -0.033 OA 
HETATM   20  H   UNK     1     -12.087   5.334  64.403  1.00  0.00     0.000 HD 
HETATM   21  H   UNK     1      -7.117   1.021  62.353  1.00  0.00     0.000 HD 
HETATM   22  C   UNK     1     -10.722   1.868  63.630  1.00  0.00    -0.056 A  
HETATM   23  C   UNK     1      -7.042  11.117  64.884  1.00  0.00     0.830 C  
HETATM   24  C   UNK     1      -8.362  10.534  64.210  1.00  0.00    -0.092 C  
HETATM   25  C   UNK     1     -10.771   6.088  62.389  1.00  0.00     3.949 C  
HETATM   26  O   UNK     1     -11.369   5.869  64.723  1.00  0.00     3.553 OA 
HETATM   27  O   UNK     1      -6.104  11.616  63.974  1.00  0.00     0.990 OA 
HETATM   28  C   UNK     1     -10.963   3.215  63.902  1.00  0.00     0.047 A  
HETATM   29  C   UNK     1     -10.292   5.668  63.795  1.00  0.00     3.153 C  
HETATM   30  C   UNK     1      -9.953   4.191  63.749  1.00  0.00    -0.094 A  
HETATM   31  H   UNK     1      -6.408  12.075  63.200  1.00  0.00     0.000 HD 
ENDROOT
BRANCH  15  32
HETATM   32  C   UNK     1      -7.614  10.706  67.093  1.00  0.00    -0.099 C  
HETATM   33  H   UNK     1      -9.298  10.999  65.883  1.00  0.00     0.000 HD 
HETATM   34  O   UNK     1      -7.251  10.636  68.273  1.00  0.00    -0.080 OA 
HETATM   35  N   UNK     1      -8.932  10.989  66.835  1.00  0.00    -0.155 N  
BRANCH  35  36
HETATM   36  C   UNK     1      -9.776  11.271  67.973  1.00  0.00    -0.179 C  
BRANCH  36  37
HETATM   37  N   UNK     1      -9.361  12.545  68.522  1.00  0.00    -0.375 NA 
HETATM   38  H   UNK     1      -8.683  13.018  67.924  1.00  0.00     0.000 HD 
BRANCH  37  39
HETATM   39  C   UNK     1     -10.546  13.383  68.788  1.00  0.00    -0.210 C  
BRANCH  39  40
HETATM   40  C   UNK     1     -11.054  14.106  67.528  1.00  0.00    -0.304 C  
BRANCH  40  41
HETATM   41  C   UNK     1     -10.657  15.586  67.466  1.00  0.00    -0.297 C  
BRANCH  41  42
HETATM   42  C   UNK     1      -9.308  15.786  66.754  1.00  0.00    -0.264 C  
BRANCH  42  43
HETATM   43  C   UNK     1      -8.774  17.226  66.789  1.00  0.00    -0.251 C  
HETATM   44  C   UNK     1      -7.249  17.252  66.610  1.00  0.00    -0.243 C  
HETATM   45  N   UNK     1      -9.394  18.075  65.731  1.00  0.00    -0.401 NA 
HETATM   46  O   UNK     1      -6.434  16.976  67.475  1.00  0.00    -0.128 OA 
HETATM   47  O   UNK     1      -6.911  17.605  65.342  1.00  0.00    -0.253 OA 
HETATM   48  H2  UNK     1     -10.412  18.055  65.789  1.00  0.00     0.000 HD 
HETATM   49  H1  UNK     1      -9.040  19.031  65.755  1.00  0.00     0.000 HD 
ENDBRANCH  42  43
ENDBRANCH  41  42
ENDBRANCH  40  41
ENDBRANCH  39  40
ENDBRANCH  37  39
ENDBRANCH  36  37
ENDBRANCH  35  36
ENDBRANCH  15  32
BRANCH  24  50
HETATM   50  N   UNK     1      -8.519  11.122  62.859  1.00  0.00    -0.067 NA 
HETATM   51  C   UNK     1      -9.680  11.948  62.609  1.00  0.00     0.558 C  
HETATM   52  C   UNK     1      -7.299  11.832  62.457  1.00  0.00     1.387 C  
ENDBRANCH  24  50
TORSDOF 9
ENDMDL
MODEL      149
REMARK 921   NORMALIZED FREE ENERGY PREDICTED BY IDOCK:   11.21 KCAL/MOL
REMARK 922        TOTAL FREE ENERGY PREDICTED BY IDOCK:   15.72 KCAL/MOL
REMARK 923 INTER-LIGAND FREE ENERGY PREDICTED BY IDOCK:   12.49 KCAL/MOL
REMARK 924 INTRA-LIGAND FREE ENERGY PREDICTED BY IDOCK:    3.23 KCAL/MOL
REMARK 927      BINDING AFFINITY PREDICTED BY RF-SCORE:    0.00 PKD
ROOT
HETATM    1  C   UNK     1      -9.215  10.846  68.441  1.00  0.00    -0.168 C  
HETATM    2  C   UNK     1      -9.561  11.514  69.759  1.00  0.00     1.256 C  
HETATM    3  C   UNK     1     -10.993  12.126  69.778  1.00  0.00     0.176 C  
HETATM    4  C   UNK     1     -11.216  13.009  68.572  1.00  0.00    -0.309 C  
HETATM    5  C   UNK     1     -12.012  14.275  68.744  1.00  0.00    -0.311 C  
HETATM    6  C   UNK     1     -10.667  12.710  67.382  1.00  0.00    -0.229 C  
HETATM    7  O   UNK     1     -10.767  13.574  66.282  1.00  0.00    -0.284 OA 
HETATM    8  C   UNK     1      -9.624  11.612  67.160  1.00  0.00    -0.175 C  
HETATM    9  C   UNK     1     -12.728  14.520  70.020  1.00  0.00    -0.187 A  
HETATM   10  O   UNK     1     -12.085  15.110  67.841  1.00  0.00    -0.174 OA 
HETATM   11  C   UNK     1     -13.649  15.576  70.130  1.00  0.00     0.777 A  
HETATM   12  O   UNK     1      -8.514  12.382  66.682  1.00  0.00    -0.351 OA 
HETATM   13  C   UNK     1      -9.966  10.375  66.183  1.00  0.00    -0.231 C  
HETATM   14  H   UNK     1     -10.378  13.363  65.441  1.00  0.00     0.000 HD 
HETATM   15  C   UNK     1      -9.074   9.138  66.342  1.00  0.00    -0.211 C  
HETATM   16  O   UNK     1     -10.824  10.387  65.304  1.00  0.00     0.016 OA 
HETATM   17  C   UNK     1     -14.375  15.784  71.303  1.00  0.00     0.280 A  
HETATM   18  H   UNK     1      -8.766  12.852  65.896  1.00  0.00     0.000 HD 
HETATM   19  O   UNK     1     -13.882  16.482  69.128  1.00  0.00     2.809 OA 
HETATM   20  H   UNK     1     -11.705  12.102  72.908  1.00  0.00     0.000 HD 
HETATM   21  H   UNK     1     -14.504  17.196  69.202  1.00  0.00     0.000 HD 
HETATM   22  C   UNK     1     -14.189  14.937  72.387  1.00  0.00    -0.494 A  
HETATM   23  C   UNK     1      -7.857   9.570  66.752  1.00  0.00    -0.101 C  
HETATM   24  C   UNK     1      -7.795  10.158  68.231  1.00  0.00    -0.093 C  
HETATM   25  C   UNK     1     -10.062  13.582  71.698  1.00  0.00     8.378 C  
HETATM   26  O   UNK     1     -11.536  11.700  72.063  1.00  0.00     2.343 OA 
HETATM   27  O   UNK     1      -7.022  10.224  65.838  1.00  0.00    -0.112 OA 
HETATM   28  C   UNK     1     -13.238  13.920  72.312  1.00  0.00    -0.568 A  
HETATM   29  C   UNK     1     -11.270  12.785  71.162  1.00  0.00     2.867 C  
HETATM   30  C   UNK     1     -12.468  13.714  71.144  1.00  0.00    -0.442 A  
HETATM   31  H   UNK     1      -6.169  10.527  66.126  1.00  0.00     0.000 HD 
ENDROOT
BRANCH  15  32
HETATM   32  C   UNK     1      -9.417   7.900  67.146  1.00  0.00    -0.159 C  
HETATM   33  H   UNK     1     -10.454   8.851  68.698  1.00  0.00     0.000 HD 
HETATM   34  O   UNK     1      -9.084   6.788  66.722  1.00  0.00    -0.130 OA 
HETATM   35  N   UNK     1     -10.103   7.965  68.332  1.00  0.00    -0.189 N  
BRANCH  35  36
HETATM   36  C   UNK     1     -10.308   6.721  69.039  1.00  0.00    -0.195 C  
BRANCH  36  37
HETATM   37  N   UNK     1     -10.671   5.716  68.062  1.00  0.00    -0.195 NA 
HETATM   38  H   UNK     1     -10.891   6.125  67.154  1.00  0.00     0.000 HD 
BRANCH  37  39
HETATM   39  C   UNK     1      -9.605   4.701  67.969  1.00  0.00    -0.155 C  
BRANCH  39  40
HETATM   40  C   UNK     1      -9.306   4.031  69.322  1.00  0.00    -0.238 C  
BRANCH  40  41
HETATM   41  C   UNK     1      -8.220   4.744  70.135  1.00  0.00    -0.068 C  
BRANCH  41  42
HETATM   42  C   UNK     1      -8.802   5.444  71.375  1.00  0.00    -0.144 C  
BRANCH  42  43
HETATM   43  C   UNK     1      -7.964   5.280  72.653  1.00  0.00    -0.102 C  
HETATM   44  C   UNK     1      -7.819   3.797  73.028  1.00  0.00    -0.078 C  
HETATM   45  N   UNK     1      -6.603   5.871  72.505  1.00  0.00    -0.065 NA 
HETATM   46  O   UNK     1      -8.682   3.118  73.560  1.00  0.00    -0.077 OA 
HETATM   47  O   UNK     1      -6.598   3.319  72.670  1.00  0.00    -0.020 OA 
HETATM   48  H2  UNK     1      -6.652   6.848  72.217  1.00  0.00     0.000 HD 
HETATM   49  H1  UNK     1      -6.047   5.762  73.354  1.00  0.00     0.000 HD 
ENDBRANCH  42  43
ENDBRANCH  41  42
ENDBRANCH  40  41
ENDBRANCH  39  40
ENDBRANCH  37  39
ENDBRANCH  36  37
ENDBRANCH  35  36
ENDBRANCH  15  32
BRANCH  24  50
HETATM   50  N   UNK     1      -6.517  10.885  68.413  1.00  0.00    -0.057 NA 
HETATM   51  C   UNK     1      -6.525  12.323  68.253  1.00  0.00    -0.056 C  
HETATM   52  C   UNK     1      -5.893  10.523  69.691  1.00  0.00    -0.047 C  
ENDBRANCH  24  50
TORSDOF 9
ENDMDL
MODEL      150
REMARK 921   NORMALIZED FREE ENERGY PREDICTED BY IDOCK:   11.26 KCAL/MOL
REMARK 922        TOTAL FREE ENERGY PREDICTED BY IDOCK:   15.79 KCAL/MOL
REMARK 923 INTER-LIGAND FREE ENERGY PREDICTED BY IDOCK:   15.50 KCAL/MOL
REMARK 924 INTRA-LIGAND FREE ENERGY PREDICTED BY IDOCK:    0.29 KCAL/MOL
REMARK 927      BINDING AFFINITY PREDICTED BY RF-SCORE:    0.00 PKD
ROOT
HETATM    1  C   UNK     1      -9.605  12.182  67.187  1.00  0.00    -0.195 C  
HETATM    2  C   UNK     1      -9.786  12.154  68.694  1.00  0.00    -0.090 C  
HETATM    3  C   UNK     1     -11.206  12.600  69.149  1.00  0.00    -0.300 C  
HETATM    4  C   UNK     1     -11.584  13.920  68.516  1.00  0.00    -0.367 C  
HETATM    5  C   UNK     1     -12.357  14.917  69.337  1.00  0.00    -0.133 C  
HETATM    6  C   UNK     1     -11.188  14.230  67.269  1.00  0.00    -0.318 C  
HETATM    7  O   UNK     1     -11.429  15.492  66.708  1.00  0.00    -0.142 OA 
HETATM    8  C   UNK     1     -10.177  13.420  66.455  1.00  0.00    -0.282 C  
HETATM    9  C   UNK     1     -12.907  14.510  70.653  1.00  0.00    -0.399 A  
HETATM   10  O   UNK     1     -12.547  16.065  68.933  1.00  0.00     0.314 OA 
HETATM   11  C   UNK     1     -13.812  15.341  71.336  1.00  0.00    -0.515 A  
HETATM   12  O   UNK     1      -9.139  14.390  66.265  1.00  0.00    -0.455 OA 
HETATM   13  C   UNK     1     -10.633  12.745  65.063  1.00  0.00    -0.308 C  
HETATM   14  H   UNK     1     -11.149  15.711  65.827  1.00  0.00     0.000 HD 
HETATM   15  C   UNK     1      -9.723  11.628  64.537  1.00  0.00    -0.203 C  
HETATM   16  O   UNK     1     -11.596  13.102  64.389  1.00  0.00    -0.343 OA 
HETATM   17  C   UNK     1     -14.385  14.947  72.546  1.00  0.00    -0.239 A  
HETATM   18  H   UNK     1      -9.490  15.150  65.816  1.00  0.00     0.000 HD 
HETATM   19  O   UNK     1     -14.173  16.587  70.895  1.00  0.00     2.014 OA 
HETATM   20  H   UNK     1     -11.518  11.111  71.976  1.00  0.00     0.000 HD 
HETATM   21  H   UNK     1     -14.784  17.149  71.356  1.00  0.00     0.000 HD 
HETATM   22  C   UNK     1     -14.060  13.713  73.092  1.00  0.00     1.353 A  
HETATM   23  C   UNK     1      -8.466  11.901  64.963  1.00  0.00     1.082 C  
HETATM   24  C   UNK     1      -8.221  11.754  66.529  1.00  0.00    -0.066 C  
HETATM   25  C   UNK     1     -10.046  13.078  71.408  1.00  0.00     9.356 C  
HETATM   26  O   UNK     1     -11.455  11.149  71.028  1.00  0.00     0.092 OA 
HETATM   27  O   UNK     1      -7.756  12.949  64.366  1.00  0.00     5.452 OA 
HETATM   28  C   UNK     1     -13.121  12.902  72.454  1.00  0.00    -0.340 A  
HETATM   29  C   UNK     1     -11.309  12.539  70.703  1.00  0.00     1.158 C  
HETATM   30  C   UNK     1     -12.504  13.299  71.245  1.00  0.00    -0.351 A  
HETATM   31  H   UNK     1      -6.875  13.140  64.664  1.00  0.00     0.000 HD 
ENDROOT
BRANCH  15  32
HETATM   32  C   UNK     1      -9.956  10.142  64.716  1.00  0.00    -0.264 C  
HETATM   33  H   UNK     1     -10.527  10.186  66.730  1.00  0.00     0.000 HD 
HETATM   34  O   UNK     1      -9.814   9.384  63.749  1.00  0.00     0.692 OA 
HETATM   35  N   UNK     1     -10.338   9.600  65.916  1.00  0.00    -0.141 N  
BRANCH  35  36
HETATM   36  C   UNK     1     -10.460   8.161  65.976  1.00  0.00     1.141 C  
BRANCH  36  37
HETATM   37  N   UNK     1     -10.265   7.760  67.354  1.00  0.00    -0.225 NA 
HETATM   38  H   UNK     1     -10.556   6.796  67.518  1.00  0.00     0.000 HD 
BRANCH  37  39
HETATM   39  C   UNK     1      -8.862   7.991  67.747  1.00  0.00    -0.126 C  
BRANCH  39  40
HETATM   40  C   UNK     1      -8.738   8.803  69.049  1.00  0.00    -0.133 C  
BRANCH  40  41
HETATM   41  C   UNK     1      -9.819   8.473  70.085  1.00  0.00    -0.184 C  
BRANCH  41  42
HETATM   42  C   UNK     1      -9.253   8.460  71.516  1.00  0.00    -0.257 C  
BRANCH  42  43
HETATM   43  C   UNK     1      -7.840   7.870  71.638  1.00  0.00    -0.093 C  
HETATM   44  C   UNK     1      -6.776   8.977  71.589  1.00  0.00    -0.022 C  
HETATM   45  N   UNK     1      -7.668   7.096  72.902  1.00  0.00    -0.086 NA 
HETATM   46  O   UNK     1      -6.402   9.550  70.579  1.00  0.00    -0.061 OA 
HETATM   47  O   UNK     1      -6.309   9.262  72.834  1.00  0.00    -0.306 OA 
HETATM   48  H2  UNK     1      -8.381   6.373  72.994  1.00  0.00     0.000 HD 
HETATM   49  H1  UNK     1      -6.729   6.704  72.982  1.00  0.00     0.000 HD 
ENDBRANCH  42  43
ENDBRANCH  41  42
ENDBRANCH  40  41
ENDBRANCH  39  40
ENDBRANCH  37  39
ENDBRANCH  36  37
ENDBRANCH  35  36
ENDBRANCH  15  32
BRANCH  24  50
HETATM   50  N   UNK     1      -6.933  12.396  66.883  1.00  0.00     0.010 NA 
HETATM   51  C   UNK     1      -6.971  13.584  67.708  1.00  0.00    -0.159 C  
HETATM   52  C   UNK     1      -6.004  11.414  67.456  1.00  0.00    -0.064 C  
ENDBRANCH  24  50
TORSDOF 9
ENDMDL
MODEL      151
REMARK 921   NORMALIZED FREE ENERGY PREDICTED BY IDOCK:   11.49 KCAL/MOL
REMARK 922        TOTAL FREE ENERGY PREDICTED BY IDOCK:   16.15 KCAL/MOL
REMARK 923 INTER-LIGAND FREE ENERGY PREDICTED BY IDOCK:   14.13 KCAL/MOL
REMARK 924 INTRA-LIGAND FREE ENERGY PREDICTED BY IDOCK:    2.02 KCAL/MOL
REMARK 927      BINDING AFFINITY PREDICTED BY RF-SCORE:    0.00 PKD
ROOT
HETATM    1  C   UNK     1      -8.272   8.965  64.461  1.00  0.00    -0.166 C  
HETATM    2  C   UNK     1      -9.376   8.040  63.982  1.00  0.00     1.930 C  
HETATM    3  C   UNK     1      -9.117   6.545  64.330  1.00  0.00     1.111 C  
HETATM    4  C   UNK     1      -7.735   6.121  63.888  1.00  0.00    -0.106 C  
HETATM    5  C   UNK     1      -7.553   4.739  63.321  1.00  0.00    -0.060 C  
HETATM    6  C   UNK     1      -6.698   6.976  63.937  1.00  0.00    -0.043 C  
HETATM    7  O   UNK     1      -5.437   6.640  63.425  1.00  0.00    -0.025 OA 
HETATM    8  C   UNK     1      -6.823   8.472  64.230  1.00  0.00    -0.074 C  
HETATM    9  C   UNK     1      -8.667   3.763  63.402  1.00  0.00    -0.098 A  
HETATM   10  O   UNK     1      -6.492   4.401  62.794  1.00  0.00    -0.025 OA 
HETATM   11  C   UNK     1      -8.455   2.410  63.084  1.00  0.00    -0.085 A  
HETATM   12  O   UNK     1      -6.311   9.033  63.015  1.00  0.00    -0.090 OA 
HETATM   13  C   UNK     1      -6.099   9.093  65.531  1.00  0.00    -0.059 C  
HETATM   14  H   UNK     1      -4.704   7.244  63.460  1.00  0.00     0.000 HD 
HETATM   15  C   UNK     1      -6.607  10.468  65.982  1.00  0.00    -0.127 C  
HETATM   16  O   UNK     1      -5.153   8.578  66.123  1.00  0.00    -0.027 OA 
HETATM   17  C   UNK     1      -9.476   1.468  63.213  1.00  0.00    -0.094 A  
HETATM   18  H   UNK     1      -5.422   8.731  62.873  1.00  0.00     0.000 HD 
HETATM   19  O   UNK     1      -7.267   1.924  62.606  1.00  0.00    -0.033 OA 
HETATM   20  H   UNK     1     -12.090   5.338  64.418  1.00  0.00     0.000 HD 
HETATM   21  H   UNK     1      -7.123   1.010  62.391  1.00  0.00     0.000 HD 
HETATM   22  C   UNK     1     -10.729   1.867  63.662  1.00  0.00    -0.056 A  
HETATM   23  C   UNK     1      -7.040  11.118  64.875  1.00  0.00     0.830 C  
HETATM   24  C   UNK     1      -8.360  10.533  64.203  1.00  0.00    -0.095 C  
HETATM   25  C   UNK     1     -10.773   6.081  62.401  1.00  0.00     3.949 C  
HETATM   26  O   UNK     1     -11.372   5.873  64.735  1.00  0.00     3.553 OA 
HETATM   27  O   UNK     1      -6.101  11.612  63.963  1.00  0.00     0.990 OA 
HETATM   28  C   UNK     1     -10.969   3.215  63.927  1.00  0.00     0.047 A  
HETATM   29  C   UNK     1     -10.294   5.667  63.809  1.00  0.00     3.153 C  
HETATM   30  C   UNK     1      -9.957   4.189  63.770  1.00  0.00    -0.094 A  
HETATM   31  H   UNK     1      -6.405  12.067  63.187  1.00  0.00     0.000 HD 
ENDROOT
BRANCH  15  32
HETATM   32  C   UNK     1      -7.614  10.718  67.086  1.00  0.00    -0.105 C  
HETATM   33  H   UNK     1      -6.389  10.210  68.706  1.00  0.00     0.000 HD 
HETATM   34  O   UNK     1      -8.739  11.143  66.797  1.00  0.00    -0.147 OA 
HETATM   35  N   UNK     1      -7.319  10.503  68.408  1.00  0.00    -0.083 N  
BRANCH  35  36
HETATM   36  C   UNK     1      -8.388  10.711  69.359  1.00  0.00    -0.060 C  
BRANCH  36  37
HETATM   37  N   UNK     1      -9.365   9.661  69.158  1.00  0.00    -0.163 NA 
HETATM   38  H   UNK     1      -9.532   9.476  68.169  1.00  0.00     0.000 HD 
BRANCH  37  39
HETATM   39  C   UNK     1      -8.950   8.447  69.887  1.00  0.00    -0.142 C  
BRANCH  39  40
HETATM   40  C   UNK     1     -10.070   7.395  69.971  1.00  0.00    -0.191 C  
BRANCH  40  41
HETATM   41  C   UNK     1      -9.676   6.137  70.751  1.00  0.00    -0.205 C  
BRANCH  41  42
HETATM   42  C   UNK     1     -10.004   6.267  72.249  1.00  0.00    -0.182 C  
BRANCH  42  43
HETATM   43  C   UNK     1      -8.788   6.159  73.181  1.00  0.00    -0.130 C  
HETATM   44  C   UNK     1      -8.456   4.690  73.483  1.00  0.00    -0.102 C  
HETATM   45  N   UNK     1      -7.580   6.812  72.598  1.00  0.00    -0.091 NA 
HETATM   46  O   UNK     1      -9.062   3.977  74.266  1.00  0.00    -0.093 OA 
HETATM   47  O   UNK     1      -7.397   4.266  72.743  1.00  0.00    -0.069 OA 
HETATM   48  H2  UNK     1      -7.769   7.782  72.345  1.00  0.00     0.000 HD 
HETATM   49  H1  UNK     1      -6.773   6.741  73.217  1.00  0.00     0.000 HD 
ENDBRANCH  42  43
ENDBRANCH  41  42
ENDBRANCH  40  41
ENDBRANCH  39  40
ENDBRANCH  37  39
ENDBRANCH  36  37
ENDBRANCH  35  36
ENDBRANCH  15  32
BRANCH  24  50
HETATM   50  N   UNK     1      -8.516  11.114  62.849  1.00  0.00    -0.067 NA 
HETATM   51  C   UNK     1      -9.676  11.941  62.594  1.00  0.00     0.558 C  
HETATM   52  C   UNK     1      -7.294  11.822  62.445  1.00  0.00     1.196 C  
ENDBRANCH  24  50
TORSDOF 9
ENDMDL
MODEL      152
REMARK 921   NORMALIZED FREE ENERGY PREDICTED BY IDOCK:   12.19 KCAL/MOL
REMARK 922        TOTAL FREE ENERGY PREDICTED BY IDOCK:   17.22 KCAL/MOL
REMARK 923 INTER-LIGAND FREE ENERGY PREDICTED BY IDOCK:    5.94 KCAL/MOL
REMARK 924 INTRA-LIGAND FREE ENERGY PREDICTED BY IDOCK:   11.28 KCAL/MOL
REMARK 927      BINDING AFFINITY PREDICTED BY RF-SCORE:    0.00 PKD
ROOT
HETATM    1  C   UNK     1     -10.403  13.190  67.944  1.00  0.00    -0.232 C  
HETATM    2  C   UNK     1      -9.254  12.212  68.108  1.00  0.00    -0.197 C  
HETATM    3  C   UNK     1      -8.588  11.818  66.757  1.00  0.00    -0.185 C  
HETATM    4  C   UNK     1      -9.627  11.373  65.754  1.00  0.00    -0.260 C  
HETATM    5  C   UNK     1      -9.295  10.231  64.832  1.00  0.00    -0.252 C  
HETATM    6  C   UNK     1     -10.847  11.937  65.722  1.00  0.00    -0.295 C  
HETATM    7  O   UNK     1     -11.861  11.461  64.879  1.00  0.00     0.067 OA 
HETATM    8  C   UNK     1     -11.383  12.902  66.782  1.00  0.00    -0.322 C  
HETATM    9  C   UNK     1      -7.905   9.714  64.780  1.00  0.00    -0.128 A  
HETATM   10  O   UNK     1     -10.156   9.720  64.113  1.00  0.00     0.234 OA 
HETATM   11  C   UNK     1      -7.519   8.805  63.780  1.00  0.00    -0.111 A  
HETATM   12  O   UNK     1     -12.513  12.170  67.272  1.00  0.00    -0.088 OA 
HETATM   13  C   UNK     1     -11.779  14.408  66.360  1.00  0.00    -0.386 C  
HETATM   14  H   UNK     1     -12.724  11.860  64.856  1.00  0.00     0.000 HD 
HETATM   15  C   UNK     1     -11.894  15.412  67.514  1.00  0.00     0.046 C  
HETATM   16  O   UNK     1     -12.047  14.773  65.218  1.00  0.00    -0.301 OA 
HETATM   17  C   UNK     1      -6.202   8.356  63.680  1.00  0.00    -0.073 A  
HETATM   18  H   UNK     1     -13.114  11.993  66.559  1.00  0.00     0.000 HD 
HETATM   19  O   UNK     1      -8.388   8.279  62.861  1.00  0.00    -0.304 OA 
HETATM   20  H   UNK     1      -5.621  11.002  67.670  1.00  0.00     0.000 HD 
HETATM   21  H   UNK     1      -8.128   7.665  62.185  1.00  0.00     0.000 HD 
HETATM   22  C   UNK     1      -5.250   8.808  64.584  1.00  0.00    -0.039 A  
HETATM   23  C   UNK     1     -12.286  14.719  68.611  1.00  0.00    -0.077 C  
HETATM   24  C   UNK     1     -11.207  13.715  69.214  1.00  0.00    -0.233 C  
HETATM   25  C   UNK     1      -7.770   9.745  68.064  1.00  0.00    -0.083 C  
HETATM   26  O   UNK     1      -6.333  11.612  67.514  1.00  0.00    -0.067 OA 
HETATM   27  O   UNK     1     -13.606  14.263  68.694  1.00  0.00     2.717 OA 
HETATM   28  C   UNK     1      -5.631   9.666  65.616  1.00  0.00    -0.049 A  
HETATM   29  C   UNK     1      -7.420  10.819  67.012  1.00  0.00    -0.114 C  
HETATM   30  C   UNK     1      -6.967  10.106  65.753  1.00  0.00    -0.123 A  
HETATM   31  H   UNK     1     -13.880  13.777  69.462  1.00  0.00     0.000 HD 
ENDROOT
BRANCH  15  32
HETATM   32  C   UNK     1     -10.818  16.387  67.946  1.00  0.00    -0.328 C  
HETATM   33  H   UNK     1     -12.040  17.688  69.043  1.00  0.00     0.000 HD 
HETATM   34  O   UNK     1      -9.643  16.177  67.626  1.00  0.00    -0.221 OA 
HETATM   35  N   UNK     1     -11.098  17.498  68.701  1.00  0.00     0.076 N  
BRANCH  35  36
HETATM   36  C   UNK     1      -9.996  18.388  68.988  1.00  0.00    -0.274 C  
BRANCH  36  37
HETATM   37  N   UNK     1     -10.020  18.671  70.409  1.00  0.00     1.065 NA 
HETATM   38  H   UNK     1     -10.767  19.320  70.658  1.00  0.00     0.000 HD 
BRANCH  37  39
HETATM   39  C   UNK     1     -10.104  17.410  71.168  1.00  0.00     3.632 C  
BRANCH  39  40
HETATM   40  C   UNK     1     -10.849  16.305  70.398  1.00  0.00    -0.211 C  
BRANCH  40  41
HETATM   41  C   UNK     1     -10.765  14.927  71.065  1.00  0.00     0.208 C  
BRANCH  41  42
HETATM   42  C   UNK     1     -10.540  15.039  72.583  1.00  0.00     2.107 C  
BRANCH  42  43
HETATM   43  C   UNK     1     -11.829  15.104  73.416  1.00  0.00    -0.301 C  
HETATM   44  C   UNK     1     -12.221  16.560  73.711  1.00  0.00    -0.389 C  
HETATM   45  N   UNK     1     -12.969  14.430  72.729  1.00  0.00    -0.461 NA 
HETATM   46  O   UNK     1     -11.697  17.274  74.548  1.00  0.00    -0.129 OA 
HETATM   47  O   UNK     1     -13.228  16.969  72.894  1.00  0.00     1.377 OA 
HETATM   48  H2  UNK     1     -12.737  13.469  72.479  1.00  0.00     0.000 HD 
HETATM   49  H1  UNK     1     -13.825  14.473  73.283  1.00  0.00     0.000 HD 
ENDBRANCH  42  43
ENDBRANCH  41  42
ENDBRANCH  40  41
ENDBRANCH  39  40
ENDBRANCH  37  39
ENDBRANCH  36  37
ENDBRANCH  35  36
ENDBRANCH  15  32
BRANCH  24  50
HETATM   50  N   UNK     1     -11.874  12.803  70.173  1.00  0.00    -0.296 NA 
HETATM   51  C   UNK     1     -13.317  12.852  70.267  1.00  0.00     1.182 C  
HETATM   52  C   UNK     1     -11.429  11.419  69.967  1.00  0.00    -0.247 C  
ENDBRANCH  24  50
TORSDOF 9
ENDMDL
MODEL      153
REMARK 921   NORMALIZED FREE ENERGY PREDICTED BY IDOCK:   13.73 KCAL/MOL
REMARK 922        TOTAL FREE ENERGY PREDICTED BY IDOCK:   19.56 KCAL/MOL
REMARK 923 INTER-LIGAND FREE ENERGY PREDICTED BY IDOCK:   17.02 KCAL/MOL
REMARK 924 INTRA-LIGAND FREE ENERGY PREDICTED BY IDOCK:    2.54 KCAL/MOL
REMARK 927      BINDING AFFINITY PREDICTED BY RF-SCORE:    0.00 PKD
ROOT
HETATM    1  C   UNK     1      -9.674  11.040  69.214  1.00  0.00    -0.033 C  
HETATM    2  C   UNK     1     -10.613  11.848  68.338  1.00  0.00    -0.239 C  
HETATM    3  C   UNK     1      -9.914  13.049  67.634  1.00  0.00    -0.215 C  
HETATM    4  C   UNK     1      -9.145  13.883  68.633  1.00  0.00    -0.085 C  
HETATM    5  C   UNK     1      -9.138  15.379  68.467  1.00  0.00    -0.197 C  
HETATM    6  C   UNK     1      -8.530  13.315  69.685  1.00  0.00     1.688 C  
HETATM    7  O   UNK     1      -7.910  14.081  70.682  1.00  0.00     1.185 OA 
HETATM    8  C   UNK     1      -8.702  11.853  70.102  1.00  0.00     3.574 C  
HETATM    9  C   UNK     1      -9.697  15.980  67.230  1.00  0.00    -0.232 A  
HETATM   10  O   UNK     1      -8.671  16.115  69.337  1.00  0.00    -0.227 OA 
HETATM   11  C   UNK     1      -9.507  17.344  66.952  1.00  0.00    -0.269 A  
HETATM   12  O   UNK     1      -9.259  12.007  71.414  1.00  0.00     9.943 OA 
HETATM   13  C   UNK     1      -7.423  10.869  70.103  1.00  0.00     0.559 C  
HETATM   14  H   UNK     1      -7.476  13.680  71.426  1.00  0.00     0.000 HD 
HETATM   15  C   UNK     1      -7.740   9.369  70.115  1.00  0.00    -0.140 C  
HETATM   16  O   UNK     1      -6.252  11.236  70.158  1.00  0.00    -0.137 OA 
HETATM   17  C   UNK     1      -9.974  17.912  65.765  1.00  0.00     0.019 A  
HETATM   18  H   UNK     1      -8.662  12.506  71.959  1.00  0.00     0.000 HD 
HETATM   19  O   UNK     1      -8.888  18.212  67.812  1.00  0.00    -0.250 OA 
HETATM   20  H   UNK     1     -11.755  13.489  65.042  1.00  0.00     0.000 HD 
HETATM   21  H   UNK     1      -8.760  19.134  67.624  1.00  0.00     0.000 HD 
HETATM   22  C   UNK     1     -10.641  17.121  64.839  1.00  0.00     0.378 A  
HETATM   23  C   UNK     1      -8.917   9.212  70.768  1.00  0.00    -0.242 C  
HETATM   24  C   UNK     1     -10.204   9.769  70.013  1.00  0.00    -0.263 C  
HETATM   25  C   UNK     1     -12.310  13.997  67.447  1.00  0.00    -0.150 C  
HETATM   26  O   UNK     1     -11.127  13.018  65.579  1.00  0.00    -0.274 OA 
HETATM   27  O   UNK     1      -8.952   9.371  72.158  1.00  0.00    -0.011 OA 
HETATM   28  C   UNK     1     -10.886  15.779  65.129  1.00  0.00    -0.444 A  
HETATM   29  C   UNK     1     -10.942  13.820  66.755  1.00  0.00    -0.304 C  
HETATM   30  C   UNK     1     -10.451  15.194  66.339  1.00  0.00    -0.300 A  
HETATM   31  H   UNK     1      -9.778   9.262  72.615  1.00  0.00     0.000 HD 
ENDROOT
BRANCH  15  32
HETATM   32  C   UNK     1      -7.764   8.462  68.901  1.00  0.00    -0.105 C  
HETATM   33  H   UNK     1      -9.370   9.364  67.906  1.00  0.00     0.000 HD 
HETATM   34  O   UNK     1      -6.917   7.568  68.795  1.00  0.00    -0.073 OA 
HETATM   35  N   UNK     1      -8.687   8.606  67.898  1.00  0.00    -0.137 N  
BRANCH  35  36
HETATM   36  C   UNK     1      -8.649   7.635  66.828  1.00  0.00    -0.129 C  
BRANCH  36  37
HETATM   37  N   UNK     1      -9.914   7.703  66.127  1.00  0.00    -0.440 NA 
HETATM   38  H   UNK     1     -10.503   8.462  66.471  1.00  0.00     0.000 HD 
BRANCH  37  39
HETATM   39  C   UNK     1      -9.676   7.799  64.675  1.00  0.00     2.710 C  
BRANCH  39  40
HETATM   40  C   UNK     1      -8.265   7.333  64.274  1.00  0.00     0.025 C  
BRANCH  40  41
HETATM   41  C   UNK     1      -7.899   5.946  64.814  1.00  0.00    -0.113 C  
BRANCH  41  42
HETATM   42  C   UNK     1      -7.178   5.094  63.756  1.00  0.00    -0.050 C  
BRANCH  42  43
HETATM   43  C   UNK     1      -6.502   3.829  64.307  1.00  0.00    -0.037 C  
HETATM   44  C   UNK     1      -6.119   4.010  65.784  1.00  0.00    -0.027 C  
HETATM   45  N   UNK     1      -7.381   2.630  64.184  1.00  0.00    -0.060 NA 
HETATM   46  O   UNK     1      -5.161   4.645  66.190  1.00  0.00    -0.008 OA 
HETATM   47  O   UNK     1      -7.007   3.381  66.600  1.00  0.00    -0.052 OA 
HETATM   48  H2  UNK     1      -7.691   2.495  63.222  1.00  0.00     0.000 HD 
HETATM   49  H1  UNK     1      -6.931   1.790  64.550  1.00  0.00     0.000 HD 
ENDBRANCH  42  43
ENDBRANCH  41  42
ENDBRANCH  40  41
ENDBRANCH  39  40
ENDBRANCH  37  39
ENDBRANCH  36  37
ENDBRANCH  35  36
ENDBRANCH  15  32
BRANCH  24  50
HETATM   50  N   UNK     1     -11.337   9.837  70.966  1.00  0.00    -0.359 NA 
HETATM   51  C   UNK     1     -11.490  11.041  71.755  1.00  0.00     2.176 C  
HETATM   52  C   UNK     1     -12.600   9.511  70.294  1.00  0.00     0.362 C  
ENDBRANCH  24  50
TORSDOF 9
ENDMDL
MODEL      154
REMARK 921   NORMALIZED FREE ENERGY PREDICTED BY IDOCK:   13.80 KCAL/MOL
REMARK 922        TOTAL FREE ENERGY PREDICTED BY IDOCK:   19.67 KCAL/MOL
REMARK 923 INTER-LIGAND FREE ENERGY PREDICTED BY IDOCK:   12.44 KCAL/MOL
REMARK 924 INTRA-LIGAND FREE ENERGY PREDICTED BY IDOCK:    7.24 KCAL/MOL
REMARK 927      BINDING AFFINITY PREDICTED BY RF-SCORE:    0.00 PKD
ROOT
HETATM    1  C   UNK     1      -8.682  12.113  67.523  1.00  0.00    -0.173 C  
HETATM    2  C   UNK     1      -9.157  13.194  68.477  1.00  0.00    -0.053 C  
HETATM    3  C   UNK     1      -8.732  14.627  68.039  1.00  0.00    -0.167 C  
HETATM    4  C   UNK     1      -7.250  14.682  67.747  1.00  0.00    -0.191 C  
HETATM    5  C   UNK     1      -6.483  15.915  68.145  1.00  0.00    -0.127 C  
HETATM    6  C   UNK     1      -6.610  13.634  67.200  1.00  0.00     0.510 C  
HETATM    7  O   UNK     1      -5.219  13.623  67.028  1.00  0.00    -0.033 OA 
HETATM    8  C   UNK     1      -7.227  12.246  67.013  1.00  0.00    -0.037 C  
HETATM    9  C   UNK     1      -7.220  17.114  68.615  1.00  0.00    -0.229 A  
HETATM   10  O   UNK     1      -5.253  15.948  68.084  1.00  0.00    -0.100 OA 
HETATM   11  C   UNK     1      -6.554  18.340  68.782  1.00  0.00    -0.237 A  
HETATM   12  O   UNK     1      -6.356  11.448  67.825  1.00  0.00    -0.053 OA 
HETATM   13  C   UNK     1      -7.387  11.639  65.527  1.00  0.00     1.155 C  
HETATM   14  H   UNK     1      -4.767  12.881  66.642  1.00  0.00     0.000 HD 
HETATM   15  C   UNK     1      -8.372  10.472  65.389  1.00  0.00    -0.165 C  
HETATM   16  O   UNK     1      -6.743  12.000  64.545  1.00  0.00     3.248 OA 
HETATM   17  C   UNK     1      -7.243  19.492  69.165  1.00  0.00    -0.382 A  
HETATM   18  H   UNK     1      -5.463  11.529  67.512  1.00  0.00     0.000 HD 
HETATM   19  O   UNK     1      -5.203  18.495  68.615  1.00  0.00    -0.178 OA 
HETATM   20  H   UNK     1     -10.983  16.457  69.411  1.00  0.00     0.000 HD 
HETATM   21  H   UNK     1      -4.752  19.323  68.728  1.00  0.00     0.000 HD 
HETATM   22  C   UNK     1      -8.612  19.432  69.388  1.00  0.00     0.111 A  
HETATM   23  C   UNK     1      -8.374   9.806  66.569  1.00  0.00    -0.124 C  
HETATM   24  C   UNK     1      -9.023  10.583  67.799  1.00  0.00    -0.132 C  
HETATM   25  C   UNK     1      -9.098  15.212  70.529  1.00  0.00     1.228 C  
HETATM   26  O   UNK     1     -10.661  15.819  68.785  1.00  0.00    -0.222 OA 
HETATM   27  O   UNK     1      -7.270   9.016  66.908  1.00  0.00    -0.084 OA 
HETATM   28  C   UNK     1      -9.276  18.211  69.280  1.00  0.00     0.194 A  
HETATM   29  C   UNK     1      -9.260  15.674  69.065  1.00  0.00    -0.243 C  
HETATM   30  C   UNK     1      -8.589  17.027  68.927  1.00  0.00    -0.196 A  
HETATM   31  H   UNK     1      -7.271   8.549  67.735  1.00  0.00     0.000 HD 
ENDROOT
BRANCH  15  32
HETATM   32  C   UNK     1      -9.809  10.580  64.921  1.00  0.00    -0.315 C  
HETATM   33  H   UNK     1      -9.881  12.662  64.709  1.00  0.00     0.000 HD 
HETATM   34  O   UNK     1     -10.475   9.551  64.759  1.00  0.00     0.862 OA 
HETATM   35  N   UNK     1     -10.401  11.787  64.650  1.00  0.00    -0.275 N  
BRANCH  35  36
HETATM   36  C   UNK     1     -11.798  11.762  64.278  1.00  0.00    -0.217 C  
BRANCH  36  37
HETATM   37  N   UNK     1     -12.332  13.092  64.489  1.00  0.00    -0.514 NA 
HETATM   38  H   UNK     1     -12.318  13.651  63.636  1.00  0.00     0.000 HD 
BRANCH  37  39
HETATM   39  C   UNK     1     -13.686  13.000  65.069  1.00  0.00     2.100 C  
BRANCH  39  40
HETATM   40  C   UNK     1     -13.784  13.671  66.450  1.00  0.00     4.103 C  
BRANCH  40  41
HETATM   41  C   UNK     1     -13.311  12.779  67.603  1.00  0.00     5.459 C  
BRANCH  41  42
HETATM   42  C   UNK     1     -11.857  13.088  68.004  1.00  0.00    -0.391 C  
BRANCH  42  43
HETATM   43  C   UNK     1     -11.659  13.405  69.494  1.00  0.00    -0.290 C  
HETATM   44  C   UNK     1     -12.545  14.582  69.928  1.00  0.00    -0.180 C  
HETATM   45  N   UNK     1     -11.969  12.229  70.359  1.00  0.00    -0.502 NA 
HETATM   46  O   UNK     1     -12.318  15.758  69.694  1.00  0.00    -0.294 OA 
HETATM   47  O   UNK     1     -13.644  14.146  70.599  1.00  0.00    -0.051 OA 
HETATM   48  H2  UNK     1     -11.429  11.410  70.079  1.00  0.00     0.000 HD 
HETATM   49  H1  UNK     1     -11.837  12.440  71.348  1.00  0.00     0.000 HD 
ENDBRANCH  42  43
ENDBRANCH  41  42
ENDBRANCH  40  41
ENDBRANCH  39  40
ENDBRANCH  37  39
ENDBRANCH  36  37
ENDBRANCH  35  36
ENDBRANCH  15  32
BRANCH  24  50
HETATM   50  N   UNK     1      -8.656   9.895  69.059  1.00  0.00    -0.139 NA 
HETATM   51  C   UNK     1      -8.996   8.495  69.191  1.00  0.00    -0.146 C  
HETATM   52  C   UNK     1      -7.236  10.100  69.367  1.00  0.00    -0.096 C  
ENDBRANCH  24  50
TORSDOF 9
ENDMDL
MODEL      155
REMARK 921   NORMALIZED FREE ENERGY PREDICTED BY IDOCK:   14.03 KCAL/MOL
REMARK 922        TOTAL FREE ENERGY PREDICTED BY IDOCK:   20.01 KCAL/MOL
REMARK 923 INTER-LIGAND FREE ENERGY PREDICTED BY IDOCK:   18.71 KCAL/MOL
REMARK 924 INTRA-LIGAND FREE ENERGY PREDICTED BY IDOCK:    1.30 KCAL/MOL
REMARK 927      BINDING AFFINITY PREDICTED BY RF-SCORE:    0.00 PKD
ROOT
HETATM    1  C   UNK     1      -9.968  13.957  67.017  1.00  0.00    -0.258 C  
HETATM    2  C   UNK     1     -10.791  12.930  67.774  1.00  0.00    -0.248 C  
HETATM    3  C   UNK     1      -9.978  11.662  68.167  1.00  0.00    -0.198 C  
HETATM    4  C   UNK     1      -9.254  11.095  66.967  1.00  0.00    -0.172 C  
HETATM    5  C   UNK     1      -9.160   9.599  66.824  1.00  0.00    -0.146 C  
HETATM    6  C   UNK     1      -8.756  11.900  66.012  1.00  0.00     0.057 C  
HETATM    7  O   UNK     1      -8.184  11.390  64.838  1.00  0.00    -0.214 OA 
HETATM    8  C   UNK     1      -9.034  13.401  65.915  1.00  0.00     0.529 C  
HETATM    9  C   UNK     1      -9.586   8.729  67.948  1.00  0.00    -0.169 A  
HETATM   10  O   UNK     1      -8.731   9.083  65.791  1.00  0.00    -0.148 OA 
HETATM   11  C   UNK     1      -9.306   7.352  67.928  1.00  0.00    -0.134 A  
HETATM   12  O   UNK     1      -9.689  13.477  64.643  1.00  0.00    -0.586 OA 
HETATM   13  C   UNK     1      -7.809  14.446  66.025  1.00  0.00     2.704 C  
HETATM   14  H   UNK     1      -7.833  11.959  64.163  1.00  0.00     0.000 HD 
HETATM   15  C   UNK     1      -8.200  15.895  66.341  1.00  0.00    -0.264 C  
HETATM   16  O   UNK     1      -6.630  14.174  65.813  1.00  0.00     5.721 OA 
HETATM   17  C   UNK     1      -9.646   6.530  69.004  1.00  0.00    -0.135 A  
HETATM   18  H   UNK     1      -9.115  13.136  63.967  1.00  0.00     0.000 HD 
HETATM   19  O   UNK     1      -8.719   6.715  66.867  1.00  0.00    -0.113 OA 
HETATM   20  H   UNK     1     -11.575  10.595  70.739  1.00  0.00     0.000 HD 
HETATM   21  H   UNK     1      -8.530   5.784  66.854  1.00  0.00     0.000 HD 
HETATM   22  C   UNK     1     -10.272   7.075  70.117  1.00  0.00    -0.206 A  
HETATM   23  C   UNK     1      -9.432  16.102  65.819  1.00  0.00    -0.219 C  
HETATM   24  C   UNK     1     -10.624  15.324  66.534  1.00  0.00    -0.304 C  
HETATM   25  C   UNK     1     -12.301  10.542  68.326  1.00  0.00     1.405 C  
HETATM   26  O   UNK     1     -11.018  11.203  70.266  1.00  0.00    -0.077 OA 
HETATM   27  O   UNK     1      -9.574  16.222  64.432  1.00  0.00     1.524 OA 
HETATM   28  C   UNK     1     -10.606   8.429  70.125  1.00  0.00    -0.235 A  
HETATM   29  C   UNK     1     -10.892  10.665  68.941  1.00  0.00    -0.231 C  
HETATM   30  C   UNK     1     -10.301   9.271  69.032  1.00  0.00    -0.228 A  
HETATM   31  H   UNK     1     -10.439  16.367  64.066  1.00  0.00     0.000 HD 
ENDROOT
BRANCH  15  32
HETATM   32  C   UNK     1      -8.167  16.538  67.713  1.00  0.00    -0.165 C  
HETATM   33  H   UNK     1      -8.940  18.406  67.168  1.00  0.00     0.000 HD 
HETATM   34  O   UNK     1      -7.787  15.876  68.685  1.00  0.00    -0.145 OA 
HETATM   35  N   UNK     1      -8.562  17.835  67.923  1.00  0.00    -0.245 N  
BRANCH  35  36
HETATM   36  C   UNK     1      -8.417  18.354  69.264  1.00  0.00     0.248 C  
BRANCH  36  37
HETATM   37  N   UNK     1      -9.740  18.434  69.849  1.00  0.00     0.680 NA 
HETATM   38  H   UNK     1     -10.412  18.873  69.219  1.00  0.00     0.000 HD 
BRANCH  37  39
HETATM   39  C   UNK     1     -10.178  17.093  70.280  1.00  0.00     0.919 C  
BRANCH  39  40
HETATM   40  C   UNK     1      -9.928  16.843  71.778  1.00  0.00     5.642 C  
BRANCH  40  41
HETATM   41  C   UNK     1      -9.858  15.358  72.151  1.00  0.00     3.879 C  
BRANCH  41  42
HETATM   42  C   UNK     1     -11.213  14.656  71.956  1.00  0.00     0.563 C  
BRANCH  42  43
HETATM   43  C   UNK     1     -11.967  14.351  73.260  1.00  0.00     0.259 C  
HETATM   44  C   UNK     1     -12.753  15.581  73.741  1.00  0.00    -0.597 C  
HETATM   45  N   UNK     1     -12.915  13.210  73.100  1.00  0.00     0.165 NA 
HETATM   46  O   UNK     1     -12.269  16.550  74.300  1.00  0.00    -0.548 OA 
HETATM   47  O   UNK     1     -14.074  15.464  73.443  1.00  0.00     0.041 OA 
HETATM   48  H2  UNK     1     -12.441  12.381  72.743  1.00  0.00     0.000 HD 
HETATM   49  H1  UNK     1     -13.415  13.008  73.966  1.00  0.00     0.000 HD 
ENDBRANCH  42  43
ENDBRANCH  41  42
ENDBRANCH  40  41
ENDBRANCH  39  40
ENDBRANCH  37  39
ENDBRANCH  36  37
ENDBRANCH  35  36
ENDBRANCH  15  32
BRANCH  24  50
HETATM   50  N   UNK     1     -11.827  15.375  65.669  1.00  0.00     0.143 NA 
HETATM   51  C   UNK     1     -11.660  15.103  64.258  1.00  0.00    -0.184 C  
HETATM   52  C   UNK     1     -12.897  14.535  66.221  1.00  0.00     0.402 C  
ENDBRANCH  24  50
TORSDOF 9
ENDMDL
MODEL      156
REMARK 921   NORMALIZED FREE ENERGY PREDICTED BY IDOCK:   16.18 KCAL/MOL
REMARK 922        TOTAL FREE ENERGY PREDICTED BY IDOCK:   23.30 KCAL/MOL
REMARK 923 INTER-LIGAND FREE ENERGY PREDICTED BY IDOCK:   18.10 KCAL/MOL
REMARK 924 INTRA-LIGAND FREE ENERGY PREDICTED BY IDOCK:    5.21 KCAL/MOL
REMARK 927      BINDING AFFINITY PREDICTED BY RF-SCORE:    0.00 PKD
ROOT
HETATM    1  C   UNK     1     -11.427  14.838  68.947  1.00  0.00    -0.321 C  
HETATM    2  C   UNK     1     -11.686  16.076  68.108  1.00  0.00    -0.077 C  
HETATM    3  C   UNK     1     -10.428  16.563  67.331  1.00  0.00    -0.310 C  
HETATM    4  C   UNK     1      -9.241  16.694  68.257  1.00  0.00    -0.217 C  
HETATM    5  C   UNK     1      -8.290  17.842  68.051  1.00  0.00    -0.258 C  
HETATM    6  C   UNK     1      -9.066  15.845  69.285  1.00  0.00    -0.253 C  
HETATM    7  O   UNK     1      -8.037  16.020  70.222  1.00  0.00     0.849 OA 
HETATM    8  C   UNK     1     -10.106  14.825  69.752  1.00  0.00     0.082 C  
HETATM    9  C   UNK     1      -8.414  18.684  66.835  1.00  0.00    -0.277 A  
HETATM   10  O   UNK     1      -7.405  18.093  68.871  1.00  0.00    -0.275 OA 
HETATM   11  C   UNK     1      -7.413  19.616  66.508  1.00  0.00    -0.261 A  
HETATM   12  O   UNK     1     -10.350  15.275  71.090  1.00  0.00    -0.311 OA 
HETATM   13  C   UNK     1      -9.755  13.251  69.702  1.00  0.00     1.479 C  
HETATM   14  H   UNK     1      -7.914  15.420  70.948  1.00  0.00     0.000 HD 
HETATM   15  C   UNK     1     -10.957  12.300  69.774  1.00  0.00     0.214 C  
HETATM   16  O   UNK     1      -8.620  12.782  69.676  1.00  0.00     1.358 OA 
HETATM   17  C   UNK     1      -7.484  20.372  65.338  1.00  0.00     0.007 A  
HETATM   18  H   UNK     1      -9.539  15.267  71.584  1.00  0.00     0.000 HD 
HETATM   19  O   UNK     1      -6.329  19.871  67.305  1.00  0.00    -0.188 OA 
HETATM   20  H   UNK     1     -11.723  18.126  64.844  1.00  0.00     0.000 HD 
HETATM   21  H   UNK     1      -5.653  20.501  67.085  1.00  0.00     0.000 HD 
HETATM   22  C   UNK     1      -8.561  20.208  64.476  1.00  0.00     2.992 A  
HETATM   23  C   UNK     1     -11.916  12.921  70.501  1.00  0.00    -0.198 C  
HETATM   24  C   UNK     1     -12.595  14.186  69.811  1.00  0.00    -0.103 C  
HETATM   25  C   UNK     1     -11.669  18.828  67.264  1.00  0.00     1.582 C  
HETATM   26  O   UNK     1     -11.509  17.353  65.354  1.00  0.00     0.421 OA 
HETATM   27  O   UNK     1     -11.753  13.041  71.885  1.00  0.00     0.939 OA 
HETATM   28  C   UNK     1      -9.588  19.328  64.815  1.00  0.00     3.616 A  
HETATM   29  C   UNK     1     -10.779  17.830  66.494  1.00  0.00    -0.110 C  
HETATM   30  C   UNK     1      -9.551  18.578  66.013  1.00  0.00    -0.071 A  
HETATM   31  H   UNK     1     -12.426  13.476  72.395  1.00  0.00     0.000 HD 
ENDROOT
BRANCH  15  32
HETATM   32  C   UNK     1     -11.632  11.641  68.589  1.00  0.00    -0.312 C  
HETATM   33  H   UNK     1     -10.923   9.696  68.907  1.00  0.00     0.000 HD 
HETATM   34  O   UNK     1     -12.367  12.312  67.857  1.00  0.00    -0.283 OA 
HETATM   35  N   UNK     1     -11.470  10.309  68.302  1.00  0.00    -0.173 N  
BRANCH  35  36
HETATM   36  C   UNK     1     -12.110   9.815  67.104  1.00  0.00     4.526 C  
BRANCH  36  37
HETATM   37  N   UNK     1     -11.098   9.722  66.072  1.00  0.00     0.740 NA 
HETATM   38  H   UNK     1     -11.460   9.988  65.156  1.00  0.00     0.000 HD 
BRANCH  37  39
HETATM   39  C   UNK     1      -9.919  10.520  66.456  1.00  0.00    -0.214 C  
BRANCH  39  40
HETATM   40  C   UNK     1     -10.265  11.995  66.726  1.00  0.00    -0.225 C  
BRANCH  40  41
HETATM   41  C   UNK     1      -9.263  12.984  66.119  1.00  0.00    -0.010 C  
BRANCH  41  42
HETATM   42  C   UNK     1      -8.488  12.362  64.945  1.00  0.00     2.113 C  
BRANCH  42  43
HETATM   43  C   UNK     1      -9.210  12.439  63.590  1.00  0.00     0.948 C  
HETATM   44  C   UNK     1      -9.439  11.035  63.009  1.00  0.00    -0.363 C  
HETATM   45  N   UNK     1     -10.526  13.132  63.701  1.00  0.00    -0.523 NA 
HETATM   46  O   UNK     1      -8.588  10.350  62.467  1.00  0.00    -0.166 OA 
HETATM   47  O   UNK     1     -10.724  10.633  63.196  1.00  0.00     0.134 OA 
HETATM   48  H2  UNK     1     -10.424  14.056  64.120  1.00  0.00     0.000 HD 
HETATM   49  H1  UNK     1     -11.005  13.183  62.801  1.00  0.00     0.000 HD 
ENDBRANCH  42  43
ENDBRANCH  41  42
ENDBRANCH  40  41
ENDBRANCH  39  40
ENDBRANCH  37  39
ENDBRANCH  36  37
ENDBRANCH  35  36
ENDBRANCH  15  32
BRANCH  24  50
HETATM   50  N   UNK     1     -13.358  14.946  70.829  1.00  0.00    -0.340 NA 
HETATM   51  C   UNK     1     -14.384  15.857  70.369  1.00  0.00     2.380 C  
HETATM   52  C   UNK     1     -13.907  14.041  71.847  1.00  0.00    -0.445 C  
ENDBRANCH  24  50
TORSDOF 9
ENDMDL
MODEL      157
REMARK 921   NORMALIZED FREE ENERGY PREDICTED BY IDOCK:   17.26 KCAL/MOL
REMARK 922        TOTAL FREE ENERGY PREDICTED BY IDOCK:   24.95 KCAL/MOL
REMARK 923 INTER-LIGAND FREE ENERGY PREDICTED BY IDOCK:   20.74 KCAL/MOL
REMARK 924 INTRA-LIGAND FREE ENERGY PREDICTED BY IDOCK:    4.21 KCAL/MOL
REMARK 927      BINDING AFFINITY PREDICTED BY RF-SCORE:    0.00 PKD
ROOT
HETATM    1  C   UNK     1     -10.108  14.571  69.166  1.00  0.00    -0.145 C  
HETATM    2  C   UNK     1     -10.419  13.236  68.512  1.00  0.00    -0.259 C  
HETATM    3  C   UNK     1      -9.181  12.296  68.421  1.00  0.00    -0.145 C  
HETATM    4  C   UNK     1      -8.004  13.015  67.804  1.00  0.00    -0.164 C  
HETATM    5  C   UNK     1      -7.103  12.253  66.870  1.00  0.00     0.053 C  
HETATM    6  C   UNK     1      -7.794  14.324  68.029  1.00  0.00    -0.143 C  
HETATM    7  O   UNK     1      -6.777  15.034  67.376  1.00  0.00    -0.221 OA 
HETATM    8  C   UNK     1      -8.789  15.252  68.729  1.00  0.00    -0.192 C  
HETATM    9  C   UNK     1      -7.260  10.783  66.741  1.00  0.00    -0.128 A  
HETATM   10  O   UNK     1      -6.233  12.826  66.213  1.00  0.00     1.083 OA 
HETATM   11  C   UNK     1      -6.301  10.021  66.052  1.00  0.00    -0.087 A  
HETATM   12  O   UNK     1      -9.057  16.200  67.688  1.00  0.00    -0.195 OA 
HETATM   13  C   UNK     1      -8.370  15.976  70.108  1.00  0.00     1.141 C  
HETATM   14  H   UNK     1      -6.629  15.959  67.535  1.00  0.00     0.000 HD 
HETATM   15  C   UNK     1      -9.529  16.529  70.947  1.00  0.00     3.427 C  
HETATM   16  O   UNK     1      -7.215  16.162  70.483  1.00  0.00     0.991 OA 
HETATM   17  C   UNK     1      -6.402   8.631  65.972  1.00  0.00    -0.053 A  
HETATM   18  H   UNK     1      -8.248  16.619  67.420  1.00  0.00     0.000 HD 
HETATM   19  O   UNK     1      -5.231  10.569  65.394  1.00  0.00    -0.082 OA 
HETATM   20  H   UNK     1     -10.536   9.387  68.337  1.00  0.00     0.000 HD 
HETATM   21  H   UNK     1      -4.583  10.054  64.928  1.00  0.00     0.000 HD 
HETATM   22  C   UNK     1      -7.467   7.982  66.582  1.00  0.00    -0.089 A  
HETATM   23  C   UNK     1     -10.517  16.875  70.087  1.00  0.00     0.266 C  
HETATM   24  C   UNK     1     -11.248  15.665  69.354  1.00  0.00    -0.313 C  
HETATM   25  C   UNK     1     -10.521  11.148  66.533  1.00  0.00    -0.305 C  
HETATM   26  O   UNK     1     -10.290  10.208  68.750  1.00  0.00    -0.176 OA 
HETATM   27  O   UNK     1     -10.363  18.018  69.296  1.00  0.00    -0.428 OA 
HETATM   28  C   UNK     1      -8.456   8.730  67.221  1.00  0.00    -0.111 A  
HETATM   29  C   UNK     1      -9.585  10.952  67.745  1.00  0.00    -0.164 C  
HETATM   30  C   UNK     1      -8.389  10.141  67.282  1.00  0.00    -0.121 A  
HETATM   31  H   UNK     1     -11.056  18.261  68.693  1.00  0.00     0.000 HD 
ENDROOT
BRANCH  15  32
HETATM   32  C   UNK     1     -10.171  15.835  72.131  1.00  0.00     2.974 C  
HETATM   33  H   UNK     1      -9.886  13.861  71.490  1.00  0.00     0.000 HD 
HETATM   34  O   UNK     1     -10.603  16.511  73.071  1.00  0.00     3.169 OA 
HETATM   35  N   UNK     1     -10.279  14.469  72.208  1.00  0.00     3.441 N  
BRANCH  35  36
HETATM   36  C   UNK     1     -10.975  13.932  73.356  1.00  0.00     4.925 C  
BRANCH  36  37
HETATM   37  N   UNK     1     -12.395  14.101  73.126  1.00  0.00    -0.025 NA 
HETATM   38  H   UNK     1     -12.620  15.034  72.781  1.00  0.00     0.000 HD 
BRANCH  37  39
HETATM   39  C   UNK     1     -12.884  13.043  72.221  1.00  0.00    -0.102 C  
BRANCH  39  40
HETATM   40  C   UNK     1     -11.761  12.102  71.751  1.00  0.00     2.448 C  
BRANCH  40  41
HETATM   41  C   UNK     1     -12.135  10.617  71.817  1.00  0.00     0.065 C  
BRANCH  41  42
HETATM   42  C   UNK     1     -12.162   9.972  70.420  1.00  0.00    -0.249 C  
BRANCH  42  43
HETATM   43  C   UNK     1     -11.178   8.807  70.234  1.00  0.00    -0.195 C  
HETATM   44  C   UNK     1     -10.234   8.688  71.441  1.00  0.00    -0.254 C  
HETATM   45  N   UNK     1     -11.884   7.506  70.050  1.00  0.00    -0.457 NA 
HETATM   46  O   UNK     1      -9.273   9.407  71.656  1.00  0.00    -0.258 OA 
HETATM   47  O   UNK     1     -10.619   7.678  72.266  1.00  0.00    -0.218 OA 
HETATM   48  H2  UNK     1     -12.552   7.553  69.281  1.00  0.00     0.000 HD 
HETATM   49  H1  UNK     1     -11.230   6.733  69.926  1.00  0.00     0.000 HD 
ENDBRANCH  42  43
ENDBRANCH  41  42
ENDBRANCH  40  41
ENDBRANCH  39  40
ENDBRANCH  37  39
ENDBRANCH  36  37
ENDBRANCH  35  36
ENDBRANCH  15  32
BRANCH  24  50
HETATM   50  N   UNK     1     -12.047  16.193  68.222  1.00  0.00     0.242 NA 
HETATM   51  C   UNK     1     -11.662  17.467  67.656  1.00  0.00     1.352 C  
HETATM   52  C   UNK     1     -12.170  15.186  67.161  1.00  0.00     0.440 C  
ENDBRANCH  24  50
TORSDOF 9
ENDMDL
MODEL      158
REMARK 921   NORMALIZED FREE ENERGY PREDICTED BY IDOCK:   17.42 KCAL/MOL
REMARK 922        TOTAL FREE ENERGY PREDICTED BY IDOCK:   25.19 KCAL/MOL
REMARK 923 INTER-LIGAND FREE ENERGY PREDICTED BY IDOCK:   25.35 KCAL/MOL
REMARK 924 INTRA-LIGAND FREE ENERGY PREDICTED BY IDOCK:   -0.16 KCAL/MOL
REMARK 927      BINDING AFFINITY PREDICTED BY RF-SCORE:    0.00 PKD
ROOT
HETATM    1  C   UNK     1      -9.782  14.142  66.994  1.00  0.00    -0.258 C  
HETATM    2  C   UNK     1      -8.548  13.461  67.558  1.00  0.00    -0.200 C  
HETATM    3  C   UNK     1      -8.309  13.778  69.064  1.00  0.00     0.229 C  
HETATM    4  C   UNK     1      -8.349  15.268  69.313  1.00  0.00    -0.243 C  
HETATM    5  C   UNK     1      -7.388  15.858  70.310  1.00  0.00     0.827 C  
HETATM    6  C   UNK     1      -9.179  16.066  68.618  1.00  0.00    -0.216 C  
HETATM    7  O   UNK     1      -9.150  17.461  68.753  1.00  0.00    -0.275 OA 
HETATM    8  C   UNK     1      -9.992  15.620  67.401  1.00  0.00    -0.232 C  
HETATM    9  C   UNK     1      -6.580  14.957  71.168  1.00  0.00     0.610 A  
HETATM   10  O   UNK     1      -7.262  17.078  70.430  1.00  0.00     1.354 OA 
HETATM   11  C   UNK     1      -5.844  15.471  72.249  1.00  0.00     1.063 A  
HETATM   12  O   UNK     1      -9.460  16.480  66.386  1.00  0.00    -0.254 OA 
HETATM   13  C   UNK     1     -11.603  15.676  67.454  1.00  0.00     0.013 C  
HETATM   14  H   UNK     1      -9.737  18.025  68.261  1.00  0.00     0.000 HD 
HETATM   15  C   UNK     1     -12.332  14.837  66.398  1.00  0.00     0.079 C  
HETATM   16  O   UNK     1     -12.258  16.377  68.222  1.00  0.00     0.400 OA 
HETATM   17  C   UNK     1      -5.127  14.631  73.102  1.00  0.00    -0.233 A  
HETATM   18  H   UNK     1      -9.588  17.388  66.636  1.00  0.00     0.000 HD 
HETATM   19  O   UNK     1      -5.749  16.809  72.529  1.00  0.00     1.092 OA 
HETATM   20  H   UNK     1      -6.636  11.220  70.044  1.00  0.00     0.000 HD 
HETATM   21  H   UNK     1      -5.251  17.157  73.260  1.00  0.00     0.000 HD 
HETATM   22  C   UNK     1      -5.136  13.259  72.884  1.00  0.00    -0.003 A  
HETATM   23  C   UNK     1     -11.532  14.784  65.306  1.00  0.00    -0.352 C  
HETATM   24  C   UNK     1     -10.195  13.934  65.471  1.00  0.00    -0.331 C  
HETATM   25  C   UNK     1      -5.869  13.100  68.550  1.00  0.00    -0.081 C  
HETATM   26  O   UNK     1      -7.416  11.669  69.738  1.00  0.00     0.251 OA 
HETATM   27  O   UNK     1     -11.394  15.923  64.505  1.00  0.00    -0.629 OA 
HETATM   28  C   UNK     1      -5.816  12.740  71.782  1.00  0.00     0.861 A  
HETATM   29  C   UNK     1      -7.031  13.041  69.565  1.00  0.00     0.184 C  
HETATM   30  C   UNK     1      -6.519  13.579  70.888  1.00  0.00     0.633 A  
HETATM   31  H   UNK     1     -10.833  15.885  63.739  1.00  0.00     0.000 HD 
ENDROOT
BRANCH  15  32
HETATM   32  C   UNK     1     -12.908  13.453  66.614  1.00  0.00     0.611 C  
HETATM   33  H   UNK     1     -11.676  12.880  68.207  1.00  0.00     0.000 HD 
HETATM   34  O   UNK     1     -13.860  13.076  65.922  1.00  0.00     1.282 OA 
HETATM   35  N   UNK     1     -12.420  12.598  67.569  1.00  0.00     0.464 N  
BRANCH  35  36
HETATM   36  C   UNK     1     -13.008  11.279  67.629  1.00  0.00     5.126 C  
BRANCH  36  37
HETATM   37  N   UNK     1     -12.285  10.521  68.629  1.00  0.00    -0.762 NA 
HETATM   38  H   UNK     1     -12.796   9.688  68.923  1.00  0.00     0.000 HD 
BRANCH  37  39
HETATM   39  C   UNK     1     -10.935  10.196  68.130  1.00  0.00    -0.259 C  
BRANCH  39  40
HETATM   40  C   UNK     1      -9.890  10.121  69.257  1.00  0.00    -0.235 C  
BRANCH  40  41
HETATM   41  C   UNK     1      -9.955   8.825  70.071  1.00  0.00    -0.196 C  
BRANCH  41  42
HETATM   42  C   UNK     1      -8.813   8.738  71.099  1.00  0.00    -0.275 C  
BRANCH  42  43
HETATM   43  C   UNK     1      -7.918   7.496  70.955  1.00  0.00    -0.095 C  
HETATM   44  C   UNK     1      -6.667   7.814  70.123  1.00  0.00    -0.041 C  
HETATM   45  N   UNK     1      -7.488   6.965  72.281  1.00  0.00    -0.087 NA 
HETATM   46  O   UNK     1      -6.638   7.920  68.908  1.00  0.00    -0.049 OA 
HETATM   47  O   UNK     1      -5.579   7.987  70.921  1.00  0.00    -0.029 OA 
HETATM   48  H2  UNK     1      -8.290   6.777  72.883  1.00  0.00     0.000 HD 
HETATM   49  H1  UNK     1      -6.895   6.140  72.186  1.00  0.00     0.000 HD 
ENDBRANCH  42  43
ENDBRANCH  41  42
ENDBRANCH  40  41
ENDBRANCH  39  40
ENDBRANCH  37  39
ENDBRANCH  36  37
ENDBRANCH  35  36
ENDBRANCH  15  32
BRANCH  24  50
HETATM   50  N   UNK     1      -9.282  14.240  64.344  1.00  0.00     2.228 NA 
HETATM   51  C   UNK     1      -8.091  15.011  64.625  1.00  0.00     9.610 C  
HETATM   52  C   UNK     1      -8.929  13.014  63.617  1.00  0.00     3.773 C  
ENDBRANCH  24  50
TORSDOF 9
ENDMDL
MODEL      159
REMARK 921   NORMALIZED FREE ENERGY PREDICTED BY IDOCK:   18.35 KCAL/MOL
REMARK 922        TOTAL FREE ENERGY PREDICTED BY IDOCK:   26.61 KCAL/MOL
REMARK 923 INTER-LIGAND FREE ENERGY PREDICTED BY IDOCK:   23.98 KCAL/MOL
REMARK 924 INTRA-LIGAND FREE ENERGY PREDICTED BY IDOCK:    2.63 KCAL/MOL
REMARK 927      BINDING AFFINITY PREDICTED BY RF-SCORE:    0.00 PKD
ROOT
HETATM    1  C   UNK     1      -9.670  11.081  69.282  1.00  0.00    -0.033 C  
HETATM    2  C   UNK     1     -10.519  11.936  68.358  1.00  0.00    -0.231 C  
HETATM    3  C   UNK     1      -9.696  13.018  67.599  1.00  0.00    -0.212 C  
HETATM    4  C   UNK     1      -8.847  13.819  68.558  1.00  0.00    -0.116 C  
HETATM    5  C   UNK     1      -8.683  15.295  68.315  1.00  0.00    -0.165 C  
HETATM    6  C   UNK     1      -8.296  13.246  69.643  1.00  0.00     1.597 C  
HETATM    7  O   UNK     1      -7.602  13.994  70.604  1.00  0.00     0.748 OA 
HETATM    8  C   UNK     1      -8.621  11.833  70.134  1.00  0.00     3.283 C  
HETATM    9  C   UNK     1      -9.174  15.886  67.045  1.00  0.00    -0.231 A  
HETATM   10  O   UNK     1      -8.143  16.023  69.150  1.00  0.00    -0.222 OA 
HETATM   11  C   UNK     1      -8.842  17.207  66.698  1.00  0.00    -0.252 A  
HETATM   12  O   UNK     1      -9.161  12.112  71.431  1.00  0.00    10.461 OA 
HETATM   13  C   UNK     1      -7.452  10.723  70.195  1.00  0.00     0.404 C  
HETATM   14  H   UNK     1      -7.214  13.589  71.371  1.00  0.00     0.000 HD 
HETATM   15  C   UNK     1      -7.924   9.267  70.282  1.00  0.00    -0.155 C  
HETATM   16  O   UNK     1      -6.249  10.969  70.240  1.00  0.00    -0.135 OA 
HETATM   17  C   UNK     1      -9.245  17.757  65.481  1.00  0.00     0.868 A  
HETATM   18  H   UNK     1      -8.517  12.574  71.954  1.00  0.00     0.000 HD 
HETATM   19  O   UNK     1      -8.138  18.049  67.517  1.00  0.00    -0.226 OA 
HETATM   20  H   UNK     1     -11.475  13.511  64.973  1.00  0.00     0.000 HD 
HETATM   21  H   UNK     1      -7.914  18.942  67.283  1.00  0.00     0.000 HD 
HETATM   22  C   UNK     1      -9.989  16.993  64.592  1.00  0.00     2.524 A  
HETATM   23  C   UNK     1      -9.112   9.268  70.933  1.00  0.00    -0.222 C  
HETATM   24  C   UNK     1     -10.332   9.915  70.141  1.00  0.00    -0.282 C  
HETATM   25  C   UNK     1     -11.980  14.200  67.345  1.00  0.00    -0.439 C  
HETATM   26  O   UNK     1     -10.902  13.006  65.538  1.00  0.00    -0.273 OA 
HETATM   27  O   UNK     1      -9.133   9.502  72.313  1.00  0.00     0.413 OA 
HETATM   28  C   UNK     1     -10.373  15.700  64.948  1.00  0.00    -0.164 A  
HETATM   29  C   UNK     1     -10.637  13.846  66.672  1.00  0.00    -0.274 C  
HETATM   30  C   UNK     1     -10.004  15.137  66.191  1.00  0.00    -0.317 A  
HETATM   31  H   UNK     1      -9.966   9.502  72.769  1.00  0.00     0.000 HD 
ENDROOT
BRANCH  15  32
HETATM   32  C   UNK     1      -8.039   8.305  69.117  1.00  0.00    -0.120 C  
HETATM   33  H   UNK     1      -6.523   6.979  69.694  1.00  0.00     0.000 HD 
HETATM   34  O   UNK     1      -8.908   8.492  68.258  1.00  0.00    -0.141 OA 
HETATM   35  N   UNK     1      -7.217   7.215  68.984  1.00  0.00    -0.084 N  
BRANCH  35  36
HETATM   36  C   UNK     1      -7.381   6.414  67.792  1.00  0.00    -0.088 C  
BRANCH  36  37
HETATM   37  N   UNK     1      -6.177   5.626  67.624  1.00  0.00    -0.029 NA 
HETATM   38  H   UNK     1      -5.537   5.731  68.411  1.00  0.00     0.000 HD 
BRANCH  37  39
HETATM   39  C   UNK     1      -6.533   4.215  67.382  1.00  0.00    -0.042 C  
BRANCH  39  40
HETATM   40  C   UNK     1      -7.990   4.044  66.917  1.00  0.00    -0.096 C  
BRANCH  40  41
HETATM   41  C   UNK     1      -8.366   4.939  65.730  1.00  0.00    -0.115 C  
BRANCH  41  42
HETATM   42  C   UNK     1      -9.207   4.182  64.688  1.00  0.00    -0.151 C  
BRANCH  42  43
HETATM   43  C   UNK     1     -10.667   4.650  64.583  1.00  0.00     0.259 C  
HETATM   44  C   UNK     1     -11.056   4.911  63.119  1.00  0.00     1.674 C  
HETATM   45  N   UNK     1     -11.614   3.652  65.159  1.00  0.00     0.580 NA 
HETATM   46  O   UNK     1     -10.741   5.895  62.472  1.00  0.00     2.799 OA 
HETATM   47  O   UNK     1     -11.791   3.883  62.619  1.00  0.00     0.583 OA 
HETATM   48  H2  UNK     1     -11.367   3.420  66.121  1.00  0.00     0.000 HD 
HETATM   49  H1  UNK     1     -12.582   3.964  65.090  1.00  0.00     0.000 HD 
ENDBRANCH  42  43
ENDBRANCH  41  42
ENDBRANCH  40  41
ENDBRANCH  39  40
ENDBRANCH  37  39
ENDBRANCH  36  37
ENDBRANCH  35  36
ENDBRANCH  15  32
BRANCH  24  50
HETATM   50  N   UNK     1     -11.453  10.150  71.081  1.00  0.00    -0.350 NA 
HETATM   51  C   UNK     1     -11.465  11.389  71.829  1.00  0.00     2.921 C  
HETATM   52  C   UNK     1     -12.743   9.956  70.408  1.00  0.00     0.034 C  
ENDBRANCH  24  50
TORSDOF 9
ENDMDL
MODEL      160
REMARK 921   NORMALIZED FREE ENERGY PREDICTED BY IDOCK:   19.24 KCAL/MOL
REMARK 922        TOTAL FREE ENERGY PREDICTED BY IDOCK:   27.98 KCAL/MOL
REMARK 923 INTER-LIGAND FREE ENERGY PREDICTED BY IDOCK:    3.62 KCAL/MOL
REMARK 924 INTRA-LIGAND FREE ENERGY PREDICTED BY IDOCK:   24.36 KCAL/MOL
REMARK 927      BINDING AFFINITY PREDICTED BY RF-SCORE:    0.00 PKD
ROOT
HETATM    1  C   UNK     1      -9.514   8.559  66.888  1.00  0.00    -0.237 C  
HETATM    2  C   UNK     1      -9.598   9.711  65.904  1.00  0.00    -0.321 C  
HETATM    3  C   UNK     1      -9.645  11.105  66.596  1.00  0.00    -0.215 C  
HETATM    4  C   UNK     1     -10.713  11.140  67.664  1.00  0.00    -0.273 C  
HETATM    5  C   UNK     1     -11.515  12.401  67.839  1.00  0.00    -0.328 C  
HETATM    6  C   UNK     1     -10.989  10.052  68.405  1.00  0.00    -0.217 C  
HETATM    7  O   UNK     1     -12.052  10.029  69.319  1.00  0.00    -0.447 OA 
HETATM    8  C   UNK     1     -10.436   8.653  68.127  1.00  0.00    -0.187 C  
HETATM    9  C   UNK     1     -11.108  13.632  67.119  1.00  0.00    -0.311 A  
HETATM   10  O   UNK     1     -12.503  12.431  68.576  1.00  0.00     0.043 OA 
HETATM   11  C   UNK     1     -11.700  14.869  67.429  1.00  0.00    -0.293 A  
HETATM   12  O   UNK     1     -11.645   7.923  67.886  1.00  0.00     0.380 OA 
HETATM   13  C   UNK     1      -9.507   7.931  69.232  1.00  0.00    -0.152 C  
HETATM   14  H   UNK     1     -12.247   9.260  69.842  1.00  0.00     0.000 HD 
HETATM   15  C   UNK     1      -8.664   6.754  68.723  1.00  0.00    -0.125 C  
HETATM   16  O   UNK     1      -9.484   8.214  70.427  1.00  0.00    -0.162 OA 
HETATM   17  C   UNK     1     -11.287  16.046  66.804  1.00  0.00     0.230 A  
HETATM   18  H   UNK     1     -12.211   7.981  68.647  1.00  0.00     0.000 HD 
HETATM   19  O   UNK     1     -12.724  15.012  68.328  1.00  0.00    -0.103 OA 
HETATM   20  H   UNK     1      -8.449  13.035  64.326  1.00  0.00     0.000 HD 
HETATM   21  H   UNK     1     -13.124  15.847  68.538  1.00  0.00     0.000 HD 
HETATM   22  C   UNK     1     -10.274  16.002  65.855  1.00  0.00    -0.386 A  
HETATM   23  C   UNK     1      -9.346   6.184  67.701  1.00  0.00    -0.112 C  
HETATM   24  C   UNK     1      -9.451   7.055  66.371  1.00  0.00    -0.124 C  
HETATM   25  C   UNK     1     -10.691  11.885  64.366  1.00  0.00    -0.373 C  
HETATM   26  O   UNK     1      -8.399  12.349  64.983  1.00  0.00     1.647 OA 
HETATM   27  O   UNK     1     -10.487   5.424  67.981  1.00  0.00    -0.180 OA 
HETATM   28  C   UNK     1      -9.717  14.775  65.497  1.00  0.00    -0.261 A  
HETATM   29  C   UNK     1      -9.725  12.229  65.519  1.00  0.00    -0.161 C  
HETATM   30  C   UNK     1     -10.146  13.568  66.094  1.00  0.00    -0.307 A  
HETATM   31  H   UNK     1     -10.965   5.025  67.264  1.00  0.00     0.000 HD 
ENDROOT
BRANCH  15  32
HETATM   32  C   UNK     1      -7.205   6.823  68.321  1.00  0.00    -0.088 C  
HETATM   33  H   UNK     1      -7.246   8.720  67.434  1.00  0.00     0.000 HD 
HETATM   34  O   UNK     1      -6.449   5.891  68.616  1.00  0.00    -0.041 OA 
HETATM   35  N   UNK     1      -6.681   7.898  67.649  1.00  0.00    -0.067 N  
BRANCH  35  36
HETATM   36  C   UNK     1      -5.292   7.813  67.260  1.00  0.00    -0.031 C  
BRANCH  36  37
HETATM   37  N   UNK     1      -5.165   6.716  66.322  1.00  0.00    -0.016 NA 
HETATM   38  H   UNK     1      -4.190   6.477  66.141  1.00  0.00     0.000 HD 
BRANCH  37  39
HETATM   39  C   UNK     1      -5.940   5.556  66.803  1.00  0.00    -0.019 C  
BRANCH  39  40
HETATM   40  C   UNK     1      -5.376   4.968  68.109  1.00  0.00    -0.011 C  
BRANCH  40  41
HETATM   41  C   UNK     1      -5.941   5.625  69.373  1.00  0.00    -0.020 C  
BRANCH  41  42
HETATM   42  C   UNK     1      -5.438   4.931  70.651  1.00  0.00    -0.008 C  
BRANCH  42  43
HETATM   43  C   UNK     1      -5.903   5.589  71.960  1.00  0.00    -0.025 C  
HETATM   44  C   UNK     1      -7.188   6.402  71.740  1.00  0.00    -0.087 C  
HETATM   45  N   UNK     1      -6.152   4.580  73.030  1.00  0.00    -0.023 NA 
HETATM   46  O   UNK     1      -7.243   7.504  71.220  1.00  0.00    -0.061 OA 
HETATM   47  O   UNK     1      -8.278   5.723  72.186  1.00  0.00    -0.111 OA 
HETATM   48  H2  UNK     1      -5.334   3.990  73.181  1.00  0.00     0.000 HD 
HETATM   49  H1  UNK     1      -6.460   5.017  73.899  1.00  0.00     0.000 HD 
ENDBRANCH  42  43
ENDBRANCH  41  42
ENDBRANCH  40  41
ENDBRANCH  39  40
ENDBRANCH  37  39
ENDBRANCH  36  37
ENDBRANCH  35  36
ENDBRANCH  15  32
BRANCH  24  50
HETATM   50  N   UNK     1     -10.485   6.469  65.486  1.00  0.00     1.687 NA 
HETATM   51  C   UNK     1     -10.505   5.031  65.325  1.00  0.00     0.243 C  
HETATM   52  C   UNK     1     -11.820   6.954  65.856  1.00  0.00     5.268 C  
ENDBRANCH  24  50
TORSDOF 9
ENDMDL
MODEL      161
REMARK 921   NORMALIZED FREE ENERGY PREDICTED BY IDOCK:   20.13 KCAL/MOL
REMARK 922        TOTAL FREE ENERGY PREDICTED BY IDOCK:   29.33 KCAL/MOL
REMARK 923 INTER-LIGAND FREE ENERGY PREDICTED BY IDOCK:   29.11 KCAL/MOL
REMARK 924 INTRA-LIGAND FREE ENERGY PREDICTED BY IDOCK:    0.22 KCAL/MOL
REMARK 927      BINDING AFFINITY PREDICTED BY RF-SCORE:    0.00 PKD
ROOT
HETATM    1  C   UNK     1      -9.815  14.313  67.321  1.00  0.00    -0.244 C  
HETATM    2  C   UNK     1      -8.594  13.627  67.905  1.00  0.00    -0.181 C  
HETATM    3  C   UNK     1      -8.360  13.965  69.407  1.00  0.00     0.593 C  
HETATM    4  C   UNK     1      -8.384  15.459  69.632  1.00  0.00    -0.127 C  
HETATM    5  C   UNK     1      -7.421  16.052  70.626  1.00  0.00     2.082 C  
HETATM    6  C   UNK     1      -9.199  16.256  68.920  1.00  0.00    -0.249 C  
HETATM    7  O   UNK     1      -9.153  17.652  69.032  1.00  0.00    -0.177 OA 
HETATM    8  C   UNK     1     -10.009  15.800  67.704  1.00  0.00    -0.239 C  
HETATM    9  C   UNK     1      -6.630  15.154  71.503  1.00  0.00     1.209 A  
HETATM   10  O   UNK     1      -7.281  17.272  70.728  1.00  0.00     2.571 OA 
HETATM   11  C   UNK     1      -5.895  15.676  72.581  1.00  0.00     1.357 A  
HETATM   12  O   UNK     1      -9.459  16.638  66.679  1.00  0.00    -0.230 OA 
HETATM   13  C   UNK     1     -11.620  15.878  67.746  1.00  0.00    -0.044 C  
HETATM   14  H   UNK     1      -9.729  18.216  68.528  1.00  0.00     0.000 HD 
HETATM   15  C   UNK     1     -12.352  15.032  66.697  1.00  0.00     0.436 C  
HETATM   16  O   UNK     1     -12.271  16.599  68.497  1.00  0.00     0.518 OA 
HETATM   17  C   UNK     1      -5.195  14.840  73.452  1.00  0.00    -0.034 A  
HETATM   18  H   UNK     1      -9.578  17.551  66.914  1.00  0.00     0.000 HD 
HETATM   19  O   UNK     1      -5.785  17.017  72.841  1.00  0.00     1.260 OA 
HETATM   20  H   UNK     1      -6.727  11.401  70.438  1.00  0.00     0.000 HD 
HETATM   21  H   UNK     1      -5.288  17.370  73.569  1.00  0.00     0.000 HD 
HETATM   22  C   UNK     1      -5.220  13.466  73.256  1.00  0.00     0.020 A  
HETATM   23  C   UNK     1     -11.546  14.951  65.612  1.00  0.00    -0.245 C  
HETATM   24  C   UNK     1     -10.221  14.088  65.799  1.00  0.00    -0.328 C  
HETATM   25  C   UNK     1      -5.927  13.247  68.920  1.00  0.00    -0.079 C  
HETATM   26  O   UNK     1      -7.499  11.855  70.120  1.00  0.00     0.828 OA 
HETATM   27  O   UNK     1     -11.388  16.075  64.794  1.00  0.00    -0.376 OA 
HETATM   28  C   UNK     1      -5.899  12.938  72.158  1.00  0.00     1.122 A  
HETATM   29  C   UNK     1      -7.095  13.220  69.928  1.00  0.00     0.599 C  
HETATM   30  C   UNK     1      -6.586  13.771  71.245  1.00  0.00     1.138 A  
HETATM   31  H   UNK     1     -10.823  16.019  64.033  1.00  0.00     0.000 HD 
ENDROOT
BRANCH  15  32
HETATM   32  C   UNK     1     -12.948  13.658  66.931  1.00  0.00     1.161 C  
HETATM   33  H   UNK     1     -12.094  13.297  68.809  1.00  0.00     0.000 HD 
HETATM   34  O   UNK     1     -13.718  13.179  66.092  1.00  0.00     1.345 OA 
HETATM   35  N   UNK     1     -12.674  12.925  68.058  1.00  0.00     0.998 N  
BRANCH  35  36
HETATM   36  C   UNK     1     -13.248  11.600  68.131  1.00  0.00     5.147 C  
BRANCH  36  37
HETATM   37  N   UNK     1     -12.160  10.660  68.309  1.00  0.00    -0.789 NA 
HETATM   38  H   UNK     1     -12.372   9.747  67.906  1.00  0.00     0.000 HD 
BRANCH  37  39
HETATM   39  C   UNK     1     -10.913  11.230  67.764  1.00  0.00    -0.252 C  
BRANCH  39  40
HETATM   40  C   UNK     1     -10.025  10.171  67.087  1.00  0.00    -0.243 C  
BRANCH  40  41
HETATM   41  C   UNK     1      -8.738   9.862  67.861  1.00  0.00    -0.129 C  
BRANCH  41  42
HETATM   42  C   UNK     1      -7.745   9.046  67.015  1.00  0.00    -0.098 C  
BRANCH  42  43
HETATM   43  C   UNK     1      -8.321   7.747  66.430  1.00  0.00    -0.131 C  
HETATM   44  C   UNK     1      -7.834   7.530  64.989  1.00  0.00    -0.127 C  
HETATM   45  N   UNK     1      -7.947   6.556  67.246  1.00  0.00    -0.111 NA 
HETATM   46  O   UNK     1      -8.263   8.111  64.006  1.00  0.00    -0.149 OA 
HETATM   47  O   UNK     1      -6.834   6.611  64.945  1.00  0.00    -0.047 OA 
HETATM   48  H2  UNK     1      -8.217   6.675  68.222  1.00  0.00     0.000 HD 
HETATM   49  H1  UNK     1      -8.330   5.694  66.858  1.00  0.00     0.000 HD 
ENDBRANCH  42  43
ENDBRANCH  41  42
ENDBRANCH  40  41
ENDBRANCH  39  40
ENDBRANCH  37  39
ENDBRANCH  36  37
ENDBRANCH  35  36
ENDBRANCH  15  32
BRANCH  24  50
HETATM   50  N   UNK     1      -9.297  14.363  64.674  1.00  0.00     1.161 NA 
HETATM   51  C   UNK     1      -8.288  15.384  64.858  1.00  0.00     5.848 C  
HETATM   52  C   UNK     1      -8.675  13.121  64.198  1.00  0.00     4.347 C  
ENDBRANCH  24  50
TORSDOF 9
ENDMDL
MODEL      162
REMARK 921   NORMALIZED FREE ENERGY PREDICTED BY IDOCK:   23.45 KCAL/MOL
REMARK 922        TOTAL FREE ENERGY PREDICTED BY IDOCK:   34.40 KCAL/MOL
REMARK 923 INTER-LIGAND FREE ENERGY PREDICTED BY IDOCK:   30.30 KCAL/MOL
REMARK 924 INTRA-LIGAND FREE ENERGY PREDICTED BY IDOCK:    4.09 KCAL/MOL
REMARK 927      BINDING AFFINITY PREDICTED BY RF-SCORE:    0.00 PKD
ROOT
HETATM    1  C   UNK     1     -11.174  13.657  68.404  1.00  0.00    -0.306 C  
HETATM    2  C   UNK     1     -11.494  15.057  67.911  1.00  0.00    -0.354 C  
HETATM    3  C   UNK     1     -10.257  15.796  67.319  1.00  0.00    -0.268 C  
HETATM    4  C   UNK     1      -9.089  15.740  68.276  1.00  0.00    -0.187 C  
HETATM    5  C   UNK     1      -8.202  16.950  68.399  1.00  0.00    -0.232 C  
HETATM    6  C   UNK     1      -8.876  14.662  69.050  1.00  0.00    -0.090 C  
HETATM    7  O   UNK     1      -7.868  14.637  70.025  1.00  0.00    -0.390 OA 
HETATM    8  C   UNK     1      -9.861  13.502  69.209  1.00  0.00     0.491 C  
HETATM    9  C   UNK     1      -8.360  18.074  67.443  1.00  0.00    -0.233 A  
HETATM   10  O   UNK     1      -7.341  17.023  69.278  1.00  0.00    -0.221 OA 
HETATM   11  C   UNK     1      -7.411  19.109  67.395  1.00  0.00    -0.228 A  
HETATM   12  O   UNK     1     -10.144  13.573  70.612  1.00  0.00     2.339 OA 
HETATM   13  C   UNK     1      -9.422  12.017  68.758  1.00  0.00     0.039 C  
HETATM   14  H   UNK     1      -7.718  13.875  70.572  1.00  0.00     0.000 HD 
HETATM   15  C   UNK     1     -10.570  11.020  68.550  1.00  0.00    -0.218 C  
HETATM   16  O   UNK     1      -8.262  11.631  68.638  1.00  0.00    -0.151 OA 
HETATM   17  C   UNK     1      -7.512  20.141  66.462  1.00  0.00    -0.312 A  
HETATM   18  H   UNK     1      -9.339  13.478  71.106  1.00  0.00     0.000 HD 
HETATM   19  O   UNK     1      -6.351  19.201  68.258  1.00  0.00    -0.222 OA 
HETATM   20  H   UNK     1     -11.613  17.886  65.296  1.00  0.00     0.000 HD 
HETATM   21  H   UNK     1      -5.709  19.901  68.226  1.00  0.00     0.000 HD 
HETATM   22  C   UNK     1      -8.570  20.153  65.561  1.00  0.00     0.393 A  
HETATM   23  C   UNK     1     -11.570  11.378  69.390  1.00  0.00    -0.323 C  
HETATM   24  C   UNK     1     -12.311  12.743  69.039  1.00  0.00     0.187 C  
HETATM   25  C   UNK     1     -11.623  17.932  67.816  1.00  0.00     1.167 C  
HETATM   26  O   UNK     1     -11.362  17.019  65.592  1.00  0.00     0.308 OA 
HETATM   27  O   UNK     1     -11.427  11.139  70.762  1.00  0.00    -0.386 OA 
HETATM   28  C   UNK     1      -9.549  19.163  65.634  1.00  0.00     0.410 A  
HETATM   29  C   UNK     1     -10.671  17.217  66.834  1.00  0.00    -0.126 C  
HETATM   30  C   UNK     1      -9.482  18.128  66.595  1.00  0.00    -0.303 A  
HETATM   31  H   UNK     1     -12.128  11.390  71.351  1.00  0.00     0.000 HD 
ENDROOT
BRANCH  15  32
HETATM   32  C   UNK     1     -11.195  10.660  67.218  1.00  0.00    -0.161 C  
HETATM   33  H   UNK     1     -13.110  11.422  67.589  1.00  0.00     0.000 HD 
HETATM   34  O   UNK     1     -10.503  10.121  66.347  1.00  0.00    -0.208 OA 
HETATM   35  N   UNK     1     -12.510  10.926  66.931  1.00  0.00     3.121 N  
BRANCH  35  36
HETATM   36  C   UNK     1     -13.006  10.470  65.652  1.00  0.00     9.514 C  
BRANCH  36  37
HETATM   37  N   UNK     1     -13.355  11.640  64.874  1.00  0.00     1.538 NA 
HETATM   38  H   UNK     1     -13.022  12.502  65.306  1.00  0.00     0.000 HD 
BRANCH  37  39
HETATM   39  C   UNK     1     -12.863  11.487  63.492  1.00  0.00     0.164 C  
BRANCH  39  40
HETATM   40  C   UNK     1     -11.928  10.276  63.328  1.00  0.00     4.952 C  
BRANCH  40  41
HETATM   41  C   UNK     1     -10.447  10.653  63.217  1.00  0.00     0.137 C  
BRANCH  41  42
HETATM   42  C   UNK     1      -9.878  11.139  64.561  1.00  0.00    -0.330 C  
BRANCH  42  43
HETATM   43  C   UNK     1      -8.746  12.171  64.440  1.00  0.00     1.438 C  
HETATM   44  C   UNK     1      -8.902  13.283  65.489  1.00  0.00     1.287 C  
HETATM   45  N   UNK     1      -7.403  11.544  64.604  1.00  0.00     1.027 NA 
HETATM   46  O   UNK     1      -9.693  14.209  65.420  1.00  0.00    -0.236 OA 
HETATM   47  O   UNK     1      -8.050  13.095  66.531  1.00  0.00     0.249 OA 
HETATM   48  H2  UNK     1      -7.272  10.772  63.951  1.00  0.00     0.000 HD 
HETATM   49  H1  UNK     1      -6.651  12.229  64.523  1.00  0.00     0.000 HD 
ENDBRANCH  42  43
ENDBRANCH  41  42
ENDBRANCH  40  41
ENDBRANCH  39  40
ENDBRANCH  37  39
ENDBRANCH  36  37
ENDBRANCH  35  36
ENDBRANCH  15  32
BRANCH  24  50
HETATM   50  N   UNK     1     -13.126  13.168  70.201  1.00  0.00     0.491 NA 
HETATM   51  C   UNK     1     -13.353  14.585  70.389  1.00  0.00     0.153 C  
HETATM   52  C   UNK     1     -14.403  12.445  70.232  1.00  0.00     6.386 C  
ENDBRANCH  24  50
TORSDOF 9
ENDMDL
MODEL      163
REMARK 921   NORMALIZED FREE ENERGY PREDICTED BY IDOCK:   23.84 KCAL/MOL
REMARK 922        TOTAL FREE ENERGY PREDICTED BY IDOCK:   34.99 KCAL/MOL
REMARK 923 INTER-LIGAND FREE ENERGY PREDICTED BY IDOCK:   33.61 KCAL/MOL
REMARK 924 INTRA-LIGAND FREE ENERGY PREDICTED BY IDOCK:    1.38 KCAL/MOL
REMARK 927      BINDING AFFINITY PREDICTED BY RF-SCORE:    0.00 PKD
ROOT
HETATM    1  C   UNK     1      -9.888  13.974  67.420  1.00  0.00    -0.240 C  
HETATM    2  C   UNK     1      -8.753  13.033  67.783  1.00  0.00    -0.188 C  
HETATM    3  C   UNK     1      -8.456  12.992  69.311  1.00  0.00     0.851 C  
HETATM    4  C   UNK     1      -8.288  14.389  69.864  1.00  0.00     0.787 C  
HETATM    5  C   UNK     1      -7.243  14.623  70.922  1.00  0.00     1.179 C  
HETATM    6  C   UNK     1      -9.008  15.417  69.382  1.00  0.00    -0.258 C  
HETATM    7  O   UNK     1      -8.785  16.737  69.800  1.00  0.00     0.455 OA 
HETATM    8  C   UNK     1      -9.887  15.348  68.132  1.00  0.00    -0.213 C  
HETATM    9  C   UNK     1      -6.558  13.463  71.542  1.00  0.00     2.133 A  
HETATM   10  O   UNK     1      -6.950  15.763  71.286  1.00  0.00     1.797 OA 
HETATM   11  C   UNK     1      -5.746  13.637  72.676  1.00  0.00     0.271 A  
HETATM   12  O   UNK     1      -9.253  16.324  67.296  1.00  0.00    -0.205 OA 
HETATM   13  C   UNK     1     -11.475  15.605  68.260  1.00  0.00    -0.350 C  
HETATM   14  H   UNK     1      -9.294  17.463  69.459  1.00  0.00     0.000 HD 
HETATM   15  C   UNK     1     -12.324  15.111  67.082  1.00  0.00     0.627 C  
HETATM   16  O   UNK     1     -12.019  16.210  69.180  1.00  0.00    -0.281 OA 
HETATM   17  C   UNK     1      -5.143  12.549  73.308  1.00  0.00     0.343 A  
HETATM   18  H   UNK     1      -9.252  17.167  67.733  1.00  0.00     0.000 HD 
HETATM   19  O   UNK     1      -5.465  14.861  73.223  1.00  0.00    -0.057 OA 
HETATM   20  H   UNK     1      -7.142  10.086  69.675  1.00  0.00     0.000 HD 
HETATM   21  H   UNK     1      -4.916  14.979  73.989  1.00  0.00     0.000 HD 
HETATM   22  C   UNK     1      -5.343  11.267  72.813  1.00  0.00     0.755 A  
HETATM   23  C   UNK     1     -11.552  15.182  65.972  1.00  0.00    -0.080 C  
HETATM   24  C   UNK     1     -10.343  14.147  65.905  1.00  0.00    -0.316 C  
HETATM   25  C   UNK     1      -6.140  12.119  68.572  1.00  0.00    -0.051 C  
HETATM   26  O   UNK     1      -7.856  10.689  69.500  1.00  0.00    -0.144 OA 
HETATM   27  O   UNK     1     -11.267  16.435  65.419  1.00  0.00    -0.093 OA 
HETATM   28  C   UNK     1      -6.100  11.086  71.656  1.00  0.00     1.089 A  
HETATM   29  C   UNK     1      -7.287  12.004  69.598  1.00  0.00     0.500 C  
HETATM   30  C   UNK     1      -6.691  12.179  70.982  1.00  0.00     2.548 A  
HETATM   31  H   UNK     1     -10.725  16.485  64.640  1.00  0.00     0.000 HD 
ENDROOT
BRANCH  15  32
HETATM   32  C   UNK     1     -13.083  13.801  67.031  1.00  0.00     1.860 C  
HETATM   33  H   UNK     1     -12.514  13.070  68.910  1.00  0.00     0.000 HD 
HETATM   34  O   UNK     1     -13.788  13.545  66.048  1.00  0.00     0.931 OA 
HETATM   35  N   UNK     1     -13.031  12.884  68.050  1.00  0.00     2.030 N  
BRANCH  35  36
HETATM   36  C   UNK     1     -13.744  11.642  67.851  1.00  0.00    10.052 C  
BRANCH  36  37
HETATM   37  N   UNK     1     -12.886  10.567  68.304  1.00  0.00     1.874 NA 
HETATM   38  H   UNK     1     -12.257  10.242  67.568  1.00  0.00     0.000 HD 
BRANCH  37  39
HETATM   39  C   UNK     1     -12.154  10.987  69.513  1.00  0.00    -0.329 C  
BRANCH  39  40
HETATM   40  C   UNK     1     -10.930  10.099  69.802  1.00  0.00    -0.325 C  
BRANCH  40  41
HETATM   41  C   UNK     1     -10.880   9.570  71.240  1.00  0.00    -0.413 C  
BRANCH  41  42
HETATM   42  C   UNK     1     -10.379   8.116  71.296  1.00  0.00    -0.243 C  
BRANCH  42  43
HETATM   43  C   UNK     1     -11.491   7.061  71.404  1.00  0.00    -0.276 C  
HETATM   44  C   UNK     1     -10.952   5.659  71.082  1.00  0.00    -0.177 C  
HETATM   45  N   UNK     1     -12.105   7.038  72.763  1.00  0.00    -0.458 NA 
HETATM   46  O   UNK     1     -10.719   5.234  69.963  1.00  0.00    -0.287 OA 
HETATM   47  O   UNK     1     -10.742   4.943  72.219  1.00  0.00    -0.207 OA 
HETATM   48  H2  UNK     1     -12.442   7.961  73.034  1.00  0.00     0.000 HD 
HETATM   49  H1  UNK     1     -12.844   6.338  72.834  1.00  0.00     0.000 HD 
ENDBRANCH  42  43
ENDBRANCH  41  42
ENDBRANCH  40  41
ENDBRANCH  39  40
ENDBRANCH  37  39
ENDBRANCH  36  37
ENDBRANCH  35  36
ENDBRANCH  15  32
BRANCH  24  50
HETATM   50  N   UNK     1      -9.409  14.558  64.830  1.00  0.00     0.785 NA 
HETATM   51  C   UNK     1      -9.667  14.084  63.488  1.00  0.00     5.133 C  
HETATM   52  C   UNK     1      -9.234  16.016  64.825  1.00  0.00     2.803 C  
ENDBRANCH  24  50
TORSDOF 9
ENDMDL
MODEL      164
REMARK 921   NORMALIZED FREE ENERGY PREDICTED BY IDOCK:   26.46 KCAL/MOL
REMARK 922        TOTAL FREE ENERGY PREDICTED BY IDOCK:   38.99 KCAL/MOL
REMARK 923 INTER-LIGAND FREE ENERGY PREDICTED BY IDOCK:   33.35 KCAL/MOL
REMARK 924 INTRA-LIGAND FREE ENERGY PREDICTED BY IDOCK:    5.64 KCAL/MOL
REMARK 927      BINDING AFFINITY PREDICTED BY RF-SCORE:    0.00 PKD
ROOT
HETATM    1  C   UNK     1     -11.092  13.088  69.515  1.00  0.00    -0.052 C  
HETATM    2  C   UNK     1     -10.533  14.015  68.451  1.00  0.00    -0.254 C  
HETATM    3  C   UNK     1      -9.834  15.274  69.042  1.00  0.00    -0.230 C  
HETATM    4  C   UNK     1     -10.729  15.967  70.043  1.00  0.00    -0.328 C  
HETATM    5  C   UNK     1     -10.733  17.472  70.085  1.00  0.00     0.935 C  
HETATM    6  C   UNK     1     -11.555  15.265  70.838  1.00  0.00    -0.343 C  
HETATM    7  O   UNK     1     -12.474  15.893  71.690  1.00  0.00    -0.435 OA 
HETATM    8  C   UNK     1     -11.834  13.768  70.689  1.00  0.00    -0.185 C  
HETATM    9  C   UNK     1      -9.721  18.227  69.306  1.00  0.00    -0.007 A  
HETATM   10  O   UNK     1     -11.559  18.089  70.760  1.00  0.00     3.183 OA 
HETATM   11  C   UNK     1      -9.561  19.610  69.497  1.00  0.00     0.041 A  
HETATM   12  O   UNK     1     -13.243  13.777  70.430  1.00  0.00    -0.070 OA 
HETATM   13  C   UNK     1     -11.451  12.763  71.892  1.00  0.00     3.887 C  
HETATM   14  H   UNK     1     -13.058  15.396  72.252  1.00  0.00     0.000 HD 
HETATM   15  C   UNK     1     -11.364  11.279  71.514  1.00  0.00     2.193 C  
HETATM   16  O   UNK     1     -11.293  13.094  73.064  1.00  0.00     4.793 OA 
HETATM   17  C   UNK     1      -8.574  20.325  68.818  1.00  0.00     0.345 A  
HETATM   18  H   UNK     1     -13.699  14.195  71.151  1.00  0.00     0.000 HD 
HETATM   19  O   UNK     1     -10.359  20.356  70.324  1.00  0.00    -0.546 OA 
HETATM   20  H   UNK     1      -7.763  16.060  66.718  1.00  0.00     0.000 HD 
HETATM   21  H   UNK     1     -10.252  21.291  70.453  1.00  0.00     0.000 HD 
HETATM   22  C   UNK     1      -7.731  19.665  67.934  1.00  0.00    -0.331 A  
HETATM   23  C   UNK     1     -12.233  11.072  70.495  1.00  0.00    -0.381 C  
HETATM   24  C   UNK     1     -11.839  11.743  69.106  1.00  0.00    -0.326 C  
HETATM   25  C   UNK     1     -10.273  16.291  66.708  1.00  0.00    -0.280 C  
HETATM   26  O   UNK     1      -8.097  15.515  67.422  1.00  0.00    -0.149 OA 
HETATM   27  O   UNK     1     -13.606  11.066  70.762  1.00  0.00     0.335 OA 
HETATM   28  C   UNK     1      -7.915  18.304  67.692  1.00  0.00    -0.245 A  
HETATM   29  C   UNK     1      -9.287  16.168  67.888  1.00  0.00    -0.212 C  
HETATM   30  C   UNK     1      -8.931  17.570  68.345  1.00  0.00    -0.276 A  
HETATM   31  H   UNK     1     -14.216  10.921  70.047  1.00  0.00     0.000 HD 
ENDROOT
BRANCH  15  32
HETATM   32  C   UNK     1     -10.090  10.523  71.192  1.00  0.00     2.296 C  
HETATM   33  H   UNK     1      -8.881  12.178  70.761  1.00  0.00     0.000 HD 
HETATM   34  O   UNK     1     -10.072   9.291  71.294  1.00  0.00    -0.299 OA 
HETATM   35  N   UNK     1      -8.939  11.161  70.804  1.00  0.00     4.101 N  
BRANCH  35  36
HETATM   36  C   UNK     1      -7.813  10.324  70.457  1.00  0.00     0.630 C  
BRANCH  36  37
HETATM   37  N   UNK     1      -8.292   8.960  70.366  1.00  0.00    -0.131 NA 
HETATM   38  H   UNK     1      -8.099   8.546  69.453  1.00  0.00     0.000 HD 
BRANCH  37  39
HETATM   39  C   UNK     1      -7.728   8.158  71.468  1.00  0.00    -0.092 C  
BRANCH  39  40
HETATM   40  C   UNK     1      -8.150   8.677  72.853  1.00  0.00     0.013 C  
BRANCH  40  41
HETATM   41  C   UNK     1      -8.960   7.664  73.670  1.00  0.00    -0.310 C  
BRANCH  41  42
HETATM   42  C   UNK     1      -8.891   6.253  73.060  1.00  0.00    -0.123 C  
BRANCH  42  43
HETATM   43  C   UNK     1      -9.506   5.149  73.934  1.00  0.00    -0.133 C  
HETATM   44  C   UNK     1     -10.571   4.361  73.156  1.00  0.00    -0.200 C  
HETATM   45  N   UNK     1      -8.473   4.194  74.432  1.00  0.00    -0.093 NA 
HETATM   46  O   UNK     1     -11.704   4.749  72.926  1.00  0.00    -0.173 OA 
HETATM   47  O   UNK     1     -10.081   3.167  72.729  1.00  0.00    -0.136 OA 
HETATM   48  H2  UNK     1      -7.723   4.681  74.922  1.00  0.00     0.000 HD 
HETATM   49  H1  UNK     1      -8.882   3.461  75.012  1.00  0.00     0.000 HD 
ENDBRANCH  42  43
ENDBRANCH  41  42
ENDBRANCH  40  41
ENDBRANCH  39  40
ENDBRANCH  37  39
ENDBRANCH  36  37
ENDBRANCH  35  36
ENDBRANCH  15  32
BRANCH  24  50
HETATM   50  N   UNK     1     -13.015  11.723  68.204  1.00  0.00     2.191 NA 
HETATM   51  C   UNK     1     -14.282  11.288  68.751  1.00  0.00    10.561 C  
HETATM   52  C   UNK     1     -13.174  13.017  67.530  1.00  0.00     4.182 C  
ENDBRANCH  24  50
TORSDOF 9
ENDMDL
MODEL      165
REMARK 921   NORMALIZED FREE ENERGY PREDICTED BY IDOCK:   26.48 KCAL/MOL
REMARK 922        TOTAL FREE ENERGY PREDICTED BY IDOCK:   39.02 KCAL/MOL
REMARK 923 INTER-LIGAND FREE ENERGY PREDICTED BY IDOCK:   35.22 KCAL/MOL
REMARK 924 INTRA-LIGAND FREE ENERGY PREDICTED BY IDOCK:    3.80 KCAL/MOL
REMARK 927      BINDING AFFINITY PREDICTED BY RF-SCORE:    0.00 PKD
ROOT
HETATM    1  C   UNK     1     -10.277   7.559  67.088  1.00  0.00    -0.350 C  
HETATM    2  C   UNK     1     -11.053   7.616  68.392  1.00  0.00     0.224 C  
HETATM    3  C   UNK     1     -10.180   7.289  69.639  1.00  0.00    -0.214 C  
HETATM    4  C   UNK     1      -9.420   5.999  69.441  1.00  0.00    -0.155 C  
HETATM    5  C   UNK     1      -9.250   5.075  70.617  1.00  0.00    -0.147 C  
HETATM    6  C   UNK     1      -8.956   5.645  68.229  1.00  0.00    -0.114 C  
HETATM    7  O   UNK     1      -8.351   4.401  68.002  1.00  0.00    -0.094 OA 
HETATM    8  C   UNK     1      -9.308   6.363  66.924  1.00  0.00    -0.134 C  
HETATM    9  C   UNK     1      -9.639   5.538  71.972  1.00  0.00    -0.177 A  
HETATM   10  O   UNK     1      -8.787   3.942  70.476  1.00  0.00    -0.073 OA 
HETATM   11  C   UNK     1      -9.291   4.788  73.109  1.00  0.00    -0.121 A  
HETATM   12  O   UNK     1      -9.957   5.312  66.199  1.00  0.00    -0.171 OA 
HETATM   13  C   UNK     1      -8.138   7.059  66.058  1.00  0.00    -0.122 C  
HETATM   14  H   UNK     1      -8.023   4.152  67.145  1.00  0.00     0.000 HD 
HETATM   15  C   UNK     1      -8.603   8.094  65.026  1.00  0.00    -0.076 C  
HETATM   16  O   UNK     1      -6.946   6.774  66.127  1.00  0.00    -0.058 OA 
HETATM   17  C   UNK     1      -9.596   5.239  74.394  1.00  0.00    -0.155 A  
HETATM   18  H   UNK     1      -9.362   4.578  66.099  1.00  0.00     0.000 HD 
HETATM   19  O   UNK     1      -8.664   3.572  73.048  1.00  0.00    -0.091 OA 
HETATM   20  H   UNK     1     -11.740   8.826  71.986  1.00  0.00     0.000 HD 
HETATM   21  H   UNK     1      -8.429   3.065  73.817  1.00  0.00     0.000 HD 
HETATM   22  C   UNK     1     -10.258   6.449  74.560  1.00  0.00    -0.310 A  
HETATM   23  C   UNK     1      -9.841   7.725  64.617  1.00  0.00     3.210 C  
HETATM   24  C   UNK     1     -10.997   7.867  65.703  1.00  0.00     4.439 C  
HETATM   25  C   UNK     1     -12.445   6.742  70.755  1.00  0.00    -0.212 C  
HETATM   26  O   UNK     1     -11.211   8.775  71.198  1.00  0.00    -0.248 OA 
HETATM   27  O   UNK     1      -9.979   6.618  63.773  1.00  0.00     3.248 OA 
HETATM   28  C   UNK     1     -10.659   7.175  73.439  1.00  0.00    -0.424 A  
HETATM   29  C   UNK     1     -11.048   7.374  70.930  1.00  0.00    -0.263 C  
HETATM   30  C   UNK     1     -10.389   6.718  72.129  1.00  0.00    -0.221 A  
HETATM   31  H   UNK     1     -10.847   6.359  63.486  1.00  0.00     0.000 HD 
ENDROOT
BRANCH  15  32
HETATM   32  C   UNK     1      -8.613   9.596  65.225  1.00  0.00    -0.152 C  
HETATM   33  H   UNK     1      -9.148  10.136  63.273  1.00  0.00     0.000 HD 
HETATM   34  O   UNK     1      -8.379  10.062  66.345  1.00  0.00    -0.123 OA 
HETATM   35  N   UNK     1      -8.890  10.468  64.202  1.00  0.00    -0.190 N  
BRANCH  35  36
HETATM   36  C   UNK     1      -8.799  11.879  64.503  1.00  0.00     0.797 C  
BRANCH  36  37
HETATM   37  N   UNK     1      -9.041  12.042  65.922  1.00  0.00    -0.414 NA 
HETATM   38  H   UNK     1      -8.497  12.808  66.318  1.00  0.00     0.000 HD 
BRANCH  37  39
HETATM   39  C   UNK     1     -10.487  12.205  66.166  1.00  0.00    -0.248 C  
BRANCH  39  40
HETATM   40  C   UNK     1     -10.897  11.787  67.589  1.00  0.00    -0.263 C  
BRANCH  40  41
HETATM   41  C   UNK     1     -10.640  12.867  68.646  1.00  0.00    -0.256 C  
BRANCH  41  42
HETATM   42  C   UNK     1      -9.389  13.701  68.317  1.00  0.00    -0.204 C  
BRANCH  42  43
HETATM   43  C   UNK     1      -9.684  15.128  67.830  1.00  0.00    -0.211 C  
HETATM   44  C   UNK     1     -10.700  15.824  68.748  1.00  0.00    -0.253 C  
HETATM   45  N   UNK     1      -8.447  15.960  67.768  1.00  0.00    -0.157 NA 
HETATM   46  O   UNK     1     -11.903  15.623  68.746  1.00  0.00    -0.370 OA 
HETATM   47  O   UNK     1     -10.082  16.691  69.593  1.00  0.00    -0.190 OA 
HETATM   48  H2  UNK     1      -7.728  15.515  67.198  1.00  0.00     0.000 HD 
HETATM   49  H1  UNK     1      -8.643  16.908  67.444  1.00  0.00     0.000 HD 
ENDBRANCH  42  43
ENDBRANCH  41  42
ENDBRANCH  40  41
ENDBRANCH  39  40
ENDBRANCH  37  39
ENDBRANCH  36  37
ENDBRANCH  35  36
ENDBRANCH  15  32
BRANCH  24  50
HETATM   50  N   UNK     1     -12.194   7.127  65.240  1.00  0.00    10.114 NA 
HETATM   51  C   UNK     1     -12.099   6.390  63.998  1.00  0.00    12.575 C  
HETATM   52  C   UNK     1     -12.710   6.257  66.304  1.00  0.00     7.584 C  
ENDBRANCH  24  50
TORSDOF 9
ENDMDL
MODEL      166
REMARK 921   NORMALIZED FREE ENERGY PREDICTED BY IDOCK:   27.10 KCAL/MOL
REMARK 922        TOTAL FREE ENERGY PREDICTED BY IDOCK:   39.97 KCAL/MOL
REMARK 923 INTER-LIGAND FREE ENERGY PREDICTED BY IDOCK:   34.17 KCAL/MOL
REMARK 924 INTRA-LIGAND FREE ENERGY PREDICTED BY IDOCK:    5.80 KCAL/MOL
REMARK 927      BINDING AFFINITY PREDICTED BY RF-SCORE:    0.00 PKD
ROOT
HETATM    1  C   UNK     1      -9.947  11.679  69.038  1.00  0.00    -0.002 C  
HETATM    2  C   UNK     1     -10.070  12.331  70.403  1.00  0.00     3.781 C  
HETATM    3  C   UNK     1     -11.449  13.018  70.632  1.00  0.00     0.630 C  
HETATM    4  C   UNK     1     -11.787  13.941  69.485  1.00  0.00    -0.383 C  
HETATM    5  C   UNK     1     -12.479  15.243  69.789  1.00  0.00    -0.188 C  
HETATM    6  C   UNK     1     -11.426  13.644  68.225  1.00  0.00    -0.313 C  
HETATM    7  O   UNK     1     -11.628  14.540  67.166  1.00  0.00    -0.359 OA 
HETATM    8  C   UNK     1     -10.487  12.498  67.841  1.00  0.00    -0.217 C  
HETATM    9  C   UNK     1     -12.997  15.494  71.157  1.00  0.00    -0.560 A  
HETATM   10  O   UNK     1     -12.629  16.104  68.920  1.00  0.00     0.365 OA 
HETATM   11  C   UNK     1     -13.833  16.594  71.413  1.00  0.00     4.692 A  
HETATM   12  O   UNK     1      -9.412  13.220  67.225  1.00  0.00    -0.218 OA 
HETATM   13  C   UNK     1     -11.029  11.306  66.899  1.00  0.00    -0.290 C  
HETATM   14  H   UNK     1     -11.372  14.330  66.275  1.00  0.00     0.000 HD 
HETATM   15  C   UNK     1     -10.194  10.020  66.910  1.00  0.00    -0.299 C  
HETATM   16  O   UNK     1     -11.999  11.386  66.149  1.00  0.00    -0.128 OA 
HETATM   17  C   UNK     1     -14.377  16.811  72.679  1.00  0.00     2.473 A  
HETATM   18  H   UNK     1      -9.743  13.722  66.491  1.00  0.00     0.000 HD 
HETATM   19  O   UNK     1     -14.151  17.536  70.470  1.00  0.00    11.686 OA 
HETATM   20  H   UNK     1     -11.721  12.953  73.830  1.00  0.00     0.000 HD 
HETATM   21  H   UNK     1     -14.716  18.280  70.642  1.00  0.00     0.000 HD 
HETATM   22  C   UNK     1     -14.090  15.927  73.712  1.00  0.00     1.658 A  
HETATM   23  C   UNK     1      -8.910  10.376  67.153  1.00  0.00    -0.136 C  
HETATM   24  C   UNK     1      -8.611  10.922  68.619  1.00  0.00    -0.153 C  
HETATM   25  C   UNK     1     -10.180  14.373  72.429  1.00  0.00     4.831 C  
HETATM   26  O   UNK     1     -11.693  12.563  72.963  1.00  0.00     4.600 OA 
HETATM   27  O   UNK     1      -8.175  11.008  66.144  1.00  0.00    -0.167 OA 
HETATM   28  C   UNK     1     -13.217  14.863  73.487  1.00  0.00    -0.212 A  
HETATM   29  C   UNK     1     -11.494  13.655  72.053  1.00  0.00     2.524 C  
HETATM   30  C   UNK     1     -12.629  14.647  72.219  1.00  0.00    -0.401 A  
HETATM   31  H   UNK     1      -7.275  11.258  66.314  1.00  0.00     0.000 HD 
ENDROOT
BRANCH  15  32
HETATM   32  C   UNK     1     -10.492   8.782  67.732  1.00  0.00    -0.229 C  
HETATM   33  H   UNK     1     -11.255   9.746  69.428  1.00  0.00     0.000 HD 
HETATM   34  O   UNK     1     -10.281   7.665  67.247  1.00  0.00    -0.216 OA 
HETATM   35  N   UNK     1     -11.006   8.853  69.002  1.00  0.00    -0.031 N  
BRANCH  35  36
HETATM   36  C   UNK     1     -11.179   7.604  69.709  1.00  0.00    -0.029 C  
BRANCH  36  37
HETATM   37  N   UNK     1     -11.458   6.579  68.725  1.00  0.00    -0.589 NA 
HETATM   38  H   UNK     1     -11.666   6.973  67.807  1.00  0.00     0.000 HD 
BRANCH  37  39
HETATM   39  C   UNK     1     -10.339   5.618  68.674  1.00  0.00    -0.208 C  
BRANCH  39  40
HETATM   40  C   UNK     1     -10.054   4.970  70.040  1.00  0.00    -0.342 C  
BRANCH  40  41
HETATM   41  C   UNK     1      -9.924   5.980  71.186  1.00  0.00    -0.227 C  
BRANCH  41  42
HETATM   42  C   UNK     1     -10.856   5.634  72.361  1.00  0.00    -0.298 C  
BRANCH  42  43
HETATM   43  C   UNK     1     -10.647   6.495  73.616  1.00  0.00    -0.286 C  
HETATM   44  C   UNK     1      -9.812   7.744  73.294  1.00  0.00    -0.299 C  
HETATM   45  N   UNK     1     -11.943   6.927  74.216  1.00  0.00     3.001 NA 
HETATM   46  O   UNK     1      -8.603   7.760  73.135  1.00  0.00    -0.140 OA 
HETATM   47  O   UNK     1     -10.602   8.844  73.183  1.00  0.00     0.807 OA 
HETATM   48  H2  UNK     1     -12.546   6.128  74.410  1.00  0.00     0.000 HD 
HETATM   49  H1  UNK     1     -11.804   7.498  75.050  1.00  0.00     0.000 HD 
ENDBRANCH  42  43
ENDBRANCH  41  42
ENDBRANCH  40  41
ENDBRANCH  39  40
ENDBRANCH  37  39
ENDBRANCH  36  37
ENDBRANCH  35  36
ENDBRANCH  15  32
BRANCH  24  50
HETATM   50  N   UNK     1      -7.282  11.576  68.634  1.00  0.00    -0.095 NA 
HETATM   51  C   UNK     1      -6.558  11.672  67.384  1.00  0.00    -0.106 C  
HETATM   52  C   UNK     1      -7.360  12.895  69.274  1.00  0.00     0.246 C  
ENDBRANCH  24  50
TORSDOF 9
ENDMDL
MODEL      167
REMARK 921   NORMALIZED FREE ENERGY PREDICTED BY IDOCK:   32.05 KCAL/MOL
REMARK 922        TOTAL FREE ENERGY PREDICTED BY IDOCK:   47.51 KCAL/MOL
REMARK 923 INTER-LIGAND FREE ENERGY PREDICTED BY IDOCK:   47.35 KCAL/MOL
REMARK 924 INTRA-LIGAND FREE ENERGY PREDICTED BY IDOCK:    0.16 KCAL/MOL
REMARK 927      BINDING AFFINITY PREDICTED BY RF-SCORE:    0.00 PKD
ROOT
HETATM    1  C   UNK     1     -10.493  15.657  70.171  1.00  0.00    -0.316 C  
HETATM    2  C   UNK     1     -10.988  16.696  69.181  1.00  0.00    -0.276 C  
HETATM    3  C   UNK     1      -9.847  17.319  68.325  1.00  0.00    -0.304 C  
HETATM    4  C   UNK     1      -8.720  17.808  69.206  1.00  0.00     0.291 C  
HETATM    5  C   UNK     1      -8.018  19.086  68.834  1.00  0.00    -0.287 C  
HETATM    6  C   UNK     1      -8.387  17.155  70.333  1.00  0.00     3.455 C  
HETATM    7  O   UNK     1      -7.424  17.654  71.221  1.00  0.00     5.111 OA 
HETATM    8  C   UNK     1      -9.204  16.016  70.948  1.00  0.00     2.874 C  
HETATM    9  C   UNK     1      -8.297  19.718  67.521  1.00  0.00    -0.351 A  
HETATM   10  O   UNK     1      -7.210  19.616  69.599  1.00  0.00    -0.287 OA 
HETATM   11  C   UNK     1      -7.502  20.780  67.058  1.00  0.00    -0.271 A  
HETATM   12  O   UNK     1      -9.547  16.581  72.219  1.00  0.00     6.894 OA 
HETATM   13  C   UNK     1      -8.542  14.553  71.099  1.00  0.00     3.990 C  
HETATM   14  H   UNK     1      -7.189  17.193  72.018  1.00  0.00     0.000 HD 
HETATM   15  C   UNK     1      -9.528  13.398  71.315  1.00  0.00     9.886 C  
HETATM   16  O   UNK     1      -7.336  14.323  71.115  1.00  0.00     1.324 OA 
HETATM   17  C   UNK     1      -7.712  21.346  65.799  1.00  0.00     1.736 A  
HETATM   18  H   UNK     1      -8.756  16.802  72.696  1.00  0.00     0.000 HD 
HETATM   19  O   UNK     1      -6.499  21.351  67.796  1.00  0.00    -0.445 OA 
HETATM   20  H   UNK     1     -11.406  18.247  65.678  1.00  0.00     0.000 HD 
HETATM   21  H   UNK     1      -5.962  22.070  67.483  1.00  0.00     0.000 HD 
HETATM   22  C   UNK     1      -8.725  20.856  64.985  1.00  0.00     1.812 A  
HETATM   23  C   UNK     1     -10.600  13.903  71.971  1.00  0.00     5.241 C  
HETATM   24  C   UNK     1     -11.513  14.904  71.133  1.00  0.00    -0.264 C  
HETATM   25  C   UNK     1     -11.519  19.259  67.983  1.00  0.00     1.035 C  
HETATM   26  O   UNK     1     -11.045  17.607  66.281  1.00  0.00     0.151 OA 
HETATM   27  O   UNK     1     -10.478  14.235  73.325  1.00  0.00     2.957 OA 
HETATM   28  C   UNK     1      -9.557  19.840  65.455  1.00  0.00     0.541 A  
HETATM   29  C   UNK     1     -10.438  18.368  67.336  1.00  0.00    -0.415 C  
HETATM   30  C   UNK     1      -9.381  19.278  66.740  1.00  0.00    -0.379 A  
HETATM   31  H   UNK     1     -11.230  14.589  73.784  1.00  0.00     0.000 HD 
ENDROOT
BRANCH  15  32
HETATM   32  C   UNK     1     -10.045  12.465  70.239  1.00  0.00     3.338 C  
HETATM   33  H   UNK     1     -11.318  11.320  71.445  1.00  0.00     0.000 HD 
HETATM   34  O   UNK     1      -9.672  12.620  69.071  1.00  0.00     0.112 OA 
HETATM   35  N   UNK     1     -10.932  11.455  70.510  1.00  0.00     0.657 N  
BRANCH  35  36
HETATM   36  C   UNK     1     -11.295  10.589  69.411  1.00  0.00    -0.269 C  
BRANCH  36  37
HETATM   37  N   UNK     1     -10.189   9.681  69.184  1.00  0.00    -0.192 NA 
HETATM   38  H   UNK     1      -9.311  10.177  69.031  1.00  0.00     0.000 HD 
BRANCH  37  39
HETATM   39  C   UNK     1     -10.096   8.720  70.299  1.00  0.00    -0.191 C  
BRANCH  39  40
HETATM   40  C   UNK     1      -8.643   8.451  70.728  1.00  0.00    -0.159 C  
BRANCH  40  41
HETATM   41  C   UNK     1      -7.790   7.796  69.636  1.00  0.00    -0.107 C  
BRANCH  41  42
HETATM   42  C   UNK     1      -7.364   6.369  70.024  1.00  0.00    -0.086 C  
BRANCH  42  43
HETATM   43  C   UNK     1      -8.125   5.254  69.290  1.00  0.00    -0.092 C  
HETATM   44  C   UNK     1      -9.609   5.617  69.126  1.00  0.00    -0.135 C  
HETATM   45  N   UNK     1      -7.548   4.981  67.942  1.00  0.00    -0.082 NA 
HETATM   46  O   UNK     1     -10.451   5.552  70.006  1.00  0.00    -0.260 OA 
HETATM   47  O   UNK     1      -9.871   6.049  67.864  1.00  0.00    -0.112 OA 
HETATM   48  H2  UNK     1      -6.551   4.774  68.000  1.00  0.00     0.000 HD 
HETATM   49  H1  UNK     1      -8.054   4.241  67.455  1.00  0.00     0.000 HD 
ENDBRANCH  42  43
ENDBRANCH  41  42
ENDBRANCH  40  41
ENDBRANCH  39  40
ENDBRANCH  37  39
ENDBRANCH  36  37
ENDBRANCH  35  36
ENDBRANCH  15  32
BRANCH  24  50
HETATM   50  N   UNK     1     -12.424  15.621  72.055  1.00  0.00    -0.390 NA 
HETATM   51  C   UNK     1     -13.479  16.426  71.479  1.00  0.00     2.128 C  
HETATM   52  C   UNK     1     -12.981  14.701  73.055  1.00  0.00    -0.510 C  
ENDBRANCH  24  50
TORSDOF 9
ENDMDL
MODEL      168
REMARK 921   NORMALIZED FREE ENERGY PREDICTED BY IDOCK:   32.52 KCAL/MOL
REMARK 922        TOTAL FREE ENERGY PREDICTED BY IDOCK:   48.24 KCAL/MOL
REMARK 923 INTER-LIGAND FREE ENERGY PREDICTED BY IDOCK:   46.20 KCAL/MOL
REMARK 924 INTRA-LIGAND FREE ENERGY PREDICTED BY IDOCK:    2.04 KCAL/MOL
REMARK 927      BINDING AFFINITY PREDICTED BY RF-SCORE:    0.00 PKD
ROOT
HETATM    1  C   UNK     1      -8.428  12.203  65.951  1.00  0.00     0.468 C  
HETATM    2  C   UNK     1      -8.541  13.297  66.997  1.00  0.00    -0.169 C  
HETATM    3  C   UNK     1      -9.627  14.360  66.657  1.00  0.00    -0.295 C  
HETATM    4  C   UNK     1      -9.448  14.881  65.250  1.00  0.00     0.236 C  
HETATM    5  C   UNK     1      -9.701  16.340  64.984  1.00  0.00     0.903 C  
HETATM    6  C   UNK     1      -9.010  14.078  64.263  1.00  0.00     5.114 C  
HETATM    7  O   UNK     1      -8.728  14.569  62.980  1.00  0.00    11.408 OA 
HETATM    8  C   UNK     1      -8.462  12.666  64.475  1.00  0.00     3.180 C  
HETATM    9  C   UNK     1     -10.316  17.179  66.042  1.00  0.00    -0.317 A  
HETATM   10  O   UNK     1      -9.412  16.851  63.901  1.00  0.00     5.835 OA 
HETATM   11  C   UNK     1     -10.764  18.480  65.751  1.00  0.00    -0.156 A  
HETATM   12  O   UNK     1      -7.124  12.815  63.984  1.00  0.00     7.468 OA 
HETATM   13  C   UNK     1      -9.215  11.410  63.798  1.00  0.00    -0.022 C  
HETATM   14  H   UNK     1      -8.419  14.002  62.283  1.00  0.00     0.000 HD 
HETATM   15  C   UNK     1      -8.875  10.035  64.388  1.00  0.00    -0.239 C  
HETATM   16  O   UNK     1      -9.969  11.478  62.831  1.00  0.00    -0.330 OA 
HETATM   17  C   UNK     1     -11.398  19.260  66.718  1.00  0.00     0.323 A  
HETATM   18  H   UNK     1      -7.145  13.099  63.078  1.00  0.00     0.000 HD 
HETATM   19  O   UNK     1     -10.592  19.082  64.533  1.00  0.00     1.135 OA 
HETATM   20  H   UNK     1     -10.413  15.488  69.558  1.00  0.00     0.000 HD 
HETATM   21  H   UNK     1     -10.894  19.961  64.336  1.00  0.00     0.000 HD 
HETATM   22  C   UNK     1     -11.594  18.749  67.995  1.00  0.00     1.483 A  
HETATM   23  C   UNK     1      -7.602  10.100  64.847  1.00  0.00    -0.138 C  
HETATM   24  C   UNK     1      -7.375  11.022  66.126  1.00  0.00    -0.060 C  
HETATM   25  C   UNK     1      -8.282  15.868  68.266  1.00  0.00    -0.152 C  
HETATM   26  O   UNK     1     -10.380  14.828  68.874  1.00  0.00    -0.231 OA 
HETATM   27  O   UNK     1      -6.546  10.121  63.929  1.00  0.00    -0.132 OA 
HETATM   28  C   UNK     1     -11.105  17.483  68.313  1.00  0.00     0.053 A  
HETATM   29  C   UNK     1      -9.682  15.440  67.778  1.00  0.00    -0.211 C  
HETATM   30  C   UNK     1     -10.429  16.691  67.357  1.00  0.00    -0.314 A  
HETATM   31  H   UNK     1      -5.653  10.166  64.251  1.00  0.00     0.000 HD 
ENDROOT
BRANCH  15  32
HETATM   32  C   UNK     1      -9.698   9.288  65.417  1.00  0.00    -0.099 C  
HETATM   33  H   UNK     1      -8.707   7.447  65.289  1.00  0.00     0.000 HD 
HETATM   34  O   UNK     1     -10.596   9.882  66.025  1.00  0.00    -0.102 OA 
HETATM   35  N   UNK     1      -9.473   7.968  65.716  1.00  0.00     0.031 N  
BRANCH  35  36
HETATM   36  C   UNK     1     -10.371   7.350  66.665  1.00  0.00    -0.171 C  
BRANCH  36  37
HETATM   37  N   UNK     1     -11.326   8.356  67.085  1.00  0.00     0.318 NA 
HETATM   38  H   UNK     1     -11.815   8.774  66.294  1.00  0.00     0.000 HD 
BRANCH  37  39
HETATM   39  C   UNK     1     -12.258   7.778  68.072  1.00  0.00     4.449 C  
BRANCH  39  40
HETATM   40  C   UNK     1     -11.909   6.324  68.434  1.00  0.00     1.355 C  
BRANCH  40  41
HETATM   41  C   UNK     1     -10.494   6.153  68.998  1.00  0.00    -0.305 C  
BRANCH  41  42
HETATM   42  C   UNK     1     -10.352   4.847  69.799  1.00  0.00    -0.203 C  
BRANCH  42  43
HETATM   43  C   UNK     1     -10.634   3.569  68.994  1.00  0.00     2.516 C  
HETATM   44  C   UNK     1      -9.539   3.329  67.943  1.00  0.00    -0.084 C  
HETATM   45  N   UNK     1     -10.726   2.367  69.872  1.00  0.00     2.777 NA 
HETATM   46  O   UNK     1      -9.439   3.922  66.882  1.00  0.00    -0.180 OA 
HETATM   47  O   UNK     1      -8.666   2.372  68.357  1.00  0.00    -0.073 OA 
HETATM   48  H2  UNK     1     -11.416   2.500  70.611  1.00  0.00     0.000 HD 
HETATM   49  H1  UNK     1     -10.914   1.519  69.337  1.00  0.00     0.000 HD 
ENDBRANCH  42  43
ENDBRANCH  41  42
ENDBRANCH  40  41
ENDBRANCH  39  40
ENDBRANCH  37  39
ENDBRANCH  36  37
ENDBRANCH  35  36
ENDBRANCH  15  32
BRANCH  24  50
HETATM   50  N   UNK     1      -5.924  11.262  66.302  1.00  0.00    -0.133 NA 
HETATM   51  C   UNK     1      -5.487  12.615  66.570  1.00  0.00     1.301 C  
HETATM   52  C   UNK     1      -5.365  10.344  67.302  1.00  0.00    -0.041 C  
ENDBRANCH  24  50
TORSDOF 9
ENDMDL
MODEL      169
REMARK 921   NORMALIZED FREE ENERGY PREDICTED BY IDOCK:   32.53 KCAL/MOL
REMARK 922        TOTAL FREE ENERGY PREDICTED BY IDOCK:   48.25 KCAL/MOL
REMARK 923 INTER-LIGAND FREE ENERGY PREDICTED BY IDOCK:   44.25 KCAL/MOL
REMARK 924 INTRA-LIGAND FREE ENERGY PREDICTED BY IDOCK:    4.00 KCAL/MOL
REMARK 927      BINDING AFFINITY PREDICTED BY RF-SCORE:    0.00 PKD
ROOT
HETATM    1  C   UNK     1     -10.346  15.408  70.079  1.00  0.00    -0.288 C  
HETATM    2  C   UNK     1      -8.934  14.850  70.095  1.00  0.00     0.701 C  
HETATM    3  C   UNK     1      -8.577  14.049  68.809  1.00  0.00    -0.032 C  
HETATM    4  C   UNK     1      -9.636  13.013  68.509  1.00  0.00    -0.113 C  
HETATM    5  C   UNK     1      -9.203  11.675  67.972  1.00  0.00    -0.178 C  
HETATM    6  C   UNK     1     -10.933  13.251  68.772  1.00  0.00    -0.260 C  
HETATM    7  O   UNK     1     -11.915  12.263  68.608  1.00  0.00    -0.309 OA 
HETATM    8  C   UNK     1     -11.450  14.453  69.566  1.00  0.00    -0.288 C  
HETATM    9  C   UNK     1      -7.793  11.477  67.555  1.00  0.00    -0.133 A  
HETATM   10  O   UNK     1     -10.001  10.742  67.867  1.00  0.00    -0.169 OA 
HETATM   11  C   UNK     1      -7.414  10.320  66.852  1.00  0.00    -0.101 A  
HETATM   12  O   UNK     1     -12.077  13.799  70.676  1.00  0.00    -0.335 OA 
HETATM   13  C   UNK     1     -12.438  15.512  68.854  1.00  0.00     0.269 C  
HETATM   14  H   UNK     1     -12.831  12.431  68.795  1.00  0.00     0.000 HD 
HETATM   15  C   UNK     1     -12.564  16.872  69.551  1.00  0.00     3.481 C  
HETATM   16  O   UNK     1     -13.121  15.280  67.860  1.00  0.00     1.961 OA 
HETATM   17  C   UNK     1      -6.105  10.145  66.400  1.00  0.00    -0.070 A  
HETATM   18  H   UNK     1     -12.754  13.212  70.361  1.00  0.00     0.000 HD 
HETATM   19  O   UNK     1      -8.269   9.285  66.584  1.00  0.00    -0.113 OA 
HETATM   20  H   UNK     1      -5.381  14.323  68.698  1.00  0.00     0.000 HD 
HETATM   21  H   UNK     1      -8.013   8.503  66.109  1.00  0.00     0.000 HD 
HETATM   22  C   UNK     1      -5.154  11.127  66.647  1.00  0.00    -0.097 A  
HETATM   23  C   UNK     1     -12.373  16.665  70.876  1.00  0.00     1.615 C  
HETATM   24  C   UNK     1     -10.894  16.261  71.306  1.00  0.00     0.527 C  
HETATM   25  C   UNK     1      -6.770  12.963  70.303  1.00  0.00     0.649 C  
HETATM   26  O   UNK     1      -6.272  14.648  68.640  1.00  0.00    -0.081 OA 
HETATM   27  O   UNK     1     -13.379  16.036  71.619  1.00  0.00    -0.424 OA 
HETATM   28  C   UNK     1      -5.503  12.253  67.392  1.00  0.00    -0.127 A  
HETATM   29  C   UNK     1      -7.116  13.517  68.904  1.00  0.00    -0.093 C  
HETATM   30  C   UNK     1      -6.815  12.432  67.888  1.00  0.00    -0.099 A  
HETATM   31  H   UNK     1     -13.245  15.891  72.548  1.00  0.00     0.000 HD 
ENDROOT
BRANCH  15  32
HETATM   32  C   UNK     1     -11.812  18.132  69.170  1.00  0.00     4.471 C  
HETATM   33  H   UNK     1     -11.740  17.803  67.103  1.00  0.00     0.000 HD 
HETATM   34  O   UNK     1     -11.510  18.948  70.048  1.00  0.00     3.884 OA 
HETATM   35  N   UNK     1     -11.464  18.412  67.873  1.00  0.00     0.663 N  
BRANCH  35  36
HETATM   36  C   UNK     1     -10.686  19.610  67.649  1.00  0.00    -0.367 C  
BRANCH  36  37
HETATM   37  N   UNK     1      -9.571  19.256  66.796  1.00  0.00    -0.317 NA 
HETATM   38  H   UNK     1      -9.742  19.498  65.820  1.00  0.00     0.000 HD 
BRANCH  37  39
HETATM   39  C   UNK     1      -8.333  19.873  67.311  1.00  0.00    -0.322 C  
BRANCH  39  40
HETATM   40  C   UNK     1      -8.540  20.569  68.668  1.00  0.00     0.605 C  
BRANCH  40  41
HETATM   41  C   UNK     1      -9.150  19.658  69.740  1.00  0.00     0.550 C  
BRANCH  41  42
HETATM   42  C   UNK     1      -9.851  20.468  70.845  1.00  0.00     1.853 C  
BRANCH  42  43
HETATM   43  C   UNK     1      -8.977  20.758  72.075  1.00  0.00     2.676 C  
HETATM   44  C   UNK     1      -9.143  19.662  73.139  1.00  0.00     4.518 C  
HETATM   45  N   UNK     1      -7.533  20.865  71.719  1.00  0.00     1.059 NA 
HETATM   46  O   UNK     1     -10.094  19.553  73.895  1.00  0.00     2.660 OA 
HETATM   47  O   UNK     1      -8.092  18.799  73.120  1.00  0.00     6.749 OA 
HETATM   48  H2  UNK     1      -7.382  21.556  70.985  1.00  0.00     0.000 HD 
HETATM   49  H1  UNK     1      -6.953  21.058  72.535  1.00  0.00     0.000 HD 
ENDBRANCH  42  43
ENDBRANCH  41  42
ENDBRANCH  40  41
ENDBRANCH  39  40
ENDBRANCH  37  39
ENDBRANCH  36  37
ENDBRANCH  35  36
ENDBRANCH  15  32
BRANCH  24  50
HETATM   50  N   UNK     1     -10.913  15.746  72.695  1.00  0.00     0.614 NA 
HETATM   51  C   UNK     1      -9.674  15.759  73.441  1.00  0.00     9.401 C  
HETATM   52  C   UNK     1     -11.977  16.393  73.473  1.00  0.00    -0.345 C  
ENDBRANCH  24  50
TORSDOF 9
ENDMDL
MODEL      170
REMARK 921   NORMALIZED FREE ENERGY PREDICTED BY IDOCK:   40.74 KCAL/MOL
REMARK 922        TOTAL FREE ENERGY PREDICTED BY IDOCK:   60.78 KCAL/MOL
REMARK 923 INTER-LIGAND FREE ENERGY PREDICTED BY IDOCK:   58.12 KCAL/MOL
REMARK 924 INTRA-LIGAND FREE ENERGY PREDICTED BY IDOCK:    2.66 KCAL/MOL
REMARK 927      BINDING AFFINITY PREDICTED BY RF-SCORE:    0.00 PKD
ROOT
HETATM    1  C   UNK     1      -8.408  12.613  66.535  1.00  0.00     0.182 C  
HETATM    2  C   UNK     1      -9.147  13.281  67.680  1.00  0.00    -0.204 C  
HETATM    3  C   UNK     1      -9.409  14.797  67.438  1.00  0.00    -0.199 C  
HETATM    4  C   UNK     1      -8.135  15.506  67.041  1.00  0.00    -0.272 C  
HETATM    5  C   UNK     1      -7.892  16.897  67.564  1.00  0.00    -0.169 C  
HETATM    6  C   UNK     1      -7.205  14.893  66.289  1.00  0.00     2.678 C  
HETATM    7  O   UNK     1      -5.969  15.491  66.006  1.00  0.00     2.225 OA 
HETATM    8  C   UNK     1      -7.220  13.404  65.938  1.00  0.00     4.711 C  
HETATM    9  C   UNK     1      -8.982  17.612  68.272  1.00  0.00    -0.276 A  
HETATM   10  O   UNK     1      -6.805  17.455  67.411  1.00  0.00    -0.152 OA 
HETATM   11  C   UNK     1      -8.859  18.979  68.574  1.00  0.00    -0.362 A  
HETATM   12  O   UNK     1      -5.996  12.968  66.543  1.00  0.00     0.147 OA 
HETATM   13  C   UNK     1      -7.321  12.951  64.393  1.00  0.00    10.468 C  
HETATM   14  H   UNK     1      -5.311  15.058  65.475  1.00  0.00     0.000 HD 
HETATM   15  C   UNK     1      -7.752  11.498  64.154  1.00  0.00     1.774 C  
HETATM   16  O   UNK     1      -7.023  13.654  63.431  1.00  0.00    14.552 OA 
HETATM   17  C   UNK     1      -9.899  19.682  69.185  1.00  0.00    -0.408 A  
HETATM   18  H   UNK     1      -5.267  13.453  66.177  1.00  0.00     0.000 HD 
HETATM   19  O   UNK     1      -7.727  19.709  68.326  1.00  0.00    -0.307 OA 
HETATM   20  H   UNK     1     -12.000  15.341  69.254  1.00  0.00     0.000 HD 
HETATM   21  H   UNK     1      -7.643  20.633  68.530  1.00  0.00     0.000 HD 
HETATM   22  C   UNK     1     -11.080  19.024  69.505  1.00  0.00     2.447 A  
HETATM   23  C   UNK     1      -7.319  10.772  65.212  1.00  0.00     0.105 C  
HETATM   24  C   UNK     1      -8.053  11.063  66.596  1.00  0.00    -0.155 C  
HETATM   25  C   UNK     1      -9.636  14.900  70.010  1.00  0.00     0.315 C  
HETATM   26  O   UNK     1     -11.534  14.971  68.513  1.00  0.00    -0.288 OA 
HETATM   27  O   UNK     1      -5.953  10.492  65.335  1.00  0.00    -0.120 OA 
HETATM   28  C   UNK     1     -11.194  17.655  69.262  1.00  0.00     1.179 A  
HETATM   29  C   UNK     1     -10.173  15.404  68.654  1.00  0.00    -0.217 C  
HETATM   30  C   UNK     1     -10.139  16.920  68.675  1.00  0.00    -0.291 A  
HETATM   31  H   UNK     1      -5.650   9.983  66.077  1.00  0.00     0.000 HD 
ENDROOT
BRANCH  15  32
HETATM   32  C   UNK     1      -9.157  11.037  63.824  1.00  0.00    -0.128 C  
HETATM   33  H   UNK     1     -10.060  12.925  63.736  1.00  0.00     0.000 HD 
HETATM   34  O   UNK     1      -9.380   9.832  63.667  1.00  0.00    -0.253 OA 
HETATM   35  N   UNK     1     -10.200  11.916  63.676  1.00  0.00    -0.401 N  
BRANCH  35  36
HETATM   36  C   UNK     1     -11.506  11.347  63.431  1.00  0.00    -0.023 C  
BRANCH  36  37
HETATM   37  N   UNK     1     -12.474  12.144  64.155  1.00  0.00    -0.447 NA 
HETATM   38  H   UNK     1     -12.835  12.915  63.592  1.00  0.00     0.000 HD 
BRANCH  37  39
HETATM   39  C   UNK     1     -13.554  11.277  64.664  1.00  0.00     4.495 C  
BRANCH  39  40
HETATM   40  C   UNK     1     -13.500  11.100  66.192  1.00  0.00    10.638 C  
BRANCH  40  41
HETATM   41  C   UNK     1     -12.528  10.009  66.651  1.00  0.00     7.593 C  
BRANCH  41  42
HETATM   42  C   UNK     1     -11.167  10.594  67.067  1.00  0.00    -0.117 C  
BRANCH  42  43
HETATM   43  C   UNK     1     -10.766  10.307  68.523  1.00  0.00    -0.227 C  
HETATM   44  C   UNK     1     -11.943  10.559  69.477  1.00  0.00    -0.186 C  
HETATM   45  N   UNK     1     -10.295   8.903  68.703  1.00  0.00    -0.204 NA 
HETATM   46  O   UNK     1     -12.328  11.656  69.846  1.00  0.00    -0.239 OA 
HETATM   47  O   UNK     1     -12.529   9.390  69.850  1.00  0.00     0.498 OA 
HETATM   48  H2  UNK     1      -9.537   8.680  68.059  1.00  0.00     0.000 HD 
HETATM   49  H1  UNK     1     -10.029   8.713  69.669  1.00  0.00     0.000 HD 
ENDBRANCH  42  43
ENDBRANCH  41  42
ENDBRANCH  40  41
ENDBRANCH  39  40
ENDBRANCH  37  39
ENDBRANCH  36  37
ENDBRANCH  35  36
ENDBRANCH  15  32
BRANCH  24  50
HETATM   50  N   UNK     1      -7.267  10.464  67.700  1.00  0.00    -0.086 NA 
HETATM   51  C   UNK     1      -6.185  11.242  68.264  1.00  0.00    -0.045 C  
HETATM   52  C   UNK     1      -8.154   9.986  68.767  1.00  0.00    -0.106 C  
ENDBRANCH  24  50
TORSDOF 9
ENDMDL
MODEL      171
REMARK 921   NORMALIZED FREE ENERGY PREDICTED BY IDOCK:   42.76 KCAL/MOL
REMARK 922        TOTAL FREE ENERGY PREDICTED BY IDOCK:   63.86 KCAL/MOL
REMARK 923 INTER-LIGAND FREE ENERGY PREDICTED BY IDOCK:   52.67 KCAL/MOL
REMARK 924 INTRA-LIGAND FREE ENERGY PREDICTED BY IDOCK:   11.19 KCAL/MOL
REMARK 927      BINDING AFFINITY PREDICTED BY RF-SCORE:    0.00 PKD
ROOT
HETATM    1  C   UNK     1     -10.405   7.723  67.282  1.00  0.00    -0.371 C  
HETATM    2  C   UNK     1     -10.624   8.507  68.564  1.00  0.00    -0.154 C  
HETATM    3  C   UNK     1      -9.501   8.283  69.619  1.00  0.00    -0.163 C  
HETATM    4  C   UNK     1      -9.261   6.807  69.843  1.00  0.00    -0.147 C  
HETATM    5  C   UNK     1      -8.961   6.331  71.239  1.00  0.00    -0.139 C  
HETATM    6  C   UNK     1      -9.373   5.925  68.835  1.00  0.00    -0.126 C  
HETATM    7  O   UNK     1      -9.268   4.543  69.045  1.00  0.00    -0.114 OA 
HETATM    8  C   UNK     1      -9.939   6.257  67.453  1.00  0.00    -0.139 C  
HETATM    9  C   UNK     1      -8.701   7.324  72.310  1.00  0.00    -0.136 A  
HETATM   10  O   UNK     1      -8.921   5.129  71.508  1.00  0.00    -0.134 OA 
HETATM   11  C   UNK     1      -8.206   6.912  73.559  1.00  0.00    -0.105 A  
HETATM   12  O   UNK     1     -11.073   5.381  67.403  1.00  0.00    -0.189 OA 
HETATM   13  C   UNK     1      -9.001   6.101  66.149  1.00  0.00    -0.155 C  
HETATM   14  H   UNK     1      -9.348   3.919  68.333  1.00  0.00     0.000 HD 
HETATM   15  C   UNK     1      -9.482   6.838  64.893  1.00  0.00     1.429 C  
HETATM   16  O   UNK     1      -7.994   5.400  66.086  1.00  0.00    -0.102 OA 
HETATM   17  C   UNK     1      -7.899   7.838  74.557  1.00  0.00    -0.250 A  
HETATM   18  H   UNK     1     -10.787   4.482  67.508  1.00  0.00     0.000 HD 
HETATM   19  O   UNK     1      -8.015   5.599  73.900  1.00  0.00    -0.106 OA 
HETATM   20  H   UNK     1      -9.631  10.988  71.342  1.00  0.00     0.000 HD 
HETATM   21  H   UNK     1      -7.681   5.320  74.745  1.00  0.00     0.000 HD 
HETATM   22  C   UNK     1      -8.085   9.194  74.319  1.00  0.00     1.102 A  
HETATM   23  C   UNK     1     -10.835   6.887  64.950  1.00  0.00     6.925 C  
HETATM   24  C   UNK     1     -11.445   7.826  66.082  1.00  0.00     4.201 C  
HETATM   25  C   UNK     1     -11.286   9.087  71.305  1.00  0.00    -0.389 C  
HETATM   26  O   UNK     1      -9.450  10.475  70.562  1.00  0.00     0.629 OA 
HETATM   27  O   UNK     1     -11.570   5.720  64.714  1.00  0.00     2.515 OA 
HETATM   28  C   UNK     1      -8.628   9.612  73.105  1.00  0.00     4.040 A  
HETATM   29  C   UNK     1      -9.798   9.123  70.896  1.00  0.00    -0.291 C  
HETATM   30  C   UNK     1      -8.977   8.687  72.095  1.00  0.00    -0.270 A  
HETATM   31  H   UNK     1     -12.518   5.754  64.754  1.00  0.00     0.000 HD 
ENDROOT
BRANCH  15  32
HETATM   32  C   UNK     1      -8.992   8.193  64.423  1.00  0.00     0.647 C  
HETATM   33  H   UNK     1      -9.272   7.896  62.369  1.00  0.00     0.000 HD 
HETATM   34  O   UNK     1      -8.641   9.035  65.257  1.00  0.00    -0.154 OA 
HETATM   35  N   UNK     1      -8.938   8.530  63.095  1.00  0.00     0.340 N  
BRANCH  35  36
HETATM   36  C   UNK     1      -8.386   9.826  62.771  1.00  0.00    -0.160 C  
BRANCH  36  37
HETATM   37  N   UNK     1      -8.571  10.683  63.924  1.00  0.00    -0.297 NA 
HETATM   38  H   UNK     1      -8.171  11.611  63.782  1.00  0.00     0.000 HD 
BRANCH  37  39
HETATM   39  C   UNK     1     -10.002  10.743  64.277  1.00  0.00    -0.341 C  
BRANCH  39  40
HETATM   40  C   UNK     1     -10.237  10.733  65.798  1.00  0.00    -0.319 C  
BRANCH  40  41
HETATM   41  C   UNK     1      -9.025  11.202  66.611  1.00  0.00    -0.175 C  
BRANCH  41  42
HETATM   42  C   UNK     1      -8.182  10.017  67.115  1.00  0.00    -0.117 C  
BRANCH  42  43
HETATM   43  C   UNK     1      -6.686  10.109  66.777  1.00  0.00    -0.077 C  
HETATM   44  C   UNK     1      -6.186   8.805  66.136  1.00  0.00    -0.059 C  
HETATM   45  N   UNK     1      -6.393  11.241  65.850  1.00  0.00    -0.371 NA 
HETATM   46  O   UNK     1      -5.941   7.774  66.739  1.00  0.00    -0.044 OA 
HETATM   47  O   UNK     1      -6.068   8.937  64.788  1.00  0.00    -0.064 OA 
HETATM   48  H2  UNK     1      -6.745  12.123  66.220  1.00  0.00     0.000 HD 
HETATM   49  H1  UNK     1      -5.400  11.302  65.626  1.00  0.00     0.000 HD 
ENDBRANCH  42  43
ENDBRANCH  41  42
ENDBRANCH  40  41
ENDBRANCH  39  40
ENDBRANCH  37  39
ENDBRANCH  36  37
ENDBRANCH  35  36
ENDBRANCH  15  32
BRANCH  24  50
HETATM   50  N   UNK     1     -12.886   7.523  66.242  1.00  0.00    10.489 NA 
HETATM   51  C   UNK     1     -13.435   6.416  65.490  1.00  0.00    11.418 C  
HETATM   52  C   UNK     1     -13.233   7.388  67.663  1.00  0.00    14.594 C  
ENDBRANCH  24  50
TORSDOF 9
ENDMDL
MODEL      172
REMARK 921   NORMALIZED FREE ENERGY PREDICTED BY IDOCK:   46.84 KCAL/MOL
REMARK 922        TOTAL FREE ENERGY PREDICTED BY IDOCK:   70.10 KCAL/MOL
REMARK 923 INTER-LIGAND FREE ENERGY PREDICTED BY IDOCK:   41.38 KCAL/MOL
REMARK 924 INTRA-LIGAND FREE ENERGY PREDICTED BY IDOCK:   28.72 KCAL/MOL
REMARK 927      BINDING AFFINITY PREDICTED BY RF-SCORE:    0.00 PKD
ROOT
HETATM    1  C   UNK     1      -9.583   8.587  66.779  1.00  0.00    -0.273 C  
HETATM    2  C   UNK     1      -9.295   9.729  65.820  1.00  0.00    -0.278 C  
HETATM    3  C   UNK     1      -8.938  11.061  66.543  1.00  0.00    -0.181 C  
HETATM    4  C   UNK     1      -9.970  11.396  67.594  1.00  0.00    -0.196 C  
HETATM    5  C   UNK     1     -10.362  12.836  67.785  1.00  0.00    -0.221 C  
HETATM    6  C   UNK     1     -10.577  10.429  68.305  1.00  0.00    -0.212 C  
HETATM    7  O   UNK     1     -11.617  10.710  69.201  1.00  0.00    -0.291 OA 
HETATM    8  C   UNK     1     -10.462   8.933  68.004  1.00  0.00    -0.208 C  
HETATM    9  C   UNK     1      -9.588  13.901  67.100  1.00  0.00    -0.247 A  
HETATM   10  O   UNK     1     -11.311  13.149  68.506  1.00  0.00    -0.248 OA 
HETATM   11  C   UNK     1      -9.789  15.253  67.429  1.00  0.00    -0.217 A  
HETATM   12  O   UNK     1     -11.829   8.604  67.727  1.00  0.00     1.434 OA 
HETATM   13  C   UNK     1      -9.817   7.946  69.107  1.00  0.00    -0.174 C  
HETATM   14  H   UNK     1     -12.046  10.027  69.703  1.00  0.00     0.000 HD 
HETATM   15  C   UNK     1      -9.354   6.580  68.585  1.00  0.00    -0.125 C  
HETATM   16  O   UNK     1      -9.737   8.189  70.308  1.00  0.00    -0.174 OA 
HETATM   17  C   UNK     1      -9.028  16.262  66.838  1.00  0.00    -0.242 A  
HETATM   18  H   UNK     1     -12.368   8.816  68.479  1.00  0.00     0.000 HD 
HETATM   19  O   UNK     1     -10.743  15.681  68.314  1.00  0.00    -0.263 OA 
HETATM   20  H   UNK     1      -7.168  12.581  64.338  1.00  0.00     0.000 HD 
HETATM   21  H   UNK     1     -10.879  16.594  68.537  1.00  0.00     0.000 HD 
HETATM   22  C   UNK     1      -8.054  15.933  65.905  1.00  0.00     0.790 A  
HETATM   23  C   UNK     1     -10.153   6.259  67.539  1.00  0.00    -0.154 C  
HETATM   24  C   UNK     1      -9.962   7.143  66.228  1.00  0.00     0.102 C  
HETATM   25  C   UNK     1      -9.653  12.156  64.314  1.00  0.00     0.037 C  
HETATM   26  O   UNK     1      -7.341  11.901  64.979  1.00  0.00     1.940 OA 
HETATM   27  O   UNK     1     -11.475   5.871  67.783  1.00  0.00    -0.137 OA 
HETATM   28  C   UNK     1      -7.883  14.601  65.527  1.00  0.00     5.281 A  
HETATM   29  C   UNK     1      -8.654  12.175  65.491  1.00  0.00     0.748 C  
HETATM   30  C   UNK     1      -8.667  13.568  66.090  1.00  0.00     0.544 A  
HETATM   31  H   UNK     1     -12.034   5.646  67.050  1.00  0.00     0.000 HD 
ENDROOT
BRANCH  15  32
HETATM   32  C   UNK     1      -7.933   6.215  68.208  1.00  0.00    -0.107 C  
HETATM   33  H   UNK     1      -7.411   8.022  67.287  1.00  0.00     0.000 HD 
HETATM   34  O   UNK     1      -7.483   5.110  68.533  1.00  0.00    -0.072 OA 
HETATM   35  N   UNK     1      -7.112   7.077  67.527  1.00  0.00    -0.082 N  
BRANCH  35  36
HETATM   36  C   UNK     1      -5.802   6.585  67.165  1.00  0.00    -0.017 C  
BRANCH  36  37
HETATM   37  N   UNK     1      -5.597   5.331  67.860  1.00  0.00    -0.012 NA 
HETATM   38  H   UNK     1      -4.628   5.210  68.157  1.00  0.00     0.000 HD 
BRANCH  37  39
HETATM   39  C   UNK     1      -6.540   5.226  68.990  1.00  0.00    -0.051 C  
BRANCH  39  40
HETATM   40  C   UNK     1      -6.445   6.422  69.953  1.00  0.00    -0.047 C  
BRANCH  40  41
HETATM   41  C   UNK     1      -7.223   7.656  69.481  1.00  0.00    -0.080 C  
BRANCH  41  42
HETATM   42  C   UNK     1      -6.835   8.915  70.275  1.00  0.00    -0.045 C  
BRANCH  42  43
HETATM   43  C   UNK     1      -7.533   9.052  71.637  1.00  0.00     0.055 C  
HETATM   44  C   UNK     1      -6.812  10.079  72.523  1.00  0.00     2.182 C  
HETATM   45  N   UNK     1      -8.960   9.464  71.491  1.00  0.00    -0.274 NA 
HETATM   46  O   UNK     1      -5.772   9.881  73.127  1.00  0.00    -0.303 OA 
HETATM   47  O   UNK     1      -7.476  11.266  72.536  1.00  0.00     8.095 OA 
HETATM   48  H2  UNK     1      -9.468   8.829  70.875  1.00  0.00     0.000 HD 
HETATM   49  H1  UNK     1      -9.423   9.554  72.395  1.00  0.00     0.000 HD 
ENDBRANCH  42  43
ENDBRANCH  41  42
ENDBRANCH  40  41
ENDBRANCH  39  40
ENDBRANCH  37  39
ENDBRANCH  36  37
ENDBRANCH  35  36
ENDBRANCH  15  32
BRANCH  24  50
HETATM   50  N   UNK     1     -11.104   6.909  65.312  1.00  0.00     5.087 NA 
HETATM   51  C   UNK     1     -12.350   6.448  65.885  1.00  0.00     5.967 C  
HETATM   52  C   UNK     1     -11.342   8.088  64.469  1.00  0.00    14.047 C  
ENDBRANCH  24  50
TORSDOF 9
ENDMDL
MODEL      173
REMARK 921   NORMALIZED FREE ENERGY PREDICTED BY IDOCK:   48.65 KCAL/MOL
REMARK 922        TOTAL FREE ENERGY PREDICTED BY IDOCK:   72.86 KCAL/MOL
REMARK 923 INTER-LIGAND FREE ENERGY PREDICTED BY IDOCK:   72.19 KCAL/MOL
REMARK 924 INTRA-LIGAND FREE ENERGY PREDICTED BY IDOCK:    0.67 KCAL/MOL
REMARK 927      BINDING AFFINITY PREDICTED BY RF-SCORE:    0.00 PKD
ROOT
HETATM    1  C   UNK     1     -10.315  14.472  69.680  1.00  0.00     0.043 C  
HETATM    2  C   UNK     1     -11.040  14.601  68.353  1.00  0.00    -0.270 C  
HETATM    3  C   UNK     1     -10.531  15.793  67.490  1.00  0.00    -0.288 C  
HETATM    4  C   UNK     1     -10.510  17.070  68.298  1.00  0.00    -0.363 C  
HETATM    5  C   UNK     1     -10.902  18.357  67.621  1.00  0.00    -0.259 C  
HETATM    6  C   UNK     1     -10.208  17.058  69.608  1.00  0.00    -0.008 C  
HETATM    7  O   UNK     1     -10.294  18.213  70.398  1.00  0.00     0.525 OA 
HETATM    8  C   UNK     1     -10.067  15.790  70.452  1.00  0.00     0.203 C  
HETATM    9  C   UNK     1     -11.093  18.380  66.150  1.00  0.00     0.461 A  
HETATM   10  O   UNK     1     -11.062  19.394  68.267  1.00  0.00     0.135 OA 
HETATM   11  C   UNK     1     -11.242  19.601  65.470  1.00  0.00     0.410 A  
HETATM   12  O   UNK     1     -11.108  15.986  71.418  1.00  0.00    -0.224 OA 
HETATM   13  C   UNK     1      -8.653  15.451  71.151  1.00  0.00     3.341 C  
HETATM   14  H   UNK     1     -10.082  18.204  71.325  1.00  0.00     0.000 HD 
HETATM   15  C   UNK     1      -8.469  13.998  71.606  1.00  0.00     7.769 C  
HETATM   16  O   UNK     1      -7.772  16.272  71.391  1.00  0.00     4.674 OA 
HETATM   17  C   UNK     1     -11.363  19.644  64.080  1.00  0.00     5.537 A  
HETATM   18  H   UNK     1     -10.956  16.795  71.892  1.00  0.00     0.000 HD 
HETATM   19  O   UNK     1     -11.307  20.814  66.102  1.00  0.00     1.645 OA 
HETATM   20  H   UNK     1     -11.259  14.842  64.512  1.00  0.00     0.000 HD 
HETATM   21  H   UNK     1     -11.408  21.640  65.642  1.00  0.00     0.000 HD 
HETATM   22  C   UNK     1     -11.338  18.464  63.350  1.00  0.00    12.303 A  
HETATM   23  C   UNK     1      -9.696  13.518  71.923  1.00  0.00    11.440 C  
HETATM   24  C   UNK     1     -10.692  13.308  70.699  1.00  0.00     2.604 C  
HETATM   25  C   UNK     1     -12.832  15.596  66.331  1.00  0.00     2.570 C  
HETATM   26  O   UNK     1     -10.777  14.806  65.331  1.00  0.00    -0.322 OA 
HETATM   27  O   UNK     1     -10.315  13.953  73.100  1.00  0.00     4.963 OA 
HETATM   28  C   UNK     1     -11.248  17.242  64.016  1.00  0.00     2.866 A  
HETATM   29  C   UNK     1     -11.321  15.852  66.149  1.00  0.00     0.225 C  
HETATM   30  C   UNK     1     -11.159  17.176  65.426  1.00  0.00     0.182 A  
HETATM   31  H   UNK     1     -11.175  13.616  73.322  1.00  0.00     0.000 HD 
ENDROOT
BRANCH  15  32
HETATM   32  C   UNK     1      -7.738  12.918  70.835  1.00  0.00     5.932 C  
HETATM   33  H   UNK     1      -9.160  12.637  69.324  1.00  0.00     0.000 HD 
HETATM   34  O   UNK     1      -6.618  12.554  71.213  1.00  0.00     1.203 OA 
HETATM   35  N   UNK     1      -8.268  12.333  69.714  1.00  0.00     1.617 N  
BRANCH  35  36
HETATM   36  C   UNK     1      -7.503  11.265  69.109  1.00  0.00    -0.084 C  
BRANCH  36  37
HETATM   37  N   UNK     1      -6.638  11.857  68.110  1.00  0.00    -0.054 NA 
HETATM   38  H   UNK     1      -5.674  11.937  68.435  1.00  0.00     0.000 HD 
BRANCH  37  39
HETATM   39  C   UNK     1      -6.736  11.096  66.850  1.00  0.00    -0.128 C  
BRANCH  39  40
HETATM   40  C   UNK     1      -8.188  10.734  66.490  1.00  0.00    -0.148 C  
BRANCH  40  41
HETATM   41  C   UNK     1      -8.340   9.336  65.879  1.00  0.00    -0.122 C  
BRANCH  41  42
HETATM   42  C   UNK     1      -8.611   8.269  66.954  1.00  0.00    -0.122 C  
BRANCH  42  43
HETATM   43  C   UNK     1      -9.547   7.135  66.507  1.00  0.00    -0.144 C  
HETATM   44  C   UNK     1      -9.057   6.504  65.195  1.00  0.00     0.439 C  
HETATM   45  N   UNK     1      -9.657   6.065  67.540  1.00  0.00    -0.112 NA 
HETATM   46  O   UNK     1      -9.192   6.993  64.085  1.00  0.00     1.256 OA 
HETATM   47  O   UNK     1      -8.425   5.323  65.426  1.00  0.00    -0.132 OA 
HETATM   48  H2  UNK     1      -9.943   6.448  68.441  1.00  0.00     0.000 HD 
HETATM   49  H1  UNK     1     -10.279   5.313  67.243  1.00  0.00     0.000 HD 
ENDBRANCH  42  43
ENDBRANCH  41  42
ENDBRANCH  40  41
ENDBRANCH  39  40
ENDBRANCH  37  39
ENDBRANCH  36  37
ENDBRANCH  35  36
ENDBRANCH  15  32
BRANCH  24  50
HETATM   50  N   UNK     1     -12.066  13.112  71.217  1.00  0.00     0.033 NA 
HETATM   51  C   UNK     1     -13.142  12.980  70.258  1.00  0.00     0.614 C  
HETATM   52  C   UNK     1     -12.105  11.999  72.174  1.00  0.00     1.976 C  
ENDBRANCH  24  50
TORSDOF 9
ENDMDL
MODEL      174
REMARK 921   NORMALIZED FREE ENERGY PREDICTED BY IDOCK:   58.14 KCAL/MOL
REMARK 922        TOTAL FREE ENERGY PREDICTED BY IDOCK:   87.34 KCAL/MOL
REMARK 923 INTER-LIGAND FREE ENERGY PREDICTED BY IDOCK:   31.37 KCAL/MOL
REMARK 924 INTRA-LIGAND FREE ENERGY PREDICTED BY IDOCK:   55.98 KCAL/MOL
REMARK 927      BINDING AFFINITY PREDICTED BY RF-SCORE:    0.00 PKD
ROOT
HETATM    1  C   UNK     1      -9.583   8.587  66.779  1.00  0.00    -0.273 C  
HETATM    2  C   UNK     1      -9.295   9.729  65.820  1.00  0.00    -0.278 C  
HETATM    3  C   UNK     1      -8.938  11.061  66.543  1.00  0.00    -0.181 C  
HETATM    4  C   UNK     1      -9.970  11.396  67.594  1.00  0.00    -0.196 C  
HETATM    5  C   UNK     1     -10.362  12.836  67.785  1.00  0.00    -0.221 C  
HETATM    6  C   UNK     1     -10.577  10.429  68.305  1.00  0.00    -0.212 C  
HETATM    7  O   UNK     1     -11.617  10.710  69.201  1.00  0.00    -0.291 OA 
HETATM    8  C   UNK     1     -10.462   8.933  68.004  1.00  0.00    -0.208 C  
HETATM    9  C   UNK     1      -9.588  13.901  67.100  1.00  0.00    -0.247 A  
HETATM   10  O   UNK     1     -11.311  13.149  68.506  1.00  0.00    -0.248 OA 
HETATM   11  C   UNK     1      -9.789  15.253  67.429  1.00  0.00    -0.217 A  
HETATM   12  O   UNK     1     -11.829   8.604  67.727  1.00  0.00     1.434 OA 
HETATM   13  C   UNK     1      -9.817   7.946  69.107  1.00  0.00    -0.174 C  
HETATM   14  H   UNK     1     -12.046  10.027  69.703  1.00  0.00     0.000 HD 
HETATM   15  C   UNK     1      -9.354   6.580  68.585  1.00  0.00    -0.125 C  
HETATM   16  O   UNK     1      -9.737   8.189  70.308  1.00  0.00    -0.174 OA 
HETATM   17  C   UNK     1      -9.028  16.262  66.838  1.00  0.00    -0.242 A  
HETATM   18  H   UNK     1     -12.368   8.816  68.479  1.00  0.00     0.000 HD 
HETATM   19  O   UNK     1     -10.743  15.681  68.314  1.00  0.00    -0.263 OA 
HETATM   20  H   UNK     1      -7.168  12.581  64.338  1.00  0.00     0.000 HD 
HETATM   21  H   UNK     1     -10.879  16.594  68.537  1.00  0.00     0.000 HD 
HETATM   22  C   UNK     1      -8.054  15.933  65.905  1.00  0.00     0.790 A  
HETATM   23  C   UNK     1     -10.153   6.259  67.539  1.00  0.00    -0.154 C  
HETATM   24  C   UNK     1      -9.962   7.143  66.228  1.00  0.00     0.102 C  
HETATM   25  C   UNK     1      -9.653  12.156  64.314  1.00  0.00     0.037 C  
HETATM   26  O   UNK     1      -7.341  11.901  64.979  1.00  0.00     1.940 OA 
HETATM   27  O   UNK     1     -11.475   5.871  67.783  1.00  0.00    -0.137 OA 
HETATM   28  C   UNK     1      -7.883  14.601  65.527  1.00  0.00     5.281 A  
HETATM   29  C   UNK     1      -8.654  12.175  65.491  1.00  0.00     0.748 C  
HETATM   30  C   UNK     1      -8.667  13.568  66.090  1.00  0.00     0.544 A  
HETATM   31  H   UNK     1     -12.034   5.646  67.050  1.00  0.00     0.000 HD 
ENDROOT
BRANCH  15  32
HETATM   32  C   UNK     1      -7.933   6.215  68.208  1.00  0.00    -0.107 C  
HETATM   33  H   UNK     1      -7.411   8.022  67.287  1.00  0.00     0.000 HD 
HETATM   34  O   UNK     1      -7.483   5.110  68.533  1.00  0.00    -0.072 OA 
HETATM   35  N   UNK     1      -7.112   7.077  67.527  1.00  0.00    -0.082 N  
BRANCH  35  36
HETATM   36  C   UNK     1      -5.802   6.585  67.165  1.00  0.00    -0.017 C  
BRANCH  36  37
HETATM   37  N   UNK     1      -5.597   5.331  67.860  1.00  0.00    -0.012 NA 
HETATM   38  H   UNK     1      -4.628   5.210  68.157  1.00  0.00     0.000 HD 
BRANCH  37  39
HETATM   39  C   UNK     1      -6.540   5.226  68.990  1.00  0.00    -0.051 C  
BRANCH  39  40
HETATM   40  C   UNK     1      -6.445   6.422  69.953  1.00  0.00    -0.047 C  
BRANCH  40  41
HETATM   41  C   UNK     1      -7.223   7.656  69.481  1.00  0.00    -0.080 C  
BRANCH  41  42
HETATM   42  C   UNK     1      -7.181   7.807  67.950  1.00  0.00    -0.090 C  
BRANCH  42  43
HETATM   43  C   UNK     1      -5.902   8.465  67.409  1.00  0.00    -0.043 C  
HETATM   44  C   UNK     1      -5.751   8.215  65.901  1.00  0.00    -0.037 C  
HETATM   45  N   UNK     1      -5.887   9.936  67.655  1.00  0.00    -0.046 NA 
HETATM   46  O   UNK     1      -5.376   7.171  65.394  1.00  0.00    -0.027 OA 
HETATM   47  O   UNK     1      -6.115   9.313  65.185  1.00  0.00    -0.062 OA 
HETATM   48  H2  UNK     1      -6.024  10.149  68.643  1.00  0.00     0.000 HD 
HETATM   49  H1  UNK     1      -5.037  10.372  67.296  1.00  0.00     0.000 HD 
ENDBRANCH  42  43
ENDBRANCH  41  42
ENDBRANCH  40  41
ENDBRANCH  39  40
ENDBRANCH  37  39
ENDBRANCH  36  37
ENDBRANCH  35  36
ENDBRANCH  15  32
BRANCH  24  50
HETATM   50  N   UNK     1     -11.104   6.909  65.312  1.00  0.00     5.087 NA 
HETATM   51  C   UNK     1     -12.350   6.448  65.885  1.00  0.00     5.967 C  
HETATM   52  C   UNK     1     -11.342   8.088  64.469  1.00  0.00    14.047 C  
ENDBRANCH  24  50
TORSDOF 9
ENDMDL
MODEL      175
REMARK 921   NORMALIZED FREE ENERGY PREDICTED BY IDOCK:   98.97 KCAL/MOL
REMARK 922        TOTAL FREE ENERGY PREDICTED BY IDOCK:  149.65 KCAL/MOL
REMARK 923 INTER-LIGAND FREE ENERGY PREDICTED BY IDOCK:  147.69 KCAL/MOL
REMARK 924 INTRA-LIGAND FREE ENERGY PREDICTED BY IDOCK:    1.96 KCAL/MOL
REMARK 927      BINDING AFFINITY PREDICTED BY RF-SCORE:    0.00 PKD
ROOT
HETATM    1  C   UNK     1     -10.646  14.290  69.852  1.00  0.00     0.211 C  
HETATM    2  C   UNK     1     -10.769  14.013  68.365  1.00  0.00    -0.261 C  
HETATM    3  C   UNK     1      -9.827  14.900  67.497  1.00  0.00    -0.217 C  
HETATM    4  C   UNK     1      -9.979  16.359  67.859  1.00  0.00    -0.243 C  
HETATM    5  C   UNK     1      -9.921  17.384  66.758  1.00  0.00    -0.307 C  
HETATM    6  C   UNK     1     -10.222  16.739  69.126  1.00  0.00    -0.306 C  
HETATM    7  O   UNK     1     -10.479  18.076  69.461  1.00  0.00    -0.351 OA 
HETATM    8  C   UNK     1     -10.573  15.779  70.264  1.00  0.00    -0.284 C  
HETATM    9  C   UNK     1      -9.513  16.967  65.393  1.00  0.00     0.708 A  
HETATM   10  O   UNK     1     -10.202  18.564  66.969  1.00  0.00    -0.341 OA 
HETATM   11  C   UNK     1      -9.239  17.930  64.406  1.00  0.00     7.598 A  
HETATM   12  O   UNK     1     -11.880  16.246  70.623  1.00  0.00    -0.493 OA 
HETATM   13  C   UNK     1      -9.599  15.674  71.546  1.00  0.00     3.351 C  
HETATM   14  H   UNK     1     -10.652  18.344  70.356  1.00  0.00     0.000 HD 
HETATM   15  C   UNK     1      -9.778  14.423  72.415  1.00  0.00     6.675 C  
HETATM   16  O   UNK     1      -8.795  16.536  71.892  1.00  0.00     8.277 OA 
HETATM   17  C   UNK     1      -8.796  17.558  63.136  1.00  0.00    22.651 A  
HETATM   18  H   UNK     1     -11.835  17.160  70.876  1.00  0.00     0.000 HD 
HETATM   19  O   UNK     1      -9.408  19.276  64.596  1.00  0.00     2.692 OA 
HETATM   20  H   UNK     1      -9.426  13.101  64.869  1.00  0.00     0.000 HD 
HETATM   21  H   UNK     1      -9.223  19.927  63.929  1.00  0.00     0.000 HD 
HETATM   22  C   UNK     1      -8.621  16.214  62.834  1.00  0.00    24.684 A  
HETATM   23  C   UNK     1     -11.076  14.050  72.318  1.00  0.00     3.096 C  
HETATM   24  C   UNK     1     -11.526  13.479  70.901  1.00  0.00     0.795 C  
HETATM   25  C   UNK     1     -11.490  14.350  65.598  1.00  0.00    -0.336 C  
HETATM   26  O   UNK     1      -9.313  13.314  65.789  1.00  0.00    -0.022 OA 
HETATM   27  O   UNK     1     -12.055  14.810  72.968  1.00  0.00    -0.261 OA 
HETATM   28  C   UNK     1      -8.943  15.246  63.786  1.00  0.00    11.592 A  
HETATM   29  C   UNK     1     -10.011  14.552  65.990  1.00  0.00    -0.322 C  
HETATM   30  C   UNK     1      -9.425  15.602  65.066  1.00  0.00     0.776 A  
HETATM   31  H   UNK     1     -12.966  14.548  72.900  1.00  0.00     0.000 HD 
ENDROOT
BRANCH  15  32
HETATM   32  C   UNK     1      -8.932  13.169  72.341  1.00  0.00    18.518 C  
HETATM   33  H   UNK     1     -10.035  12.171  70.867  1.00  0.00     0.000 HD 
HETATM   34  O   UNK     1      -7.916  13.079  73.041  1.00  0.00    11.199 OA 
HETATM   35  N   UNK     1      -9.243  12.124  71.509  1.00  0.00    14.007 N  
BRANCH  35  36
HETATM   36  C   UNK     1      -8.396  10.955  71.582  1.00  0.00     7.971 C  
BRANCH  36  37
HETATM   37  N   UNK     1      -7.430  11.045  70.507  1.00  0.00     0.148 NA 
HETATM   38  H   UNK     1      -6.470  10.973  70.846  1.00  0.00     0.000 HD 
BRANCH  37  39
HETATM   39  C   UNK     1      -7.731  10.031  69.478  1.00  0.00    -0.146 C  
BRANCH  39  40
HETATM   40  C   UNK     1      -9.178  10.125  68.961  1.00  0.00    -0.188 C  
BRANCH  40  41
HETATM   41  C   UNK     1      -9.277  10.435  67.463  1.00  0.00    -0.156 C  
BRANCH  41  42
HETATM   42  C   UNK     1      -9.389   9.152  66.621  1.00  0.00    -0.228 C  
BRANCH  42  43
HETATM   43  C   UNK     1     -10.461   9.201  65.522  1.00  0.00     1.252 C  
HETATM   44  C   UNK     1     -10.339  10.488  64.692  1.00  0.00    -0.220 C  
HETATM   45  N   UNK     1     -10.370   8.029  64.604  1.00  0.00     3.892 NA 
HETATM   46  O   UNK     1     -10.716  11.593  65.046  1.00  0.00    -0.280 OA 
HETATM   47  O   UNK     1      -9.730  10.246  63.501  1.00  0.00    -0.298 OA 
HETATM   48  H2  UNK     1     -10.408   7.150  65.119  1.00  0.00     0.000 HD 
HETATM   49  H1  UNK     1     -11.083   8.062  63.874  1.00  0.00     0.000 HD 
ENDBRANCH  42  43
ENDBRANCH  41  42
ENDBRANCH  40  41
ENDBRANCH  39  40
ENDBRANCH  37  39
ENDBRANCH  36  37
ENDBRANCH  35  36
ENDBRANCH  15  32
BRANCH  24  50
HETATM   50  N   UNK     1     -13.006  13.434  70.842  1.00  0.00    -0.182 NA 
HETATM   51  C   UNK     1     -13.622  12.946  69.627  1.00  0.00     3.406 C  
HETATM   52  C   UNK     1     -13.551  12.723  72.005  1.00  0.00    -0.367 C  
ENDBRANCH  24  50
TORSDOF 9
ENDMDL
