MODEL        1
REMARK 921   NORMALIZED FREE ENERGY PREDICTED BY IDOCK:   -6.73 KCAL/MOL
REMARK 922        TOTAL FREE ENERGY PREDICTED BY IDOCK:   -7.35 KCAL/MOL
REMARK 923 INTER-LIGAND FREE ENERGY PREDICTED BY IDOCK:   -7.13 KCAL/MOL
REMARK 924 INTRA-LIGAND FREE ENERGY PREDICTED BY IDOCK:   -0.22 KCAL/MOL
REMARK 927      BINDING AFFINITY PREDICTED BY RF-SCORE:    0.00 PKD
ROOT
HETATM    1  C   UNL     1     -10.391  19.485  66.490  1.00  0.00    -0.583 C  
HETATM    2  C   UNL     1      -9.204  18.980  67.312  1.00  0.00    -0.321 C  
HETATM    3  C   UNL     1      -9.838  18.706  68.808  1.00  0.00    -0.422 C  
HETATM    4  C   UNL     1     -10.657  17.353  68.991  1.00  0.00    -0.207 C  
HETATM    5  C   UNL     1     -10.134  16.075  68.234  1.00  0.00    -0.229 C  
HETATM    6  C   UNL     1      -9.592  16.597  66.919  1.00  0.00    -0.259 C  
HETATM    7  C   UNL     1      -8.502  17.650  67.051  1.00  0.00    -0.252 C  
HETATM    8  C   UNL     1      -9.417  15.628  65.756  1.00  0.00    -0.338 C  
HETATM    9  C   UNL     1     -10.772  14.986  65.484  1.00  0.00    -0.372 C  
HETATM   10  C   UNL     1      -7.321  17.801  68.111  1.00  0.00    -0.238 C  
HETATM   11  C   UNL     1     -11.164  14.203  66.701  1.00  0.00    -0.330 C  
HETATM   12  C   UNL     1      -7.111  19.383  68.289  1.00  0.00    -0.319 C  
HETATM   13  C   UNL     1      -7.923  19.905  67.132  1.00  0.00    -0.302 C  
HETATM   14  C   UNL     1     -11.455  12.906  66.557  1.00  0.00    -0.390 C  
HETATM   15  C   UNL     1     -11.274  14.981  68.007  1.00  0.00    -0.324 C  
HETATM   16  O   UNL     1      -8.247  21.275  67.091  1.00  0.00    -0.624 OA 
HETATM   17  C   UNL     1     -11.894  12.016  67.656  1.00  0.00    -0.294 C  
HETATM   18  C   UNL     1     -11.481  14.075  69.246  1.00  0.00    -0.344 C  
HETATM   19  H   UNL     1      -7.482  21.827  66.983  1.00  0.00     0.000 HD 
HETATM   20  C   UNL     1     -11.658  12.565  69.057  1.00  0.00    -0.365 C  
ENDROOT
BRANCH  13  21
HETATM   21  C   UNL     1      -6.989  19.651  65.929  1.00  0.00    -0.296 C  
HETATM   22  C   UNL     1      -6.387  19.788  64.912  1.00  0.00    -0.320 C  
ENDBRANCH  13  21
TORSDOF 1
ENDMDL
MODEL        2
REMARK 921   NORMALIZED FREE ENERGY PREDICTED BY IDOCK:   -6.56 KCAL/MOL
REMARK 922        TOTAL FREE ENERGY PREDICTED BY IDOCK:   -7.17 KCAL/MOL
REMARK 923 INTER-LIGAND FREE ENERGY PREDICTED BY IDOCK:   -6.96 KCAL/MOL
REMARK 924 INTRA-LIGAND FREE ENERGY PREDICTED BY IDOCK:   -0.21 KCAL/MOL
REMARK 927      BINDING AFFINITY PREDICTED BY RF-SCORE:    0.00 PKD
ROOT
HETATM    1  C   UNL     1      -9.996  13.092  68.326  1.00  0.00    -0.236 C  
HETATM    2  C   UNL     1     -10.925  13.547  67.199  1.00  0.00    -0.302 C  
HETATM    3  C   UNL     1     -12.015  14.531  67.948  1.00  0.00    -0.322 C  
HETATM    4  C   UNL     1     -11.526  16.012  68.266  1.00  0.00    -0.291 C  
HETATM    5  C   UNL     1     -10.594  16.716  67.211  1.00  0.00    -0.281 C  
HETATM    6  C   UNL     1      -9.719  15.607  66.664  1.00  0.00    -0.266 C  
HETATM    7  C   UNL     1     -10.478  14.441  66.046  1.00  0.00    -0.307 C  
HETATM    8  C   UNL     1      -8.414  15.972  65.966  1.00  0.00    -0.097 C  
HETATM    9  C   UNL     1      -7.581  16.788  66.946  1.00  0.00    -0.252 C  
HETATM   10  C   UNL     1     -11.824  14.409  65.193  1.00  0.00    -0.386 C  
HETATM   11  C   UNL     1      -8.328  18.051  67.247  1.00  0.00    -0.234 C  
HETATM   12  C   UNL     1     -12.535  13.023  65.578  1.00  0.00    -0.496 C  
HETATM   13  C   UNL     1     -11.416  12.326  66.307  1.00  0.00    -0.380 C  
HETATM   14  C   UNL     1      -7.713  19.221  67.042  1.00  0.00    -0.263 C  
HETATM   15  C   UNL     1      -9.722  17.894  67.844  1.00  0.00    -0.288 C  
HETATM   16  O   UNL     1     -11.710  11.181  67.072  1.00  0.00    -0.460 OA 
HETATM   17  C   UNL     1      -8.306  20.546  67.329  1.00  0.00    -0.355 C  
HETATM   18  C   UNL     1     -10.505  19.227  67.936  1.00  0.00    -0.514 C  
HETATM   19  H   UNL     1     -12.003  10.452  66.539  1.00  0.00     0.000 HD 
HETATM   20  C   UNL     1      -9.815  20.538  67.544  1.00  0.00    -0.534 C  
ENDROOT
BRANCH  13  21
HETATM   21  C   UNL     1     -10.514  11.845  65.149  1.00  0.00    -0.330 C  
HETATM   22  C   UNL     1     -10.083  11.225  64.230  1.00  0.00    -0.366 C  
ENDBRANCH  13  21
TORSDOF 1
ENDMDL
MODEL        3
REMARK 921   NORMALIZED FREE ENERGY PREDICTED BY IDOCK:   -6.40 KCAL/MOL
REMARK 922        TOTAL FREE ENERGY PREDICTED BY IDOCK:   -6.99 KCAL/MOL
REMARK 923 INTER-LIGAND FREE ENERGY PREDICTED BY IDOCK:   -6.77 KCAL/MOL
REMARK 924 INTRA-LIGAND FREE ENERGY PREDICTED BY IDOCK:   -0.22 KCAL/MOL
REMARK 927      BINDING AFFINITY PREDICTED BY RF-SCORE:    0.00 PKD
ROOT
HETATM    1  C   UNL     1     -12.656  13.532  66.310  1.00  0.00    -0.298 C  
HETATM    2  C   UNL     1     -11.188  13.585  66.737  1.00  0.00    -0.327 C  
HETATM    3  C   UNL     1     -10.907  15.186  67.010  1.00  0.00    -0.314 C  
HETATM    4  C   UNL     1     -11.427  15.767  68.398  1.00  0.00    -0.367 C  
HETATM    5  C   UNL     1     -11.322  14.837  69.664  1.00  0.00    -0.316 C  
HETATM    6  C   UNL     1     -11.596  13.441  69.144  1.00  0.00    -0.365 C  
HETATM    7  C   UNL     1     -10.664  12.977  68.035  1.00  0.00    -0.248 C  
HETATM    8  C   UNL     1     -12.020  12.357  70.128  1.00  0.00    -0.376 C  
HETATM    9  C   UNL     1     -13.272  12.847  70.843  1.00  0.00     0.151 C  
HETATM   10  C   UNL     1      -9.109  13.242  67.803  1.00  0.00    -0.202 C  
HETATM   11  C   UNL     1     -12.910  14.077  71.618  1.00  0.00    -0.433 C  
HETATM   12  C   UNL     1      -8.922  13.294  66.209  1.00  0.00     0.106 C  
HETATM   13  C   UNL     1     -10.254  12.756  65.753  1.00  0.00    -0.289 C  
HETATM   14  C   UNL     1     -13.162  14.101  72.931  1.00  0.00    -0.553 C  
HETATM   15  C   UNL     1     -12.346  15.247  70.818  1.00  0.00    -0.433 C  
HETATM   16  O   UNL     1     -10.623  12.907  64.402  1.00  0.00    -0.351 OA 
HETATM   17  C   UNL     1     -12.897  15.256  73.818  1.00  0.00    -0.618 C  
HETATM   18  C   UNL     1     -11.809  16.396  71.707  1.00  0.00    -0.388 C  
HETATM   19  H   UNL     1     -10.065  12.411  63.815  1.00  0.00     0.000 HD 
HETATM   20  C   UNL     1     -11.977  16.318  73.228  1.00  0.00    -0.525 C  
ENDROOT
BRANCH  13  21
HETATM   21  C   UNL     1     -10.097  11.237  65.986  1.00  0.00    -0.283 C  
HETATM   22  C   UNL     1     -10.018  10.065  65.804  1.00  0.00    -0.346 C  
ENDBRANCH  13  21
TORSDOF 1
ENDMDL
MODEL        4
REMARK 921   NORMALIZED FREE ENERGY PREDICTED BY IDOCK:   -6.39 KCAL/MOL
REMARK 922        TOTAL FREE ENERGY PREDICTED BY IDOCK:   -6.99 KCAL/MOL
REMARK 923 INTER-LIGAND FREE ENERGY PREDICTED BY IDOCK:   -6.79 KCAL/MOL
REMARK 924 INTRA-LIGAND FREE ENERGY PREDICTED BY IDOCK:   -0.20 KCAL/MOL
REMARK 927      BINDING AFFINITY PREDICTED BY RF-SCORE:    0.00 PKD
ROOT
HETATM    1  C   UNL     1     -11.535  16.445  68.602  1.00  0.00    -0.224 C  
HETATM    2  C   UNL     1     -10.098  16.681  68.135  1.00  0.00    -0.267 C  
HETATM    3  C   UNL     1      -9.228  15.513  68.906  1.00  0.00    -0.218 C  
HETATM    4  C   UNL     1      -9.290  14.053  68.272  1.00  0.00    -0.208 C  
HETATM    5  C   UNL     1      -9.334  13.940  66.702  1.00  0.00    -0.282 C  
HETATM    6  C   UNL     1     -10.162  15.125  66.250  1.00  0.00    -0.300 C  
HETATM    7  C   UNL     1      -9.634  16.481  66.695  1.00  0.00    -0.275 C  
HETATM    8  C   UNL     1     -10.789  15.099  64.861  1.00  0.00    -0.437 C  
HETATM    9  C   UNL     1     -11.662  13.853  64.773  1.00  0.00    -0.399 C  
HETATM   10  C   UNL     1      -8.142  17.016  66.856  1.00  0.00    -0.252 C  
HETATM   11  C   UNL     1     -10.772  12.656  64.915  1.00  0.00    -0.327 C  
HETATM   12  C   UNL     1      -8.192  18.046  68.086  1.00  0.00    -0.275 C  
HETATM   13  C   UNL     1      -9.681  18.211  68.252  1.00  0.00    -0.337 C  
HETATM   14  C   UNL     1     -10.798  11.725  63.955  1.00  0.00    -0.468 C  
HETATM   15  C   UNL     1      -9.957  12.559  66.199  1.00  0.00    -0.267 C  
HETATM   16  O   UNL     1     -10.172  18.817  69.425  1.00  0.00    -0.445 OA 
HETATM   17  C   UNL     1     -10.008  10.473  63.975  1.00  0.00    -0.363 C  
HETATM   18  C   UNL     1      -8.918  11.411  66.183  1.00  0.00    -0.207 C  
HETATM   19  H   UNL     1      -9.923  19.731  69.495  1.00  0.00     0.000 HD 
HETATM   20  C   UNL     1      -8.872  10.451  64.990  1.00  0.00    -0.209 C  
ENDROOT
BRANCH  13  21
HETATM   21  C   UNL     1     -10.041  19.168  67.095  1.00  0.00    -0.457 C  
HETATM   22  C   UNL     1     -10.138  20.139  66.415  1.00  0.00    -0.569 C  
ENDBRANCH  13  21
TORSDOF 1
ENDMDL
MODEL        5
REMARK 921   NORMALIZED FREE ENERGY PREDICTED BY IDOCK:   -6.20 KCAL/MOL
REMARK 922        TOTAL FREE ENERGY PREDICTED BY IDOCK:   -6.79 KCAL/MOL
REMARK 923 INTER-LIGAND FREE ENERGY PREDICTED BY IDOCK:   -6.57 KCAL/MOL
REMARK 924 INTRA-LIGAND FREE ENERGY PREDICTED BY IDOCK:   -0.21 KCAL/MOL
REMARK 927      BINDING AFFINITY PREDICTED BY RF-SCORE:    0.00 PKD
ROOT
HETATM    1  C   UNL     1     -10.393  13.939  65.143  1.00  0.00    -0.403 C  
HETATM    2  C   UNL     1     -10.514  14.802  66.400  1.00  0.00    -0.294 C  
HETATM    3  C   UNL     1     -12.012  14.446  66.989  1.00  0.00    -0.424 C  
HETATM    4  C   UNL     1     -12.145  13.083  67.802  1.00  0.00    -0.244 C  
HETATM    5  C   UNL     1     -10.938  12.661  68.721  1.00  0.00    -0.289 C  
HETATM    6  C   UNL     1      -9.702  13.114  67.973  1.00  0.00    -0.224 C  
HETATM    7  C   UNL     1      -9.660  14.600  67.649  1.00  0.00    -0.212 C  
HETATM    8  C   UNL     1      -8.356  12.491  68.325  1.00  0.00    -0.167 C  
HETATM    9  C   UNL     1      -8.487  10.983  68.148  1.00  0.00    -0.135 C  
HETATM   10  C   UNL     1     -10.165  15.862  68.481  1.00  0.00    -0.226 C  
HETATM   11  C   UNL     1      -9.509  10.491  69.127  1.00  0.00    -0.205 C  
HETATM   12  C   UNL     1     -10.651  16.927  67.382  1.00  0.00    -0.294 C  
HETATM   13  C   UNL     1     -10.089  16.310  66.127  1.00  0.00    -0.344 C  
HETATM   14  C   UNL     1      -9.161   9.521  69.979  1.00  0.00    -0.255 C  
HETATM   15  C   UNL     1     -10.906  11.092  69.016  1.00  0.00    -0.276 C  
HETATM   16  O   UNL     1     -10.538  16.780  64.878  1.00  0.00    -0.702 OA 
HETATM   17  C   UNL     1     -10.070   8.907  70.973  1.00  0.00    -0.324 C  
HETATM   18  C   UNL     1     -11.843  10.688  70.181  1.00  0.00    -0.421 C  
HETATM   19  H   UNL     1     -10.284  17.680  64.714  1.00  0.00     0.000 HD 
HETATM   20  C   UNL     1     -11.354   9.687  71.232  1.00  0.00    -0.458 C  
ENDROOT
BRANCH  13  21
HETATM   21  C   UNL     1      -8.593  16.685  66.212  1.00  0.00    -0.359 C  
HETATM   22  C   UNL     1      -7.572  17.292  66.159  1.00  0.00    -0.318 C  
ENDBRANCH  13  21
TORSDOF 1
ENDMDL
MODEL        6
REMARK 921   NORMALIZED FREE ENERGY PREDICTED BY IDOCK:   -6.13 KCAL/MOL
REMARK 922        TOTAL FREE ENERGY PREDICTED BY IDOCK:   -6.71 KCAL/MOL
REMARK 923 INTER-LIGAND FREE ENERGY PREDICTED BY IDOCK:   -6.49 KCAL/MOL
REMARK 924 INTRA-LIGAND FREE ENERGY PREDICTED BY IDOCK:   -0.22 KCAL/MOL
REMARK 927      BINDING AFFINITY PREDICTED BY RF-SCORE:    0.00 PKD
ROOT
HETATM    1  C   UNL     1      -9.725  13.699  68.385  1.00  0.00    -0.217 C  
HETATM    2  C   UNL     1      -9.860  12.555  67.379  1.00  0.00    -0.201 C  
HETATM    3  C   UNL     1      -8.518  11.633  67.636  1.00  0.00    -0.142 C  
HETATM    4  C   UNL     1      -8.564  10.656  68.892  1.00  0.00    -0.158 C  
HETATM    5  C   UNL     1      -9.936   9.961  69.227  1.00  0.00    -0.217 C  
HETATM    6  C   UNL     1     -10.989  10.995  68.887  1.00  0.00    -0.277 C  
HETATM    7  C   UNL     1     -10.955  11.494  67.450  1.00  0.00    -0.317 C  
HETATM    8  C   UNL     1     -12.382  10.856  69.490  1.00  0.00    -0.241 C  
HETATM    9  C   UNL     1     -12.226  10.823  71.005  1.00  0.00    -0.485 C  
HETATM   10  C   UNL     1     -10.625  10.730  66.090  1.00  0.00    -0.241 C  
HETATM   11  C   UNL     1     -11.431   9.605  71.361  1.00  0.00    -0.455 C  
HETATM   12  C   UNL     1      -9.917  11.824  65.152  1.00  0.00    -0.285 C  
HETATM   13  C   UNL     1     -10.211  13.086  65.921  1.00  0.00    -0.292 C  
HETATM   14  C   UNL     1     -11.953   8.734  72.231  1.00  0.00    -0.415 C  
HETATM   15  C   UNL     1     -10.038   9.496  70.751  1.00  0.00    -0.352 C  
HETATM   16  O   UNL     1      -9.511  14.263  65.592  1.00  0.00    -0.523 OA 
HETATM   17  C   UNL     1     -11.272   7.509  72.708  1.00  0.00    -0.403 C  
HETATM   18  C   UNL     1      -9.364   8.124  70.998  1.00  0.00    -0.180 C  
HETATM   19  H   UNL     1      -9.721  14.580  64.722  1.00  0.00     0.000 HD 
HETATM   20  C   UNL     1     -10.065   7.085  71.879  1.00  0.00    -0.198 C  
ENDROOT
BRANCH  13  21
HETATM   21  C   UNL     1     -11.690  13.355  65.567  1.00  0.00    -0.366 C  
HETATM   22  C   UNL     1     -12.730  13.901  65.381  1.00  0.00    -0.525 C  
ENDBRANCH  13  21
TORSDOF 1
ENDMDL
MODEL        7
REMARK 921   NORMALIZED FREE ENERGY PREDICTED BY IDOCK:   -6.11 KCAL/MOL
REMARK 922        TOTAL FREE ENERGY PREDICTED BY IDOCK:   -6.70 KCAL/MOL
REMARK 923 INTER-LIGAND FREE ENERGY PREDICTED BY IDOCK:   -6.47 KCAL/MOL
REMARK 924 INTRA-LIGAND FREE ENERGY PREDICTED BY IDOCK:   -0.22 KCAL/MOL
REMARK 927      BINDING AFFINITY PREDICTED BY RF-SCORE:    0.00 PKD
ROOT
HETATM    1  C   UNL     1      -8.406  15.664  68.551  1.00  0.00    -0.166 C  
HETATM    2  C   UNL     1      -9.406  15.307  67.451  1.00  0.00    -0.202 C  
HETATM    3  C   UNL     1      -9.135  13.706  67.165  1.00  0.00    -0.241 C  
HETATM    4  C   UNL     1      -9.777  12.686  68.205  1.00  0.00    -0.216 C  
HETATM    5  C   UNL     1     -11.194  13.037  68.794  1.00  0.00    -0.325 C  
HETATM    6  C   UNL     1     -11.192  14.545  68.938  1.00  0.00    -0.283 C  
HETATM    7  C   UNL     1     -10.919  15.310  67.651  1.00  0.00    -0.311 C  
HETATM    8  C   UNL     1     -12.199  15.198  69.877  1.00  0.00    -0.353 C  
HETATM    9  C   UNL     1     -11.999  14.593  71.260  1.00  0.00    -0.401 C  
HETATM   10  C   UNL     1     -11.352  15.007  66.147  1.00  0.00    -0.270 C  
HETATM   11  C   UNL     1     -12.310  13.130  71.173  1.00  0.00    -0.295 C  
HETATM   12  C   UNL     1     -10.147  15.559  65.241  1.00  0.00    -0.337 C  
HETATM   13  C   UNL     1      -9.375  16.358  66.258  1.00  0.00    -0.315 C  
HETATM   14  C   UNL     1     -13.231  12.623  72.000  1.00  0.00    -0.531 C  
HETATM   15  C   UNL     1     -11.482  12.313  70.187  1.00  0.00    -0.036 C  
HETATM   16  O   UNL     1      -8.068  16.780  65.943  1.00  0.00    -0.416 OA 
HETATM   17  C   UNL     1     -13.615  11.195  72.058  1.00  0.00    -0.133 C  
HETATM   18  C   UNL     1     -11.995  10.864  70.007  1.00  0.00    -0.429 C  
HETATM   19  H   UNL     1      -8.050  17.408  65.231  1.00  0.00     0.000 HD 
HETATM   20  C   UNL     1     -13.160  10.361  70.866  1.00  0.00    -0.412 C  
ENDROOT
BRANCH  13  21
HETATM   21  C   UNL     1     -10.220  17.645  66.383  1.00  0.00    -0.364 C  
HETATM   22  C   UNL     1     -10.540  18.783  66.508  1.00  0.00    -0.436 C  
ENDBRANCH  13  21
TORSDOF 1
ENDMDL
MODEL        8
REMARK 921   NORMALIZED FREE ENERGY PREDICTED BY IDOCK:   -6.09 KCAL/MOL
REMARK 922        TOTAL FREE ENERGY PREDICTED BY IDOCK:   -6.67 KCAL/MOL
REMARK 923 INTER-LIGAND FREE ENERGY PREDICTED BY IDOCK:   -6.57 KCAL/MOL
REMARK 924 INTRA-LIGAND FREE ENERGY PREDICTED BY IDOCK:   -0.10 KCAL/MOL
REMARK 927      BINDING AFFINITY PREDICTED BY RF-SCORE:    0.00 PKD
ROOT
HETATM    1  C   UNL     1      -8.334  12.988  67.288  1.00  0.00    -0.186 C  
HETATM    2  C   UNL     1      -9.684  12.862  66.579  1.00  0.00    -0.257 C  
HETATM    3  C   UNL     1      -9.439  11.680  65.458  1.00  0.00    -0.215 C  
HETATM    4  C   UNL     1      -9.478  10.181  65.992  1.00  0.00    -0.248 C  
HETATM    5  C   UNL     1     -10.518   9.836  67.124  1.00  0.00    -0.316 C  
HETATM    6  C   UNL     1     -10.571  11.075  67.993  1.00  0.00    -0.241 C  
HETATM    7  C   UNL     1     -10.951  12.353  67.261  1.00  0.00    -0.302 C  
HETATM    8  C   UNL     1     -11.114  10.958  69.413  1.00  0.00    -0.317 C  
HETATM    9  C   UNL     1     -10.281   9.909  70.139  1.00  0.00    -0.326 C  
HETATM   10  C   UNL     1     -11.973  12.604  66.064  1.00  0.00    -0.478 C  
HETATM   11  C   UNL     1     -10.482   8.597  69.443  1.00  0.00    -0.224 C  
HETATM   12  C   UNL     1     -11.335  13.802  65.207  1.00  0.00    -0.310 C  
HETATM   13  C   UNL     1     -10.261  14.280  66.149  1.00  0.00    -0.307 C  
HETATM   14  C   UNL     1     -10.905   7.552  70.163  1.00  0.00    -0.259 C  
HETATM   15  C   UNL     1     -10.108   8.543  67.966  1.00  0.00    -0.245 C  
HETATM   16  O   UNL     1      -9.262  15.145  65.660  1.00  0.00    -0.445 OA 
HETATM   17  C   UNL     1     -11.110   6.188  69.625  1.00  0.00    -0.489 C  
HETATM   18  C   UNL     1     -10.532   7.225  67.273  1.00  0.00    -0.380 C  
HETATM   19  H   UNL     1      -9.607  15.991  65.404  1.00  0.00     0.000 HD 
HETATM   20  C   UNL     1     -11.159   6.101  68.104  1.00  0.00    -0.328 C  
ENDROOT
BRANCH  13  21
HETATM   21  C   UNL     1     -11.065  15.097  67.184  1.00  0.00    -0.335 C  
HETATM   22  C   UNL     1     -11.455  15.559  68.208  1.00  0.00    -0.359 C  
ENDBRANCH  13  21
TORSDOF 1
ENDMDL
MODEL        9
REMARK 921   NORMALIZED FREE ENERGY PREDICTED BY IDOCK:   -5.97 KCAL/MOL
REMARK 922        TOTAL FREE ENERGY PREDICTED BY IDOCK:   -6.55 KCAL/MOL
REMARK 923 INTER-LIGAND FREE ENERGY PREDICTED BY IDOCK:   -6.33 KCAL/MOL
REMARK 924 INTRA-LIGAND FREE ENERGY PREDICTED BY IDOCK:   -0.22 KCAL/MOL
REMARK 927      BINDING AFFINITY PREDICTED BY RF-SCORE:    0.00 PKD
ROOT
HETATM    1  C   UNL     1     -10.403  12.981  68.737  1.00  0.00    -0.146 C  
HETATM    2  C   UNL     1     -10.791  13.245  67.281  1.00  0.00    -0.275 C  
HETATM    3  C   UNL     1     -12.090  14.253  67.388  1.00  0.00    -0.371 C  
HETATM    4  C   UNL     1     -11.772  15.786  67.676  1.00  0.00     0.082 C  
HETATM    5  C   UNL     1     -10.490  16.404  67.004  1.00  0.00    -0.291 C  
HETATM    6  C   UNL     1      -9.470  15.285  67.009  1.00  0.00    -0.235 C  
HETATM    7  C   UNL     1      -9.912  14.014  66.299  1.00  0.00    -0.317 C  
HETATM    8  C   UNL     1      -7.993  15.631  66.856  1.00  0.00    -0.278 C  
HETATM    9  C   UNL     1      -7.630  16.604  67.970  1.00  0.00    -0.171 C  
HETATM   10  C   UNL     1     -10.794  13.806  64.988  1.00  0.00    -0.377 C  
HETATM   11  C   UNL     1      -8.434  17.852  67.773  1.00  0.00    -0.242 C  
HETATM   12  C   UNL     1     -11.603  12.441  65.234  1.00  0.00    -0.419 C  
HETATM   13  C   UNL     1     -10.878  11.899  66.438  1.00  0.00    -0.279 C  
HETATM   14  C   UNL     1      -7.787  19.019  67.680  1.00  0.00    -0.269 C  
HETATM   15  C   UNL     1      -9.950  17.696  67.772  1.00  0.00    -0.315 C  
HETATM   16  O   UNL     1     -11.460  10.843  67.165  1.00  0.00    -0.428 OA 
HETATM   17  C   UNL     1      -8.444  20.336  67.524  1.00  0.00    -0.376 C  
HETATM   18  C   UNL     1     -10.701  18.986  67.361  1.00  0.00    -0.559 C  
HETATM   19  H   UNL     1     -11.511  10.039  66.661  1.00  0.00     0.000 HD 
HETATM   20  C   UNL     1      -9.910  20.274  67.110  1.00  0.00    -0.606 C  
ENDROOT
BRANCH  13  21
HETATM   21  C   UNL     1      -9.583  11.329  65.818  1.00  0.00    -0.256 C  
HETATM   22  C   UNL     1      -8.735  10.578  65.456  1.00  0.00    -0.197 C  
ENDBRANCH  13  21
TORSDOF 1
ENDMDL
MODEL       10
REMARK 921   NORMALIZED FREE ENERGY PREDICTED BY IDOCK:   -5.90 KCAL/MOL
REMARK 922        TOTAL FREE ENERGY PREDICTED BY IDOCK:   -6.47 KCAL/MOL
REMARK 923 INTER-LIGAND FREE ENERGY PREDICTED BY IDOCK:   -6.25 KCAL/MOL
REMARK 924 INTRA-LIGAND FREE ENERGY PREDICTED BY IDOCK:   -0.22 KCAL/MOL
REMARK 927      BINDING AFFINITY PREDICTED BY RF-SCORE:    0.00 PKD
ROOT
HETATM    1  C   UNL     1      -7.411  17.985  65.832  1.00  0.00    -0.248 C  
HETATM    2  C   UNL     1      -8.533  18.283  66.828  1.00  0.00    -0.272 C  
HETATM    3  C   UNL     1      -9.914  18.009  65.971  1.00  0.00    -0.221 C  
HETATM    4  C   UNL     1     -10.347  16.486  65.799  1.00  0.00    -0.359 C  
HETATM    5  C   UNL     1     -10.101  15.516  67.014  1.00  0.00    -0.254 C  
HETATM    6  C   UNL     1      -8.802  15.990  67.633  1.00  0.00    -0.190 C  
HETATM    7  C   UNL     1      -8.799  17.446  68.075  1.00  0.00    -0.252 C  
HETATM    8  C   UNL     1      -8.024  15.039  68.535  1.00  0.00    -0.144 C  
HETATM    9  C   UNL     1      -7.729  13.779  67.731  1.00  0.00    -0.172 C  
HETATM   10  C   UNL     1      -9.951  18.343  68.715  1.00  0.00    -0.404 C  
HETATM   11  C   UNL     1      -9.038  13.139  67.381  1.00  0.00    -0.208 C  
HETATM   12  C   UNL     1      -9.687  19.827  68.162  1.00  0.00    -0.506 C  
HETATM   13  C   UNL     1      -8.308  19.667  67.578  1.00  0.00    -0.302 C  
HETATM   14  C   UNL     1      -9.237  11.863  67.731  1.00  0.00    -0.184 C  
HETATM   15  C   UNL     1     -10.018  13.983  66.575  1.00  0.00    -0.289 C  
HETATM   16  O   UNL     1      -7.810  20.670  66.723  1.00  0.00    -0.502 OA 
HETATM   17  C   UNL     1     -10.458  11.086  67.421  1.00  0.00    -0.255 C  
HETATM   18  C   UNL     1     -11.415  13.332  66.430  1.00  0.00    -0.364 C  
HETATM   19  H   UNL     1      -7.675  21.496  67.171  1.00  0.00     0.000 HD 
HETATM   20  C   UNL     1     -11.654  11.923  66.982  1.00  0.00    -0.365 C  
ENDROOT
BRANCH  13  21
HETATM   21  C   UNL     1      -7.409  19.691  68.833  1.00  0.00    -0.373 C  
HETATM   22  C   UNL     1      -6.467  19.801  69.552  1.00  0.00    -0.383 C  
ENDBRANCH  13  21
TORSDOF 1
ENDMDL
MODEL       11
REMARK 921   NORMALIZED FREE ENERGY PREDICTED BY IDOCK:   -5.85 KCAL/MOL
REMARK 922        TOTAL FREE ENERGY PREDICTED BY IDOCK:   -6.41 KCAL/MOL
REMARK 923 INTER-LIGAND FREE ENERGY PREDICTED BY IDOCK:   -6.19 KCAL/MOL
REMARK 924 INTRA-LIGAND FREE ENERGY PREDICTED BY IDOCK:   -0.22 KCAL/MOL
REMARK 927      BINDING AFFINITY PREDICTED BY RF-SCORE:    0.00 PKD
ROOT
HETATM    1  C   UNL     1     -11.534   6.512  69.253  1.00  0.00    -0.307 C  
HETATM    2  C   UNL     1     -10.208   7.115  69.719  1.00  0.00    -0.215 C  
HETATM    3  C   UNL     1      -9.860   8.249  68.574  1.00  0.00    -0.188 C  
HETATM    4  C   UNL     1     -10.636   9.634  68.693  1.00  0.00    -0.246 C  
HETATM    5  C   UNL     1     -10.912  10.194  70.139  1.00  0.00    -0.376 C  
HETATM    6  C   UNL     1     -11.179   8.968  70.986  1.00  0.00    -0.361 C  
HETATM    7  C   UNL     1     -10.057   7.940  70.994  1.00  0.00    -0.212 C  
HETATM    8  C   UNL     1     -11.914   9.132  72.312  1.00  0.00    -0.277 C  
HETATM    9  C   UNL     1     -13.251   9.801  72.017  1.00  0.00    -0.557 C  
HETATM   10  C   UNL     1      -8.474   8.124  70.964  1.00  0.00    -0.144 C  
HETATM   11  C   UNL     1     -12.972  11.161  71.455  1.00  0.00    -0.542 C  
HETATM   12  C   UNL     1      -7.917   6.861  70.144  1.00  0.00    -0.115 C  
HETATM   13  C   UNL     1      -9.147   5.993  70.096  1.00  0.00    -0.147 C  
HETATM   14  C   UNL     1     -13.521  12.223  72.056  1.00  0.00    -0.418 C  
HETATM   15  C   UNL     1     -12.137  11.217  70.182  1.00  0.00    -0.448 C  
HETATM   16  O   UNL     1      -9.176   4.901  69.207  1.00  0.00    -0.098 OA 
HETATM   17  C   UNL     1     -13.370  13.622  71.595  1.00  0.00    -0.424 C  
HETATM   18  C   UNL     1     -11.723  12.654  69.781  1.00  0.00    -0.354 C  
HETATM   19  H   UNL     1      -8.542   4.231  69.433  1.00  0.00     0.000 HD 
HETATM   20  C   UNL     1     -12.248  13.846  70.588  1.00  0.00    -0.443 C  
ENDROOT
BRANCH  13  21
HETATM   21  C   UNL     1      -9.183   5.388  71.517  1.00  0.00    -0.169 C  
HETATM   22  C   UNL     1      -9.193   4.614  72.419  1.00  0.00    -0.149 C  
ENDBRANCH  13  21
TORSDOF 1
ENDMDL
MODEL       12
REMARK 921   NORMALIZED FREE ENERGY PREDICTED BY IDOCK:   -5.81 KCAL/MOL
REMARK 922        TOTAL FREE ENERGY PREDICTED BY IDOCK:   -6.37 KCAL/MOL
REMARK 923 INTER-LIGAND FREE ENERGY PREDICTED BY IDOCK:   -6.15 KCAL/MOL
REMARK 924 INTRA-LIGAND FREE ENERGY PREDICTED BY IDOCK:   -0.22 KCAL/MOL
REMARK 927      BINDING AFFINITY PREDICTED BY RF-SCORE:    0.00 PKD
ROOT
HETATM    1  C   UNL     1     -11.392   6.411  69.080  1.00  0.00    -0.366 C  
HETATM    2  C   UNL     1     -10.060   7.047  69.484  1.00  0.00    -0.179 C  
HETATM    3  C   UNL     1      -9.807   8.207  68.341  1.00  0.00    -0.186 C  
HETATM    4  C   UNL     1     -10.616   9.566  68.524  1.00  0.00    -0.247 C  
HETATM    5  C   UNL     1     -10.829  10.097  69.991  1.00  0.00    -0.361 C  
HETATM    6  C   UNL     1     -11.014   8.851  70.832  1.00  0.00    -0.325 C  
HETATM    7  C   UNL     1      -9.864   7.856  70.762  1.00  0.00    -0.188 C  
HETATM    8  C   UNL     1     -11.681   8.974  72.197  1.00  0.00    -0.366 C  
HETATM    9  C   UNL     1     -13.050   9.606  71.985  1.00  0.00    -0.537 C  
HETATM   10  C   UNL     1      -8.291   8.089  70.650  1.00  0.00    -0.123 C  
HETATM   11  C   UNL     1     -12.842  10.983  71.432  1.00  0.00    -0.548 C  
HETATM   12  C   UNL     1      -7.743   6.855  69.781  1.00  0.00    -0.113 C  
HETATM   13  C   UNL     1      -8.948   5.951  69.786  1.00  0.00    -0.131 C  
HETATM   14  C   UNL     1     -13.389  12.019  72.078  1.00  0.00    -0.447 C  
HETATM   15  C   UNL     1     -12.079  11.082  70.116  1.00  0.00    -0.438 C  
HETATM   16  O   UNL     1      -8.993   4.872  68.882  1.00  0.00    -0.101 OA 
HETATM   17  C   UNL     1     -13.303  13.428  71.632  1.00  0.00    -0.420 C  
HETATM   18  C   UNL     1     -11.729  12.537  69.717  1.00  0.00    -0.355 C  
HETATM   19  H   UNL     1      -8.329   4.218  69.062  1.00  0.00     0.000 HD 
HETATM   20  C   UNL     1     -12.245  13.700  70.570  1.00  0.00    -0.438 C  
ENDROOT
BRANCH  13  21
HETATM   21  C   UNL     1      -8.889   5.325  71.196  1.00  0.00    -0.147 C  
HETATM   22  C   UNL     1      -8.846   4.537  72.085  1.00  0.00    -0.135 C  
ENDBRANCH  13  21
TORSDOF 1
ENDMDL
MODEL       13
REMARK 921   NORMALIZED FREE ENERGY PREDICTED BY IDOCK:   -5.75 KCAL/MOL
REMARK 922        TOTAL FREE ENERGY PREDICTED BY IDOCK:   -6.31 KCAL/MOL
REMARK 923 INTER-LIGAND FREE ENERGY PREDICTED BY IDOCK:   -6.09 KCAL/MOL
REMARK 924 INTRA-LIGAND FREE ENERGY PREDICTED BY IDOCK:   -0.22 KCAL/MOL
REMARK 927      BINDING AFFINITY PREDICTED BY RF-SCORE:    0.00 PKD
ROOT
HETATM    1  C   UNL     1     -11.825  12.966  69.263  1.00  0.00    -0.363 C  
HETATM    2  C   UNL     1     -11.186  12.724  67.894  1.00  0.00    -0.315 C  
HETATM    3  C   UNL     1     -12.146  13.564  66.850  1.00  0.00    -0.417 C  
HETATM    4  C   UNL     1     -11.909  15.137  66.784  1.00  0.00     0.018 C  
HETATM    5  C   UNL     1     -10.429  15.658  66.911  1.00  0.00    -0.307 C  
HETATM    6  C   UNL     1      -9.768  14.716  67.896  1.00  0.00    -0.216 C  
HETATM    7  C   UNL     1      -9.808  13.248  67.501  1.00  0.00    -0.220 C  
HETATM    8  C   UNL     1      -8.492  15.162  68.601  1.00  0.00    -0.170 C  
HETATM    9  C   UNL     1      -8.799  16.465  69.329  1.00  0.00    -0.121 C  
HETATM   10  C   UNL     1      -9.694  12.549  66.073  1.00  0.00    -0.247 C  
HETATM   11  C   UNL     1      -9.158  17.494  68.301  1.00  0.00    -0.274 C  
HETATM   12  C   UNL     1     -10.625  11.244  66.165  1.00  0.00    -0.312 C  
HETATM   13  C   UNL     1     -10.877  11.184  67.649  1.00  0.00    -0.247 C  
HETATM   14  C   UNL     1      -8.470  18.640  68.279  1.00  0.00    -0.350 C  
HETATM   15  C   UNL     1     -10.348  17.175  67.402  1.00  0.00    -0.333 C  
HETATM   16  O   UNL     1     -11.898  10.343  68.132  1.00  0.00    -0.761 OA 
HETATM   17  C   UNL     1      -8.734  19.763  67.351  1.00  0.00    -0.385 C  
HETATM   18  C   UNL     1     -10.528  18.184  66.241  1.00  0.00    -0.374 C  
HETATM   19  H   UNL     1     -11.713   9.423  67.986  1.00  0.00     0.000 HD 
HETATM   20  C   UNL     1      -9.616  19.413  66.159  1.00  0.00    -0.384 C  
ENDROOT
BRANCH  13  21
HETATM   21  C   UNL     1      -9.552  10.600  68.188  1.00  0.00    -0.165 C  
HETATM   22  C   UNL     1      -8.753  10.049  68.874  1.00  0.00    -0.146 C  
ENDBRANCH  13  21
TORSDOF 1
ENDMDL
MODEL       14
REMARK 921   NORMALIZED FREE ENERGY PREDICTED BY IDOCK:   -5.74 KCAL/MOL
REMARK 922        TOTAL FREE ENERGY PREDICTED BY IDOCK:   -6.30 KCAL/MOL
REMARK 923 INTER-LIGAND FREE ENERGY PREDICTED BY IDOCK:   -6.08 KCAL/MOL
REMARK 924 INTRA-LIGAND FREE ENERGY PREDICTED BY IDOCK:   -0.22 KCAL/MOL
REMARK 927      BINDING AFFINITY PREDICTED BY RF-SCORE:    0.00 PKD
ROOT
HETATM    1  C   UNL     1     -11.987  15.045  68.468  1.00  0.00    -0.257 C  
HETATM    2  C   UNL     1     -10.514  15.408  68.276  1.00  0.00    -0.241 C  
HETATM    3  C   UNL     1      -9.698  14.120  68.902  1.00  0.00    -0.084 C  
HETATM    4  C   UNL     1      -9.595  12.831  67.973  1.00  0.00    -0.217 C  
HETATM    5  C   UNL     1      -9.415  13.059  66.426  1.00  0.00    -0.228 C  
HETATM    6  C   UNL     1     -10.234  14.295  66.117  1.00  0.00    -0.317 C  
HETATM    7  C   UNL     1      -9.846  15.534  66.910  1.00  0.00    -0.245 C  
HETATM    8  C   UNL     1     -10.662  14.556  64.677  1.00  0.00    -0.332 C  
HETATM    9  C   UNL     1     -11.446  13.340  64.202  1.00  0.00    -0.438 C  
HETATM   10  C   UNL     1      -8.420  16.055  67.396  1.00  0.00    -0.187 C  
HETATM   11  C   UNL     1     -10.523  12.160  64.217  1.00  0.00    -0.373 C  
HETATM   12  C   UNL     1      -8.695  16.793  68.795  1.00  0.00    -0.258 C  
HETATM   13  C   UNL     1     -10.198  16.885  68.773  1.00  0.00    -0.311 C  
HETATM   14  C   UNL     1     -10.366  11.459  63.089  1.00  0.00    -0.357 C  
HETATM   15  C   UNL     1      -9.888  11.806  65.557  1.00  0.00    -0.262 C  
HETATM   16  O   UNL     1     -10.878  17.212  69.963  1.00  0.00    -0.328 OA 
HETATM   17  C   UNL     1      -9.522  10.250  62.960  1.00  0.00    -0.331 C  
HETATM   18  C   UNL     1      -8.798  10.712  65.451  1.00  0.00    -0.204 C  
HETATM   19  H   UNL     1     -10.690  18.094  70.259  1.00  0.00     0.000 HD 
HETATM   20  C   UNL     1      -8.536  10.033  64.102  1.00  0.00    -0.195 C  
ENDROOT
BRANCH  13  21
HETATM   21  C   UNL     1     -10.446  18.061  67.803  1.00  0.00    -0.421 C  
HETATM   22  C   UNL     1     -10.868  19.062  67.320  1.00  0.00    -0.494 C  
ENDBRANCH  13  21
TORSDOF 1
ENDMDL
MODEL       15
REMARK 921   NORMALIZED FREE ENERGY PREDICTED BY IDOCK:   -5.74 KCAL/MOL
REMARK 922        TOTAL FREE ENERGY PREDICTED BY IDOCK:   -6.30 KCAL/MOL
REMARK 923 INTER-LIGAND FREE ENERGY PREDICTED BY IDOCK:   -6.09 KCAL/MOL
REMARK 924 INTRA-LIGAND FREE ENERGY PREDICTED BY IDOCK:   -0.22 KCAL/MOL
REMARK 927      BINDING AFFINITY PREDICTED BY RF-SCORE:    0.00 PKD
ROOT
HETATM    1  C   UNL     1     -12.242  14.339  66.808  1.00  0.00    -0.384 C  
HETATM    2  C   UNL     1     -10.905  13.717  67.213  1.00  0.00    -0.292 C  
HETATM    3  C   UNL     1      -9.945  13.934  65.892  1.00  0.00    -0.317 C  
HETATM    4  C   UNL     1      -9.316  15.385  65.707  1.00  0.00    -0.265 C  
HETATM    5  C   UNL     1      -8.867  16.157  67.004  1.00  0.00    -0.231 C  
HETATM    6  C   UNL     1      -9.887  15.774  68.056  1.00  0.00    -0.217 C  
HETATM    7  C   UNL     1     -10.010  14.280  68.314  1.00  0.00    -0.239 C  
HETATM    8  C   UNL     1     -10.042  16.657  69.289  1.00  0.00    -0.257 C  
HETATM    9  C   UNL     1     -10.368  18.066  68.808  1.00  0.00    -0.294 C  
HETATM   10  C   UNL     1      -8.906  13.130  68.325  1.00  0.00    -0.175 C  
HETATM   11  C   UNL     1      -9.200  18.563  68.011  1.00  0.00    -0.315 C  
HETATM   12  C   UNL     1      -9.658  11.816  67.789  1.00  0.00    -0.184 C  
HETATM   13  C   UNL     1     -11.093  12.271  67.849  1.00  0.00    -0.243 C  
HETATM   14  C   UNL     1      -8.628  19.717  68.370  1.00  0.00    -0.357 C  
HETATM   15  C   UNL     1      -8.805  17.738  66.792  1.00  0.00    -0.275 C  
HETATM   16  O   UNL     1     -12.076  11.512  67.184  1.00  0.00    -0.494 OA 
HETATM   17  C   UNL     1      -7.495  20.352  67.659  1.00  0.00    -0.334 C  
HETATM   18  C   UNL     1      -7.475  18.197  66.144  1.00  0.00    -0.297 C  
HETATM   19  H   UNL     1     -12.189  10.649  67.564  1.00  0.00     0.000 HD 
HETATM   20  C   UNL     1      -6.761  19.441  66.683  1.00  0.00    -0.201 C  
ENDROOT
BRANCH  13  21
HETATM   21  C   UNL     1     -11.415  12.161  69.355  1.00  0.00    -0.355 C  
HETATM   22  C   UNL     1     -11.787  11.751  70.408  1.00  0.00    -0.362 C  
ENDBRANCH  13  21
TORSDOF 1
ENDMDL
MODEL       16
REMARK 921   NORMALIZED FREE ENERGY PREDICTED BY IDOCK:   -5.69 KCAL/MOL
REMARK 922        TOTAL FREE ENERGY PREDICTED BY IDOCK:   -6.25 KCAL/MOL
REMARK 923 INTER-LIGAND FREE ENERGY PREDICTED BY IDOCK:   -6.03 KCAL/MOL
REMARK 924 INTRA-LIGAND FREE ENERGY PREDICTED BY IDOCK:   -0.22 KCAL/MOL
REMARK 927      BINDING AFFINITY PREDICTED BY RF-SCORE:    0.00 PKD
ROOT
HETATM    1  C   UNL     1     -10.550  12.914  68.508  1.00  0.00    -0.270 C  
HETATM    2  C   UNL     1     -10.771  13.597  67.157  1.00  0.00    -0.279 C  
HETATM    3  C   UNL     1     -11.712  14.902  67.516  1.00  0.00    -0.328 C  
HETATM    4  C   UNL     1     -10.963  16.164  68.134  1.00  0.00    -0.341 C  
HETATM    5  C   UNL     1      -9.524  16.497  67.591  1.00  0.00    -0.225 C  
HETATM    6  C   UNL     1      -8.888  15.149  67.322  1.00  0.00    -0.216 C  
HETATM    7  C   UNL     1      -9.656  14.261  66.354  1.00  0.00    -0.317 C  
HETATM    8  C   UNL     1      -7.370  15.057  67.219  1.00  0.00    -0.195 C  
HETATM    9  C   UNL     1      -6.786  15.604  68.516  1.00  0.00    -0.114 C  
HETATM   10  C   UNL     1     -10.495  14.625  65.049  1.00  0.00    -0.447 C  
HETATM   11  C   UNL     1      -7.169  17.048  68.621  1.00  0.00    -0.221 C  
HETATM   12  C   UNL     1     -11.686  13.549  65.000  1.00  0.00    -0.354 C  
HETATM   13  C   UNL     1     -11.216  12.562  66.035  1.00  0.00    -0.315 C  
HETATM   14  C   UNL     1      -6.198  17.955  68.779  1.00  0.00    -0.205 C  
HETATM   15  C   UNL     1      -8.661  17.362  68.617  1.00  0.00    -0.259 C  
HETATM   16  O   UNL     1     -12.122  11.598  66.518  1.00  0.00    -0.405 OA 
HETATM   17  C   UNL     1      -6.423  19.410  68.937  1.00  0.00    -0.312 C  
HETATM   18  C   UNL     1      -8.970  18.877  68.524  1.00  0.00    -0.388 C  
HETATM   19  H   UNL     1     -12.387  10.979  65.848  1.00  0.00     0.000 HD 
HETATM   20  C   UNL     1      -7.818  19.887  68.552  1.00  0.00    -0.236 C  
ENDROOT
BRANCH  13  21
HETATM   21  C   UNL     1     -10.123  11.778  65.276  1.00  0.00    -0.300 C  
HETATM   22  C   UNL     1      -9.560  10.947  64.638  1.00  0.00    -0.305 C  
ENDBRANCH  13  21
TORSDOF 1
ENDMDL
MODEL       17
REMARK 921   NORMALIZED FREE ENERGY PREDICTED BY IDOCK:   -5.67 KCAL/MOL
REMARK 922        TOTAL FREE ENERGY PREDICTED BY IDOCK:   -6.23 KCAL/MOL
REMARK 923 INTER-LIGAND FREE ENERGY PREDICTED BY IDOCK:   -6.01 KCAL/MOL
REMARK 924 INTRA-LIGAND FREE ENERGY PREDICTED BY IDOCK:   -0.22 KCAL/MOL
REMARK 927      BINDING AFFINITY PREDICTED BY RF-SCORE:    0.00 PKD
ROOT
HETATM    1  C   UNL     1      -7.873  11.732  67.301  1.00  0.00    -0.161 C  
HETATM    2  C   UNL     1      -8.443  10.421  66.756  1.00  0.00    -0.125 C  
HETATM    3  C   UNL     1      -7.840   9.269  67.769  1.00  0.00    -0.092 C  
HETATM    4  C   UNL     1      -8.575   9.110  69.173  1.00  0.00    -0.133 C  
HETATM    5  C   UNL     1     -10.139   9.285  69.202  1.00  0.00    -0.204 C  
HETATM    6  C   UNL     1     -10.428  10.368  68.183  1.00  0.00    -0.221 C  
HETATM    7  C   UNL     1      -9.928  10.072  66.777  1.00  0.00    -0.267 C  
HETATM    8  C   UNL     1     -11.756  11.112  68.254  1.00  0.00    -0.323 C  
HETATM    9  C   UNL     1     -11.864  11.731  69.642  1.00  0.00    -0.407 C  
HETATM   10  C   UNL     1      -9.855   8.703  65.964  1.00  0.00    -0.183 C  
HETATM   11  C   UNL     1     -11.889  10.617  70.643  1.00  0.00    -0.463 C  
HETATM   12  C   UNL     1      -8.550   8.830  65.037  1.00  0.00    -0.196 C  
HETATM   13  C   UNL     1      -8.245  10.298  65.183  1.00  0.00    -0.161 C  
HETATM   14  C   UNL     1     -12.911  10.556  71.504  1.00  0.00    -0.565 C  
HETATM   15  C   UNL     1     -10.690   9.675  70.649  1.00  0.00    -0.388 C  
HETATM   16  O   UNL     1      -6.992  10.779  64.756  1.00  0.00    -0.358 OA 
HETATM   17  C   UNL     1     -13.054   9.541  72.571  1.00  0.00    -0.324 C  
HETATM   18  C   UNL     1     -10.883   8.441  71.563  1.00  0.00    -0.323 C  
HETATM   19  H   UNL     1      -6.875  10.706  63.817  1.00  0.00     0.000 HD 
HETATM   20  C   UNL     1     -12.145   8.327  72.424  1.00  0.00    -0.430 C  
ENDROOT
BRANCH  13  21
HETATM   21  C   UNL     1      -9.292  10.950  64.253  1.00  0.00    -0.259 C  
HETATM   22  C   UNL     1      -9.797  11.596  63.391  1.00  0.00    -0.424 C  
ENDBRANCH  13  21
TORSDOF 1
ENDMDL
MODEL       18
REMARK 921   NORMALIZED FREE ENERGY PREDICTED BY IDOCK:   -5.60 KCAL/MOL
REMARK 922        TOTAL FREE ENERGY PREDICTED BY IDOCK:   -6.15 KCAL/MOL
REMARK 923 INTER-LIGAND FREE ENERGY PREDICTED BY IDOCK:   -5.94 KCAL/MOL
REMARK 924 INTRA-LIGAND FREE ENERGY PREDICTED BY IDOCK:   -0.21 KCAL/MOL
REMARK 927      BINDING AFFINITY PREDICTED BY RF-SCORE:    0.00 PKD
ROOT
HETATM    1  C   UNL     1      -8.181   7.721  70.536  1.00  0.00    -0.120 C  
HETATM    2  C   UNL     1      -9.689   7.469  70.590  1.00  0.00    -0.175 C  
HETATM    3  C   UNL     1     -10.317   8.902  71.107  1.00  0.00    -0.338 C  
HETATM    4  C   UNL     1     -10.456  10.048  70.010  1.00  0.00    -0.337 C  
HETATM    5  C   UNL     1     -10.863   9.618  68.552  1.00  0.00    -0.202 C  
HETATM    6  C   UNL     1     -10.183   8.282  68.337  1.00  0.00    -0.242 C  
HETATM    7  C   UNL     1     -10.546   7.209  69.354  1.00  0.00    -0.246 C  
HETATM    8  C   UNL     1      -9.978   7.779  66.912  1.00  0.00    -0.331 C  
HETATM    9  C   UNL     1      -9.182   8.838  66.160  1.00  0.00    -0.273 C  
HETATM   10  C   UNL     1     -11.924   6.895  70.090  1.00  0.00    -0.200 C  
HETATM   11  C   UNL     1     -10.009  10.086  66.109  1.00  0.00    -0.322 C  
HETATM   12  C   UNL     1     -11.512   6.343  71.540  1.00  0.00    -0.360 C  
HETATM   13  C   UNL     1     -10.036   6.113  71.344  1.00  0.00    -0.194 C  
HETATM   14  C   UNL     1     -10.269  10.630  64.915  1.00  0.00    -0.395 C  
HETATM   15  C   UNL     1     -10.426  10.685  67.448  1.00  0.00    -0.280 C  
HETATM   16  O   UNL     1      -9.224   5.900  72.475  1.00  0.00    -0.140 OA 
HETATM   17  C   UNL     1     -11.036  11.879  64.708  1.00  0.00    -0.367 C  
HETATM   18  C   UNL     1     -11.440  11.847  67.312  1.00  0.00    -0.385 C  
HETATM   19  H   UNL     1      -9.432   5.090  72.925  1.00  0.00     0.000 HD 
HETATM   20  C   UNL     1     -11.837  12.346  65.918  1.00  0.00    -0.467 C  
ENDROOT
BRANCH  13  21
HETATM   21  C   UNL     1     -10.009   4.792  70.544  1.00  0.00    -0.306 C  
HETATM   22  C   UNL     1      -9.638   3.788  70.027  1.00  0.00    -0.259 C  
ENDBRANCH  13  21
TORSDOF 1
ENDMDL
MODEL       19
REMARK 921   NORMALIZED FREE ENERGY PREDICTED BY IDOCK:   -5.53 KCAL/MOL
REMARK 922        TOTAL FREE ENERGY PREDICTED BY IDOCK:   -6.08 KCAL/MOL
REMARK 923 INTER-LIGAND FREE ENERGY PREDICTED BY IDOCK:   -5.86 KCAL/MOL
REMARK 924 INTRA-LIGAND FREE ENERGY PREDICTED BY IDOCK:   -0.22 KCAL/MOL
REMARK 927      BINDING AFFINITY PREDICTED BY RF-SCORE:    0.00 PKD
ROOT
HETATM    1  C   UNL     1      -9.305   8.540  72.226  1.00  0.00    -0.363 C  
HETATM    2  C   UNL     1     -10.647   7.996  71.733  1.00  0.00    -0.296 C  
HETATM    3  C   UNL     1     -11.654   9.299  71.792  1.00  0.00    -0.458 C  
HETATM    4  C   UNL     1     -11.533  10.339  70.592  1.00  0.00    -0.435 C  
HETATM    5  C   UNL     1     -11.252   9.764  69.154  1.00  0.00    -0.101 C  
HETATM    6  C   UNL     1     -10.334   8.581  69.380  1.00  0.00    -0.218 C  
HETATM    7  C   UNL     1     -10.889   7.510  70.307  1.00  0.00    -0.257 C  
HETATM    8  C   UNL     1      -9.502   8.059  68.214  1.00  0.00    -0.147 C  
HETATM    9  C   UNL     1      -8.659   9.217  67.695  1.00  0.00    -0.116 C  
HETATM   10  C   UNL     1     -12.374   6.964  70.498  1.00  0.00    -0.177 C  
HETATM   11  C   UNL     1      -9.590  10.272  67.180  1.00  0.00    -0.199 C  
HETATM   12  C   UNL     1     -12.487   6.578  72.052  1.00  0.00    -0.261 C  
HETATM   13  C   UNL     1     -11.038   6.637  72.461  1.00  0.00    -0.261 C  
HETATM   14  C   UNL     1      -9.441  10.693  65.920  1.00  0.00    -0.239 C  
HETATM   15  C   UNL     1     -10.595  10.841  68.176  1.00  0.00    -0.238 C  
HETATM   16  O   UNL     1     -10.717   6.646  73.832  1.00  0.00    -0.463 OA 
HETATM   17  C   UNL     1     -10.257  11.753  65.285  1.00  0.00    -0.307 C  
HETATM   18  C   UNL     1     -11.648  11.770  67.522  1.00  0.00    -0.361 C  
HETATM   19  H   UNL     1     -10.950   5.834  74.267  1.00  0.00     0.000 HD 
HETATM   20  C   UNL     1     -11.536  12.110  66.032  1.00  0.00    -0.427 C  
ENDROOT
BRANCH  13  21
HETATM   21  C   UNL     1     -10.480   5.310  71.901  1.00  0.00    -0.282 C  
HETATM   22  C   UNL     1      -9.988   4.230  71.823  1.00  0.00    -0.254 C  
ENDBRANCH  13  21
TORSDOF 1
ENDMDL
MODEL       20
REMARK 921   NORMALIZED FREE ENERGY PREDICTED BY IDOCK:   -5.52 KCAL/MOL
REMARK 922        TOTAL FREE ENERGY PREDICTED BY IDOCK:   -6.07 KCAL/MOL
REMARK 923 INTER-LIGAND FREE ENERGY PREDICTED BY IDOCK:   -5.85 KCAL/MOL
REMARK 924 INTRA-LIGAND FREE ENERGY PREDICTED BY IDOCK:   -0.21 KCAL/MOL
REMARK 927      BINDING AFFINITY PREDICTED BY RF-SCORE:    0.00 PKD
ROOT
HETATM    1  C   UNL     1     -11.017   7.002  67.569  1.00  0.00    -0.299 C  
HETATM    2  C   UNL     1      -9.713   7.747  67.855  1.00  0.00    -0.181 C  
HETATM    3  C   UNL     1      -9.822   9.115  66.941  1.00  0.00    -0.280 C  
HETATM    4  C   UNL     1     -10.726  10.286  67.529  1.00  0.00    -0.348 C  
HETATM    5  C   UNL     1     -10.704  10.513  69.087  1.00  0.00    -0.266 C  
HETATM    6  C   UNL     1     -10.577   9.125  69.681  1.00  0.00    -0.237 C  
HETATM    7  C   UNL     1      -9.360   8.340  69.216  1.00  0.00    -0.155 C  
HETATM    8  C   UNL     1     -10.971   8.907  71.137  1.00  0.00    -0.356 C  
HETATM    9  C   UNL     1     -12.418   9.357  71.296  1.00  0.00    -0.416 C  
HETATM   10  C   UNL     1      -7.877   8.819  68.883  1.00  0.00    -0.104 C  
HETATM   11  C   UNL     1     -12.479  10.825  71.002  1.00  0.00    -0.522 C  
HETATM   12  C   UNL     1      -7.375   7.852  67.703  1.00  0.00    -0.096 C  
HETATM   13  C   UNL     1      -8.447   6.793  67.735  1.00  0.00    -0.122 C  
HETATM   14  C   UNL     1     -13.000  11.639  71.927  1.00  0.00    -0.442 C  
HETATM   15  C   UNL     1     -12.007  11.265  69.621  1.00  0.00    -0.423 C  
HETATM   16  O   UNL     1      -8.548   5.894  66.655  1.00  0.00    -0.116 OA 
HETATM   17  C   UNL     1     -13.163  13.101  71.765  1.00  0.00    -0.494 C  
HETATM   18  C   UNL     1     -11.909  12.803  69.467  1.00  0.00    -0.379 C  
HETATM   19  H   UNL     1      -7.792   5.324  66.583  1.00  0.00     0.000 HD 
HETATM   20  C   UNL     1     -12.373  13.709  70.612  1.00  0.00    -0.440 C  
ENDROOT
BRANCH  13  21
HETATM   21  C   UNL     1      -8.040   5.944  68.960  1.00  0.00    -0.103 C  
HETATM   22  C   UNL     1      -7.968   5.062  69.754  1.00  0.00    -0.074 C  
ENDBRANCH  13  21
TORSDOF 1
ENDMDL
MODEL       21
REMARK 921   NORMALIZED FREE ENERGY PREDICTED BY IDOCK:   -5.46 KCAL/MOL
REMARK 922        TOTAL FREE ENERGY PREDICTED BY IDOCK:   -6.00 KCAL/MOL
REMARK 923 INTER-LIGAND FREE ENERGY PREDICTED BY IDOCK:   -5.82 KCAL/MOL
REMARK 924 INTRA-LIGAND FREE ENERGY PREDICTED BY IDOCK:   -0.18 KCAL/MOL
REMARK 927      BINDING AFFINITY PREDICTED BY RF-SCORE:    0.00 PKD
ROOT
HETATM    1  C   UNL     1     -10.656   8.020  67.178  1.00  0.00    -0.367 C  
HETATM    2  C   UNL     1      -9.420   8.724  67.739  1.00  0.00    -0.164 C  
HETATM    3  C   UNL     1      -9.481  10.232  67.077  1.00  0.00    -0.191 C  
HETATM    4  C   UNL     1     -10.488  11.261  67.757  1.00  0.00    -0.218 C  
HETATM    5  C   UNL     1     -10.644  11.203  69.322  1.00  0.00    -0.212 C  
HETATM    6  C   UNL     1     -10.530   9.734  69.670  1.00  0.00    -0.263 C  
HETATM    7  C   UNL     1      -9.240   9.067  69.215  1.00  0.00    -0.145 C  
HETATM    8  C   UNL     1     -11.071   9.248  71.010  1.00  0.00    -0.396 C  
HETATM    9  C   UNL     1     -12.543   9.636  71.080  1.00  0.00    -0.411 C  
HETATM   10  C   UNL     1      -7.749   9.625  69.144  1.00  0.00    -0.087 C  
HETATM   11  C   UNL     1     -12.628  11.131  71.047  1.00  0.00    -0.503 C  
HETATM   12  C   UNL     1      -7.086   8.896  67.876  1.00  0.00    -0.079 C  
HETATM   13  C   UNL     1      -8.113   7.830  67.596  1.00  0.00    -0.124 C  
HETATM   14  C   UNL     1     -13.277  11.755  72.036  1.00  0.00    -0.460 C  
HETATM   15  C   UNL     1     -12.026  11.823  69.829  1.00  0.00    -0.392 C  
HETATM   16  O   UNL     1      -8.061   7.140  66.369  1.00  0.00    -0.108 OA 
HETATM   17  C   UNL     1     -13.478  13.220  72.119  1.00  0.00    -0.655 C  
HETATM   18  C   UNL     1     -11.970  13.364  69.963  1.00  0.00    -0.407 C  
HETATM   19  H   UNL     1      -7.281   6.606  66.284  1.00  0.00     0.000 HD 
HETATM   20  C   UNL     1     -12.590  14.040  71.191  1.00  0.00    -0.445 C  
ENDROOT
BRANCH  13  21
HETATM   21  C   UNL     1      -7.810   6.782  68.689  1.00  0.00    -0.118 C  
HETATM   22  C   UNL     1      -7.241   6.014  69.397  1.00  0.00    -0.074 C  
ENDBRANCH  13  21
TORSDOF 1
ENDMDL
MODEL       22
REMARK 921   NORMALIZED FREE ENERGY PREDICTED BY IDOCK:   -5.44 KCAL/MOL
REMARK 922        TOTAL FREE ENERGY PREDICTED BY IDOCK:   -5.99 KCAL/MOL
REMARK 923 INTER-LIGAND FREE ENERGY PREDICTED BY IDOCK:   -5.76 KCAL/MOL
REMARK 924 INTRA-LIGAND FREE ENERGY PREDICTED BY IDOCK:   -0.22 KCAL/MOL
REMARK 927      BINDING AFFINITY PREDICTED BY RF-SCORE:    0.00 PKD
ROOT
HETATM    1  C   UNL     1     -11.117  16.009  69.029  1.00  0.00    -0.320 C  
HETATM    2  C   UNL     1     -10.712  15.951  67.555  1.00  0.00    -0.318 C  
HETATM    3  C   UNL     1     -11.158  17.422  66.958  1.00  0.00     0.257 C  
HETATM    4  C   UNL     1     -10.180  18.637  67.273  1.00  0.00    -0.413 C  
HETATM    5  C   UNL     1      -8.632  18.348  67.272  1.00  0.00    -0.261 C  
HETATM    6  C   UNL     1      -8.498  16.950  67.839  1.00  0.00    -0.203 C  
HETATM    7  C   UNL     1      -9.264  15.877  67.079  1.00  0.00    -0.231 C  
HETATM    8  C   UNL     1      -7.152  16.508  68.401  1.00  0.00    -0.160 C  
HETATM    9  C   UNL     1      -6.761  17.497  69.493  1.00  0.00    -0.116 C  
HETATM   10  C   UNL     1      -9.541  15.701  65.520  1.00  0.00    -0.237 C  
HETATM   11  C   UNL     1      -6.592  18.843  68.856  1.00  0.00    -0.301 C  
HETATM   12  C   UNL     1     -10.991  15.018  65.422  1.00  0.00    -0.380 C  
HETATM   13  C   UNL     1     -11.205  14.611  66.857  1.00  0.00    -0.343 C  
HETATM   14  C   UNL     1      -5.429  19.483  69.020  1.00  0.00    -0.217 C  
HETATM   15  C   UNL     1      -7.804  19.412  68.128  1.00  0.00    -0.343 C  
HETATM   16  O   UNL     1     -12.497  14.230  67.270  1.00  0.00    -0.589 OA 
HETATM   17  C   UNL     1      -5.128  20.831  68.487  1.00  0.00    -0.304 C  
HETATM   18  C   UNL     1      -7.492  20.701  67.329  1.00  0.00    -0.395 C  
HETATM   19  H   UNL     1     -12.791  13.429  66.854  1.00  0.00     0.000 HD 
HETATM   20  C   UNL     1      -6.096  21.327  67.418  1.00  0.00    -0.434 C  
ENDROOT
BRANCH  13  21
HETATM   21  C   UNL     1     -10.327  13.346  66.979  1.00  0.00    -0.247 C  
HETATM   22  C   UNL     1      -9.939  12.259  67.265  1.00  0.00    -0.210 C  
ENDBRANCH  13  21
TORSDOF 1
ENDMDL
MODEL       23
REMARK 921   NORMALIZED FREE ENERGY PREDICTED BY IDOCK:   -5.36 KCAL/MOL
REMARK 922        TOTAL FREE ENERGY PREDICTED BY IDOCK:   -5.90 KCAL/MOL
REMARK 923 INTER-LIGAND FREE ENERGY PREDICTED BY IDOCK:   -5.73 KCAL/MOL
REMARK 924 INTRA-LIGAND FREE ENERGY PREDICTED BY IDOCK:   -0.16 KCAL/MOL
REMARK 927      BINDING AFFINITY PREDICTED BY RF-SCORE:    0.00 PKD
ROOT
HETATM    1  C   UNL     1      -9.836  12.337  65.233  1.00  0.00    -0.199 C  
HETATM    2  C   UNL     1     -10.367  13.261  66.331  1.00  0.00    -0.286 C  
HETATM    3  C   UNL     1     -11.737  12.512  66.858  1.00  0.00    -0.447 C  
HETATM    4  C   UNL     1     -11.533  11.290  67.859  1.00  0.00    -0.360 C  
HETATM    5  C   UNL     1     -10.371  11.399  68.916  1.00  0.00    -0.203 C  
HETATM    6  C   UNL     1      -9.259  12.135  68.198  1.00  0.00    -0.197 C  
HETATM    7  C   UNL     1      -9.645  13.502  67.653  1.00  0.00    -0.222 C  
HETATM    8  C   UNL     1      -7.837  12.031  68.737  1.00  0.00    -0.033 C  
HETATM    9  C   UNL     1      -7.470  10.553  68.785  1.00  0.00    -0.097 C  
HETATM   10  C   UNL     1     -10.612  14.623  68.243  1.00  0.00    -0.235 C  
HETATM   11  C   UNL     1      -8.395   9.879  69.752  1.00  0.00    -0.196 C  
HETATM   12  C   UNL     1     -11.273  15.329  66.961  1.00  0.00    -0.275 C  
HETATM   13  C   UNL     1     -10.404  14.779  65.860  1.00  0.00    -0.320 C  
HETATM   14  C   UNL     1      -7.864   9.187  70.766  1.00  0.00    -0.173 C  
HETATM   15  C   UNL     1      -9.886   9.975  69.451  1.00  0.00    -0.240 C  
HETATM   16  O   UNL     1     -10.828  14.920  64.524  1.00  0.00    -0.609 OA 
HETATM   17  C   UNL     1      -8.646   8.438  71.775  1.00  0.00    -0.234 C  
HETATM   18  C   UNL     1     -10.780   9.435  70.594  1.00  0.00    -0.353 C  
HETATM   19  H   UNL     1     -10.850  15.827  64.243  1.00  0.00     0.000 HD 
HETATM   20  C   UNL     1     -10.130   8.783  71.819  1.00  0.00    -0.403 C  
ENDROOT
BRANCH  13  21
HETATM   21  C   UNL     1      -9.121  15.627  65.993  1.00  0.00    -0.346 C  
HETATM   22  C   UNL     1      -8.378  16.547  66.126  1.00  0.00    -0.305 C  
ENDBRANCH  13  21
TORSDOF 1
ENDMDL
MODEL       24
REMARK 921   NORMALIZED FREE ENERGY PREDICTED BY IDOCK:   -5.30 KCAL/MOL
REMARK 922        TOTAL FREE ENERGY PREDICTED BY IDOCK:   -5.83 KCAL/MOL
REMARK 923 INTER-LIGAND FREE ENERGY PREDICTED BY IDOCK:   -5.61 KCAL/MOL
REMARK 924 INTRA-LIGAND FREE ENERGY PREDICTED BY IDOCK:   -0.22 KCAL/MOL
REMARK 927      BINDING AFFINITY PREDICTED BY RF-SCORE:    0.00 PKD
ROOT
HETATM    1  C   UNL     1     -11.226  11.738  65.796  1.00  0.00    -0.337 C  
HETATM    2  C   UNL     1      -9.895  12.027  66.492  1.00  0.00    -0.225 C  
HETATM    3  C   UNL     1      -9.832  13.672  66.572  1.00  0.00    -0.295 C  
HETATM    4  C   UNL     1     -10.687  14.355  67.728  1.00  0.00    -0.248 C  
HETATM    5  C   UNL     1     -10.767  13.612  69.114  1.00  0.00    -0.137 C  
HETATM    6  C   UNL     1     -10.790  12.139  68.764  1.00  0.00    -0.265 C  
HETATM    7  C   UNL     1      -9.603  11.657  67.943  1.00  0.00    -0.180 C  
HETATM    8  C   UNL     1     -11.309  11.144  69.796  1.00  0.00    -0.354 C  
HETATM    9  C   UNL     1     -12.726  11.562  70.168  1.00  0.00    -0.031 C  
HETATM   10  C   UNL     1      -8.067  12.081  67.986  1.00  0.00    -0.153 C  
HETATM   11  C   UNL     1     -12.654  12.915  70.807  1.00  0.00    -0.314 C  
HETATM   12  C   UNL     1      -7.551  11.953  66.471  1.00  0.00     0.133 C  
HETATM   13  C   UNL     1      -8.698  11.201  65.847  1.00  0.00    -0.164 C  
HETATM   14  C   UNL     1     -13.181  13.074  72.026  1.00  0.00    -0.543 C  
HETATM   15  C   UNL     1     -12.047  14.035  69.969  1.00  0.00    -0.412 C  
HETATM   16  O   UNL     1      -8.784  11.133  64.442  1.00  0.00    -0.375 OA 
HETATM   17  C   UNL     1     -13.222  14.356  72.765  1.00  0.00    -0.611 C  
HETATM   18  C   UNL     1     -11.822  15.345  70.764  1.00  0.00    -0.394 C  
HETATM   19  H   UNL     1      -8.070  10.640  64.057  1.00  0.00     0.000 HD 
HETATM   20  C   UNL     1     -12.303  15.440  72.216  1.00  0.00    -0.465 C  
ENDROOT
BRANCH  13  21
HETATM   21  C   UNL     1      -8.451   9.755  66.330  1.00  0.00    -0.128 C  
HETATM   22  C   UNL     1      -8.254   8.583  66.344  1.00  0.00    -0.108 C  
ENDBRANCH  13  21
TORSDOF 1
ENDMDL
MODEL       25
REMARK 921   NORMALIZED FREE ENERGY PREDICTED BY IDOCK:   -5.23 KCAL/MOL
REMARK 922        TOTAL FREE ENERGY PREDICTED BY IDOCK:   -5.76 KCAL/MOL
REMARK 923 INTER-LIGAND FREE ENERGY PREDICTED BY IDOCK:   -5.54 KCAL/MOL
REMARK 924 INTRA-LIGAND FREE ENERGY PREDICTED BY IDOCK:   -0.21 KCAL/MOL
REMARK 927      BINDING AFFINITY PREDICTED BY RF-SCORE:    0.00 PKD
ROOT
HETATM    1  C   UNL     1     -11.773   6.473  70.092  1.00  0.00    -0.419 C  
HETATM    2  C   UNL     1     -10.292   6.847  70.180  1.00  0.00    -0.218 C  
HETATM    3  C   UNL     1      -9.747   6.692  68.632  1.00  0.00    -0.129 C  
HETATM    4  C   UNL     1     -10.084   7.892  67.642  1.00  0.00    -0.262 C  
HETATM    5  C   UNL     1     -10.052   9.353  68.228  1.00  0.00    -0.210 C  
HETATM    6  C   UNL     1     -10.573   9.216  69.643  1.00  0.00    -0.237 C  
HETATM    7  C   UNL     1      -9.793   8.248  70.520  1.00  0.00    -0.197 C  
HETATM    8  C   UNL     1     -11.102  10.454  70.358  1.00  0.00    -0.371 C  
HETATM    9  C   UNL     1     -12.217  11.040  69.500  1.00  0.00    -0.352 C  
HETATM   10  C   UNL     1      -8.233   7.928  70.587  1.00  0.00    -0.114 C  
HETATM   11  C   UNL     1     -11.619  11.464  68.194  1.00  0.00    -0.364 C  
HETATM   12  C   UNL     1      -8.137   6.372  70.970  1.00  0.00    -0.121 C  
HETATM   13  C   UNL     1      -9.561   6.094  71.375  1.00  0.00    -0.159 C  
HETATM   14  C   UNL     1     -11.786  12.731  67.798  1.00  0.00    -0.412 C  
HETATM   15  C   UNL     1     -10.927  10.380  67.375  1.00  0.00    -0.335 C  
HETATM   16  O   UNL     1      -9.982   4.757  71.509  1.00  0.00    -0.178 OA 
HETATM   17  C   UNL     1     -11.289  13.285  66.518  1.00  0.00    -0.353 C  
HETATM   18  C   UNL     1     -10.164  10.932  66.146  1.00  0.00    -0.304 C  
HETATM   19  H   UNL     1      -9.545   4.308  72.223  1.00  0.00     0.000 HD 
HETATM   20  C   UNL     1     -10.251  12.425  65.809  1.00  0.00    -0.283 C  
ENDROOT
BRANCH  13  21
HETATM   21  C   UNL     1      -9.631   6.708  72.790  1.00  0.00    -0.157 C  
HETATM   22  C   UNL     1     -10.002   7.001  73.881  1.00  0.00    -0.370 C  
ENDBRANCH  13  21
TORSDOF 1
ENDMDL
MODEL       26
REMARK 921   NORMALIZED FREE ENERGY PREDICTED BY IDOCK:   -5.20 KCAL/MOL
REMARK 922        TOTAL FREE ENERGY PREDICTED BY IDOCK:   -5.73 KCAL/MOL
REMARK 923 INTER-LIGAND FREE ENERGY PREDICTED BY IDOCK:   -5.51 KCAL/MOL
REMARK 924 INTRA-LIGAND FREE ENERGY PREDICTED BY IDOCK:   -0.22 KCAL/MOL
REMARK 927      BINDING AFFINITY PREDICTED BY RF-SCORE:    0.00 PKD
ROOT
HETATM    1  C   UNL     1     -13.102   6.717  70.849  1.00  0.00     0.116 C  
HETATM    2  C   UNL     1     -11.716   7.277  71.171  1.00  0.00    -0.334 C  
HETATM    3  C   UNL     1     -10.892   5.985  71.779  1.00  0.00    -0.312 C  
HETATM    4  C   UNL     1     -10.325   4.946  70.714  1.00  0.00    -0.228 C  
HETATM    5  C   UNL     1      -9.776   5.520  69.354  1.00  0.00    -0.216 C  
HETATM    6  C   UNL     1     -10.680   6.693  69.035  1.00  0.00    -0.299 C  
HETATM    7  C   UNL     1     -10.736   7.768  70.109  1.00  0.00    -0.242 C  
HETATM    8  C   UNL     1     -10.742   7.208  67.601  1.00  0.00    -0.314 C  
HETATM    9  C   UNL     1     -11.151   6.041  66.710  1.00  0.00    -0.201 C  
HETATM   10  C   UNL     1      -9.604   8.330  71.081  1.00  0.00    -0.206 C  
HETATM   11  C   UNL     1     -10.079   4.998  66.795  1.00  0.00    -0.270 C  
HETATM   12  C   UNL     1     -10.367   8.715  72.441  1.00  0.00    -0.317 C  
HETATM   13  C   UNL     1     -11.802   8.639  71.988  1.00  0.00    -0.372 C  
HETATM   14  C   UNL     1      -9.507   4.577  65.661  1.00  0.00    -0.174 C  
HETATM   15  C   UNL     1      -9.779   4.438  68.181  1.00  0.00    -0.181 C  
HETATM   16  O   UNL     1     -12.822   8.624  72.959  1.00  0.00    -0.677 OA 
HETATM   17  C   UNL     1      -8.466   3.528  65.582  1.00  0.00    -0.108 C  
HETATM   18  C   UNL     1      -8.530   3.522  68.216  1.00  0.00    -0.106 C  
HETATM   19  H   UNL     1     -12.874   9.437  73.446  1.00  0.00     0.000 HD 
HETATM   20  C   UNL     1      -7.803   3.184  66.911  1.00  0.00    -0.079 C  
ENDROOT
BRANCH  13  21
HETATM   21  C   UNL     1     -11.975   9.961  71.208  1.00  0.00    -0.489 C  
HETATM   22  C   UNL     1     -12.313  11.058  70.897  1.00  0.00    -0.503 C  
ENDBRANCH  13  21
TORSDOF 1
ENDMDL
MODEL       27
REMARK 921   NORMALIZED FREE ENERGY PREDICTED BY IDOCK:   -5.18 KCAL/MOL
REMARK 922        TOTAL FREE ENERGY PREDICTED BY IDOCK:   -5.71 KCAL/MOL
REMARK 923 INTER-LIGAND FREE ENERGY PREDICTED BY IDOCK:   -5.54 KCAL/MOL
REMARK 924 INTRA-LIGAND FREE ENERGY PREDICTED BY IDOCK:   -0.17 KCAL/MOL
REMARK 927      BINDING AFFINITY PREDICTED BY RF-SCORE:    0.00 PKD
ROOT
HETATM    1  C   UNL     1     -11.536   6.296  69.617  1.00  0.00    -0.425 C  
HETATM    2  C   UNL     1     -10.189   6.712  70.211  1.00  0.00    -0.215 C  
HETATM    3  C   UNL     1      -9.356   7.324  68.927  1.00  0.00    -0.144 C  
HETATM    4  C   UNL     1      -9.724   8.809  68.489  1.00  0.00    -0.173 C  
HETATM    5  C   UNL     1     -10.067   9.842  69.627  1.00  0.00    -0.254 C  
HETATM    6  C   UNL     1     -10.799   9.034  70.678  1.00  0.00    -0.295 C  
HETATM    7  C   UNL     1     -10.026   7.843  71.223  1.00  0.00    -0.206 C  
HETATM    8  C   UNL     1     -11.667   9.763  71.698  1.00  0.00    -0.390 C  
HETATM    9  C   UNL     1     -12.698  10.578  70.927  1.00  0.00    -0.495 C  
HETATM   10  C   UNL     1      -8.471   7.660  71.524  1.00  0.00    -0.124 C  
HETATM   11  C   UNL     1     -11.963  11.598  70.111  1.00  0.00    -0.441 C  
HETATM   12  C   UNL     1      -8.161   6.114  71.223  1.00  0.00    -0.118 C  
HETATM   13  C   UNL     1      -9.559   5.564  71.112  1.00  0.00    -0.162 C  
HETATM   14  C   UNL     1     -12.286  12.887  70.262  1.00  0.00    -0.362 C  
HETATM   15  C   UNL     1     -10.948  11.067  69.105  1.00  0.00    -0.289 C  
HETATM   16  O   UNL     1      -9.744   4.281  70.561  1.00  0.00    -0.185 OA 
HETATM   17  C   UNL     1     -11.678  14.002  69.501  1.00  0.00    -0.367 C  
HETATM   18  C   UNL     1     -10.091  12.178  68.452  1.00  0.00    -0.210 C  
HETATM   19  H   UNL     1      -9.368   3.595  71.100  1.00  0.00     0.000 HD 
HETATM   20  C   UNL     1     -10.389  13.648  68.769  1.00  0.00    -0.182 C  
ENDROOT
BRANCH  13  21
HETATM   21  C   UNL     1      -9.994   5.461  72.590  1.00  0.00    -0.194 C  
HETATM   22  C   UNL     1     -10.657   5.356  73.572  1.00  0.00    -0.310 C  
ENDBRANCH  13  21
TORSDOF 1
ENDMDL
MODEL       28
REMARK 921   NORMALIZED FREE ENERGY PREDICTED BY IDOCK:   -5.15 KCAL/MOL
REMARK 922        TOTAL FREE ENERGY PREDICTED BY IDOCK:   -5.67 KCAL/MOL
REMARK 923 INTER-LIGAND FREE ENERGY PREDICTED BY IDOCK:   -5.45 KCAL/MOL
REMARK 924 INTRA-LIGAND FREE ENERGY PREDICTED BY IDOCK:   -0.22 KCAL/MOL
REMARK 927      BINDING AFFINITY PREDICTED BY RF-SCORE:    0.00 PKD
ROOT
HETATM    1  C   UNL     1     -11.873  14.835  66.884  1.00  0.00    -0.279 C  
HETATM    2  C   UNL     1     -10.737  14.787  67.907  1.00  0.00    -0.259 C  
HETATM    3  C   UNL     1     -11.421  14.091  69.235  1.00  0.00    -0.344 C  
HETATM    4  C   UNL     1     -11.578  12.507  69.200  1.00  0.00    -0.375 C  
HETATM    5  C   UNL     1     -10.431  11.675  68.516  1.00  0.00    -0.236 C  
HETATM    6  C   UNL     1      -9.966  12.532  67.357  1.00  0.00    -0.207 C  
HETATM    7  C   UNL     1      -9.489  13.924  67.743  1.00  0.00    -0.214 C  
HETATM    8  C   UNL     1      -9.195  11.876  66.217  1.00  0.00    -0.218 C  
HETATM    9  C   UNL     1     -10.064  10.758  65.657  1.00  0.00    -0.327 C  
HETATM   10  C   UNL     1      -8.686  14.433  69.022  1.00  0.00     0.014 C  
HETATM   11  C   UNL     1     -10.265   9.743  66.740  1.00  0.00    -0.300 C  
HETATM   12  C   UNL     1      -9.226  15.919  69.297  1.00  0.00    -0.254 C  
HETATM   13  C   UNL     1      -9.983  16.182  68.021  1.00  0.00    -0.238 C  
HETATM   14  C   UNL     1      -9.928   8.472  66.494  1.00  0.00    -0.350 C  
HETATM   15  C   UNL     1     -10.919  10.236  68.026  1.00  0.00    -0.345 C  
HETATM   16  O   UNL     1     -10.866  17.279  67.967  1.00  0.00    -0.381 OA 
HETATM   17  C   UNL     1     -10.103   7.354  67.448  1.00  0.00    -0.274 C  
HETATM   18  C   UNL     1     -10.905   9.186  69.164  1.00  0.00    -0.131 C  
HETATM   19  H   UNL     1     -10.416  18.112  68.035  1.00  0.00     0.000 HD 
HETATM   20  C   UNL     1     -10.366   7.778  68.888  1.00  0.00    -0.224 C  
ENDROOT
BRANCH  13  21
HETATM   21  C   UNL     1      -8.850  16.496  67.020  1.00  0.00    -0.217 C  
HETATM   22  C   UNL     1      -8.250  16.909  66.080  1.00  0.00    -0.295 C  
ENDBRANCH  13  21
TORSDOF 1
ENDMDL
MODEL       29
REMARK 921   NORMALIZED FREE ENERGY PREDICTED BY IDOCK:   -5.11 KCAL/MOL
REMARK 922        TOTAL FREE ENERGY PREDICTED BY IDOCK:   -5.63 KCAL/MOL
REMARK 923 INTER-LIGAND FREE ENERGY PREDICTED BY IDOCK:   -5.42 KCAL/MOL
REMARK 924 INTRA-LIGAND FREE ENERGY PREDICTED BY IDOCK:   -0.22 KCAL/MOL
REMARK 927      BINDING AFFINITY PREDICTED BY RF-SCORE:    0.00 PKD
ROOT
HETATM    1  C   UNL     1      -7.405   9.667  69.016  1.00  0.00    -0.073 C  
HETATM    2  C   UNL     1      -8.766   8.999  69.222  1.00  0.00    -0.138 C  
HETATM    3  C   UNL     1      -9.723  10.210  69.800  1.00  0.00    -0.232 C  
HETATM    4  C   UNL     1     -10.288  11.238  68.723  1.00  0.00    -0.223 C  
HETATM    5  C   UNL     1     -10.696  10.667  67.314  1.00  0.00    -0.338 C  
HETATM    6  C   UNL     1      -9.688   9.572  67.031  1.00  0.00    -0.229 C  
HETATM    7  C   UNL     1      -9.629   8.472  68.080  1.00  0.00    -0.158 C  
HETATM    8  C   UNL     1      -9.488   9.107  65.593  1.00  0.00    -0.309 C  
HETATM    9  C   UNL     1      -9.104  10.325  64.764  1.00  0.00    -0.256 C  
HETATM   10  C   UNL     1     -10.783   7.802  68.953  1.00  0.00    -0.108 C  
HETATM   11  C   UNL     1     -10.253  11.286  64.797  1.00  0.00    -0.347 C  
HETATM   12  C   UNL     1     -10.091   7.432  70.354  1.00  0.00    -0.193 C  
HETATM   13  C   UNL     1      -8.638   7.624  70.009  1.00  0.00    -0.138 C  
HETATM   14  C   UNL     1     -10.772  11.699  63.635  1.00  0.00    -0.500 C  
HETATM   15  C   UNL     1     -10.691  11.782  66.171  1.00  0.00    -0.320 C  
HETATM   16  O   UNL     1      -7.692   7.683  71.051  1.00  0.00    -0.085 OA 
HETATM   17  C   UNL     1     -11.879  12.673  63.507  1.00  0.00    -0.619 C  
HETATM   18  C   UNL     1     -12.002  12.604  66.138  1.00  0.00    -0.458 C  
HETATM   19  H   UNL     1      -7.616   6.861  71.521  1.00  0.00     0.000 HD 
HETATM   20  C   UNL     1     -12.658  12.929  64.792  1.00  0.00    -0.493 C  
ENDROOT
BRANCH  13  21
HETATM   21  C   UNL     1      -8.313   6.342  69.211  1.00  0.00    -0.117 C  
HETATM   22  C   UNL     1      -7.724   5.462  68.670  1.00  0.00    -0.084 C  
ENDBRANCH  13  21
TORSDOF 1
ENDMDL
MODEL       30
REMARK 921   NORMALIZED FREE ENERGY PREDICTED BY IDOCK:   -5.08 KCAL/MOL
REMARK 922        TOTAL FREE ENERGY PREDICTED BY IDOCK:   -5.60 KCAL/MOL
REMARK 923 INTER-LIGAND FREE ENERGY PREDICTED BY IDOCK:   -5.60 KCAL/MOL
REMARK 924 INTRA-LIGAND FREE ENERGY PREDICTED BY IDOCK:   -0.00 KCAL/MOL
REMARK 927      BINDING AFFINITY PREDICTED BY RF-SCORE:    0.00 PKD
ROOT
HETATM    1  C   UNL     1      -9.809  12.486  64.003  1.00  0.00    -0.109 C  
HETATM    2  C   UNL     1     -10.825  12.838  65.091  1.00  0.00    -0.318 C  
HETATM    3  C   UNL     1     -11.404  11.377  65.587  1.00  0.00    -0.069 C  
HETATM    4  C   UNL     1     -10.480  10.555  66.589  1.00  0.00    -0.290 C  
HETATM    5  C   UNL     1      -9.674  11.366  67.671  1.00  0.00    -0.183 C  
HETATM    6  C   UNL     1      -9.281  12.654  66.979  1.00  0.00    -0.212 C  
HETATM    7  C   UNL     1     -10.446  13.465  66.430  1.00  0.00    -0.286 C  
HETATM    8  C   UNL     1      -8.132  13.478  67.548  1.00  0.00    -0.190 C  
HETATM    9  C   UNL     1      -6.903  12.578  67.601  1.00  0.00    -0.136 C  
HETATM   10  C   UNL     1     -11.915  13.697  67.001  1.00  0.00    -0.448 C  
HETATM   11  C   UNL     1      -7.196  11.453  68.546  1.00  0.00    -0.093 C  
HETATM   12  C   UNL     1     -12.855  13.835  65.707  1.00  0.00    -0.430 C  
HETATM   13  C   UNL     1     -11.820  13.987  64.623  1.00  0.00    -0.417 C  
HETATM   14  C   UNL     1      -6.360  11.246  69.570  1.00  0.00    -0.109 C  
HETATM   15  C   UNL     1      -8.397  10.575  68.212  1.00  0.00    -0.122 C  
HETATM   16  O   UNL     1     -12.215  13.845  63.279  1.00  0.00    -1.061 OA 
HETATM   17  C   UNL     1      -6.495  10.153  70.559  1.00  0.00    -0.116 C  
HETATM   18  C   UNL     1      -8.754   9.569  69.334  1.00  0.00    -0.166 C  
HETATM   19  H   UNL     1     -12.809  14.532  63.000  1.00  0.00     0.000 HD 
HETATM   20  C   UNL     1      -7.856   9.467  70.572  1.00  0.00    -0.185 C  
ENDROOT
BRANCH  13  21
HETATM   21  C   UNL     1     -11.381  15.459  64.787  1.00  0.00    -0.381 C  
HETATM   22  C   UNL     1     -10.735  16.430  65.021  1.00  0.00    -0.279 C  
ENDBRANCH  13  21
TORSDOF 1
ENDMDL
MODEL       31
REMARK 921   NORMALIZED FREE ENERGY PREDICTED BY IDOCK:   -5.01 KCAL/MOL
REMARK 922        TOTAL FREE ENERGY PREDICTED BY IDOCK:   -5.53 KCAL/MOL
REMARK 923 INTER-LIGAND FREE ENERGY PREDICTED BY IDOCK:   -5.31 KCAL/MOL
REMARK 924 INTRA-LIGAND FREE ENERGY PREDICTED BY IDOCK:   -0.21 KCAL/MOL
REMARK 927      BINDING AFFINITY PREDICTED BY RF-SCORE:    0.00 PKD
ROOT
HETATM    1  C   UNL     1     -10.780   7.562  67.706  1.00  0.00    -0.233 C  
HETATM    2  C   UNL     1     -10.270   8.008  69.078  1.00  0.00    -0.217 C  
HETATM    3  C   UNL     1      -8.661   8.276  68.840  1.00  0.00    -0.137 C  
HETATM    4  C   UNL     1      -8.271   9.655  68.146  1.00  0.00    -0.106 C  
HETATM    5  C   UNL     1      -9.121  10.927  68.519  1.00  0.00    -0.173 C  
HETATM    6  C   UNL     1     -10.533  10.410  68.702  1.00  0.00    -0.216 C  
HETATM    7  C   UNL     1     -10.683   9.316  69.748  1.00  0.00    -0.245 C  
HETATM    8  C   UNL     1     -11.694  11.395  68.626  1.00  0.00    -0.394 C  
HETATM    9  C   UNL     1     -11.619  12.091  67.272  1.00  0.00    -0.383 C  
HETATM   10  C   UNL     1      -9.946   9.102  71.145  1.00  0.00    -0.377 C  
HETATM   11  C   UNL     1     -10.337  12.864  67.222  1.00  0.00    -0.234 C  
HETATM   12  C   UNL     1      -9.840   7.510  71.328  1.00  0.00    -0.188 C  
HETATM   13  C   UNL     1     -10.767   7.040  70.238  1.00  0.00    -0.241 C  
HETATM   14  C   UNL     1     -10.392  14.174  66.957  1.00  0.00    -0.267 C  
HETATM   15  C   UNL     1      -9.050  12.066  67.403  1.00  0.00    -0.178 C  
HETATM   16  O   UNL     1     -10.740   5.684  69.859  1.00  0.00    -0.308 OA 
HETATM   17  C   UNL     1      -9.211  15.058  66.836  1.00  0.00    -0.265 C  
HETATM   18  C   UNL     1      -7.790  12.955  67.542  1.00  0.00    -0.177 C  
HETATM   19  H   UNL     1     -11.037   5.106  70.551  1.00  0.00     0.000 HD 
HETATM   20  C   UNL     1      -7.915  14.474  67.385  1.00  0.00    -0.221 C  
ENDROOT
BRANCH  13  21
HETATM   21  C   UNL     1     -12.160   7.283  70.858  1.00  0.00    -0.326 C  
HETATM   22  C   UNL     1     -13.156   7.152  71.495  1.00  0.00    -0.427 C  
ENDBRANCH  13  21
TORSDOF 1
ENDMDL
MODEL       32
REMARK 921   NORMALIZED FREE ENERGY PREDICTED BY IDOCK:   -5.00 KCAL/MOL
REMARK 922        TOTAL FREE ENERGY PREDICTED BY IDOCK:   -5.51 KCAL/MOL
REMARK 923 INTER-LIGAND FREE ENERGY PREDICTED BY IDOCK:   -5.33 KCAL/MOL
REMARK 924 INTRA-LIGAND FREE ENERGY PREDICTED BY IDOCK:   -0.18 KCAL/MOL
REMARK 927      BINDING AFFINITY PREDICTED BY RF-SCORE:    0.00 PKD
ROOT
HETATM    1  C   UNL     1     -10.991   6.325  68.544  1.00  0.00    -0.421 C  
HETATM    2  C   UNL     1      -9.641   6.993  68.276  1.00  0.00    -0.134 C  
HETATM    3  C   UNL     1      -9.864   7.789  66.850  1.00  0.00    -0.305 C  
HETATM    4  C   UNL     1     -10.638   9.177  66.930  1.00  0.00    -0.237 C  
HETATM    5  C   UNL     1     -10.367  10.094  68.180  1.00  0.00    -0.217 C  
HETATM    6  C   UNL     1     -10.179   9.132  69.334  1.00  0.00    -0.212 C  
HETATM    7  C   UNL     1      -9.067   8.112  69.141  1.00  0.00    -0.148 C  
HETATM    8  C   UNL     1     -10.343   9.647  70.760  1.00  0.00    -0.356 C  
HETATM    9  C   UNL     1     -11.737  10.252  70.873  1.00  0.00    -0.472 C  
HETATM   10  C   UNL     1      -7.644   8.243  68.435  1.00  0.00    -0.101 C  
HETATM   11  C   UNL     1     -11.812  11.417  69.934  1.00  0.00    -0.435 C  
HETATM   12  C   UNL     1      -7.355   6.799  67.795  1.00  0.00    -0.096 C  
HETATM   13  C   UNL     1      -8.431   5.978  68.457  1.00  0.00    -0.113 C  
HETATM   14  C   UNL     1     -12.164  12.610  70.426  1.00  0.00    -0.368 C  
HETATM   15  C   UNL     1     -11.554  11.125  68.460  1.00  0.00    -0.385 C  
HETATM   16  O   UNL     1      -8.720   4.697  67.950  1.00  0.00    -0.102 OA 
HETATM   17  C   UNL     1     -12.319  13.841  69.618  1.00  0.00    -0.284 C  
HETATM   18  C   UNL     1     -11.448  12.402  67.591  1.00  0.00    -0.399 C  
HETATM   19  H   UNL     1      -7.997   4.091  68.058  1.00  0.00     0.000 HD 
HETATM   20  C   UNL     1     -11.706  13.772  68.224  1.00  0.00    -0.394 C  
ENDROOT
BRANCH  13  21
HETATM   21  C   UNL     1      -7.856   5.757  69.874  1.00  0.00    -0.088 C  
HETATM   22  C   UNL     1      -7.129   5.467  70.769  1.00  0.00    -0.064 C  
ENDBRANCH  13  21
TORSDOF 1
ENDMDL
MODEL       33
REMARK 921   NORMALIZED FREE ENERGY PREDICTED BY IDOCK:   -4.98 KCAL/MOL
REMARK 922        TOTAL FREE ENERGY PREDICTED BY IDOCK:   -5.50 KCAL/MOL
REMARK 923 INTER-LIGAND FREE ENERGY PREDICTED BY IDOCK:   -5.28 KCAL/MOL
REMARK 924 INTRA-LIGAND FREE ENERGY PREDICTED BY IDOCK:   -0.22 KCAL/MOL
REMARK 927      BINDING AFFINITY PREDICTED BY RF-SCORE:    0.00 PKD
ROOT
HETATM    1  C   UNL     1     -11.518   6.219  69.727  1.00  0.00    -0.449 C  
HETATM    2  C   UNL     1     -10.721   7.152  70.640  1.00  0.00    -0.255 C  
HETATM    3  C   UNL     1      -9.197   6.526  70.623  1.00  0.00    -0.163 C  
HETATM    4  C   UNL     1      -8.308   6.866  69.347  1.00  0.00    -0.132 C  
HETATM    5  C   UNL     1      -8.456   8.301  68.716  1.00  0.00    -0.125 C  
HETATM    6  C   UNL     1      -9.922   8.646  68.876  1.00  0.00    -0.197 C  
HETATM    7  C   UNL     1     -10.434   8.614  70.308  1.00  0.00    -0.229 C  
HETATM    8  C   UNL     1     -10.523   9.739  67.999  1.00  0.00    -0.271 C  
HETATM    9  C   UNL     1     -10.288   9.345  66.546  1.00  0.00    -0.268 C  
HETATM   10  C   UNL     1      -9.727   9.026  71.676  1.00  0.00    -0.347 C  
HETATM   11  C   UNL     1      -8.809   9.307  66.312  1.00  0.00    -0.172 C  
HETATM   12  C   UNL     1     -10.323   8.024  72.779  1.00  0.00    -0.408 C  
HETATM   13  C   UNL     1     -11.472   7.418  72.016  1.00  0.00    -0.273 C  
HETATM   14  C   UNL     1      -8.302  10.049  65.321  1.00  0.00    -0.157 C  
HETATM   15  C   UNL     1      -8.003   8.353  67.186  1.00  0.00    -0.104 C  
HETATM   16  O   UNL     1     -12.094   6.261  72.525  1.00  0.00    -0.516 OA 
HETATM   17  C   UNL     1      -6.870  10.084  64.945  1.00  0.00    -0.133 C  
HETATM   18  C   UNL     1      -6.472   8.519  67.026  1.00  0.00    -0.057 C  
HETATM   19  H   UNL     1     -12.543   6.420  73.346  1.00  0.00     0.000 HD 
HETATM   20  C   UNL     1      -5.921   9.496  65.983  1.00  0.00    -0.062 C  
ENDROOT
BRANCH  13  21
HETATM   21  C   UNL     1     -12.537   8.536  72.074  1.00  0.00    -0.414 C  
HETATM   22  C   UNL     1     -13.529   9.145  72.318  1.00  0.00    -0.546 C  
ENDBRANCH  13  21
TORSDOF 1
ENDMDL
MODEL       34
REMARK 921   NORMALIZED FREE ENERGY PREDICTED BY IDOCK:   -4.92 KCAL/MOL
REMARK 922        TOTAL FREE ENERGY PREDICTED BY IDOCK:   -5.44 KCAL/MOL
REMARK 923 INTER-LIGAND FREE ENERGY PREDICTED BY IDOCK:   -5.21 KCAL/MOL
REMARK 924 INTRA-LIGAND FREE ENERGY PREDICTED BY IDOCK:   -0.22 KCAL/MOL
REMARK 927      BINDING AFFINITY PREDICTED BY RF-SCORE:    0.00 PKD
ROOT
HETATM    1  C   UNL     1      -7.886   5.885  72.191  1.00  0.00    -0.103 C  
HETATM    2  C   UNL     1      -9.359   5.752  72.579  1.00  0.00    -0.149 C  
HETATM    3  C   UNL     1      -9.689   7.150  73.389  1.00  0.00    -0.273 C  
HETATM    4  C   UNL     1      -9.948   8.440  72.493  1.00  0.00    -0.356 C  
HETATM    5  C   UNL     1     -10.725   8.243  71.137  1.00  0.00    -0.270 C  
HETATM    6  C   UNL     1     -10.266   6.897  70.618  1.00  0.00    -0.212 C  
HETATM    7  C   UNL     1     -10.501   5.731  71.567  1.00  0.00    -0.291 C  
HETATM    8  C   UNL     1     -10.451   6.574  69.139  1.00  0.00    -0.260 C  
HETATM    9  C   UNL     1      -9.737   7.656  68.339  1.00  0.00    -0.164 C  
HETATM   10  C   UNL     1     -11.699   5.434  72.575  1.00  0.00    -0.176 C  
HETATM   11  C   UNL     1     -10.409   8.963  68.628  1.00  0.00    -0.228 C  
HETATM   12  C   UNL     1     -11.028   4.662  73.813  1.00  0.00    -0.368 C  
HETATM   13  C   UNL     1      -9.672   4.340  73.241  1.00  0.00    -0.126 C  
HETATM   14  C   UNL     1     -10.875   9.681  67.600  1.00  0.00    -0.276 C  
HETATM   15  C   UNL     1     -10.438   9.409  70.086  1.00  0.00    -0.280 C  
HETATM   16  O   UNL     1      -8.650   3.913  74.111  1.00  0.00    -0.092 OA 
HETATM   17  C   UNL     1     -11.526  11.006  67.725  1.00  0.00    -0.339 C  
HETATM   18  C   UNL     1     -11.321  10.658  70.329  1.00  0.00    -0.401 C  
HETATM   19  H   UNL     1      -8.837   3.069  74.505  1.00  0.00     0.000 HD 
HETATM   20  C   UNL     1     -11.970  11.369  69.137  1.00  0.00    -0.395 C  
ENDROOT
BRANCH  13  21
HETATM   21  C   UNL     1      -9.976   3.141  72.317  1.00  0.00    -0.236 C  
HETATM   22  C   UNL     1      -9.872   2.126  71.706  1.00  0.00    -0.218 C  
ENDBRANCH  13  21
TORSDOF 1
ENDMDL
MODEL       35
REMARK 921   NORMALIZED FREE ENERGY PREDICTED BY IDOCK:   -4.91 KCAL/MOL
REMARK 922        TOTAL FREE ENERGY PREDICTED BY IDOCK:   -5.43 KCAL/MOL
REMARK 923 INTER-LIGAND FREE ENERGY PREDICTED BY IDOCK:   -5.21 KCAL/MOL
REMARK 924 INTRA-LIGAND FREE ENERGY PREDICTED BY IDOCK:   -0.22 KCAL/MOL
REMARK 927      BINDING AFFINITY PREDICTED BY RF-SCORE:    0.00 PKD
ROOT
HETATM    1  C   UNL     1     -11.029   6.809  67.898  1.00  0.00    -0.309 C  
HETATM    2  C   UNL     1      -9.598   7.343  67.982  1.00  0.00    -0.152 C  
HETATM    3  C   UNL     1      -9.281   7.884  66.458  1.00  0.00    -0.238 C  
HETATM    4  C   UNL     1      -9.886   9.306  66.073  1.00  0.00    -0.363 C  
HETATM    5  C   UNL     1      -9.915  10.413  67.192  1.00  0.00    -0.239 C  
HETATM    6  C   UNL     1     -10.199   9.662  68.476  1.00  0.00    -0.216 C  
HETATM    7  C   UNL     1      -9.200   8.563  68.807  1.00  0.00    -0.142 C  
HETATM    8  C   UNL     1     -10.737  10.430  69.677  1.00  0.00    -0.304 C  
HETATM    9  C   UNL     1     -12.023  11.122  69.243  1.00  0.00    -0.421 C  
HETATM   10  C   UNL     1      -7.623   8.487  68.586  1.00  0.00    -0.098 C  
HETATM   11  C   UNL     1     -11.677  12.105  68.166  1.00  0.00    -0.402 C  
HETATM   12  C   UNL     1      -7.311   6.939  68.298  1.00  0.00    -0.097 C  
HETATM   13  C   UNL     1      -8.621   6.310  68.694  1.00  0.00    -0.121 C  
HETATM   14  C   UNL     1     -12.030  13.384  68.333  1.00  0.00    -0.359 C  
HETATM   15  C   UNL     1     -11.010  11.542  66.916  1.00  0.00    -0.350 C  
HETATM   16  O   UNL     1      -8.878   4.977  68.319  1.00  0.00    -0.101 OA 
HETATM   17  C   UNL     1     -11.793  14.459  67.343  1.00  0.00    -0.430 C  
HETATM   18  C   UNL     1     -10.502  12.636  65.945  1.00  0.00    -0.295 C  
HETATM   19  H   UNL     1      -8.295   4.360  68.744  1.00  0.00     0.000 HD 
HETATM   20  C   UNL     1     -10.792  14.110  66.248  1.00  0.00    -0.300 C  
ENDROOT
BRANCH  13  21
HETATM   21  C   UNL     1      -8.539   6.312  70.236  1.00  0.00    -0.138 C  
HETATM   22  C   UNL     1      -8.471   5.953  71.368  1.00  0.00    -0.128 C  
ENDBRANCH  13  21
TORSDOF 1
ENDMDL
MODEL       36
REMARK 921   NORMALIZED FREE ENERGY PREDICTED BY IDOCK:   -4.89 KCAL/MOL
REMARK 922        TOTAL FREE ENERGY PREDICTED BY IDOCK:   -5.40 KCAL/MOL
REMARK 923 INTER-LIGAND FREE ENERGY PREDICTED BY IDOCK:   -5.19 KCAL/MOL
REMARK 924 INTRA-LIGAND FREE ENERGY PREDICTED BY IDOCK:   -0.21 KCAL/MOL
REMARK 927      BINDING AFFINITY PREDICTED BY RF-SCORE:    0.00 PKD
ROOT
HETATM    1  C   UNL     1      -9.508   9.862  64.872  1.00  0.00    -0.355 C  
HETATM    2  C   UNL     1      -9.056   9.450  66.274  1.00  0.00    -0.204 C  
HETATM    3  C   UNL     1      -7.698  10.346  66.538  1.00  0.00    -0.121 C  
HETATM    4  C   UNL     1      -7.925  11.864  66.959  1.00  0.00    -0.158 C  
HETATM    5  C   UNL     1      -9.142  12.185  67.905  1.00  0.00    -0.185 C  
HETATM    6  C   UNL     1     -10.232  11.225  67.476  1.00  0.00    -0.217 C  
HETATM    7  C   UNL     1      -9.851   9.754  67.541  1.00  0.00    -0.209 C  
HETATM    8  C   UNL     1     -11.678  11.536  67.848  1.00  0.00    -0.317 C  
HETATM    9  C   UNL     1     -12.013  12.911  67.285  1.00  0.00    -0.371 C  
HETATM   10  C   UNL     1      -8.941   8.959  68.581  1.00  0.00    -0.137 C  
HETATM   11  C   UNL     1     -11.123  13.913  67.956  1.00  0.00    -0.279 C  
HETATM   12  C   UNL     1      -8.232   7.802  67.724  1.00  0.00    -0.126 C  
HETATM   13  C   UNL     1      -9.029   7.869  66.448  1.00  0.00    -0.166 C  
HETATM   14  C   UNL     1     -11.690  14.952  68.581  1.00  0.00    -0.358 C  
HETATM   15  C   UNL     1      -9.621  13.705  67.802  1.00  0.00    -0.224 C  
HETATM   16  O   UNL     1      -8.541   7.208  65.304  1.00  0.00    -0.298 OA 
HETATM   17  C   UNL     1     -10.944  16.040  69.252  1.00  0.00    -0.306 C  
HETATM   18  C   UNL     1      -8.775  14.654  68.685  1.00  0.00    -0.174 C  
HETATM   19  H   UNL     1      -8.525   6.264  65.407  1.00  0.00     0.000 HD 
HETATM   20  C   UNL     1      -9.472  15.739  69.513  1.00  0.00    -0.248 C  
ENDROOT
BRANCH  13  21
HETATM   21  C   UNL     1     -10.337   7.145  66.834  1.00  0.00    -0.349 C  
HETATM   22  C   UNL     1     -11.131   6.295  67.085  1.00  0.00    -0.389 C  
ENDBRANCH  13  21
TORSDOF 1
ENDMDL
MODEL       37
REMARK 921   NORMALIZED FREE ENERGY PREDICTED BY IDOCK:   -4.89 KCAL/MOL
REMARK 922        TOTAL FREE ENERGY PREDICTED BY IDOCK:   -5.40 KCAL/MOL
REMARK 923 INTER-LIGAND FREE ENERGY PREDICTED BY IDOCK:   -5.21 KCAL/MOL
REMARK 924 INTRA-LIGAND FREE ENERGY PREDICTED BY IDOCK:   -0.19 KCAL/MOL
REMARK 927      BINDING AFFINITY PREDICTED BY RF-SCORE:    0.00 PKD
ROOT
HETATM    1  C   UNL     1      -8.202  11.110  68.785  1.00  0.00    -0.135 C  
HETATM    2  C   UNL     1      -8.979  10.210  67.823  1.00  0.00    -0.129 C  
HETATM    3  C   UNL     1      -8.064   8.843  67.723  1.00  0.00    -0.106 C  
HETATM    4  C   UNL     1      -8.195   7.816  68.933  1.00  0.00    -0.127 C  
HETATM    5  C   UNL     1      -9.617   7.632  69.583  1.00  0.00    -0.160 C  
HETATM    6  C   UNL     1     -10.248   9.008  69.533  1.00  0.00    -0.205 C  
HETATM    7  C   UNL     1     -10.348   9.615  68.142  1.00  0.00    -0.250 C  
HETATM    8  C   UNL     1     -11.419   9.317  70.459  1.00  0.00    -0.296 C  
HETATM    9  C   UNL     1     -10.956   9.063  71.888  1.00  0.00    -0.423 C  
HETATM   10  C   UNL     1     -10.641   8.939  66.729  1.00  0.00    -0.212 C  
HETATM   11  C   UNL     1     -10.622   7.608  72.013  1.00  0.00    -0.264 C  
HETATM   12  C   UNL     1      -9.800   9.799  65.666  1.00  0.00    -0.371 C  
HETATM   13  C   UNL     1      -9.417  10.989  66.507  1.00  0.00    -0.187 C  
HETATM   14  C   UNL     1     -11.227   6.894  72.969  1.00  0.00    -0.220 C  
HETATM   15  C   UNL     1      -9.546   7.071  71.076  1.00  0.00    -0.170 C  
HETATM   16  O   UNL     1      -8.417  11.862  66.038  1.00  0.00    -0.391 OA 
HETATM   17  C   UNL     1     -10.972   5.461  73.239  1.00  0.00    -0.358 C  
HETATM   18  C   UNL     1      -9.403   5.530  71.124  1.00  0.00    -0.181 C  
HETATM   19  H   UNL     1      -8.679  12.327  65.252  1.00  0.00     0.000 HD 
HETATM   20  C   UNL     1     -10.230   4.724  72.131  1.00  0.00    -0.258 C  
ENDROOT
BRANCH  13  21
HETATM   21  C   UNL     1     -10.724  11.812  66.535  1.00  0.00    -0.304 C  
HETATM   22  C   UNL     1     -11.672  12.444  66.196  1.00  0.00    -0.460 C  
ENDBRANCH  13  21
TORSDOF 1
ENDMDL
MODEL       38
REMARK 921   NORMALIZED FREE ENERGY PREDICTED BY IDOCK:   -4.87 KCAL/MOL
REMARK 922        TOTAL FREE ENERGY PREDICTED BY IDOCK:   -5.38 KCAL/MOL
REMARK 923 INTER-LIGAND FREE ENERGY PREDICTED BY IDOCK:   -5.20 KCAL/MOL
REMARK 924 INTRA-LIGAND FREE ENERGY PREDICTED BY IDOCK:   -0.18 KCAL/MOL
REMARK 927      BINDING AFFINITY PREDICTED BY RF-SCORE:    0.00 PKD
ROOT
HETATM    1  C   UNL     1      -7.290   9.033  67.509  1.00  0.00    -0.081 C  
HETATM    2  C   UNL     1      -8.663   8.379  67.667  1.00  0.00    -0.137 C  
HETATM    3  C   UNL     1      -9.428   9.316  68.787  1.00  0.00    -0.150 C  
HETATM    4  C   UNL     1     -10.040  10.688  68.260  1.00  0.00    -0.176 C  
HETATM    5  C   UNL     1     -10.679  10.697  66.821  1.00  0.00    -0.272 C  
HETATM    6  C   UNL     1      -9.816   9.756  66.006  1.00  0.00    -0.342 C  
HETATM    7  C   UNL     1      -9.713   8.342  66.560  1.00  0.00    -0.330 C  
HETATM    8  C   UNL     1      -9.849   9.854  64.485  1.00  0.00    -0.129 C  
HETATM    9  C   UNL     1      -9.474  11.282  64.108  1.00  0.00    -0.200 C  
HETATM   10  C   UNL     1     -10.794   7.431  67.296  1.00  0.00    -0.326 C  
HETATM   11  C   UNL     1     -10.522  12.196  64.666  1.00  0.00    -0.336 C  
HETATM   12  C   UNL     1      -9.958   6.544  68.341  1.00  0.00    -0.145 C  
HETATM   13  C   UNL     1      -8.551   6.806  67.868  1.00  0.00    -0.122 C  
HETATM   14  C   UNL     1     -11.153  13.028  63.830  1.00  0.00    -0.411 C  
HETATM   15  C   UNL     1     -10.729  12.157  66.176  1.00  0.00    -0.307 C  
HETATM   16  O   UNL     1      -7.475   6.443  68.700  1.00  0.00    -0.084 OA 
HETATM   17  C   UNL     1     -12.179  14.014  64.239  1.00  0.00    -0.453 C  
HETATM   18  C   UNL     1     -11.958  12.972  66.649  1.00  0.00    -0.453 C  
HETATM   19  H   UNL     1      -7.407   5.503  68.820  1.00  0.00     0.000 HD 
HETATM   20  C   UNL     1     -12.756  13.796  65.633  1.00  0.00    -0.523 C  
ENDROOT
BRANCH  13  21
HETATM   21  C   UNL     1      -8.447   5.905  66.618  1.00  0.00    -0.111 C  
HETATM   22  C   UNL     1      -8.064   5.408  65.607  1.00  0.00    -0.115 C  
ENDBRANCH  13  21
TORSDOF 1
ENDMDL
MODEL       39
REMARK 921   NORMALIZED FREE ENERGY PREDICTED BY IDOCK:   -4.83 KCAL/MOL
REMARK 922        TOTAL FREE ENERGY PREDICTED BY IDOCK:   -5.33 KCAL/MOL
REMARK 923 INTER-LIGAND FREE ENERGY PREDICTED BY IDOCK:   -5.11 KCAL/MOL
REMARK 924 INTRA-LIGAND FREE ENERGY PREDICTED BY IDOCK:   -0.22 KCAL/MOL
REMARK 927      BINDING AFFINITY PREDICTED BY RF-SCORE:    0.00 PKD
ROOT
HETATM    1  C   UNL     1      -8.495   8.827  71.544  1.00  0.00    -0.230 C  
HETATM    2  C   UNL     1      -9.260   8.435  70.279  1.00  0.00    -0.154 C  
HETATM    3  C   UNL     1      -8.257   7.371  69.517  1.00  0.00    -0.131 C  
HETATM    4  C   UNL     1      -8.247   5.883  70.082  1.00  0.00    -0.118 C  
HETATM    5  C   UNL     1      -9.613   5.283  70.585  1.00  0.00    -0.235 C  
HETATM    6  C   UNL     1     -10.342   6.452  71.215  1.00  0.00    -0.244 C  
HETATM    7  C   UNL     1     -10.563   7.641  70.292  1.00  0.00    -0.233 C  
HETATM    8  C   UNL     1     -11.478   6.172  72.193  1.00  0.00    -0.361 C  
HETATM    9  C   UNL     1     -10.917   5.306  73.314  1.00  0.00    -0.369 C  
HETATM   10  C   UNL     1     -10.888   7.703  68.733  1.00  0.00    -0.025 C  
HETATM   11  C   UNL     1     -10.475   4.006  72.715  1.00  0.00    -0.234 C  
HETATM   12  C   UNL     1     -10.171   9.039  68.205  1.00  0.00    -0.247 C  
HETATM   13  C   UNL     1      -9.826   9.707  69.510  1.00  0.00    -0.206 C  
HETATM   14  C   UNL     1     -10.973   2.871  73.217  1.00  0.00    -0.264 C  
HETATM   15  C   UNL     1      -9.418   4.083  71.619  1.00  0.00    -0.216 C  
HETATM   16  O   UNL     1      -8.918  10.783  69.505  1.00  0.00    -0.398 OA 
HETATM   17  C   UNL     1     -10.602   1.513  72.758  1.00  0.00    -0.231 C  
HETATM   18  C   UNL     1      -9.164   2.728  70.914  1.00  0.00    -0.206 C  
HETATM   19  H   UNL     1      -9.256  11.543  69.046  1.00  0.00     0.000 HD 
HETATM   20  C   UNL     1      -9.874   1.468  71.420  1.00  0.00    -0.201 C  
ENDROOT
BRANCH  13  21
HETATM   21  C   UNL     1     -11.184  10.295  69.952  1.00  0.00    -0.360 C  
HETATM   22  C   UNL     1     -12.044  11.059  70.252  1.00  0.00    -0.448 C  
ENDBRANCH  13  21
TORSDOF 1
ENDMDL
MODEL       40
REMARK 921   NORMALIZED FREE ENERGY PREDICTED BY IDOCK:   -4.80 KCAL/MOL
REMARK 922        TOTAL FREE ENERGY PREDICTED BY IDOCK:   -5.31 KCAL/MOL
REMARK 923 INTER-LIGAND FREE ENERGY PREDICTED BY IDOCK:   -5.08 KCAL/MOL
REMARK 924 INTRA-LIGAND FREE ENERGY PREDICTED BY IDOCK:   -0.22 KCAL/MOL
REMARK 927      BINDING AFFINITY PREDICTED BY RF-SCORE:    0.00 PKD
ROOT
HETATM    1  C   UNL     1      -7.065   9.010  67.909  1.00  0.00    -0.079 C  
HETATM    2  C   UNL     1      -8.079   7.931  67.527  1.00  0.00    -0.124 C  
HETATM    3  C   UNL     1      -8.194   6.993  68.877  1.00  0.00    -0.122 C  
HETATM    4  C   UNL     1      -9.104   7.559  70.055  1.00  0.00    -0.148 C  
HETATM    5  C   UNL     1     -10.415   8.335  69.655  1.00  0.00    -0.221 C  
HETATM    6  C   UNL     1     -10.052   9.088  68.393  1.00  0.00    -0.216 C  
HETATM    7  C   UNL     1      -9.552   8.216  67.250  1.00  0.00    -0.211 C  
HETATM    8  C   UNL     1     -10.906  10.279  67.972  1.00  0.00    -0.325 C  
HETATM    9  C   UNL     1     -10.912  11.272  69.127  1.00  0.00    -0.292 C  
HETATM   10  C   UNL     1      -9.988   6.755  66.787  1.00  0.00    -0.242 C  
HETATM   11  C   UNL     1     -11.565  10.609  70.301  1.00  0.00    -0.424 C  
HETATM   12  C   UNL     1      -8.651   6.078  66.210  1.00  0.00    -0.137 C  
HETATM   13  C   UNL     1      -7.747   7.279  66.115  1.00  0.00    -0.101 C  
HETATM   14  C   UNL     1     -12.613  11.214  70.873  1.00  0.00    -0.483 C  
HETATM   15  C   UNL     1     -10.924   9.321  70.803  1.00  0.00    -0.349 C  
HETATM   16  O   UNL     1      -6.367   7.079  65.923  1.00  0.00    -0.044 OA 
HETATM   17  C   UNL     1     -13.335  10.703  72.060  1.00  0.00    -0.409 C  
HETATM   18  C   UNL     1     -11.767   8.593  71.879  1.00  0.00    -0.422 C  
HETATM   19  H   UNL     1      -6.169   6.690  65.079  1.00  0.00     0.000 HD 
HETATM   20  C   UNL     1     -13.051   9.245  72.403  1.00  0.00    -0.481 C  
ENDROOT
BRANCH  13  21
HETATM   21  C   UNL     1      -8.259   7.981  64.838  1.00  0.00    -0.137 C  
HETATM   22  C   UNL     1      -8.297   8.593  63.818  1.00  0.00    -0.116 C  
ENDBRANCH  13  21
TORSDOF 1
ENDMDL
MODEL       41
REMARK 921   NORMALIZED FREE ENERGY PREDICTED BY IDOCK:   -4.79 KCAL/MOL
REMARK 922        TOTAL FREE ENERGY PREDICTED BY IDOCK:   -5.30 KCAL/MOL
REMARK 923 INTER-LIGAND FREE ENERGY PREDICTED BY IDOCK:   -5.08 KCAL/MOL
REMARK 924 INTRA-LIGAND FREE ENERGY PREDICTED BY IDOCK:   -0.21 KCAL/MOL
REMARK 927      BINDING AFFINITY PREDICTED BY RF-SCORE:    0.00 PKD
ROOT
HETATM    1  C   UNL     1     -12.160  12.425  65.732  1.00  0.00    -0.381 C  
HETATM    2  C   UNL     1     -11.121  12.659  66.829  1.00  0.00    -0.318 C  
HETATM    3  C   UNL     1     -11.482  11.528  67.972  1.00  0.00    -0.381 C  
HETATM    4  C   UNL     1     -10.976  10.046  67.683  1.00  0.00    -0.297 C  
HETATM    5  C   UNL     1      -9.577   9.876  66.981  1.00  0.00    -0.218 C  
HETATM    6  C   UNL     1      -9.486  11.036  66.011  1.00  0.00    -0.235 C  
HETATM    7  C   UNL     1      -9.626  12.412  66.644  1.00  0.00    -0.230 C  
HETATM    8  C   UNL     1      -8.495  10.954  64.855  1.00  0.00     0.019 C  
HETATM    9  C   UNL     1      -8.821   9.697  64.058  1.00  0.00    -0.256 C  
HETATM   10  C   UNL     1      -9.123  12.968  68.050  1.00  0.00    -0.210 C  
HETATM   11  C   UNL     1      -8.605   8.515  64.952  1.00  0.00    -0.135 C  
HETATM   12  C   UNL     1     -10.230  14.041  68.501  1.00  0.00    -0.237 C  
HETATM   13  C   UNL     1     -11.007  14.196  67.220  1.00  0.00    -0.297 C  
HETATM   14  C   UNL     1      -7.773   7.550  64.545  1.00  0.00    -0.123 C  
HETATM   15  C   UNL     1      -9.425   8.472  66.238  1.00  0.00    -0.299 C  
HETATM   16  O   UNL     1     -12.260  14.839  67.257  1.00  0.00    -0.502 OA 
HETATM   17  C   UNL     1      -7.491   6.308  65.299  1.00  0.00    -0.084 C  
HETATM   18  C   UNL     1      -9.001   7.335  67.199  1.00  0.00    -0.132 C  
HETATM   19  H   UNL     1     -12.192  15.757  67.490  1.00  0.00     0.000 HD 
HETATM   20  C   UNL     1      -7.928   6.333  66.759  1.00  0.00    -0.108 C  
ENDROOT
BRANCH  13  21
HETATM   21  C   UNL     1     -10.086  15.108  66.379  1.00  0.00    -0.286 C  
HETATM   22  C   UNL     1      -9.561  16.067  65.911  1.00  0.00    -0.370 C  
ENDBRANCH  13  21
TORSDOF 1
ENDMDL
MODEL       42
REMARK 921   NORMALIZED FREE ENERGY PREDICTED BY IDOCK:   -4.76 KCAL/MOL
REMARK 922        TOTAL FREE ENERGY PREDICTED BY IDOCK:   -5.27 KCAL/MOL
REMARK 923 INTER-LIGAND FREE ENERGY PREDICTED BY IDOCK:   -5.04 KCAL/MOL
REMARK 924 INTRA-LIGAND FREE ENERGY PREDICTED BY IDOCK:   -0.22 KCAL/MOL
REMARK 927      BINDING AFFINITY PREDICTED BY RF-SCORE:    0.00 PKD
ROOT
HETATM    1  C   UNL     1     -10.411   5.104  70.156  1.00  0.00    -0.340 C  
HETATM    2  C   UNL     1      -9.188   5.914  70.591  1.00  0.00    -0.167 C  
HETATM    3  C   UNL     1      -8.871   6.887  69.300  1.00  0.00    -0.138 C  
HETATM    4  C   UNL     1      -9.787   8.180  69.149  1.00  0.00    -0.182 C  
HETATM    5  C   UNL     1     -10.222   8.925  70.466  1.00  0.00    -0.247 C  
HETATM    6  C   UNL     1     -10.427   7.823  71.485  1.00  0.00    -0.239 C  
HETATM    7  C   UNL     1      -9.213   6.938  71.722  1.00  0.00    -0.143 C  
HETATM    8  C   UNL     1     -11.270   8.110  72.723  1.00  0.00    -0.407 C  
HETATM    9  C   UNL     1     -12.642   8.574  72.248  1.00  0.00    -0.438 C  
HETATM   10  C   UNL     1      -7.658   7.288  71.752  1.00  0.00    -0.086 C  
HETATM   11  C   UNL     1     -12.459   9.853  71.490  1.00  0.00    -0.506 C  
HETATM   12  C   UNL     1      -6.920   5.982  71.180  1.00  0.00    -0.068 C  
HETATM   13  C   UNL     1      -8.051   4.987  71.205  1.00  0.00    -0.111 C  
HETATM   14  C   UNL     1     -13.153  10.929  71.878  1.00  0.00    -0.537 C  
HETATM   15  C   UNL     1     -11.542   9.801  70.273  1.00  0.00    -0.283 C  
HETATM   16  O   UNL     1      -7.906   3.773  70.505  1.00  0.00    -0.050 OA 
HETATM   17  C   UNL     1     -13.108  12.247  71.206  1.00  0.00    -0.208 C  
HETATM   18  C   UNL     1     -11.245  11.195  69.668  1.00  0.00    -0.333 C  
HETATM   19  H   UNL     1      -7.228   3.220  70.872  1.00  0.00     0.000 HD 
HETATM   20  C   UNL     1     -11.944  12.433  70.240  1.00  0.00    -0.371 C  
ENDROOT
BRANCH  13  21
HETATM   21  C   UNL     1      -8.131   4.610  72.701  1.00  0.00    -0.100 C  
HETATM   22  C   UNL     1      -8.336   4.018  73.712  1.00  0.00    -0.092 C  
ENDBRANCH  13  21
TORSDOF 1
ENDMDL
MODEL       43
REMARK 921   NORMALIZED FREE ENERGY PREDICTED BY IDOCK:   -4.75 KCAL/MOL
REMARK 922        TOTAL FREE ENERGY PREDICTED BY IDOCK:   -5.25 KCAL/MOL
REMARK 923 INTER-LIGAND FREE ENERGY PREDICTED BY IDOCK:   -5.10 KCAL/MOL
REMARK 924 INTRA-LIGAND FREE ENERGY PREDICTED BY IDOCK:   -0.15 KCAL/MOL
REMARK 927      BINDING AFFINITY PREDICTED BY RF-SCORE:    0.00 PKD
ROOT
HETATM    1  C   UNL     1      -8.167  11.403  66.224  1.00  0.00    -0.088 C  
HETATM    2  C   UNL     1      -9.664  11.540  66.507  1.00  0.00    -0.226 C  
HETATM    3  C   UNL     1     -10.342  10.270  65.704  1.00  0.00    -0.232 C  
HETATM    4  C   UNL     1     -10.245   8.851  66.418  1.00  0.00    -0.273 C  
HETATM    5  C   UNL     1     -10.383   8.811  67.986  1.00  0.00    -0.273 C  
HETATM    6  C   UNL     1      -9.709  10.079  68.467  1.00  0.00    -0.164 C  
HETATM    7  C   UNL     1     -10.282  11.366  67.891  1.00  0.00    -0.201 C  
HETATM    8  C   UNL     1      -9.255  10.167  69.920  1.00  0.00    -0.119 C  
HETATM    9  C   UNL     1      -8.306   9.003  70.176  1.00  0.00    -0.156 C  
HETATM   10  C   UNL     1     -11.781  11.769  67.528  1.00  0.00    -0.312 C  
HETATM   11  C   UNL     1      -9.077   7.731  69.996  1.00  0.00    -0.150 C  
HETATM   12  C   UNL     1     -11.661  12.744  66.258  1.00  0.00    -0.433 C  
HETATM   13  C   UNL     1     -10.180  13.023  66.259  1.00  0.00    -0.288 C  
HETATM   14  C   UNL     1      -9.096   6.849  71.001  1.00  0.00    -0.155 C  
HETATM   15  C   UNL     1      -9.721   7.510  68.632  1.00  0.00    -0.154 C  
HETATM   16  O   UNL     1      -9.599  13.615  65.120  1.00  0.00    -0.547 OA 
HETATM   17  C   UNL     1      -9.780   5.537  70.957  1.00  0.00    -0.229 C  
HETATM   18  C   UNL     1     -10.663   6.282  68.589  1.00  0.00    -0.357 C  
HETATM   19  H   UNL     1      -9.907  14.501  64.972  1.00  0.00     0.000 HD 
HETATM   20  C   UNL     1     -10.780   5.375  69.818  1.00  0.00    -0.280 C  
ENDROOT
BRANCH  13  21
HETATM   21  C   UNL     1     -10.037  14.057  67.397  1.00  0.00    -0.244 C  
HETATM   22  C   UNL     1     -10.236  14.976  68.126  1.00  0.00    -0.221 C  
ENDBRANCH  13  21
TORSDOF 1
ENDMDL
MODEL       44
REMARK 921   NORMALIZED FREE ENERGY PREDICTED BY IDOCK:   -4.74 KCAL/MOL
REMARK 922        TOTAL FREE ENERGY PREDICTED BY IDOCK:   -5.24 KCAL/MOL
REMARK 923 INTER-LIGAND FREE ENERGY PREDICTED BY IDOCK:   -5.02 KCAL/MOL
REMARK 924 INTRA-LIGAND FREE ENERGY PREDICTED BY IDOCK:   -0.22 KCAL/MOL
REMARK 927      BINDING AFFINITY PREDICTED BY RF-SCORE:    0.00 PKD
ROOT
HETATM    1  C   UNL     1     -10.339   5.611  71.540  1.00  0.00    -0.279 C  
HETATM    2  C   UNL     1     -10.506   7.077  71.133  1.00  0.00    -0.229 C  
HETATM    3  C   UNL     1      -8.967   7.664  71.109  1.00  0.00    -0.143 C  
HETATM    4  C   UNL     1      -8.097   7.312  69.822  1.00  0.00    -0.128 C  
HETATM    5  C   UNL     1      -8.832   7.283  68.430  1.00  0.00    -0.128 C  
HETATM    6  C   UNL     1     -10.211   6.732  68.731  1.00  0.00    -0.184 C  
HETATM    7  C   UNL     1     -11.004   7.521  69.761  1.00  0.00    -0.195 C  
HETATM    8  C   UNL     1     -11.036   6.145  67.590  1.00  0.00    -0.400 C  
HETATM    9  C   UNL     1     -10.213   5.033  66.952  1.00  0.00    -0.270 C  
HETATM   10  C   UNL     1     -11.081   9.088  70.039  1.00  0.00    -0.197 C  
HETATM   11  C   UNL     1      -8.974   5.649  66.375  1.00  0.00    -0.134 C  
HETATM   12  C   UNL     1     -11.303   9.226  71.623  1.00  0.00    -0.467 C  
HETATM   13  C   UNL     1     -11.636   7.802  71.985  1.00  0.00    -0.300 C  
HETATM   14  C   UNL     1      -8.708   5.451  65.079  1.00  0.00    -0.116 C  
HETATM   15  C   UNL     1      -8.067   6.396  67.346  1.00  0.00    -0.116 C  
HETATM   16  O   UNL     1     -11.620   7.422  73.341  1.00  0.00    -0.580 OA 
HETATM   17  C   UNL     1      -7.507   5.960  64.380  1.00  0.00    -0.077 C  
HETATM   18  C   UNL     1      -6.924   7.171  66.646  1.00  0.00    -0.077 C  
HETATM   19  H   UNL     1     -12.295   7.855  73.849  1.00  0.00     0.000 HD 
HETATM   20  C   UNL     1      -6.741   7.043  65.130  1.00  0.00    -0.047 C  
ENDROOT
BRANCH  13  21
HETATM   21  C   UNL     1     -13.105   7.677  71.524  1.00  0.00    -0.379 C  
HETATM   22  C   UNL     1     -14.250   7.362  71.460  1.00  0.00    -0.571 C  
ENDBRANCH  13  21
TORSDOF 1
ENDMDL
MODEL       45
REMARK 921   NORMALIZED FREE ENERGY PREDICTED BY IDOCK:   -4.68 KCAL/MOL
REMARK 922        TOTAL FREE ENERGY PREDICTED BY IDOCK:   -5.18 KCAL/MOL
REMARK 923 INTER-LIGAND FREE ENERGY PREDICTED BY IDOCK:   -4.97 KCAL/MOL
REMARK 924 INTRA-LIGAND FREE ENERGY PREDICTED BY IDOCK:   -0.21 KCAL/MOL
REMARK 927      BINDING AFFINITY PREDICTED BY RF-SCORE:    0.00 PKD
ROOT
HETATM    1  C   UNL     1      -7.306   7.920  67.346  1.00  0.00    -0.092 C  
HETATM    2  C   UNL     1      -8.747   7.430  67.495  1.00  0.00    -0.124 C  
HETATM    3  C   UNL     1      -9.225   8.028  68.955  1.00  0.00    -0.148 C  
HETATM    4  C   UNL     1      -9.648   9.562  68.985  1.00  0.00    -0.166 C  
HETATM    5  C   UNL     1     -10.419  10.132  67.735  1.00  0.00    -0.277 C  
HETATM    6  C   UNL     1      -9.814   9.415  66.546  1.00  0.00    -0.325 C  
HETATM    7  C   UNL     1      -9.895   7.897  66.605  1.00  0.00    -0.311 C  
HETATM    8  C   UNL     1      -9.984  10.019  65.156  1.00  0.00    -0.350 C  
HETATM    9  C   UNL     1      -9.415  11.432  65.195  1.00  0.00    -0.223 C  
HETATM   10  C   UNL     1     -11.033   6.936  67.171  1.00  0.00    -0.427 C  
HETATM   11  C   UNL     1     -10.231  12.231  66.164  1.00  0.00    -0.263 C  
HETATM   12  C   UNL     1     -10.257   5.654  67.746  1.00  0.00    -0.238 C  
HETATM   13  C   UNL     1      -8.882   5.879  67.172  1.00  0.00    -0.107 C  
HETATM   14  C   UNL     1     -10.795  13.367  65.737  1.00  0.00    -0.283 C  
HETATM   15  C   UNL     1     -10.288  11.717  67.598  1.00  0.00    -0.210 C  
HETATM   16  O   UNL     1      -7.803   5.127  67.676  1.00  0.00    -0.094 OA 
HETATM   17  C   UNL     1     -11.594  14.280  66.585  1.00  0.00    -0.397 C  
HETATM   18  C   UNL     1     -11.307  12.475  68.483  1.00  0.00    -0.337 C  
HETATM   19  H   UNL     1      -7.883   4.200  67.482  1.00  0.00     0.000 HD 
HETATM   20  C   UNL     1     -12.054  13.684  67.910  1.00  0.00    -0.318 C  
ENDROOT
BRANCH  13  21
HETATM   21  C   UNL     1      -9.058   5.441  65.702  1.00  0.00    -0.148 C  
HETATM   22  C   UNL     1      -9.149   4.776  64.720  1.00  0.00    -0.129 C  
ENDBRANCH  13  21
TORSDOF 1
ENDMDL
MODEL       46
REMARK 921   NORMALIZED FREE ENERGY PREDICTED BY IDOCK:   -4.67 KCAL/MOL
REMARK 922        TOTAL FREE ENERGY PREDICTED BY IDOCK:   -5.17 KCAL/MOL
REMARK 923 INTER-LIGAND FREE ENERGY PREDICTED BY IDOCK:   -4.98 KCAL/MOL
REMARK 924 INTRA-LIGAND FREE ENERGY PREDICTED BY IDOCK:   -0.20 KCAL/MOL
REMARK 927      BINDING AFFINITY PREDICTED BY RF-SCORE:    0.00 PKD
ROOT
HETATM    1  C   UNL     1     -13.254  13.910  65.950  1.00  0.00     0.276 C  
HETATM    2  C   UNL     1     -11.816  13.675  65.484  1.00  0.00    -0.382 C  
HETATM    3  C   UNL     1     -11.590  14.797  64.298  1.00  0.00    -0.215 C  
HETATM    4  C   UNL     1     -11.286  16.283  64.781  1.00  0.00    -0.267 C  
HETATM    5  C   UNL     1     -10.392  16.465  66.065  1.00  0.00    -0.365 C  
HETATM    6  C   UNL     1     -10.774  15.313  66.970  1.00  0.00    -0.313 C  
HETATM    7  C   UNL     1     -10.593  13.932  66.359  1.00  0.00    -0.280 C  
HETATM    8  C   UNL     1     -10.456  15.407  68.459  1.00  0.00    -0.234 C  
HETATM    9  C   UNL     1     -11.125  16.668  68.993  1.00  0.00    -0.234 C  
HETATM   10  C   UNL     1      -9.478  13.369  65.368  1.00  0.00     0.234 C  
HETATM   11  C   UNL     1     -10.510  17.845  68.300  1.00  0.00    -0.362 C  
HETATM   12  C   UNL     1     -10.233  12.287  64.453  1.00  0.00    -0.341 C  
HETATM   13  C   UNL     1     -11.527  12.136  65.208  1.00  0.00    -0.336 C  
HETATM   14  C   UNL     1      -9.975  18.817  69.047  1.00  0.00    -0.348 C  
HETATM   15  C   UNL     1     -10.616  17.875  66.779  1.00  0.00    -0.253 C  
HETATM   16  O   UNL     1     -12.609  11.486  64.582  1.00  0.00     0.088 OA 
HETATM   17  C   UNL     1      -9.370  20.056  68.509  1.00  0.00    -0.211 C  
HETATM   18  C   UNL     1      -9.787  19.008  66.127  1.00  0.00    -0.370 C  
HETATM   19  H   UNL     1     -12.437  10.567  64.417  1.00  0.00     0.000 HD 
HETATM   20  C   UNL     1      -9.056  20.019  67.018  1.00  0.00    -0.466 C  
ENDROOT
BRANCH  13  21
HETATM   21  C   UNL     1     -11.117  11.235  66.394  1.00  0.00    -0.257 C  
HETATM   22  C   UNL     1     -11.150  10.597  67.397  1.00  0.00    -0.341 C  
ENDBRANCH  13  21
TORSDOF 1
ENDMDL
MODEL       47
REMARK 921   NORMALIZED FREE ENERGY PREDICTED BY IDOCK:   -4.67 KCAL/MOL
REMARK 922        TOTAL FREE ENERGY PREDICTED BY IDOCK:   -5.16 KCAL/MOL
REMARK 923 INTER-LIGAND FREE ENERGY PREDICTED BY IDOCK:   -5.19 KCAL/MOL
REMARK 924 INTRA-LIGAND FREE ENERGY PREDICTED BY IDOCK:    0.03 KCAL/MOL
REMARK 927      BINDING AFFINITY PREDICTED BY RF-SCORE:    0.00 PKD
ROOT
HETATM    1  C   UNL     1     -12.405  13.650  67.023  1.00  0.00    -0.277 C  
HETATM    2  C   UNL     1     -10.935  13.941  67.328  1.00  0.00    -0.299 C  
HETATM    3  C   UNL     1     -10.451  12.652  68.235  1.00  0.00    -0.249 C  
HETATM    4  C   UNL     1     -10.114  11.315  67.439  1.00  0.00    -0.214 C  
HETATM    5  C   UNL     1      -9.413  11.458  66.036  1.00  0.00    -0.245 C  
HETATM    6  C   UNL     1     -10.009  12.710  65.429  1.00  0.00    -0.230 C  
HETATM    7  C   UNL     1      -9.841  13.970  66.265  1.00  0.00    -0.318 C  
HETATM    8  C   UNL     1      -9.913  12.917  63.921  1.00  0.00     0.134 C  
HETATM    9  C   UNL     1     -10.560  11.712  63.249  1.00  0.00    -0.420 C  
HETATM   10  C   UNL     1      -8.634  14.454  67.187  1.00  0.00    -0.237 C  
HETATM   11  C   UNL     1      -9.763  10.497  63.614  1.00  0.00    -0.375 C  
HETATM   12  C   UNL     1      -9.321  15.272  68.386  1.00  0.00    -0.194 C  
HETATM   13  C   UNL     1     -10.722  15.426  67.854  1.00  0.00    -0.286 C  
HETATM   14  C   UNL     1      -9.277   9.734  62.629  1.00  0.00    -0.268 C  
HETATM   15  C   UNL     1      -9.637  10.184  65.101  1.00  0.00    -0.354 C  
HETATM   16  O   UNL     1     -11.742  15.840  68.732  1.00  0.00    -0.382 OA 
HETATM   17  C   UNL     1      -8.508   8.486  62.833  1.00  0.00    -0.094 C  
HETATM   18  C   UNL     1      -8.638   9.041  65.405  1.00  0.00    -0.200 C  
HETATM   19  H   UNL     1     -11.615  16.728  69.046  1.00  0.00     0.000 HD 
HETATM   20  C   UNL     1      -7.977   8.286  64.248  1.00  0.00    -0.148 C  
ENDROOT
BRANCH  13  21
HETATM   21  C   UNL     1     -10.562  16.562  66.819  1.00  0.00    -0.224 C  
HETATM   22  C   UNL     1     -10.087  17.364  66.081  1.00  0.00    -0.309 C  
ENDBRANCH  13  21
TORSDOF 1
ENDMDL
MODEL       48
REMARK 921   NORMALIZED FREE ENERGY PREDICTED BY IDOCK:   -4.64 KCAL/MOL
REMARK 922        TOTAL FREE ENERGY PREDICTED BY IDOCK:   -5.14 KCAL/MOL
REMARK 923 INTER-LIGAND FREE ENERGY PREDICTED BY IDOCK:   -4.92 KCAL/MOL
REMARK 924 INTRA-LIGAND FREE ENERGY PREDICTED BY IDOCK:   -0.21 KCAL/MOL
REMARK 927      BINDING AFFINITY PREDICTED BY RF-SCORE:    0.00 PKD
ROOT
HETATM    1  C   UNL     1     -11.154  10.572  66.492  1.00  0.00     0.050 C  
HETATM    2  C   UNL     1      -9.823  10.824  67.203  1.00  0.00    -0.216 C  
HETATM    3  C   UNL     1     -10.250  11.616  68.584  1.00  0.00    -0.215 C  
HETATM    4  C   UNL     1     -10.816  10.715  69.769  1.00  0.00    -0.317 C  
HETATM    5  C   UNL     1     -10.174   9.293  69.975  1.00  0.00    -0.244 C  
HETATM    6  C   UNL     1      -9.859   8.801  68.578  1.00  0.00    -0.183 C  
HETATM    7  C   UNL     1      -8.946   9.711  67.771  1.00  0.00    -0.122 C  
HETATM    8  C   UNL     1      -9.650   7.308  68.350  1.00  0.00    -0.139 C  
HETATM    9  C   UNL     1     -10.904   6.589  68.831  1.00  0.00    -0.354 C  
HETATM   10  C   UNL     1      -7.703  10.603  68.219  1.00  0.00    -0.107 C  
HETATM   11  C   UNL     1     -11.038   6.831  70.303  1.00  0.00    -0.360 C  
HETATM   12  C   UNL     1      -7.735  11.887  67.256  1.00  0.00    -0.164 C  
HETATM   13  C   UNL     1      -8.734  11.437  66.222  1.00  0.00    -0.173 C  
HETATM   14  C   UNL     1     -11.129   5.774  71.118  1.00  0.00    -0.257 C  
HETATM   15  C   UNL     1     -11.139   8.285  70.751  1.00  0.00    -0.280 C  
HETATM   16  O   UNL     1      -9.277  12.391  65.339  1.00  0.00    -0.429 OA 
HETATM   17  C   UNL     1     -11.305   5.854  72.585  1.00  0.00    -0.337 C  
HETATM   18  C   UNL     1     -11.070   8.461  72.287  1.00  0.00    -0.438 C  
HETATM   19  H   UNL     1      -8.626  12.758  64.753  1.00  0.00     0.000 HD 
HETATM   20  C   UNL     1     -11.019   7.224  73.189  1.00  0.00    -0.384 C  
ENDROOT
BRANCH  13  21
HETATM   21  C   UNL     1      -7.898  10.475  65.349  1.00  0.00    -0.119 C  
HETATM   22  C   UNL     1      -7.540   9.779  64.453  1.00  0.00    -0.135 C  
ENDBRANCH  13  21
TORSDOF 1
ENDMDL
MODEL       49
REMARK 921   NORMALIZED FREE ENERGY PREDICTED BY IDOCK:   -4.63 KCAL/MOL
REMARK 922        TOTAL FREE ENERGY PREDICTED BY IDOCK:   -5.13 KCAL/MOL
REMARK 923 INTER-LIGAND FREE ENERGY PREDICTED BY IDOCK:   -4.98 KCAL/MOL
REMARK 924 INTRA-LIGAND FREE ENERGY PREDICTED BY IDOCK:   -0.15 KCAL/MOL
REMARK 927      BINDING AFFINITY PREDICTED BY RF-SCORE:    0.00 PKD
ROOT
HETATM    1  C   UNL     1     -10.898  11.599  65.422  1.00  0.00    -0.336 C  
HETATM    2  C   UNL     1     -11.120  12.476  66.656  1.00  0.00    -0.327 C  
HETATM    3  C   UNL     1     -11.893  11.483  67.720  1.00  0.00    -0.228 C  
HETATM    4  C   UNL     1     -10.979  10.445  68.510  1.00  0.00    -0.302 C  
HETATM    5  C   UNL     1      -9.545  10.924  68.950  1.00  0.00    -0.192 C  
HETATM    6  C   UNL     1      -9.075  11.825  67.828  1.00  0.00    -0.178 C  
HETATM    7  C   UNL     1      -9.987  13.006  67.530  1.00  0.00    -0.212 C  
HETATM    8  C   UNL     1      -7.583  12.109  67.685  1.00  0.00    -0.140 C  
HETATM    9  C   UNL     1      -6.871  10.769  67.543  1.00  0.00    -0.079 C  
HETATM   10  C   UNL     1     -10.855  13.922  68.503  1.00  0.00    -0.274 C  
HETATM   11  C   UNL     1      -7.089   9.995  68.807  1.00  0.00    -0.071 C  
HETATM   12  C   UNL     1     -12.157  14.327  67.654  1.00  0.00    -0.332 C  
HETATM   13  C   UNL     1     -11.737  13.891  66.274  1.00  0.00    -0.383 C  
HETATM   14  C   UNL     1      -6.019   9.548  69.474  1.00  0.00    -0.033 C  
HETATM   15  C   UNL     1      -8.537   9.711  69.194  1.00  0.00    -0.146 C  
HETATM   16  O   UNL     1     -12.713  13.799  65.263  1.00  0.00    -0.590 OA 
HETATM   17  C   UNL     1      -6.076   8.738  70.712  1.00  0.00    -0.037 C  
HETATM   18  C   UNL     1      -8.685   9.090  70.604  1.00  0.00    -0.251 C  
HETATM   19  H   UNL     1     -13.082  14.645  65.035  1.00  0.00     0.000 HD 
HETATM   20  C   UNL     1      -7.432   8.730  71.409  1.00  0.00    -0.126 C  
ENDROOT
BRANCH  13  21
HETATM   21  C   UNL     1     -10.780  15.024  65.843  1.00  0.00    -0.337 C  
HETATM   22  C   UNL     1     -10.294  16.097  65.682  1.00  0.00    -0.405 C  
ENDBRANCH  13  21
TORSDOF 1
ENDMDL
MODEL       50
REMARK 921   NORMALIZED FREE ENERGY PREDICTED BY IDOCK:   -4.59 KCAL/MOL
REMARK 922        TOTAL FREE ENERGY PREDICTED BY IDOCK:   -5.09 KCAL/MOL
REMARK 923 INTER-LIGAND FREE ENERGY PREDICTED BY IDOCK:   -4.87 KCAL/MOL
REMARK 924 INTRA-LIGAND FREE ENERGY PREDICTED BY IDOCK:   -0.22 KCAL/MOL
REMARK 927      BINDING AFFINITY PREDICTED BY RF-SCORE:    0.00 PKD
ROOT
HETATM    1  C   UNL     1     -11.155   7.130  69.609  1.00  0.00    -0.206 C  
HETATM    2  C   UNL     1      -9.706   7.612  69.515  1.00  0.00    -0.168 C  
HETATM    3  C   UNL     1      -9.299   7.356  67.939  1.00  0.00    -0.138 C  
HETATM    4  C   UNL     1      -9.821   8.436  66.892  1.00  0.00    -0.313 C  
HETATM    5  C   UNL     1      -9.848   9.942  67.348  1.00  0.00    -0.223 C  
HETATM    6  C   UNL     1     -10.221   9.897  68.815  1.00  0.00    -0.205 C  
HETATM    7  C   UNL     1      -9.289   9.069  69.687  1.00  0.00    -0.169 C  
HETATM    8  C   UNL     1     -10.775  11.155  69.475  1.00  0.00    -0.193 C  
HETATM    9  C   UNL     1     -12.008  11.582  68.688  1.00  0.00    -0.312 C  
HETATM   10  C   UNL     1      -7.709   8.866  69.623  1.00  0.00    -0.078 C  
HETATM   11  C   UNL     1     -11.571  11.928  67.297  1.00  0.00    -0.364 C  
HETATM   12  C   UNL     1      -7.456   7.361  70.122  1.00  0.00    -0.087 C  
HETATM   13  C   UNL     1      -8.810   7.022  70.689  1.00  0.00    -0.150 C  
HETATM   14  C   UNL     1     -11.873  13.139  66.817  1.00  0.00    -0.444 C  
HETATM   15  C   UNL     1     -10.877  10.825  66.505  1.00  0.00    -0.196 C  
HETATM   16  O   UNL     1      -9.110   5.677  70.976  1.00  0.00    -0.142 OA 
HETATM   17  C   UNL     1     -11.544  13.609  65.452  1.00  0.00    -0.334 C  
HETATM   18  C   UNL     1     -10.278  11.316  65.165  1.00  0.00    -0.344 C  
HETATM   19  H   UNL     1      -8.575   5.325  71.677  1.00  0.00     0.000 HD 
HETATM   20  C   UNL     1     -10.513  12.762  64.715  1.00  0.00    -0.357 C  
ENDROOT
BRANCH  13  21
HETATM   21  C   UNL     1      -8.794   7.755  72.048  1.00  0.00    -0.169 C  
HETATM   22  C   UNL     1      -8.649   7.999  73.203  1.00  0.00    -0.281 C  
ENDBRANCH  13  21
TORSDOF 1
ENDMDL
MODEL       51
REMARK 921   NORMALIZED FREE ENERGY PREDICTED BY IDOCK:   -4.56 KCAL/MOL
REMARK 922        TOTAL FREE ENERGY PREDICTED BY IDOCK:   -5.05 KCAL/MOL
REMARK 923 INTER-LIGAND FREE ENERGY PREDICTED BY IDOCK:   -5.01 KCAL/MOL
REMARK 924 INTRA-LIGAND FREE ENERGY PREDICTED BY IDOCK:   -0.03 KCAL/MOL
REMARK 927      BINDING AFFINITY PREDICTED BY RF-SCORE:    0.00 PKD
ROOT
HETATM    1  C   UNL     1     -11.900  12.082  68.029  1.00  0.00    -0.338 C  
HETATM    2  C   UNL     1     -10.916  12.350  66.889  1.00  0.00    -0.307 C  
HETATM    3  C   UNL     1      -9.548  12.864  67.652  1.00  0.00    -0.196 C  
HETATM    4  C   UNL     1      -8.632  11.733  68.298  1.00  0.00    -0.162 C  
HETATM    5  C   UNL     1      -8.503  10.368  67.524  1.00  0.00    -0.115 C  
HETATM    6  C   UNL     1      -9.867  10.141  66.907  1.00  0.00    -0.244 C  
HETATM    7  C   UNL     1     -10.348  11.255  65.990  1.00  0.00    -0.302 C  
HETATM    8  C   UNL     1     -10.254   8.732  66.470  1.00  0.00    -0.314 C  
HETATM    9  C   UNL     1     -10.129   7.822  67.685  1.00  0.00    -0.254 C  
HETATM   10  C   UNL     1      -9.548  12.185  64.972  1.00  0.00    -0.027 C  
HETATM   11  C   UNL     1      -8.692   7.811  68.108  1.00  0.00    -0.126 C  
HETATM   12  C   UNL     1     -10.312  13.597  64.998  1.00  0.00    -0.393 C  
HETATM   13  C   UNL     1     -11.573  13.219  65.731  1.00  0.00    -0.337 C  
HETATM   14  C   UNL     1      -8.065   6.634  68.205  1.00  0.00    -0.111 C  
HETATM   15  C   UNL     1      -8.077   9.158  68.473  1.00  0.00    -0.103 C  
HETATM   16  O   UNL     1     -12.404  14.242  66.228  1.00  0.00    -0.443 OA 
HETATM   17  C   UNL     1      -6.662   6.461  68.647  1.00  0.00    -0.061 C  
HETATM   18  C   UNL     1      -6.546   9.093  68.701  1.00  0.00    -0.054 C  
HETATM   19  H   UNL     1     -12.796  14.761  65.537  1.00  0.00     0.000 HD 
HETATM   20  C   UNL     1      -5.831   7.738  68.651  1.00  0.00    -0.031 C  
ENDROOT
BRANCH  13  21
HETATM   21  C   UNL     1     -12.391  12.498  64.638  1.00  0.00    -0.547 C  
HETATM   22  C   UNL     1     -12.735  12.043  63.594  1.00  0.00    -0.550 C  
ENDBRANCH  13  21
TORSDOF 1
ENDMDL
MODEL       52
REMARK 921   NORMALIZED FREE ENERGY PREDICTED BY IDOCK:   -4.54 KCAL/MOL
REMARK 922        TOTAL FREE ENERGY PREDICTED BY IDOCK:   -5.03 KCAL/MOL
REMARK 923 INTER-LIGAND FREE ENERGY PREDICTED BY IDOCK:   -4.87 KCAL/MOL
REMARK 924 INTRA-LIGAND FREE ENERGY PREDICTED BY IDOCK:   -0.17 KCAL/MOL
REMARK 927      BINDING AFFINITY PREDICTED BY RF-SCORE:    0.00 PKD
ROOT
HETATM    1  C   UNL     1     -11.882  14.317  67.622  1.00  0.00    -0.420 C  
HETATM    2  C   UNL     1     -10.683  13.560  67.051  1.00  0.00    -0.278 C  
HETATM    3  C   UNL     1     -10.489  14.193  65.541  1.00  0.00    -0.352 C  
HETATM    4  C   UNL     1      -9.755  15.603  65.457  1.00  0.00    -0.286 C  
HETATM    5  C   UNL     1      -8.571  15.871  66.459  1.00  0.00    -0.345 C  
HETATM    6  C   UNL     1      -8.982  15.176  67.741  1.00  0.00    -0.178 C  
HETATM    7  C   UNL     1      -9.264  13.688  67.599  1.00  0.00    -0.213 C  
HETATM    8  C   UNL     1      -8.316  15.586  69.049  1.00  0.00    -0.227 C  
HETATM    9  C   UNL     1      -8.541  17.082  69.232  1.00  0.00     0.112 C  
HETATM   10  C   UNL     1      -8.565  12.577  66.694  1.00  0.00    -0.057 C  
HETATM   11  C   UNL     1      -7.854  17.792  68.106  1.00  0.00    -0.264 C  
HETATM   12  C   UNL     1      -9.736  11.547  66.310  1.00  0.00    -0.240 C  
HETATM   13  C   UNL     1     -10.820  11.989  67.258  1.00  0.00    -0.246 C  
HETATM   14  C   UNL     1      -6.956  18.738  68.402  1.00  0.00    -0.278 C  
HETATM   15  C   UNL     1      -8.299  17.426  66.694  1.00  0.00    -0.295 C  
HETATM   16  O   UNL     1     -12.135  11.530  67.050  1.00  0.00    -0.443 OA 
HETATM   17  C   UNL     1      -6.227  19.550  67.401  1.00  0.00    -0.204 C  
HETATM   18  C   UNL     1      -7.410  18.046  65.589  1.00  0.00    -0.030 C  
HETATM   19  H   UNL     1     -12.218  10.592  67.174  1.00  0.00     0.000 HD 
HETATM   20  C   UNL     1      -6.284  19.011  65.977  1.00  0.00    -0.220 C  
ENDROOT
BRANCH  13  21
HETATM   21  C   UNL     1     -10.361  11.376  68.599  1.00  0.00    -0.219 C  
HETATM   22  C   UNL     1      -9.960  10.613  69.419  1.00  0.00    -0.183 C  
ENDBRANCH  13  21
TORSDOF 1
ENDMDL
MODEL       53
REMARK 921   NORMALIZED FREE ENERGY PREDICTED BY IDOCK:   -4.51 KCAL/MOL
REMARK 922        TOTAL FREE ENERGY PREDICTED BY IDOCK:   -5.00 KCAL/MOL
REMARK 923 INTER-LIGAND FREE ENERGY PREDICTED BY IDOCK:   -4.78 KCAL/MOL
REMARK 924 INTRA-LIGAND FREE ENERGY PREDICTED BY IDOCK:   -0.22 KCAL/MOL
REMARK 927      BINDING AFFINITY PREDICTED BY RF-SCORE:    0.00 PKD
ROOT
HETATM    1  C   UNL     1      -9.362   9.798  70.064  1.00  0.00    -0.274 C  
HETATM    2  C   UNL     1      -9.869   9.410  68.674  1.00  0.00    -0.174 C  
HETATM    3  C   UNL     1     -11.370  10.086  68.591  1.00  0.00    -0.115 C  
HETATM    4  C   UNL     1     -11.425  11.645  68.275  1.00  0.00    -0.369 C  
HETATM    5  C   UNL     1     -10.366  12.223  67.264  1.00  0.00    -0.228 C  
HETATM    6  C   UNL     1      -9.103  11.430  67.528  1.00  0.00    -0.157 C  
HETATM    7  C   UNL     1      -9.251   9.923  67.377  1.00  0.00    -0.151 C  
HETATM    8  C   UNL     1      -7.766  11.998  67.067  1.00  0.00    -0.129 C  
HETATM    9  C   UNL     1      -7.603  13.370  67.709  1.00  0.00    -0.157 C  
HETATM   10  C   UNL     1     -10.114   9.059  66.352  1.00  0.00    -0.351 C  
HETATM   11  C   UNL     1      -8.697  14.254  67.193  1.00  0.00    -0.243 C  
HETATM   12  C   UNL     1     -10.550   7.747  67.169  1.00  0.00    -0.401 C  
HETATM   13  C   UNL     1      -9.660   7.862  68.379  1.00  0.00    -0.150 C  
HETATM   14  C   UNL     1      -8.361  15.409  66.609  1.00  0.00    -0.255 C  
HETATM   15  C   UNL     1     -10.127  13.791  67.449  1.00  0.00    -0.244 C  
HETATM   16  O   UNL     1      -9.931   7.056  69.502  1.00  0.00    -0.159 OA 
HETATM   17  C   UNL     1      -9.329  16.401  66.088  1.00  0.00    -0.360 C  
HETATM   18  C   UNL     1     -11.190  14.644  66.713  1.00  0.00    -0.344 C  
HETATM   19  H   UNL     1      -9.806   6.131  69.326  1.00  0.00     0.000 HD 
HETATM   20  C   UNL     1     -10.752  15.880  65.922  1.00  0.00    -0.303 C  
ENDROOT
BRANCH  13  21
HETATM   21  C   UNL     1      -8.295   7.389  67.834  1.00  0.00    -0.119 C  
HETATM   22  C   UNL     1      -7.273   6.797  67.696  1.00  0.00    -0.094 C  
ENDBRANCH  13  21
TORSDOF 1
ENDMDL
MODEL       54
REMARK 921   NORMALIZED FREE ENERGY PREDICTED BY IDOCK:   -4.47 KCAL/MOL
REMARK 922        TOTAL FREE ENERGY PREDICTED BY IDOCK:   -4.96 KCAL/MOL
REMARK 923 INTER-LIGAND FREE ENERGY PREDICTED BY IDOCK:   -4.76 KCAL/MOL
REMARK 924 INTRA-LIGAND FREE ENERGY PREDICTED BY IDOCK:   -0.20 KCAL/MOL
REMARK 927      BINDING AFFINITY PREDICTED BY RF-SCORE:    0.00 PKD
ROOT
HETATM    1  C   UNL     1     -12.014  11.081  68.657  1.00  0.00    -0.247 C  
HETATM    2  C   UNL     1     -10.797  11.332  67.765  1.00  0.00    -0.284 C  
HETATM    3  C   UNL     1      -9.544  11.477  68.826  1.00  0.00    -0.112 C  
HETATM    4  C   UNL     1      -8.951  10.118  69.407  1.00  0.00    -0.205 C  
HETATM    5  C   UNL     1      -8.877   8.880  68.437  1.00  0.00    -0.134 C  
HETATM    6  C   UNL     1     -10.112   8.993  67.568  1.00  0.00    -0.285 C  
HETATM    7  C   UNL     1     -10.233  10.298  66.795  1.00  0.00    -0.286 C  
HETATM    8  C   UNL     1     -10.611   7.756  66.830  1.00  0.00    -0.347 C  
HETATM    9  C   UNL     1     -10.864   6.670  67.869  1.00  0.00    -0.353 C  
HETATM   10  C   UNL     1      -9.120  11.208  66.107  1.00  0.00    -0.214 C  
HETATM   11  C   UNL     1      -9.555   6.341  68.520  1.00  0.00    -0.128 C  
HETATM   12  C   UNL     1      -9.656  12.714  66.253  1.00  0.00    -0.244 C  
HETATM   13  C   UNL     1     -11.078  12.465  66.685  1.00  0.00    -0.289 C  
HETATM   14  C   UNL     1      -9.141   5.069  68.511  1.00  0.00    -0.136 C  
HETATM   15  C   UNL     1      -8.830   7.487  69.216  1.00  0.00    -0.136 C  
HETATM   16  O   UNL     1     -11.828  13.536  67.207  1.00  0.00    -0.355 OA 
HETATM   17  C   UNL     1      -7.894   4.585  69.146  1.00  0.00    -0.069 C  
HETATM   18  C   UNL     1      -7.401   7.117  69.683  1.00  0.00    -0.085 C  
HETATM   19  H   UNL     1     -11.996  14.212  66.562  1.00  0.00     0.000 HD 
HETATM   20  C   UNL     1      -6.899   5.679  69.516  1.00  0.00    -0.061 C  
ENDROOT
BRANCH  13  21
HETATM   21  C   UNL     1     -11.764  12.070  65.359  1.00  0.00    -0.317 C  
HETATM   22  C   UNL     1     -12.223  12.115  64.262  1.00  0.00    -0.469 C  
ENDBRANCH  13  21
TORSDOF 1
ENDMDL
MODEL       55
REMARK 921   NORMALIZED FREE ENERGY PREDICTED BY IDOCK:   -4.47 KCAL/MOL
REMARK 922        TOTAL FREE ENERGY PREDICTED BY IDOCK:   -4.95 KCAL/MOL
REMARK 923 INTER-LIGAND FREE ENERGY PREDICTED BY IDOCK:   -4.73 KCAL/MOL
REMARK 924 INTRA-LIGAND FREE ENERGY PREDICTED BY IDOCK:   -0.22 KCAL/MOL
REMARK 927      BINDING AFFINITY PREDICTED BY RF-SCORE:    0.00 PKD
ROOT
HETATM    1  C   UNL     1      -9.800   7.237  66.824  1.00  0.00    -0.281 C  
HETATM    2  C   UNL     1      -8.513   8.063  66.772  1.00  0.00    -0.128 C  
HETATM    3  C   UNL     1      -8.378   8.496  65.188  1.00  0.00    -0.178 C  
HETATM    4  C   UNL     1      -9.287   9.712  64.708  1.00  0.00    -0.286 C  
HETATM    5  C   UNL     1      -9.508  10.900  65.718  1.00  0.00    -0.246 C  
HETATM    6  C   UNL     1      -9.575  10.244  67.081  1.00  0.00    -0.199 C  
HETATM    7  C   UNL     1      -8.353   9.419  67.454  1.00  0.00    -0.125 C  
HETATM    8  C   UNL     1     -10.219  11.005  68.235  1.00  0.00    -0.192 C  
HETATM    9  C   UNL     1     -11.638  11.364  67.815  1.00  0.00    -0.325 C  
HETATM   10  C   UNL     1      -6.806   9.650  67.147  1.00  0.00    -0.084 C  
HETATM   11  C   UNL     1     -11.552  12.279  66.632  1.00  0.00    -0.438 C  
HETATM   12  C   UNL     1      -6.182   8.179  66.988  1.00  0.00    -0.055 C  
HETATM   13  C   UNL     1      -7.312   7.336  67.518  1.00  0.00    -0.092 C  
HETATM   14  C   UNL     1     -12.163  13.467  66.699  1.00  0.00    -0.411 C  
HETATM   15  C   UNL     1     -10.828  11.741  65.403  1.00  0.00    -0.347 C  
HETATM   16  O   UNL     1      -7.292   5.947  67.286  1.00  0.00    -0.074 OA 
HETATM   17  C   UNL     1     -12.199  14.458  65.600  1.00  0.00    -0.352 C  
HETATM   18  C   UNL     1     -10.603  12.809  64.305  1.00  0.00    -0.424 C  
HETATM   19  H   UNL     1      -6.575   5.513  67.732  1.00  0.00     0.000 HD 
HETATM   20  C   UNL     1     -11.189  14.214  64.485  1.00  0.00    -0.345 C  
ENDROOT
BRANCH  13  21
HETATM   21  C   UNL     1      -7.172   7.516  69.046  1.00  0.00    -0.085 C  
HETATM   22  C   UNL     1      -7.240   7.336  70.220  1.00  0.00    -0.067 C  
ENDBRANCH  13  21
TORSDOF 1
ENDMDL
MODEL       56
REMARK 921   NORMALIZED FREE ENERGY PREDICTED BY IDOCK:   -4.44 KCAL/MOL
REMARK 922        TOTAL FREE ENERGY PREDICTED BY IDOCK:   -4.93 KCAL/MOL
REMARK 923 INTER-LIGAND FREE ENERGY PREDICTED BY IDOCK:   -4.71 KCAL/MOL
REMARK 924 INTRA-LIGAND FREE ENERGY PREDICTED BY IDOCK:   -0.22 KCAL/MOL
REMARK 927      BINDING AFFINITY PREDICTED BY RF-SCORE:    0.00 PKD
ROOT
HETATM    1  C   UNL     1     -11.161  10.889  67.307  1.00  0.00    -0.350 C  
HETATM    2  C   UNL     1      -9.661  10.639  67.135  1.00  0.00    -0.199 C  
HETATM    3  C   UNL     1      -9.020  11.026  68.603  1.00  0.00    -0.167 C  
HETATM    4  C   UNL     1      -9.164   9.929  69.748  1.00  0.00    -0.252 C  
HETATM    5  C   UNL     1      -9.034   8.416  69.330  1.00  0.00    -0.153 C  
HETATM    6  C   UNL     1      -9.671   8.336  67.958  1.00  0.00    -0.187 C  
HETATM    7  C   UNL     1      -9.056   9.256  66.914  1.00  0.00    -0.158 C  
HETATM    8  C   UNL     1     -10.129   6.979  67.436  1.00  0.00    -0.252 C  
HETATM    9  C   UNL     1     -11.115   6.406  68.446  1.00  0.00    -0.374 C  
HETATM   10  C   UNL     1      -7.544   9.700  66.678  1.00  0.00    -0.098 C  
HETATM   11  C   UNL     1     -10.383   6.196  69.736  1.00  0.00    -0.269 C  
HETATM   12  C   UNL     1      -7.627  11.202  66.115  1.00  0.00    -0.032 C  
HETATM   13  C   UNL     1      -9.098  11.303  65.805  1.00  0.00    -0.203 C  
HETATM   14  C   UNL     1     -10.395   4.976  70.285  1.00  0.00    -0.299 C  
HETATM   15  C   UNL     1      -9.739   7.426  70.365  1.00  0.00    -0.175 C  
HETATM   16  O   UNL     1      -9.656  12.573  65.557  1.00  0.00    -0.420 OA 
HETATM   17  C   UNL     1      -9.753   4.625  71.572  1.00  0.00    -0.241 C  
HETATM   18  C   UNL     1      -8.836   7.095  71.579  1.00  0.00    -0.127 C  
HETATM   19  H   UNL     1      -9.319  12.969  64.762  1.00  0.00     0.000 HD 
HETATM   20  C   UNL     1      -8.753   5.653  72.089  1.00  0.00    -0.133 C  
ENDROOT
BRANCH  13  21
HETATM   21  C   UNL     1      -9.214  10.519  64.480  1.00  0.00    -0.278 C  
HETATM   22  C   UNL     1      -9.411  10.242  63.340  1.00  0.00    -0.340 C  
ENDBRANCH  13  21
TORSDOF 1
ENDMDL
MODEL       57
REMARK 921   NORMALIZED FREE ENERGY PREDICTED BY IDOCK:   -4.39 KCAL/MOL
REMARK 922        TOTAL FREE ENERGY PREDICTED BY IDOCK:   -4.87 KCAL/MOL
REMARK 923 INTER-LIGAND FREE ENERGY PREDICTED BY IDOCK:   -4.68 KCAL/MOL
REMARK 924 INTRA-LIGAND FREE ENERGY PREDICTED BY IDOCK:   -0.19 KCAL/MOL
REMARK 927      BINDING AFFINITY PREDICTED BY RF-SCORE:    0.00 PKD
ROOT
HETATM    1  C   UNL     1     -10.920   8.781  70.675  1.00  0.00    -0.278 C  
HETATM    2  C   UNL     1     -10.744   7.319  71.088  1.00  0.00    -0.244 C  
HETATM    3  C   UNL     1     -11.755   6.493  70.082  1.00  0.00    -0.419 C  
HETATM    4  C   UNL     1     -11.222   6.234  68.604  1.00  0.00    -0.328 C  
HETATM    5  C   UNL     1      -9.689   5.927  68.423  1.00  0.00    -0.151 C  
HETATM    6  C   UNL     1      -8.996   6.783  69.464  1.00  0.00    -0.139 C  
HETATM    7  C   UNL     1      -9.447   6.538  70.896  1.00  0.00    -0.179 C  
HETATM    8  C   UNL     1      -7.513   7.091  69.297  1.00  0.00    -0.094 C  
HETATM    9  C   UNL     1      -7.332   7.761  67.940  1.00  0.00    -0.102 C  
HETATM   10  C   UNL     1      -9.875   5.194  71.638  1.00  0.00    -0.230 C  
HETATM   11  C   UNL     1      -7.735   6.778  66.883  1.00  0.00    -0.103 C  
HETATM   12  C   UNL     1     -10.995   5.635  72.700  1.00  0.00    -0.316 C  
HETATM   13  C   UNL     1     -10.840   7.133  72.664  1.00  0.00    -0.279 C  
HETATM   14  C   UNL     1      -6.855   6.481  65.920  1.00  0.00    -0.053 C  
HETATM   15  C   UNL     1      -9.163   6.250  66.951  1.00  0.00    -0.138 C  
HETATM   16  O   UNL     1     -11.843   7.935  73.243  1.00  0.00    -0.639 OA 
HETATM   17  C   UNL     1      -7.123   5.562  64.791  1.00  0.00    -0.054 C  
HETATM   18  C   UNL     1      -9.439   5.095  65.957  1.00  0.00    -0.170 C  
HETATM   19  H   UNL     1     -11.901   7.824  74.184  1.00  0.00     0.000 HD 
HETATM   20  C   UNL     1      -8.349   4.674  64.965  1.00  0.00    -0.127 C  
ENDROOT
BRANCH  13  21
HETATM   21  C   UNL     1      -9.571   7.356  73.516  1.00  0.00    -0.317 C  
HETATM   22  C   UNL     1      -8.634   7.866  74.041  1.00  0.00    -0.322 C  
ENDBRANCH  13  21
TORSDOF 1
ENDMDL
MODEL       58
REMARK 921   NORMALIZED FREE ENERGY PREDICTED BY IDOCK:   -4.37 KCAL/MOL
REMARK 922        TOTAL FREE ENERGY PREDICTED BY IDOCK:   -4.85 KCAL/MOL
REMARK 923 INTER-LIGAND FREE ENERGY PREDICTED BY IDOCK:   -4.62 KCAL/MOL
REMARK 924 INTRA-LIGAND FREE ENERGY PREDICTED BY IDOCK:   -0.22 KCAL/MOL
REMARK 927      BINDING AFFINITY PREDICTED BY RF-SCORE:    0.00 PKD
ROOT
HETATM    1  C   UNL     1      -8.690   8.648  70.888  1.00  0.00    -0.216 C  
HETATM    2  C   UNL     1      -9.979   7.993  70.389  1.00  0.00    -0.188 C  
HETATM    3  C   UNL     1     -10.971   9.266  70.053  1.00  0.00    -0.254 C  
HETATM    4  C   UNL     1     -10.712  10.018  68.674  1.00  0.00    -0.256 C  
HETATM    5  C   UNL     1     -10.288   9.145  67.434  1.00  0.00    -0.330 C  
HETATM    6  C   UNL     1      -9.413   8.051  68.010  1.00  0.00    -0.157 C  
HETATM    7  C   UNL     1     -10.075   7.204  69.086  1.00  0.00    -0.183 C  
HETATM    8  C   UNL     1      -8.469   7.296  67.082  1.00  0.00    -0.118 C  
HETATM    9  C   UNL     1      -7.562   8.322  66.413  1.00  0.00    -0.091 C  
HETATM   10  C   UNL     1     -11.579   6.696  69.235  1.00  0.00    -0.147 C  
HETATM   11  C   UNL     1      -8.422   9.226  65.584  1.00  0.00    -0.149 C  
HETATM   12  C   UNL     1     -11.858   6.659  70.815  1.00  0.00    -0.441 C  
HETATM   13  C   UNL     1     -10.460   6.823  71.351  1.00  0.00    -0.215 C  
HETATM   14  C   UNL     1      -8.136   9.362  64.285  1.00  0.00    -0.140 C  
HETATM   15  C   UNL     1      -9.519   9.989  66.318  1.00  0.00    -0.241 C  
HETATM   16  O   UNL     1     -10.285   7.137  72.713  1.00  0.00    -0.183 OA 
HETATM   17  C   UNL     1      -8.867  10.247  63.350  1.00  0.00    -0.227 C  
HETATM   18  C   UNL     1     -10.486  10.739  65.370  1.00  0.00    -0.272 C  
HETATM   19  H   UNL     1     -10.573   6.438  73.288  1.00  0.00     0.000 HD 
HETATM   20  C   UNL     1     -10.214  10.745  63.862  1.00  0.00    -0.377 C  
ENDROOT
BRANCH  13  21
HETATM   21  C   UNL     1      -9.862   5.412  71.158  1.00  0.00    -0.243 C  
HETATM   22  C   UNL     1      -9.233   4.416  71.320  1.00  0.00    -0.196 C  
ENDBRANCH  13  21
TORSDOF 1
ENDMDL
MODEL       59
REMARK 921   NORMALIZED FREE ENERGY PREDICTED BY IDOCK:   -4.36 KCAL/MOL
REMARK 922        TOTAL FREE ENERGY PREDICTED BY IDOCK:   -4.84 KCAL/MOL
REMARK 923 INTER-LIGAND FREE ENERGY PREDICTED BY IDOCK:   -4.61 KCAL/MOL
REMARK 924 INTRA-LIGAND FREE ENERGY PREDICTED BY IDOCK:   -0.22 KCAL/MOL
REMARK 927      BINDING AFFINITY PREDICTED BY RF-SCORE:    0.00 PKD
ROOT
HETATM    1  C   UNL     1      -7.042   6.719  67.291  1.00  0.00    -0.080 C  
HETATM    2  C   UNL     1      -8.435   6.089  67.236  1.00  0.00    -0.104 C  
HETATM    3  C   UNL     1      -8.862   5.921  68.819  1.00  0.00    -0.111 C  
HETATM    4  C   UNL     1      -9.385   7.234  69.552  1.00  0.00    -0.152 C  
HETATM    5  C   UNL     1     -10.267   8.235  68.717  1.00  0.00    -0.226 C  
HETATM    6  C   UNL     1      -9.689   8.188  67.318  1.00  0.00    -0.233 C  
HETATM    7  C   UNL     1      -9.664   6.805  66.682  1.00  0.00    -0.213 C  
HETATM    8  C   UNL     1      -9.984   9.335  66.358  1.00  0.00    -0.356 C  
HETATM    9  C   UNL     1      -9.510  10.623  67.020  1.00  0.00    -0.187 C  
HETATM   10  C   UNL     1     -10.698   5.596  66.778  1.00  0.00    -0.358 C  
HETATM   11  C   UNL     1     -10.317  10.825  68.266  1.00  0.00    -0.195 C  
HETATM   12  C   UNL     1      -9.803   4.266  66.688  1.00  0.00    -0.236 C  
HETATM   13  C   UNL     1      -8.484   4.845  66.247  1.00  0.00    -0.111 C  
HETATM   14  C   UNL     1     -10.981  11.976  68.415  1.00  0.00    -0.276 C  
HETATM   15  C   UNL     1     -10.252   9.717  69.310  1.00  0.00    -0.215 C  
HETATM   16  O   UNL     1      -7.328   4.045  66.328  1.00  0.00    -0.076 OA 
HETATM   17  C   UNL     1     -11.787  12.336  69.604  1.00  0.00    -0.393 C  
HETATM   18  C   UNL     1     -11.264   9.902  70.468  1.00  0.00    -0.399 C  
HETATM   19  H   UNL     1      -7.357   3.302  65.737  1.00  0.00     0.000 HD 
HETATM   20  C   UNL     1     -12.124  11.169  70.524  1.00  0.00    -0.474 C  
ENDROOT
BRANCH  13  21
HETATM   21  C   UNL     1      -8.720   5.104  64.743  1.00  0.00    -0.133 C  
HETATM   22  C   UNL     1      -8.568   5.159  63.565  1.00  0.00    -0.082 C  
ENDBRANCH  13  21
TORSDOF 1
ENDMDL
MODEL       60
REMARK 921   NORMALIZED FREE ENERGY PREDICTED BY IDOCK:   -4.35 KCAL/MOL
REMARK 922        TOTAL FREE ENERGY PREDICTED BY IDOCK:   -4.83 KCAL/MOL
REMARK 923 INTER-LIGAND FREE ENERGY PREDICTED BY IDOCK:   -4.65 KCAL/MOL
REMARK 924 INTRA-LIGAND FREE ENERGY PREDICTED BY IDOCK:   -0.18 KCAL/MOL
REMARK 927      BINDING AFFINITY PREDICTED BY RF-SCORE:    0.00 PKD
ROOT
HETATM    1  C   UNL     1      -7.830  12.031  66.719  1.00  0.00    -0.036 C  
HETATM    2  C   UNL     1      -9.306  11.901  66.341  1.00  0.00    -0.233 C  
HETATM    3  C   UNL     1      -9.303  10.865  65.059  1.00  0.00    -0.260 C  
HETATM    4  C   UNL     1      -9.162   9.317  65.403  1.00  0.00    -0.284 C  
HETATM    5  C   UNL     1      -9.884   8.789  66.699  1.00  0.00    -0.335 C  
HETATM    6  C   UNL     1      -9.765   9.920  67.699  1.00  0.00    -0.183 C  
HETATM    7  C   UNL     1     -10.353  11.245  67.237  1.00  0.00    -0.236 C  
HETATM    8  C   UNL     1      -9.943   9.616  69.182  1.00  0.00    -0.189 C  
HETATM    9  C   UNL     1      -8.925   8.547  69.558  1.00  0.00    -0.149 C  
HETATM   10  C   UNL     1     -11.643  11.562  66.356  1.00  0.00    -0.030 C  
HETATM   11  C   UNL     1      -9.246   7.309  68.777  1.00  0.00    -0.137 C  
HETATM   12  C   UNL     1     -11.272  12.884  65.523  1.00  0.00    -0.319 C  
HETATM   13  C   UNL     1     -10.017  13.320  66.233  1.00  0.00    -0.291 C  
HETATM   14  C   UNL     1      -9.446   6.168  69.445  1.00  0.00    -0.153 C  
HETATM   15  C   UNL     1      -9.240   7.439  67.258  1.00  0.00    -0.150 C  
HETATM   16  O   UNL     1      -9.195  14.292  65.630  1.00  0.00    -0.493 OA 
HETATM   17  C   UNL     1      -9.732   4.861  68.812  1.00  0.00    -0.232 C  
HETATM   18  C   UNL     1      -9.776   6.181  66.532  1.00  0.00    -0.184 C  
HETATM   19  H   UNL     1      -9.620  15.139  65.566  1.00  0.00     0.000 HD 
HETATM   20  C   UNL     1     -10.145   4.937  67.347  1.00  0.00    -0.196 C  
ENDROOT
BRANCH  13  21
HETATM   21  C   UNL     1     -10.572  13.969  67.520  1.00  0.00    -0.260 C  
HETATM   22  C   UNL     1     -11.196  14.653  68.267  1.00  0.00    -0.301 C  
ENDBRANCH  13  21
TORSDOF 1
ENDMDL
MODEL       61
REMARK 921   NORMALIZED FREE ENERGY PREDICTED BY IDOCK:   -4.34 KCAL/MOL
REMARK 922        TOTAL FREE ENERGY PREDICTED BY IDOCK:   -4.82 KCAL/MOL
REMARK 923 INTER-LIGAND FREE ENERGY PREDICTED BY IDOCK:   -4.70 KCAL/MOL
REMARK 924 INTRA-LIGAND FREE ENERGY PREDICTED BY IDOCK:   -0.12 KCAL/MOL
REMARK 927      BINDING AFFINITY PREDICTED BY RF-SCORE:    0.00 PKD
ROOT
HETATM    1  C   UNL     1      -6.798   8.425  68.437  1.00  0.00    -0.065 C  
HETATM    2  C   UNL     1      -7.966   8.848  69.330  1.00  0.00    -0.100 C  
HETATM    3  C   UNL     1      -7.671  10.438  69.650  1.00  0.00    -0.152 C  
HETATM    4  C   UNL     1      -8.057  11.472  68.503  1.00  0.00    -0.146 C  
HETATM    5  C   UNL     1      -9.356  11.180  67.664  1.00  0.00    -0.169 C  
HETATM    6  C   UNL     1      -9.404   9.672  67.533  1.00  0.00    -0.149 C  
HETATM    7  C   UNL     1      -9.413   8.915  68.853  1.00  0.00    -0.152 C  
HETATM    8  C   UNL     1     -10.253   9.054  66.427  1.00  0.00    -0.297 C  
HETATM    9  C   UNL     1      -9.769   9.627  65.101  1.00  0.00    -0.287 C  
HETATM   10  C   UNL     1     -10.101   9.263  70.248  1.00  0.00    -0.262 C  
HETATM   11  C   UNL     1     -10.016  11.104  65.119  1.00  0.00    -0.323 C  
HETATM   12  C   UNL     1      -9.115   8.667  71.366  1.00  0.00    -0.295 C  
HETATM   13  C   UNL     1      -8.209   7.815  70.515  1.00  0.00    -0.120 C  
HETATM   14  C   UNL     1     -10.741  11.642  64.132  1.00  0.00    -0.418 C  
HETATM   15  C   UNL     1      -9.345  11.895  66.236  1.00  0.00    -0.234 C  
HETATM   16  O   UNL     1      -7.007   7.336  71.070  1.00  0.00    -0.058 OA 
HETATM   17  C   UNL     1     -11.035  13.086  63.994  1.00  0.00    -0.422 C  
HETATM   18  C   UNL     1      -9.808  13.371  66.309  1.00  0.00    -0.295 C  
HETATM   19  H   UNL     1      -7.152   6.719  71.777  1.00  0.00     0.000 HD 
HETATM   20  C   UNL     1     -10.766  13.916  65.244  1.00  0.00    -0.352 C  
ENDROOT
BRANCH  13  21
HETATM   21  C   UNL     1      -9.081   6.570  70.244  1.00  0.00    -0.155 C  
HETATM   22  C   UNL     1      -9.898   5.712  70.353  1.00  0.00    -0.253 C  
ENDBRANCH  13  21
TORSDOF 1
ENDMDL
MODEL       62
REMARK 921   NORMALIZED FREE ENERGY PREDICTED BY IDOCK:   -4.34 KCAL/MOL
REMARK 922        TOTAL FREE ENERGY PREDICTED BY IDOCK:   -4.81 KCAL/MOL
REMARK 923 INTER-LIGAND FREE ENERGY PREDICTED BY IDOCK:   -4.61 KCAL/MOL
REMARK 924 INTRA-LIGAND FREE ENERGY PREDICTED BY IDOCK:   -0.21 KCAL/MOL
REMARK 927      BINDING AFFINITY PREDICTED BY RF-SCORE:    0.00 PKD
ROOT
HETATM    1  C   UNL     1     -12.021   7.996  71.162  1.00  0.00    -0.297 C  
HETATM    2  C   UNL     1     -11.025   6.843  71.025  1.00  0.00    -0.287 C  
HETATM    3  C   UNL     1     -11.366   6.191  69.550  1.00  0.00    -0.426 C  
HETATM    4  C   UNL     1     -10.785   6.964  68.285  1.00  0.00    -0.265 C  
HETATM    5  C   UNL     1      -9.360   7.620  68.421  1.00  0.00    -0.146 C  
HETATM    6  C   UNL     1      -9.295   8.113  69.852  1.00  0.00    -0.159 C  
HETATM    7  C   UNL     1      -9.516   7.041  70.908  1.00  0.00    -0.160 C  
HETATM    8  C   UNL     1      -8.269   9.180  70.219  1.00  0.00    -0.170 C  
HETATM    9  C   UNL     1      -8.515  10.383  69.317  1.00  0.00    -0.162 C  
HETATM   10  C   UNL     1      -9.079   5.508  70.945  1.00  0.00    -0.164 C  
HETATM   11  C   UNL     1      -8.271   9.956  67.902  1.00  0.00    -0.113 C  
HETATM   12  C   UNL     1     -10.245   4.755  71.751  1.00  0.00    -0.258 C  
HETATM   13  C   UNL     1     -10.993   5.930  72.326  1.00  0.00    -0.265 C  
HETATM   14  C   UNL     1      -7.385  10.643  67.172  1.00  0.00    -0.098 C  
HETATM   15  C   UNL     1      -9.123   8.805  67.379  1.00  0.00    -0.147 C  
HETATM   16  O   UNL     1     -12.274   5.721  72.872  1.00  0.00    -0.536 OA 
HETATM   17  C   UNL     1      -7.068  10.365  65.753  1.00  0.00    -0.139 C  
HETATM   18  C   UNL     1      -8.676   8.291  65.988  1.00  0.00    -0.181 C  
HETATM   19  H   UNL     1     -12.255   5.176  73.649  1.00  0.00     0.000 HD 
HETATM   20  C   UNL     1      -7.546   9.011  65.244  1.00  0.00    -0.098 C  
ENDROOT
BRANCH  13  21
HETATM   21  C   UNL     1     -10.090   6.354  73.506  1.00  0.00    -0.240 C  
HETATM   22  C   UNL     1      -9.545   6.383  74.562  1.00  0.00    -0.294 C  
ENDBRANCH  13  21
TORSDOF 1
ENDMDL
MODEL       63
REMARK 921   NORMALIZED FREE ENERGY PREDICTED BY IDOCK:   -4.32 KCAL/MOL
REMARK 922        TOTAL FREE ENERGY PREDICTED BY IDOCK:   -4.80 KCAL/MOL
REMARK 923 INTER-LIGAND FREE ENERGY PREDICTED BY IDOCK:   -4.58 KCAL/MOL
REMARK 924 INTRA-LIGAND FREE ENERGY PREDICTED BY IDOCK:   -0.22 KCAL/MOL
REMARK 927      BINDING AFFINITY PREDICTED BY RF-SCORE:    0.00 PKD
ROOT
HETATM    1  C   UNL     1     -11.012   7.159  67.058  1.00  0.00    -0.304 C  
HETATM    2  C   UNL     1      -9.760   7.881  67.558  1.00  0.00    -0.204 C  
HETATM    3  C   UNL     1     -10.340   9.011  68.609  1.00  0.00    -0.233 C  
HETATM    4  C   UNL     1     -10.731   8.489  70.061  1.00  0.00    -0.234 C  
HETATM    5  C   UNL     1      -9.827   7.370  70.703  1.00  0.00    -0.179 C  
HETATM    6  C   UNL     1      -9.415   6.491  69.541  1.00  0.00    -0.150 C  
HETATM    7  C   UNL     1      -8.688   7.215  68.417  1.00  0.00    -0.125 C  
HETATM    8  C   UNL     1      -8.920   5.077  69.824  1.00  0.00    -0.141 C  
HETATM    9  C   UNL     1     -10.014   4.353  70.598  1.00  0.00    -0.254 C  
HETATM   10  C   UNL     1      -7.644   8.419  68.457  1.00  0.00    -0.096 C  
HETATM   11  C   UNL     1     -10.203   5.062  71.904  1.00  0.00    -0.267 C  
HETATM   12  C   UNL     1      -7.916   9.260  67.117  1.00  0.00    -0.106 C  
HETATM   13  C   UNL     1      -8.803   8.304  66.362  1.00  0.00    -0.152 C  
HETATM   14  C   UNL     1     -10.094   4.355  73.034  1.00  0.00    -0.206 C  
HETATM   15  C   UNL     1     -10.585   6.536  71.832  1.00  0.00    -0.239 C  
HETATM   16  O   UNL     1      -9.514   8.776  65.241  1.00  0.00    -0.444 OA 
HETATM   17  C   UNL     1     -10.292   4.906  74.394  1.00  0.00    -0.325 C  
HETATM   18  C   UNL     1     -10.562   7.244  73.209  1.00  0.00    -0.428 C  
HETATM   19  H   UNL     1      -8.942   9.028  64.526  1.00  0.00     0.000 HD 
HETATM   20  C   UNL     1     -10.279   6.428  74.475  1.00  0.00    -0.310 C  
ENDROOT
BRANCH  13  21
HETATM   21  C   UNL     1      -7.792   7.269  65.821  1.00  0.00    -0.108 C  
HETATM   22  C   UNL     1      -7.199   6.535  65.098  1.00  0.00    -0.070 C  
ENDBRANCH  13  21
TORSDOF 1
ENDMDL
MODEL       64
REMARK 921   NORMALIZED FREE ENERGY PREDICTED BY IDOCK:   -4.30 KCAL/MOL
REMARK 922        TOTAL FREE ENERGY PREDICTED BY IDOCK:   -4.78 KCAL/MOL
REMARK 923 INTER-LIGAND FREE ENERGY PREDICTED BY IDOCK:   -4.56 KCAL/MOL
REMARK 924 INTRA-LIGAND FREE ENERGY PREDICTED BY IDOCK:   -0.22 KCAL/MOL
REMARK 927      BINDING AFFINITY PREDICTED BY RF-SCORE:    0.00 PKD
ROOT
HETATM    1  C   UNL     1      -9.781   9.684  65.391  1.00  0.00    -0.365 C  
HETATM    2  C   UNL     1      -8.532   9.823  66.264  1.00  0.00    -0.129 C  
HETATM    3  C   UNL     1      -8.933  10.991  67.355  1.00  0.00    -0.141 C  
HETATM    4  C   UNL     1      -9.846  10.533  68.576  1.00  0.00    -0.175 C  
HETATM    5  C   UNL     1      -9.593   9.101  69.180  1.00  0.00    -0.161 C  
HETATM    6  C   UNL     1      -9.226   8.237  67.991  1.00  0.00    -0.142 C  
HETATM    7  C   UNL     1      -8.025   8.724  67.193  1.00  0.00    -0.096 C  
HETATM    8  C   UNL     1      -9.350   6.723  68.113  1.00  0.00    -0.122 C  
HETATM    9  C   UNL     1     -10.790   6.408  68.497  1.00  0.00    -0.382 C  
HETATM   10  C   UNL     1      -6.675   9.427  67.667  1.00  0.00    -0.068 C  
HETATM   11  C   UNL     1     -11.053   7.016  69.841  1.00  0.00    -0.301 C  
HETATM   12  C   UNL     1      -6.275  10.423  66.473  1.00  0.00    -0.078 C  
HETATM   13  C   UNL     1      -7.210   9.951  65.390  1.00  0.00    -0.125 C  
HETATM   14  C   UNL     1     -11.497   6.224  70.823  1.00  0.00    -0.383 C  
HETATM   15  C   UNL     1     -10.862   8.524  69.957  1.00  0.00    -0.225 C  
HETATM   16  O   UNL     1      -7.392  10.757  64.249  1.00  0.00    -0.345 OA 
HETATM   17  C   UNL     1     -11.838   6.686  72.187  1.00  0.00    -0.337 C  
HETATM   18  C   UNL     1     -10.953   9.044  71.413  1.00  0.00    -0.394 C  
HETATM   19  H   UNL     1      -6.602  10.833  63.727  1.00  0.00     0.000 HD 
HETATM   20  C   UNL     1     -11.315   8.073  72.542  1.00  0.00    -0.469 C  
ENDROOT
BRANCH  13  21
HETATM   21  C   UNL     1      -6.521   8.660  64.895  1.00  0.00    -0.065 C  
HETATM   22  C   UNL     1      -6.022   7.839  64.195  1.00  0.00    -0.052 C  
ENDBRANCH  13  21
TORSDOF 1
ENDMDL
MODEL       65
REMARK 921   NORMALIZED FREE ENERGY PREDICTED BY IDOCK:   -4.27 KCAL/MOL
REMARK 922        TOTAL FREE ENERGY PREDICTED BY IDOCK:   -4.75 KCAL/MOL
REMARK 923 INTER-LIGAND FREE ENERGY PREDICTED BY IDOCK:   -4.55 KCAL/MOL
REMARK 924 INTRA-LIGAND FREE ENERGY PREDICTED BY IDOCK:   -0.20 KCAL/MOL
REMARK 927      BINDING AFFINITY PREDICTED BY RF-SCORE:    0.00 PKD
ROOT
HETATM    1  C   UNL     1     -11.397  11.008  65.004  1.00  0.00     0.234 C  
HETATM    2  C   UNL     1      -9.962  11.149  65.513  1.00  0.00    -0.298 C  
HETATM    3  C   UNL     1      -9.589  12.729  65.233  1.00  0.00     0.088 C  
HETATM    4  C   UNL     1     -10.159  13.785  66.280  1.00  0.00    -0.304 C  
HETATM    5  C   UNL     1     -10.206  13.359  67.795  1.00  0.00    -0.235 C  
HETATM    6  C   UNL     1     -10.541  11.882  67.773  1.00  0.00    -0.233 C  
HETATM    7  C   UNL     1      -9.570  11.018  66.982  1.00  0.00    -0.199 C  
HETATM    8  C   UNL     1     -11.104  11.234  69.032  1.00  0.00    -0.301 C  
HETATM    9  C   UNL     1     -12.365  11.997  69.418  1.00  0.00    -0.012 C  
HETATM   10  C   UNL     1      -7.989  11.118  66.809  1.00  0.00    -0.156 C  
HETATM   11  C   UNL     1     -11.971  13.406  69.743  1.00  0.00    -0.396 C  
HETATM   12  C   UNL     1      -7.692  10.595  65.321  1.00  0.00    -0.021 C  
HETATM   13  C   UNL     1      -9.023   9.987  64.966  1.00  0.00    -0.199 C  
HETATM   14  C   UNL     1     -12.309  13.903  70.938  1.00  0.00    -0.451 C  
HETATM   15  C   UNL     1     -11.274  14.192  68.639  1.00  0.00    -0.291 C  
HETATM   16  O   UNL     1      -9.289   9.665  63.621  1.00  0.00    -0.403 OA 
HETATM   17  C   UNL     1     -12.024  15.285  71.386  1.00  0.00    -0.428 C  
HETATM   18  C   UNL     1     -10.719  15.558  69.113  1.00  0.00    -0.250 C  
HETATM   19  H   UNL     1      -8.729   8.971  63.295  1.00  0.00     0.000 HD 
HETATM   20  C   UNL     1     -10.995  16.030  70.545  1.00  0.00    -0.322 C  
ENDROOT
BRANCH  13  21
HETATM   21  C   UNL     1      -8.989   8.643  65.728  1.00  0.00    -0.244 C  
HETATM   22  C   UNL     1      -9.286   7.573  66.152  1.00  0.00    -0.128 C  
ENDBRANCH  13  21
TORSDOF 1
ENDMDL
MODEL       66
REMARK 921   NORMALIZED FREE ENERGY PREDICTED BY IDOCK:   -4.20 KCAL/MOL
REMARK 922        TOTAL FREE ENERGY PREDICTED BY IDOCK:   -4.67 KCAL/MOL
REMARK 923 INTER-LIGAND FREE ENERGY PREDICTED BY IDOCK:   -4.46 KCAL/MOL
REMARK 924 INTRA-LIGAND FREE ENERGY PREDICTED BY IDOCK:   -0.21 KCAL/MOL
REMARK 927      BINDING AFFINITY PREDICTED BY RF-SCORE:    0.00 PKD
ROOT
HETATM    1  C   UNL     1      -8.308   9.183  70.347  1.00  0.00    -0.206 C  
HETATM    2  C   UNL     1      -9.061   9.205  69.015  1.00  0.00    -0.143 C  
HETATM    3  C   UNL     1      -7.925   8.768  67.904  1.00  0.00    -0.107 C  
HETATM    4  C   UNL     1      -7.603   7.212  67.800  1.00  0.00    -0.111 C  
HETATM    5  C   UNL     1      -8.800   6.205  67.976  1.00  0.00    -0.111 C  
HETATM    6  C   UNL     1      -9.695   6.844  69.018  1.00  0.00    -0.150 C  
HETATM    7  C   UNL     1     -10.189   8.239  68.667  1.00  0.00    -0.223 C  
HETATM    8  C   UNL     1     -10.698   5.971  69.764  1.00  0.00    -0.399 C  
HETATM    9  C   UNL     1      -9.919   4.847  70.437  1.00  0.00    -0.316 C  
HETATM   10  C   UNL     1     -10.613   8.873  67.268  1.00  0.00    -0.304 C  
HETATM   11  C   UNL     1      -9.278   4.023  69.363  1.00  0.00    -0.216 C  
HETATM   12  C   UNL     1     -10.191  10.420  67.359  1.00  0.00    -0.259 C  
HETATM   13  C   UNL     1      -9.899  10.544  68.832  1.00  0.00    -0.201 C  
HETATM   14  C   UNL     1      -9.525   2.708  69.336  1.00  0.00    -0.131 C  
HETATM   15  C   UNL     1      -8.323   4.749  68.422  1.00  0.00    -0.090 C  
HETATM   16  O   UNL     1      -9.210  11.681  69.296  1.00  0.00    -0.368 OA 
HETATM   17  C   UNL     1      -8.935   1.761  68.363  1.00  0.00    -0.168 C  
HETATM   18  C   UNL     1      -7.863   3.882  67.224  1.00  0.00    -0.087 C  
HETATM   19  H   UNL     1      -9.711  12.481  69.186  1.00  0.00     0.000 HD 
HETATM   20  C   UNL     1      -8.294   2.414  67.144  1.00  0.00    -0.091 C  
ENDROOT
BRANCH  13  21
HETATM   21  C   UNL     1     -11.314  10.621  69.446  1.00  0.00    -0.348 C  
HETATM   22  C   UNL     1     -12.209  10.759  70.217  1.00  0.00    -0.431 C  
ENDBRANCH  13  21
TORSDOF 1
ENDMDL
MODEL       67
REMARK 921   NORMALIZED FREE ENERGY PREDICTED BY IDOCK:   -4.18 KCAL/MOL
REMARK 922        TOTAL FREE ENERGY PREDICTED BY IDOCK:   -4.65 KCAL/MOL
REMARK 923 INTER-LIGAND FREE ENERGY PREDICTED BY IDOCK:   -4.44 KCAL/MOL
REMARK 924 INTRA-LIGAND FREE ENERGY PREDICTED BY IDOCK:   -0.21 KCAL/MOL
REMARK 927      BINDING AFFINITY PREDICTED BY RF-SCORE:    0.00 PKD
ROOT
HETATM    1  C   UNL     1     -11.583   7.112  70.123  1.00  0.00    -0.211 C  
HETATM    2  C   UNL     1     -10.161   6.877  69.611  1.00  0.00    -0.206 C  
HETATM    3  C   UNL     1     -10.370   6.427  68.039  1.00  0.00    -0.234 C  
HETATM    4  C   UNL     1     -10.647   7.602  67.000  1.00  0.00    -0.406 C  
HETATM    5  C   UNL     1      -9.889   8.964  67.219  1.00  0.00    -0.256 C  
HETATM    6  C   UNL     1      -9.812   9.128  68.723  1.00  0.00    -0.175 C  
HETATM    7  C   UNL     1      -9.125   7.986  69.456  1.00  0.00    -0.152 C  
HETATM    8  C   UNL     1      -9.555  10.515  69.302  1.00  0.00    -0.199 C  
HETATM    9  C   UNL     1     -10.649  11.440  68.783  1.00  0.00    -0.235 C  
HETATM   10  C   UNL     1      -7.879   7.082  69.043  1.00  0.00    -0.115 C  
HETATM   11  C   UNL     1     -10.520  11.516  67.292  1.00  0.00    -0.246 C  
HETATM   12  C   UNL     1      -8.171   5.640  69.684  1.00  0.00    -0.107 C  
HETATM   13  C   UNL     1      -9.316   5.970  70.607  1.00  0.00    -0.160 C  
HETATM   14  C   UNL     1     -10.390  12.720  66.724  1.00  0.00    -0.248 C  
HETATM   15  C   UNL     1     -10.627  10.200  66.529  1.00  0.00    -0.179 C  
HETATM   16  O   UNL     1     -10.074   4.917  71.155  1.00  0.00    -0.199 OA 
HETATM   17  C   UNL     1     -10.292  12.956  65.265  1.00  0.00    -0.315 C  
HETATM   18  C   UNL     1     -10.282  10.332  65.025  1.00  0.00    -0.277 C  
HETATM   19  H   UNL     1      -9.569   4.376  71.750  1.00  0.00     0.000 HD 
HETATM   20  C   UNL     1      -9.985  11.715  64.436  1.00  0.00    -0.298 C  
ENDROOT
BRANCH  13  21
HETATM   21  C   UNL     1      -8.600   6.646  71.797  1.00  0.00    -0.126 C  
HETATM   22  C   UNL     1      -7.939   6.824  72.769  1.00  0.00    -0.099 C  
ENDBRANCH  13  21
TORSDOF 1
ENDMDL
MODEL       68
REMARK 921   NORMALIZED FREE ENERGY PREDICTED BY IDOCK:   -4.12 KCAL/MOL
REMARK 922        TOTAL FREE ENERGY PREDICTED BY IDOCK:   -4.59 KCAL/MOL
REMARK 923 INTER-LIGAND FREE ENERGY PREDICTED BY IDOCK:   -4.37 KCAL/MOL
REMARK 924 INTRA-LIGAND FREE ENERGY PREDICTED BY IDOCK:   -0.22 KCAL/MOL
REMARK 927      BINDING AFFINITY PREDICTED BY RF-SCORE:    0.00 PKD
ROOT
HETATM    1  C   UNL     1      -8.525  14.465  67.424  1.00  0.00    -0.216 C  
HETATM    2  C   UNL     1      -9.970  13.965  67.368  1.00  0.00    -0.240 C  
HETATM    3  C   UNL     1     -10.135  13.386  65.834  1.00  0.00    -0.300 C  
HETATM    4  C   UNL     1      -9.529  11.941  65.556  1.00  0.00    -0.152 C  
HETATM    5  C   UNL     1      -9.647  10.867  66.701  1.00  0.00    -0.213 C  
HETATM    6  C   UNL     1      -9.484  11.650  67.987  1.00  0.00    -0.185 C  
HETATM    7  C   UNL     1     -10.485  12.780  68.179  1.00  0.00    -0.244 C  
HETATM    8  C   UNL     1      -9.096  10.906  69.260  1.00  0.00     0.003 C  
HETATM    9  C   UNL     1      -7.789  10.174  68.986  1.00  0.00    -0.107 C  
HETATM   10  C   UNL     1     -12.026  12.883  67.787  1.00  0.00    -0.336 C  
HETATM   11  C   UNL     1      -8.042   9.167  67.906  1.00  0.00    -0.105 C  
HETATM   12  C   UNL     1     -12.267  14.429  67.425  1.00  0.00    -0.230 C  
HETATM   13  C   UNL     1     -10.991  15.040  67.942  1.00  0.00    -0.291 C  
HETATM   14  C   UNL     1      -7.741   7.886  68.145  1.00  0.00    -0.125 C  
HETATM   15  C   UNL     1      -8.557   9.707  66.576  1.00  0.00    -0.135 C  
HETATM   16  O   UNL     1     -10.663  16.356  67.561  1.00  0.00    -0.325 OA 
HETATM   17  C   UNL     1      -7.897   6.788  67.165  1.00  0.00    -0.112 C  
HETATM   18  C   UNL     1      -8.986   8.595  65.587  1.00  0.00    -0.231 C  
HETATM   19  H   UNL     1     -11.273  16.998  67.904  1.00  0.00     0.000 HD 
HETATM   20  C   UNL     1      -8.767   7.125  65.959  1.00  0.00    -0.162 C  
ENDROOT
BRANCH  13  21
HETATM   21  C   UNL     1     -11.239  15.087  69.466  1.00  0.00    -0.294 C  
HETATM   22  C   UNL     1     -11.176  15.383  70.616  1.00  0.00    -0.370 C  
ENDBRANCH  13  21
TORSDOF 1
ENDMDL
MODEL       69
REMARK 921   NORMALIZED FREE ENERGY PREDICTED BY IDOCK:   -4.12 KCAL/MOL
REMARK 922        TOTAL FREE ENERGY PREDICTED BY IDOCK:   -4.59 KCAL/MOL
REMARK 923 INTER-LIGAND FREE ENERGY PREDICTED BY IDOCK:   -4.36 KCAL/MOL
REMARK 924 INTRA-LIGAND FREE ENERGY PREDICTED BY IDOCK:   -0.22 KCAL/MOL
REMARK 927      BINDING AFFINITY PREDICTED BY RF-SCORE:    0.00 PKD
ROOT
HETATM    1  C   UNL     1     -10.486   8.149  66.834  1.00  0.00    -0.379 C  
HETATM    2  C   UNL     1      -9.008   7.816  67.047  1.00  0.00    -0.145 C  
HETATM    3  C   UNL     1      -8.427   9.100  67.902  1.00  0.00    -0.117 C  
HETATM    4  C   UNL     1      -8.743   9.111  69.462  1.00  0.00    -0.140 C  
HETATM    5  C   UNL     1      -8.727   7.731  70.220  1.00  0.00    -0.143 C  
HETATM    6  C   UNL     1      -9.282   6.734  69.224  1.00  0.00    -0.141 C  
HETATM    7  C   UNL     1      -8.521   6.654  67.909  1.00  0.00    -0.119 C  
HETATM    8  C   UNL     1      -9.830   5.407  69.735  1.00  0.00    -0.268 C  
HETATM    9  C   UNL     1     -10.925   5.720  70.747  1.00  0.00    -0.312 C  
HETATM   10  C   UNL     1      -6.962   6.775  67.598  1.00  0.00    -0.083 C  
HETATM   11  C   UNL     1     -10.298   6.449  71.895  1.00  0.00    -0.228 C  
HETATM   12  C   UNL     1      -6.871   7.463  66.150  1.00  0.00    -0.057 C  
HETATM   13  C   UNL     1      -8.304   7.355  65.698  1.00  0.00    -0.140 C  
HETATM   14  C   UNL     1     -10.457   5.955  73.128  1.00  0.00    -0.250 C  
HETATM   15  C   UNL     1      -9.584   7.756  71.567  1.00  0.00    -0.187 C  
HETATM   16  O   UNL     1      -8.726   8.107  64.585  1.00  0.00    -0.395 OA 
HETATM   17  C   UNL     1      -9.932   6.584  74.361  1.00  0.00    -0.374 C  
HETATM   18  C   UNL     1      -8.793   8.341  72.762  1.00  0.00    -0.310 C  
HETATM   19  H   UNL     1      -8.305   7.831  63.779  1.00  0.00     0.000 HD 
HETATM   20  C   UNL     1      -8.875   7.658  74.131  1.00  0.00    -0.280 C  
ENDROOT
BRANCH  13  21
HETATM   21  C   UNL     1      -8.409   5.873  65.277  1.00  0.00    -0.146 C  
HETATM   22  C   UNL     1      -8.594   4.885  64.640  1.00  0.00    -0.149 C  
ENDBRANCH  13  21
TORSDOF 1
ENDMDL
MODEL       70
REMARK 921   NORMALIZED FREE ENERGY PREDICTED BY IDOCK:   -4.08 KCAL/MOL
REMARK 922        TOTAL FREE ENERGY PREDICTED BY IDOCK:   -4.54 KCAL/MOL
REMARK 923 INTER-LIGAND FREE ENERGY PREDICTED BY IDOCK:   -4.32 KCAL/MOL
REMARK 924 INTRA-LIGAND FREE ENERGY PREDICTED BY IDOCK:   -0.22 KCAL/MOL
REMARK 927      BINDING AFFINITY PREDICTED BY RF-SCORE:    0.00 PKD
ROOT
HETATM    1  C   UNL     1      -8.107  11.869  68.812  1.00  0.00    -0.021 C  
HETATM    2  C   UNL     1      -7.824  10.512  68.165  1.00  0.00    -0.109 C  
HETATM    3  C   UNL     1      -6.527   9.932  68.999  1.00  0.00    -0.048 C  
HETATM    4  C   UNL     1      -6.834   9.290  70.424  1.00  0.00    -0.075 C  
HETATM    5  C   UNL     1      -8.164   8.462  70.580  1.00  0.00    -0.117 C  
HETATM    6  C   UNL     1      -9.174   9.182  69.711  1.00  0.00    -0.179 C  
HETATM    7  C   UNL     1      -8.775   9.322  68.249  1.00  0.00    -0.129 C  
HETATM    8  C   UNL     1     -10.660   8.946  69.956  1.00  0.00    -0.234 C  
HETATM    9  C   UNL     1     -10.950   9.303  71.408  1.00  0.00    -0.429 C  
HETATM   10  C   UNL     1      -7.986   8.327  67.285  1.00  0.00    -0.105 C  
HETATM   11  C   UNL     1     -10.170   8.366  72.278  1.00  0.00    -0.396 C  
HETATM   12  C   UNL     1      -7.154   9.273  66.291  1.00  0.00    -0.087 C  
HETATM   13  C   UNL     1      -7.788  10.609  66.578  1.00  0.00    -0.140 C  
HETATM   14  C   UNL     1     -10.829   7.649  73.195  1.00  0.00    -0.440 C  
HETATM   15  C   UNL     1      -8.656   8.364  72.096  1.00  0.00    -0.257 C  
HETATM   16  O   UNL     1      -7.150  11.779  66.122  1.00  0.00    -0.351 OA 
HETATM   17  C   UNL     1     -10.193   6.714  74.150  1.00  0.00    -0.390 C  
HETATM   18  C   UNL     1      -7.945   7.233  72.878  1.00  0.00    -0.118 C  
HETATM   19  H   UNL     1      -7.129  11.836  65.174  1.00  0.00     0.000 HD 
HETATM   20  C   UNL     1      -8.760   6.326  73.806  1.00  0.00    -0.127 C  
ENDROOT
BRANCH  13  21
HETATM   21  C   UNL     1      -9.120  10.519  65.801  1.00  0.00    -0.204 C  
HETATM   22  C   UNL     1     -10.050  10.789  65.110  1.00  0.00    -0.363 C  
ENDBRANCH  13  21
TORSDOF 1
ENDMDL
MODEL       71
REMARK 921   NORMALIZED FREE ENERGY PREDICTED BY IDOCK:   -4.03 KCAL/MOL
REMARK 922        TOTAL FREE ENERGY PREDICTED BY IDOCK:   -4.49 KCAL/MOL
REMARK 923 INTER-LIGAND FREE ENERGY PREDICTED BY IDOCK:   -4.27 KCAL/MOL
REMARK 924 INTRA-LIGAND FREE ENERGY PREDICTED BY IDOCK:   -0.22 KCAL/MOL
REMARK 927      BINDING AFFINITY PREDICTED BY RF-SCORE:    0.00 PKD
ROOT
HETATM    1  C   UNL     1      -6.715  11.361  66.461  1.00  0.00    -0.070 C  
HETATM    2  C   UNL     1      -8.009  10.615  66.132  1.00  0.00    -0.151 C  
HETATM    3  C   UNL     1      -8.496   9.998  67.581  1.00  0.00    -0.114 C  
HETATM    4  C   UNL     1      -9.225  11.011  68.569  1.00  0.00    -0.177 C  
HETATM    5  C   UNL     1     -10.183  12.088  67.936  1.00  0.00    -0.203 C  
HETATM    6  C   UNL     1      -9.528  12.467  66.624  1.00  0.00    -0.242 C  
HETATM    7  C   UNL     1      -9.288  11.307  65.670  1.00  0.00    -0.245 C  
HETATM    8  C   UNL     1      -9.917  13.782  65.958  1.00  0.00    -0.319 C  
HETATM    9  C   UNL     1      -9.652  14.901  66.957  1.00  0.00    -0.245 C  
HETATM   10  C   UNL     1     -10.160  10.006  65.372  1.00  0.00    -0.317 C  
HETATM   11  C   UNL     1     -10.546  14.684  68.140  1.00  0.00    -0.237 C  
HETATM   12  C   UNL     1      -9.096   8.852  65.033  1.00  0.00    -0.110 C  
HETATM   13  C   UNL     1      -7.841   9.669  64.865  1.00  0.00    -0.123 C  
HETATM   14  C   UNL     1     -11.361  15.677  68.512  1.00  0.00    -0.361 C  
HETATM   15  C   UNL     1     -10.394  13.359  68.878  1.00  0.00    -0.089 C  
HETATM   16  O   UNL     1      -6.597   9.010  64.843  1.00  0.00    -0.068 OA 
HETATM   17  C   UNL     1     -12.271  15.626  69.680  1.00  0.00    -0.264 C  
HETATM   18  C   UNL     1     -11.483  13.126  69.953  1.00  0.00    -0.159 C  
HETATM   19  H   UNL     1      -6.497   8.445  64.086  1.00  0.00     0.000 HD 
HETATM   20  C   UNL     1     -12.503  14.231  70.249  1.00  0.00    -0.422 C  
ENDROOT
BRANCH  13  21
HETATM   21  C   UNL     1      -8.026  10.278  63.457  1.00  0.00    -0.143 C  
HETATM   22  C   UNL     1      -7.808  10.702  62.368  1.00  0.00    -0.204 C  
ENDBRANCH  13  21
TORSDOF 1
ENDMDL
MODEL       72
REMARK 921   NORMALIZED FREE ENERGY PREDICTED BY IDOCK:   -4.03 KCAL/MOL
REMARK 922        TOTAL FREE ENERGY PREDICTED BY IDOCK:   -4.49 KCAL/MOL
REMARK 923 INTER-LIGAND FREE ENERGY PREDICTED BY IDOCK:   -4.28 KCAL/MOL
REMARK 924 INTRA-LIGAND FREE ENERGY PREDICTED BY IDOCK:   -0.20 KCAL/MOL
REMARK 927      BINDING AFFINITY PREDICTED BY RF-SCORE:    0.00 PKD
ROOT
HETATM    1  C   UNL     1     -10.551   4.866  66.143  1.00  0.00    -0.322 C  
HETATM    2  C   UNL     1      -9.378   5.829  66.338  1.00  0.00    -0.168 C  
HETATM    3  C   UNL     1     -10.097   7.273  66.678  1.00  0.00    -0.238 C  
HETATM    4  C   UNL     1     -10.621   7.466  68.168  1.00  0.00    -0.216 C  
HETATM    5  C   UNL     1      -9.759   6.849  69.332  1.00  0.00    -0.157 C  
HETATM    6  C   UNL     1      -9.202   5.561  68.762  1.00  0.00    -0.142 C  
HETATM    7  C   UNL     1      -8.384   5.725  67.490  1.00  0.00    -0.104 C  
HETATM    8  C   UNL     1      -8.700   4.487  69.720  1.00  0.00    -0.111 C  
HETATM    9  C   UNL     1      -9.849   4.131  70.656  1.00  0.00    -0.249 C  
HETATM   10  C   UNL     1      -7.384   6.881  67.037  1.00  0.00    -0.086 C  
HETATM   11  C   UNL     1     -10.192   5.353  71.451  1.00  0.00    -0.279 C  
HETATM   12  C   UNL     1      -7.538   6.972  65.442  1.00  0.00    -0.097 C  
HETATM   13  C   UNL     1      -8.314   5.711  65.163  1.00  0.00    -0.146 C  
HETATM   14  C   UNL     1     -10.181   5.270  72.785  1.00  0.00    -0.228 C  
HETATM   15  C   UNL     1     -10.607   6.589  70.659  1.00  0.00    -0.280 C  
HETATM   16  O   UNL     1      -8.917   5.548  63.901  1.00  0.00    -0.348 OA 
HETATM   17  C   UNL     1     -10.536   6.378  73.701  1.00  0.00    -0.311 C  
HETATM   18  C   UNL     1     -10.747   7.860  71.532  1.00  0.00    -0.267 C  
HETATM   19  H   UNL     1      -8.281   5.477  63.199  1.00  0.00     0.000 HD 
HETATM   20  C   UNL     1     -10.575   7.756  73.051  1.00  0.00    -0.441 C  
ENDROOT
BRANCH  13  21
HETATM   21  C   UNL     1      -7.223   4.622  65.258  1.00  0.00    -0.068 C  
HETATM   22  C   UNL     1      -6.277   3.941  65.022  1.00  0.00    -0.024 C  
ENDBRANCH  13  21
TORSDOF 1
ENDMDL
MODEL       73
REMARK 921   NORMALIZED FREE ENERGY PREDICTED BY IDOCK:   -4.02 KCAL/MOL
REMARK 922        TOTAL FREE ENERGY PREDICTED BY IDOCK:   -4.48 KCAL/MOL
REMARK 923 INTER-LIGAND FREE ENERGY PREDICTED BY IDOCK:   -4.32 KCAL/MOL
REMARK 924 INTRA-LIGAND FREE ENERGY PREDICTED BY IDOCK:   -0.16 KCAL/MOL
REMARK 927      BINDING AFFINITY PREDICTED BY RF-SCORE:    0.00 PKD
ROOT
HETATM    1  C   UNL     1      -8.217  19.242  68.924  1.00  0.00    -0.344 C  
HETATM    2  C   UNL     1      -7.093  18.700  68.040  1.00  0.00    -0.251 C  
HETATM    3  C   UNL     1      -6.269  17.668  69.026  1.00  0.00    -0.213 C  
HETATM    4  C   UNL     1      -6.916  16.230  69.241  1.00  0.00    -0.217 C  
HETATM    5  C   UNL     1      -7.633  15.560  68.009  1.00  0.00    -0.133 C  
HETATM    6  C   UNL     1      -8.284  16.709  67.268  1.00  0.00    -0.197 C  
HETATM    7  C   UNL     1      -7.330  17.807  66.825  1.00  0.00    -0.239 C  
HETATM    8  C   UNL     1      -9.421  16.410  66.297  1.00  0.00    -0.347 C  
HETATM    9  C   UNL     1     -10.507  15.674  67.072  1.00  0.00    -0.303 C  
HETATM   10  C   UNL     1      -5.827  17.732  66.297  1.00  0.00    -0.239 C  
HETATM   11  C   UNL     1      -9.934  14.374  67.547  1.00  0.00    -0.224 C  
HETATM   12  C   UNL     1      -5.128  19.079  66.819  1.00  0.00    -0.149 C  
HETATM   13  C   UNL     1      -6.332  19.864  67.269  1.00  0.00    -0.189 C  
HETATM   14  C   UNL     1     -10.566  13.241  67.220  1.00  0.00    -0.250 C  
HETATM   15  C   UNL     1      -8.702  14.457  68.442  1.00  0.00    -0.180 C  
HETATM   16  O   UNL     1      -6.140  21.007  68.070  1.00  0.00    -0.315 OA 
HETATM   17  C   UNL     1     -10.143  11.888  67.648  1.00  0.00    -0.202 C  
HETATM   18  C   UNL     1      -8.053  13.079  68.722  1.00  0.00     0.086 C  
HETATM   19  H   UNL     1      -5.686  21.702  67.609  1.00  0.00     0.000 HD 
HETATM   20  C   UNL     1      -8.724  11.806  68.198  1.00  0.00    -0.168 C  
ENDROOT
BRANCH  13  21
HETATM   21  C   UNL     1      -6.916  20.373  65.933  1.00  0.00    -0.267 C  
HETATM   22  C   UNL     1      -7.014  20.825  64.837  1.00  0.00     0.020 C  
ENDBRANCH  13  21
TORSDOF 1
ENDMDL
MODEL       74
REMARK 921   NORMALIZED FREE ENERGY PREDICTED BY IDOCK:   -4.01 KCAL/MOL
REMARK 922        TOTAL FREE ENERGY PREDICTED BY IDOCK:   -4.47 KCAL/MOL
REMARK 923 INTER-LIGAND FREE ENERGY PREDICTED BY IDOCK:   -4.26 KCAL/MOL
REMARK 924 INTRA-LIGAND FREE ENERGY PREDICTED BY IDOCK:   -0.21 KCAL/MOL
REMARK 927      BINDING AFFINITY PREDICTED BY RF-SCORE:    0.00 PKD
ROOT
HETATM    1  C   UNL     1      -7.215   6.527  70.484  1.00  0.00    -0.074 C  
HETATM    2  C   UNL     1      -8.182   7.426  71.256  1.00  0.00    -0.105 C  
HETATM    3  C   UNL     1      -7.417   8.885  71.310  1.00  0.00    -0.127 C  
HETATM    4  C   UNL     1      -7.500   9.774  69.992  1.00  0.00    -0.158 C  
HETATM    5  C   UNL     1      -8.845   9.745  69.175  1.00  0.00    -0.160 C  
HETATM    6  C   UNL     1      -9.346   8.321  69.301  1.00  0.00    -0.155 C  
HETATM    7  C   UNL     1      -9.553   7.840  70.729  1.00  0.00    -0.167 C  
HETATM    8  C   UNL     1     -10.365   7.805  68.291  1.00  0.00    -0.239 C  
HETATM    9  C   UNL     1      -9.761   7.971  66.902  1.00  0.00    -0.291 C  
HETATM   10  C   UNL     1     -10.074   8.612  72.023  1.00  0.00    -0.401 C  
HETATM   11  C   UNL     1      -9.552   9.435  66.661  1.00  0.00    -0.250 C  
HETATM   12  C   UNL     1      -9.288   7.949  73.256  1.00  0.00    -0.351 C  
HETATM   13  C   UNL     1      -8.699   6.733  72.591  1.00  0.00    -0.122 C  
HETATM   14  C   UNL     1     -10.104   9.988  65.575  1.00  0.00    -0.325 C  
HETATM   15  C   UNL     1      -8.650  10.168  67.648  1.00  0.00    -0.118 C  
HETATM   16  O   UNL     1      -7.684   6.018  73.256  1.00  0.00    -0.100 OA 
HETATM   17  C   UNL     1      -9.953  11.408  65.184  1.00  0.00    -0.310 C  
HETATM   18  C   UNL     1      -8.648  11.704  67.454  1.00  0.00    -0.149 C  
HETATM   19  H   UNL     1      -7.992   5.603  74.053  1.00  0.00     0.000 HD 
HETATM   20  C   UNL     1      -9.421  12.320  66.283  1.00  0.00    -0.234 C  
ENDROOT
BRANCH  13  21
HETATM   21  C   UNL     1      -9.910   5.778  72.508  1.00  0.00    -0.182 C  
HETATM   22  C   UNL     1     -10.580   4.809  72.349  1.00  0.00    -0.246 C  
ENDBRANCH  13  21
TORSDOF 1
ENDMDL
MODEL       75
REMARK 921   NORMALIZED FREE ENERGY PREDICTED BY IDOCK:   -3.92 KCAL/MOL
REMARK 922        TOTAL FREE ENERGY PREDICTED BY IDOCK:   -4.38 KCAL/MOL
REMARK 923 INTER-LIGAND FREE ENERGY PREDICTED BY IDOCK:   -4.17 KCAL/MOL
REMARK 924 INTRA-LIGAND FREE ENERGY PREDICTED BY IDOCK:   -0.21 KCAL/MOL
REMARK 927      BINDING AFFINITY PREDICTED BY RF-SCORE:    0.00 PKD
ROOT
HETATM    1  C   UNL     1     -12.444  12.934  67.669  1.00  0.00     0.518 C  
HETATM    2  C   UNL     1     -11.612  13.653  66.606  1.00  0.00    -0.391 C  
HETATM    3  C   UNL     1     -11.006  14.968  67.393  1.00  0.00    -0.315 C  
HETATM    4  C   UNL     1      -9.747  14.710  68.333  1.00  0.00    -0.217 C  
HETATM    5  C   UNL     1      -8.680  13.658  67.851  1.00  0.00    -0.184 C  
HETATM    6  C   UNL     1      -9.483  12.582  67.151  1.00  0.00    -0.208 C  
HETATM    7  C   UNL     1     -10.340  13.073  65.994  1.00  0.00    -0.293 C  
HETATM    8  C   UNL     1      -8.857  11.205  66.953  1.00  0.00    -0.157 C  
HETATM    9  C   UNL     1      -8.459  10.679  68.326  1.00  0.00    -0.127 C  
HETATM   10  C   UNL     1     -10.070  14.206  64.906  1.00  0.00    -0.280 C  
HETATM   11  C   UNL     1      -7.418  11.598  68.889  1.00  0.00    -0.092 C  
HETATM   12  C   UNL     1     -11.511  14.835  64.584  1.00  0.00    -0.381 C  
HETATM   13  C   UNL     1     -12.412  13.823  65.242  1.00  0.00    -0.480 C  
HETATM   14  C   UNL     1      -6.247  11.076  69.272  1.00  0.00    -0.059 C  
HETATM   15  C   UNL     1      -7.814  13.061  69.052  1.00  0.00     0.248 C  
HETATM   16  O   UNL     1     -13.767  14.150  65.448  1.00  0.00    -0.440 OA 
HETATM   17  C   UNL     1      -5.141  11.849  69.880  1.00  0.00    -0.075 C  
HETATM   18  C   UNL     1      -6.630  13.978  69.443  1.00  0.00    -0.118 C  
HETATM   19  H   UNL     1     -14.245  14.251  64.633  1.00  0.00     0.000 HD 
HETATM   20  C   UNL     1      -5.256  13.361  69.726  1.00  0.00    -0.088 C  
ENDROOT
BRANCH  13  21
HETATM   21  C   UNL     1     -12.403  12.659  64.228  1.00  0.00    -0.517 C  
HETATM   22  C   UNL     1     -12.633  11.980  63.279  1.00  0.00    -0.512 C  
ENDBRANCH  13  21
TORSDOF 1
ENDMDL
MODEL       76
REMARK 921   NORMALIZED FREE ENERGY PREDICTED BY IDOCK:   -3.85 KCAL/MOL
REMARK 922        TOTAL FREE ENERGY PREDICTED BY IDOCK:   -4.29 KCAL/MOL
REMARK 923 INTER-LIGAND FREE ENERGY PREDICTED BY IDOCK:   -4.07 KCAL/MOL
REMARK 924 INTRA-LIGAND FREE ENERGY PREDICTED BY IDOCK:   -0.22 KCAL/MOL
REMARK 927      BINDING AFFINITY PREDICTED BY RF-SCORE:    0.00 PKD
ROOT
HETATM    1  C   UNL     1      -9.010  14.266  66.356  1.00  0.00    -0.093 C  
HETATM    2  C   UNL     1     -10.403  13.707  66.067  1.00  0.00    -0.305 C  
HETATM    3  C   UNL     1     -10.498  13.697  64.421  1.00  0.00    -0.322 C  
HETATM    4  C   UNL     1      -9.762  12.495  63.680  1.00  0.00     0.238 C  
HETATM    5  C   UNL     1      -9.800  11.080  64.368  1.00  0.00    -0.351 C  
HETATM    6  C   UNL     1      -9.722  11.368  65.853  1.00  0.00    -0.257 C  
HETATM    7  C   UNL     1     -10.822  12.275  66.386  1.00  0.00    -0.299 C  
HETATM    8  C   UNL     1      -9.287  10.255  66.799  1.00  0.00    -0.187 C  
HETATM    9  C   UNL     1      -7.916   9.772  66.341  1.00  0.00    -0.109 C  
HETATM   10  C   UNL     1     -12.361  12.389  65.990  1.00  0.00     0.041 C  
HETATM   11  C   UNL     1      -8.066   9.196  64.966  1.00  0.00    -0.130 C  
HETATM   12  C   UNL     1     -12.733  13.939  66.184  1.00  0.00    -0.336 C  
HETATM   13  C   UNL     1     -11.523  14.426  66.937  1.00  0.00    -0.366 C  
HETATM   14  C   UNL     1      -7.656   7.941  64.753  1.00  0.00    -0.110 C  
HETATM   15  C   UNL     1      -8.611  10.128  63.890  1.00  0.00    -0.197 C  
HETATM   16  O   UNL     1     -11.307  15.813  67.057  1.00  0.00    -0.160 OA 
HETATM   17  C   UNL     1      -7.702   7.251  63.443  1.00  0.00    -0.124 C  
HETATM   18  C   UNL     1      -8.926   9.409  62.556  1.00  0.00    -0.241 C  
HETATM   19  H   UNL     1     -11.976  16.242  67.577  1.00  0.00     0.000 HD 
HETATM   20  C   UNL     1      -8.583   7.924  62.397  1.00  0.00     0.042 C  
ENDROOT
BRANCH  13  21
HETATM   21  C   UNL     1     -11.792  13.911  68.368  1.00  0.00    -0.409 C  
HETATM   22  C   UNL     1     -11.824  13.822  69.554  1.00  0.00    -0.394 C  
ENDBRANCH  13  21
TORSDOF 1
ENDMDL
MODEL       77
REMARK 921   NORMALIZED FREE ENERGY PREDICTED BY IDOCK:   -3.83 KCAL/MOL
REMARK 922        TOTAL FREE ENERGY PREDICTED BY IDOCK:   -4.28 KCAL/MOL
REMARK 923 INTER-LIGAND FREE ENERGY PREDICTED BY IDOCK:   -4.40 KCAL/MOL
REMARK 924 INTRA-LIGAND FREE ENERGY PREDICTED BY IDOCK:    0.12 KCAL/MOL
REMARK 927      BINDING AFFINITY PREDICTED BY RF-SCORE:    0.00 PKD
ROOT
HETATM    1  C   UNL     1      -9.834  11.177  69.497  1.00  0.00     0.231 C  
HETATM    2  C   UNL     1     -10.085  11.552  68.035  1.00  0.00    -0.197 C  
HETATM    3  C   UNL     1     -11.333  12.626  68.105  1.00  0.00    -0.334 C  
HETATM    4  C   UNL     1     -10.960  14.117  68.519  1.00  0.00    -0.271 C  
HETATM    5  C   UNL     1      -9.595  14.700  67.994  1.00  0.00    -0.212 C  
HETATM    6  C   UNL     1      -8.640  13.525  68.006  1.00  0.00    -0.177 C  
HETATM    7  C   UNL     1      -9.087  12.329  67.180  1.00  0.00    -0.193 C  
HETATM    8  C   UNL     1      -7.139  13.794  67.995  1.00  0.00    -0.133 C  
HETATM    9  C   UNL     1      -6.820  14.673  69.197  1.00  0.00    -0.126 C  
HETATM   10  C   UNL     1      -9.867  12.254  65.792  1.00  0.00    -0.260 C  
HETATM   11  C   UNL     1      -7.537  15.976  69.019  1.00  0.00    -0.209 C  
HETATM   12  C   UNL     1     -10.764  10.926  65.881  1.00  0.00    -0.193 C  
HETATM   13  C   UNL     1     -10.171  10.269  67.101  1.00  0.00    -0.225 C  
HETATM   14  C   UNL     1      -6.824  17.107  69.056  1.00  0.00    -0.231 C  
HETATM   15  C   UNL     1      -9.054  15.908  68.887  1.00  0.00    -0.233 C  
HETATM   16  O   UNL     1     -10.867   9.205  67.707  1.00  0.00    -0.446 OA 
HETATM   17  C   UNL     1      -7.396  18.467  68.936  1.00  0.00    -0.289 C  
HETATM   18  C   UNL     1      -9.699  17.263  68.504  1.00  0.00    -0.296 C  
HETATM   19  H   UNL     1     -10.919   8.438  67.148  1.00  0.00     0.000 HD 
HETATM   20  C   UNL     1      -8.823  18.516  68.403  1.00  0.00    -0.346 C  
ENDROOT
BRANCH  13  21
HETATM   21  C   UNL     1      -8.861   9.664  66.550  1.00  0.00    -0.158 C  
HETATM   22  C   UNL     1      -7.813   9.539  66.003  1.00  0.00    -0.100 C  
ENDBRANCH  13  21
TORSDOF 1
ENDMDL
MODEL       78
REMARK 921   NORMALIZED FREE ENERGY PREDICTED BY IDOCK:   -3.71 KCAL/MOL
REMARK 922        TOTAL FREE ENERGY PREDICTED BY IDOCK:   -4.15 KCAL/MOL
REMARK 923 INTER-LIGAND FREE ENERGY PREDICTED BY IDOCK:   -3.92 KCAL/MOL
REMARK 924 INTRA-LIGAND FREE ENERGY PREDICTED BY IDOCK:   -0.22 KCAL/MOL
REMARK 927      BINDING AFFINITY PREDICTED BY RF-SCORE:    0.00 PKD
ROOT
HETATM    1  C   UNL     1     -12.148   7.048  70.701  1.00  0.00    -0.332 C  
HETATM    2  C   UNL     1     -10.724   7.586  70.551  1.00  0.00    -0.244 C  
HETATM    3  C   UNL     1     -10.274   7.965  72.090  1.00  0.00    -0.286 C  
HETATM    4  C   UNL     1      -9.815   6.750  73.011  1.00  0.00    -0.191 C  
HETATM    5  C   UNL     1      -8.995   5.589  72.333  1.00  0.00    -0.137 C  
HETATM    6  C   UNL     1      -9.584   5.458  70.943  1.00  0.00    -0.226 C  
HETATM    7  C   UNL     1      -9.541   6.729  70.109  1.00  0.00    -0.165 C  
HETATM    8  C   UNL     1      -9.360   4.166  70.166  1.00  0.00    -0.234 C  
HETATM    9  C   UNL     1      -9.896   3.019  71.014  1.00  0.00    -0.083 C  
HETATM   10  C   UNL     1      -8.443   7.881  70.020  1.00  0.00    -0.134 C  
HETATM   11  C   UNL     1      -9.088   2.962  72.274  1.00  0.00    -0.134 C  
HETATM   12  C   UNL     1      -9.266   9.230  69.734  1.00  0.00    -0.191 C  
HETATM   13  C   UNL     1     -10.618   8.664  69.387  1.00  0.00    -0.199 C  
HETATM   14  C   UNL     1      -8.485   1.811  72.593  1.00  0.00    -0.058 C  
HETATM   15  C   UNL     1      -9.084   4.216  73.142  1.00  0.00    -0.120 C  
HETATM   16  O   UNL     1     -11.729   9.529  69.349  1.00  0.00    -0.425 OA 
HETATM   17  C   UNL     1      -7.689   1.590  73.821  1.00  0.00    -0.033 C  
HETATM   18  C   UNL     1      -8.073   4.150  74.312  1.00  0.00    -0.091 C  
HETATM   19  H   UNL     1     -11.666  10.173  68.653  1.00  0.00     0.000 HD 
HETATM   20  C   UNL     1      -7.281   2.862  74.556  1.00  0.00    -0.042 C  
ENDROOT
BRANCH  13  21
HETATM   21  C   UNL     1     -10.411   8.171  67.938  1.00  0.00    -0.280 C  
HETATM   22  C   UNL     1     -10.530   8.019  66.764  1.00  0.00    -0.319 C  
ENDBRANCH  13  21
TORSDOF 1
ENDMDL
MODEL       79
REMARK 921   NORMALIZED FREE ENERGY PREDICTED BY IDOCK:   -3.70 KCAL/MOL
REMARK 922        TOTAL FREE ENERGY PREDICTED BY IDOCK:   -4.14 KCAL/MOL
REMARK 923 INTER-LIGAND FREE ENERGY PREDICTED BY IDOCK:   -3.92 KCAL/MOL
REMARK 924 INTRA-LIGAND FREE ENERGY PREDICTED BY IDOCK:   -0.22 KCAL/MOL
REMARK 927      BINDING AFFINITY PREDICTED BY RF-SCORE:    0.00 PKD
ROOT
HETATM    1  C   UNL     1     -11.512   6.354  70.359  1.00  0.00    -0.458 C  
HETATM    2  C   UNL     1     -10.016   6.083  70.530  1.00  0.00    -0.233 C  
HETATM    3  C   UNL     1      -9.709   4.852  69.478  1.00  0.00    -0.266 C  
HETATM    4  C   UNL     1      -9.553   5.255  67.946  1.00  0.00    -0.161 C  
HETATM    5  C   UNL     1      -8.837   6.619  67.619  1.00  0.00    -0.116 C  
HETATM    6  C   UNL     1      -9.261   7.557  68.731  1.00  0.00    -0.145 C  
HETATM    7  C   UNL     1      -8.927   7.076  70.135  1.00  0.00    -0.145 C  
HETATM    8  C   UNL     1      -9.136   9.061  68.516  1.00  0.00    -0.133 C  
HETATM    9  C   UNL     1      -9.937   9.415  67.269  1.00  0.00    -0.252 C  
HETATM   10  C   UNL     1      -7.668   6.270  70.688  1.00  0.00    -0.105 C  
HETATM   11  C   UNL     1      -9.310   8.715  66.103  1.00  0.00    -0.291 C  
HETATM   12  C   UNL     1      -8.240   5.355  71.877  1.00  0.00    -0.119 C  
HETATM   13  C   UNL     1      -9.608   5.959  72.062  1.00  0.00    -0.149 C  
HETATM   14  C   UNL     1      -8.928   9.446  65.050  1.00  0.00    -0.258 C  
HETATM   15  C   UNL     1      -9.228   7.194  66.183  1.00  0.00    -0.126 C  
HETATM   16  O   UNL     1     -10.565   5.258  72.822  1.00  0.00    -0.204 OA 
HETATM   17  C   UNL     1      -8.332   8.893  63.813  1.00  0.00    -0.164 C  
HETATM   18  C   UNL     1      -8.390   6.563  65.043  1.00  0.00    -0.076 C  
HETATM   19  H   UNL     1     -10.321   5.185  73.737  1.00  0.00     0.000 HD 
HETATM   20  C   UNL     1      -7.834   7.457  63.929  1.00  0.00    -0.117 C  
ENDROOT
BRANCH  13  21
HETATM   21  C   UNL     1      -9.297   7.250  72.852  1.00  0.00    -0.194 C  
HETATM   22  C   UNL     1      -9.407   8.202  73.555  1.00  0.00    -0.210 C  
ENDBRANCH  13  21
TORSDOF 1
ENDMDL
MODEL       80
REMARK 921   NORMALIZED FREE ENERGY PREDICTED BY IDOCK:   -3.69 KCAL/MOL
REMARK 922        TOTAL FREE ENERGY PREDICTED BY IDOCK:   -4.13 KCAL/MOL
REMARK 923 INTER-LIGAND FREE ENERGY PREDICTED BY IDOCK:   -3.90 KCAL/MOL
REMARK 924 INTRA-LIGAND FREE ENERGY PREDICTED BY IDOCK:   -0.22 KCAL/MOL
REMARK 927      BINDING AFFINITY PREDICTED BY RF-SCORE:    0.00 PKD
ROOT
HETATM    1  C   UNL     1     -10.186   9.010  66.386  1.00  0.00    -0.297 C  
HETATM    2  C   UNL     1      -9.221   9.607  67.412  1.00  0.00    -0.148 C  
HETATM    3  C   UNL     1     -10.203  10.147  68.620  1.00  0.00    -0.193 C  
HETATM    4  C   UNL     1     -10.745   9.047  69.635  1.00  0.00    -0.228 C  
HETATM    5  C   UNL     1      -9.771   7.874  70.029  1.00  0.00    -0.179 C  
HETATM    6  C   UNL     1      -8.979   7.587  68.770  1.00  0.00    -0.129 C  
HETATM    7  C   UNL     1      -8.217   8.778  68.209  1.00  0.00    -0.118 C  
HETATM    8  C   UNL     1      -8.272   6.244  68.633  1.00  0.00    -0.112 C  
HETATM    9  C   UNL     1      -9.323   5.152  68.788  1.00  0.00    -0.166 C  
HETATM   10  C   UNL     1      -7.463   9.973  68.946  1.00  0.00    -0.083 C  
HETATM   11  C   UNL     1      -9.892   5.251  70.170  1.00  0.00    -0.290 C  
HETATM   12  C   UNL     1      -7.643  11.245  67.982  1.00  0.00    -0.105 C  
HETATM   13  C   UNL     1      -8.161  10.579  66.734  1.00  0.00    -0.126 C  
HETATM   14  C   UNL     1      -9.856   4.168  70.954  1.00  0.00    -0.247 C  
HETATM   15  C   UNL     1     -10.543   6.577  70.548  1.00  0.00    -0.282 C  
HETATM   16  O   UNL     1      -8.731  11.377  65.723  1.00  0.00    -0.318 OA 
HETATM   17  C   UNL     1     -10.412   4.101  72.324  1.00  0.00    -0.141 C  
HETATM   18  C   UNL     1     -10.921   6.671  72.046  1.00  0.00    -0.274 C  
HETATM   19  H   UNL     1      -8.098  11.958  65.317  1.00  0.00     0.000 HD 
HETATM   20  C   UNL     1     -10.722   5.454  72.955  1.00  0.00    -0.296 C  
ENDROOT
BRANCH  13  21
HETATM   21  C   UNL     1      -6.880   9.969  66.125  1.00  0.00    -0.102 C  
HETATM   22  C   UNL     1      -6.056   9.605  65.349  1.00  0.00    -0.069 C  
ENDBRANCH  13  21
TORSDOF 1
ENDMDL
MODEL       81
REMARK 921   NORMALIZED FREE ENERGY PREDICTED BY IDOCK:   -3.66 KCAL/MOL
REMARK 922        TOTAL FREE ENERGY PREDICTED BY IDOCK:   -4.10 KCAL/MOL
REMARK 923 INTER-LIGAND FREE ENERGY PREDICTED BY IDOCK:   -3.88 KCAL/MOL
REMARK 924 INTRA-LIGAND FREE ENERGY PREDICTED BY IDOCK:   -0.22 KCAL/MOL
REMARK 927      BINDING AFFINITY PREDICTED BY RF-SCORE:    0.00 PKD
ROOT
HETATM    1  C   UNL     1     -12.687   6.202  71.607  1.00  0.00     0.378 C  
HETATM    2  C   UNL     1     -11.345   6.771  72.070  1.00  0.00    -0.308 C  
HETATM    3  C   UNL     1     -10.797   5.667  73.165  1.00  0.00    -0.321 C  
HETATM    4  C   UNL     1     -10.135   4.349  72.566  1.00  0.00    -0.237 C  
HETATM    5  C   UNL     1      -9.266   4.496  71.261  1.00  0.00    -0.195 C  
HETATM    6  C   UNL     1      -9.962   5.570  70.450  1.00  0.00    -0.279 C  
HETATM    7  C   UNL     1     -10.126   6.904  71.163  1.00  0.00    -0.204 C  
HETATM    8  C   UNL     1      -9.679   5.665  68.955  1.00  0.00    -0.187 C  
HETATM    9  C   UNL     1     -10.016   4.315  68.336  1.00  0.00    -0.028 C  
HETATM   10  C   UNL     1      -9.163   7.667  72.179  1.00  0.00    -0.182 C  
HETATM   11  C   UNL     1      -9.095   3.293  68.929  1.00  0.00    -0.207 C  
HETATM   12  C   UNL     1     -10.143   8.448  73.183  1.00  0.00     0.098 C  
HETATM   13  C   UNL     1     -11.456   8.309  72.458  1.00  0.00    -0.384 C  
HETATM   14  C   UNL     1      -8.351   2.548  68.103  1.00  0.00    -0.088 C  
HETATM   15  C   UNL     1      -9.141   3.130  70.444  1.00  0.00    -0.192 C  
HETATM   16  O   UNL     1     -12.648   8.608  73.146  1.00  0.00    -0.528 OA 
HETATM   17  C   UNL     1      -7.428   1.476  68.538  1.00  0.00    -0.042 C  
HETATM   18  C   UNL     1      -8.025   2.209  70.997  1.00  0.00    -0.050 C  
HETATM   19  H   UNL     1     -12.714   9.527  73.378  1.00  0.00     0.000 HD 
HETATM   20  C   UNL     1      -7.087   1.489  70.023  1.00  0.00    -0.033 C  
ENDROOT
BRANCH  13  21
HETATM   21  C   UNL     1     -11.332   9.366  71.339  1.00  0.00    -0.451 C  
HETATM   22  C   UNL     1     -11.477  10.352  70.689  1.00  0.00    -0.438 C  
ENDBRANCH  13  21
TORSDOF 1
ENDMDL
MODEL       82
REMARK 921   NORMALIZED FREE ENERGY PREDICTED BY IDOCK:   -3.65 KCAL/MOL
REMARK 922        TOTAL FREE ENERGY PREDICTED BY IDOCK:   -4.08 KCAL/MOL
REMARK 923 INTER-LIGAND FREE ENERGY PREDICTED BY IDOCK:   -3.90 KCAL/MOL
REMARK 924 INTRA-LIGAND FREE ENERGY PREDICTED BY IDOCK:   -0.18 KCAL/MOL
REMARK 927      BINDING AFFINITY PREDICTED BY RF-SCORE:    0.00 PKD
ROOT
HETATM    1  C   UNL     1     -11.160   9.838  69.354  1.00  0.00    -0.205 C  
HETATM    2  C   UNL     1      -9.673   9.966  69.017  1.00  0.00    -0.195 C  
HETATM    3  C   UNL     1      -8.906   9.390  70.357  1.00  0.00    -0.290 C  
HETATM    4  C   UNL     1      -8.830   7.806  70.500  1.00  0.00    -0.145 C  
HETATM    5  C   UNL     1      -8.621   6.964  69.186  1.00  0.00    -0.128 C  
HETATM    6  C   UNL     1      -9.398   7.708  68.120  1.00  0.00    -0.146 C  
HETATM    7  C   UNL     1      -8.983   9.158  67.922  1.00  0.00    -0.131 C  
HETATM    8  C   UNL     1      -9.796   6.970  66.847  1.00  0.00    -0.259 C  
HETATM    9  C   UNL     1     -10.612   5.751  67.257  1.00  0.00    -0.353 C  
HETATM   10  C   UNL     1      -7.549   9.851  67.993  1.00  0.00    -0.085 C  
HETATM   11  C   UNL     1      -9.725   4.855  68.068  1.00  0.00    -0.202 C  
HETATM   12  C   UNL     1      -7.820  11.328  68.561  1.00  0.00    -0.138 C  
HETATM   13  C   UNL     1      -9.319  11.404  68.438  1.00  0.00    -0.194 C  
HETATM   14  C   UNL     1      -9.575   3.585  67.678  1.00  0.00    -0.180 C  
HETATM   15  C   UNL     1      -9.121   5.455  69.333  1.00  0.00    -0.135 C  
HETATM   16  O   UNL     1     -10.005  12.439  69.103  1.00  0.00    -0.405 OA 
HETATM   17  C   UNL     1      -8.766   2.574  68.396  1.00  0.00    -0.130 C  
HETATM   18  C   UNL     1      -8.064   4.542  70.001  1.00  0.00    -0.067 C  
HETATM   19  H   UNL     1      -9.794  13.298  68.757  1.00  0.00     0.000 HD 
HETATM   20  C   UNL     1      -7.804   3.143  69.432  1.00  0.00    -0.054 C  
ENDROOT
BRANCH  13  21
HETATM   21  C   UNL     1      -9.517  11.663  66.928  1.00  0.00    -0.195 C  
HETATM   22  C   UNL     1     -10.012  11.779  65.853  1.00  0.00    -0.266 C  
ENDBRANCH  13  21
TORSDOF 1
ENDMDL
MODEL       83
REMARK 921   NORMALIZED FREE ENERGY PREDICTED BY IDOCK:   -3.63 KCAL/MOL
REMARK 922        TOTAL FREE ENERGY PREDICTED BY IDOCK:   -4.07 KCAL/MOL
REMARK 923 INTER-LIGAND FREE ENERGY PREDICTED BY IDOCK:   -3.85 KCAL/MOL
REMARK 924 INTRA-LIGAND FREE ENERGY PREDICTED BY IDOCK:   -0.22 KCAL/MOL
REMARK 927      BINDING AFFINITY PREDICTED BY RF-SCORE:    0.00 PKD
ROOT
HETATM    1  C   UNL     1     -10.191   5.289  69.719  1.00  0.00    -0.364 C  
HETATM    2  C   UNL     1      -9.130   5.818  70.686  1.00  0.00    -0.164 C  
HETATM    3  C   UNL     1      -7.860   6.210  69.712  1.00  0.00    -0.106 C  
HETATM    4  C   UNL     1      -7.969   7.594  68.932  1.00  0.00    -0.125 C  
HETATM    5  C   UNL     1      -8.646   8.803  69.681  1.00  0.00    -0.130 C  
HETATM    6  C   UNL     1      -9.749   8.178  70.510  1.00  0.00    -0.181 C  
HETATM    7  C   UNL     1      -9.286   7.107  71.487  1.00  0.00    -0.148 C  
HETATM    8  C   UNL     1     -10.887   9.060  71.009  1.00  0.00    -0.345 C  
HETATM    9  C   UNL     1     -11.528   9.718  69.793  1.00  0.00    -0.145 C  
HETATM   10  C   UNL     1      -7.956   6.999  72.360  1.00  0.00    -0.097 C  
HETATM   11  C   UNL     1     -10.497  10.592  69.146  1.00  0.00    -0.250 C  
HETATM   12  C   UNL     1      -7.637   5.428  72.451  1.00  0.00    -0.097 C  
HETATM   13  C   UNL     1      -8.927   4.850  71.930  1.00  0.00    -0.135 C  
HETATM   14  C   UNL     1     -10.787  11.884  68.955  1.00  0.00    -0.261 C  
HETATM   15  C   UNL     1      -9.216   9.908  68.681  1.00  0.00    -0.139 C  
HETATM   16  O   UNL     1      -8.966   3.489  71.568  1.00  0.00    -0.094 OA 
HETATM   17  C   UNL     1      -9.889  12.858  68.295  1.00  0.00    -0.228 C  
HETATM   18  C   UNL     1      -8.126  10.902  68.211  1.00  0.00    -0.124 C  
HETATM   19  H   UNL     1      -8.845   2.910  72.312  1.00  0.00     0.000 HD 
HETATM   20  C   UNL     1      -8.442  12.400  68.151  1.00  0.00    -0.180 C  
ENDROOT
BRANCH  13  21
HETATM   21  C   UNL     1      -9.871   4.996  73.144  1.00  0.00    -0.175 C  
HETATM   22  C   UNL     1     -10.684   4.768  73.982  1.00  0.00    -0.358 C  
ENDBRANCH  13  21
TORSDOF 1
ENDMDL
MODEL       84
REMARK 921   NORMALIZED FREE ENERGY PREDICTED BY IDOCK:   -3.58 KCAL/MOL
REMARK 922        TOTAL FREE ENERGY PREDICTED BY IDOCK:   -4.01 KCAL/MOL
REMARK 923 INTER-LIGAND FREE ENERGY PREDICTED BY IDOCK:   -3.79 KCAL/MOL
REMARK 924 INTRA-LIGAND FREE ENERGY PREDICTED BY IDOCK:   -0.21 KCAL/MOL
REMARK 927      BINDING AFFINITY PREDICTED BY RF-SCORE:    0.00 PKD
ROOT
HETATM    1  C   UNL     1      -7.330  11.090  66.523  1.00  0.00    -0.144 C  
HETATM    2  C   UNL     1      -7.450   9.726  65.841  1.00  0.00    -0.103 C  
HETATM    3  C   UNL     1      -6.370   8.778  66.648  1.00  0.00    -0.059 C  
HETATM    4  C   UNL     1      -6.843   8.215  68.060  1.00  0.00    -0.073 C  
HETATM    5  C   UNL     1      -8.354   7.800  68.212  1.00  0.00    -0.125 C  
HETATM    6  C   UNL     1      -9.119   8.800  67.370  1.00  0.00    -0.147 C  
HETATM    7  C   UNL     1      -8.702   8.856  65.908  1.00  0.00    -0.197 C  
HETATM    8  C   UNL     1     -10.609   8.994  67.625  1.00  0.00    -0.298 C  
HETATM    9  C   UNL     1     -10.779   9.382  69.089  1.00  0.00    -0.216 C  
HETATM   10  C   UNL     1      -8.235   7.702  64.913  1.00  0.00    -0.098 C  
HETATM   11  C   UNL     1     -10.297   8.239  69.929  1.00  0.00    -0.218 C  
HETATM   12  C   UNL     1      -7.169   8.395  63.932  1.00  0.00    -0.094 C  
HETATM   13  C   UNL     1      -7.394   9.849  64.257  1.00  0.00    -0.133 C  
HETATM   14  C   UNL     1     -11.131   7.718  70.836  1.00  0.00    -0.270 C  
HETATM   15  C   UNL     1      -8.848   7.808  69.730  1.00  0.00    -0.139 C  
HETATM   16  O   UNL     1      -6.448  10.798  63.821  1.00  0.00    -0.364 OA 
HETATM   17  C   UNL     1     -10.786   6.616  71.762  1.00  0.00    -0.265 C  
HETATM   18  C   UNL     1      -8.488   6.501  70.478  1.00  0.00    -0.138 C  
HETATM   19  H   UNL     1      -6.415  10.871  62.875  1.00  0.00     0.000 HD 
HETATM   20  C   UNL     1      -9.525   5.843  71.394  1.00  0.00    -0.168 C  
ENDROOT
BRANCH  13  21
HETATM   21  C   UNL     1      -8.698  10.164  63.492  1.00  0.00    -0.221 C  
HETATM   22  C   UNL     1      -9.464  10.468  62.635  1.00  0.00    -0.326 C  
ENDBRANCH  13  21
TORSDOF 1
ENDMDL
MODEL       85
REMARK 921   NORMALIZED FREE ENERGY PREDICTED BY IDOCK:   -3.46 KCAL/MOL
REMARK 922        TOTAL FREE ENERGY PREDICTED BY IDOCK:   -3.89 KCAL/MOL
REMARK 923 INTER-LIGAND FREE ENERGY PREDICTED BY IDOCK:   -3.69 KCAL/MOL
REMARK 924 INTRA-LIGAND FREE ENERGY PREDICTED BY IDOCK:   -0.20 KCAL/MOL
REMARK 927      BINDING AFFINITY PREDICTED BY RF-SCORE:    0.00 PKD
ROOT
HETATM    1  C   UNL     1      -7.319   8.618  68.954  1.00  0.00    -0.082 C  
HETATM    2  C   UNL     1      -8.553   9.062  68.166  1.00  0.00    -0.130 C  
HETATM    3  C   UNL     1      -8.011   9.196  66.615  1.00  0.00    -0.104 C  
HETATM    4  C   UNL     1      -7.867   7.836  65.798  1.00  0.00    -0.104 C  
HETATM    5  C   UNL     1      -8.948   6.719  66.043  1.00  0.00    -0.129 C  
HETATM    6  C   UNL     1      -9.286   6.821  67.516  1.00  0.00    -0.122 C  
HETATM    7  C   UNL     1      -9.786   8.186  67.964  1.00  0.00    -0.200 C  
HETATM    8  C   UNL     1      -9.945   5.633  68.207  1.00  0.00    -0.197 C  
HETATM    9  C   UNL     1      -9.035   4.426  68.015  1.00  0.00    -0.142 C  
HETATM   10  C   UNL     1     -10.708   9.253  67.221  1.00  0.00    -0.244 C  
HETATM   11  C   UNL     1      -8.954   4.138  66.547  1.00  0.00    -0.125 C  
HETATM   12  C   UNL     1     -10.184  10.686  67.720  1.00  0.00    -0.212 C  
HETATM   13  C   UNL     1      -9.300  10.276  68.869  1.00  0.00    -0.178 C  
HETATM   14  C   UNL     1      -9.277   2.912  66.119  1.00  0.00    -0.103 C  
HETATM   15  C   UNL     1      -8.428   5.260  65.659  1.00  0.00    -0.135 C  
HETATM   16  O   UNL     1      -8.406  11.220  69.412  1.00  0.00    -0.376 OA 
HETATM   17  C   UNL     1      -9.208   2.468  64.708  1.00  0.00    -0.137 C  
HETATM   18  C   UNL     1      -8.565   4.961  64.146  1.00  0.00    -0.135 C  
HETATM   19  H   UNL     1      -8.853  11.945  69.832  1.00  0.00     0.000 HD 
HETATM   20  C   UNL     1      -9.087   3.595  63.689  1.00  0.00    -0.100 C  
ENDROOT
BRANCH  13  21
HETATM   21  C   UNL     1     -10.325   9.969  69.984  1.00  0.00    -0.323 C  
HETATM   22  C   UNL     1     -10.807   9.677  71.031  1.00  0.00    -0.412 C  
ENDBRANCH  13  21
TORSDOF 1
ENDMDL
MODEL       86
REMARK 921   NORMALIZED FREE ENERGY PREDICTED BY IDOCK:   -3.41 KCAL/MOL
REMARK 922        TOTAL FREE ENERGY PREDICTED BY IDOCK:   -3.84 KCAL/MOL
REMARK 923 INTER-LIGAND FREE ENERGY PREDICTED BY IDOCK:   -3.72 KCAL/MOL
REMARK 924 INTRA-LIGAND FREE ENERGY PREDICTED BY IDOCK:   -0.12 KCAL/MOL
REMARK 927      BINDING AFFINITY PREDICTED BY RF-SCORE:    0.00 PKD
ROOT
HETATM    1  C   UNL     1     -11.410   7.181  70.154  1.00  0.00    -0.277 C  
HETATM    2  C   UNL     1     -10.146   7.923  69.719  1.00  0.00    -0.199 C  
HETATM    3  C   UNL     1      -8.922   7.090  70.442  1.00  0.00    -0.155 C  
HETATM    4  C   UNL     1      -8.478   5.734  69.736  1.00  0.00    -0.123 C  
HETATM    5  C   UNL     1      -8.487   5.693  68.162  1.00  0.00    -0.098 C  
HETATM    6  C   UNL     1      -9.676   6.539  67.758  1.00  0.00    -0.131 C  
HETATM    7  C   UNL     1      -9.648   7.969  68.277  1.00  0.00    -0.156 C  
HETATM    8  C   UNL     1     -10.262   6.369  66.361  1.00  0.00    -0.059 C  
HETATM    9  C   UNL     1     -10.650   4.905  66.200  1.00  0.00    -0.322 C  
HETATM   10  C   UNL     1      -8.432   8.979  68.484  1.00  0.00    -0.128 C  
HETATM   11  C   UNL     1      -9.400   4.084  66.294  1.00  0.00    -0.180 C  
HETATM   12  C   UNL     1      -8.831   9.864  69.763  1.00  0.00    -0.229 C  
HETATM   13  C   UNL     1     -10.283   9.495  69.918  1.00  0.00    -0.231 C  
HETATM   14  C   UNL     1      -9.107   3.252  65.289  1.00  0.00    -0.147 C  
HETATM   15  C   UNL     1      -8.596   4.209  67.583  1.00  0.00    -0.108 C  
HETATM   16  O   UNL     1     -10.948   9.833  71.112  1.00  0.00    -0.348 OA 
HETATM   17  C   UNL     1      -7.932   2.351  65.257  1.00  0.00    -0.079 C  
HETATM   18  C   UNL     1      -7.224   3.493  67.523  1.00  0.00    -0.059 C  
HETATM   19  H   UNL     1     -11.030  10.771  71.231  1.00  0.00     0.000 HD 
HETATM   20  C   UNL     1      -6.853   2.671  66.285  1.00  0.00    -0.044 C  
ENDROOT
BRANCH  13  21
HETATM   21  C   UNL     1     -10.958  10.326  68.804  1.00  0.00    -0.285 C  
HETATM   22  C   UNL     1     -11.187  11.178  68.007  1.00  0.00    -0.359 C  
ENDBRANCH  13  21
TORSDOF 1
ENDMDL
MODEL       87
REMARK 921   NORMALIZED FREE ENERGY PREDICTED BY IDOCK:   -3.39 KCAL/MOL
REMARK 922        TOTAL FREE ENERGY PREDICTED BY IDOCK:   -3.81 KCAL/MOL
REMARK 923 INTER-LIGAND FREE ENERGY PREDICTED BY IDOCK:   -3.65 KCAL/MOL
REMARK 924 INTRA-LIGAND FREE ENERGY PREDICTED BY IDOCK:   -0.16 KCAL/MOL
REMARK 927      BINDING AFFINITY PREDICTED BY RF-SCORE:    0.00 PKD
ROOT
HETATM    1  C   UNL     1      -8.552   6.708  65.695  1.00  0.00    -0.130 C  
HETATM    2  C   UNL     1      -7.506   7.199  66.697  1.00  0.00    -0.088 C  
HETATM    3  C   UNL     1      -7.807   8.814  66.832  1.00  0.00    -0.101 C  
HETATM    4  C   UNL     1      -9.028   9.229  67.766  1.00  0.00    -0.131 C  
HETATM    5  C   UNL     1      -9.267   8.384  69.073  1.00  0.00    -0.147 C  
HETATM    6  C   UNL     1      -8.902   6.965  68.691  1.00  0.00    -0.124 C  
HETATM    7  C   UNL     1      -7.485   6.788  68.166  1.00  0.00    -0.099 C  
HETATM    8  C   UNL     1      -9.425   5.814  69.543  1.00  0.00    -0.168 C  
HETATM    9  C   UNL     1     -10.944   5.917  69.575  1.00  0.00    -0.438 C  
HETATM   10  C   UNL     1      -6.122   7.500  68.586  1.00  0.00    -0.028 C  
HETATM   11  C   UNL     1     -11.305   7.207  70.246  1.00  0.00    -0.305 C  
HETATM   12  C   UNL     1      -5.258   7.589  67.236  1.00  0.00    -0.026 C  
HETATM   13  C   UNL     1      -6.049   6.675  66.337  1.00  0.00    -0.033 C  
HETATM   14  C   UNL     1     -12.119   7.168  71.306  1.00  0.00    -0.386 C  
HETATM   15  C   UNL     1     -10.768   8.483  69.607  1.00  0.00    -0.200 C  
HETATM   16  O   UNL     1      -5.794   6.695  64.952  1.00  0.00    -0.029 OA 
HETATM   17  C   UNL     1     -12.594   8.359  72.047  1.00  0.00    -0.400 C  
HETATM   18  C   UNL     1     -11.010   9.749  70.466  1.00  0.00    -0.384 C  
HETATM   19  H   UNL     1      -4.923   6.382  64.737  1.00  0.00     0.000 HD 
HETATM   20  C   UNL     1     -11.819   9.640  71.762  1.00  0.00    -0.391 C  
ENDROOT
BRANCH  13  21
HETATM   21  C   UNL     1      -5.624   5.274  66.828  1.00  0.00    -0.017 C  
HETATM   22  C   UNL     1      -5.609   4.104  67.044  1.00  0.00    -0.021 C  
ENDBRANCH  13  21
TORSDOF 1
ENDMDL
MODEL       88
REMARK 921   NORMALIZED FREE ENERGY PREDICTED BY IDOCK:   -3.33 KCAL/MOL
REMARK 922        TOTAL FREE ENERGY PREDICTED BY IDOCK:   -3.75 KCAL/MOL
REMARK 923 INTER-LIGAND FREE ENERGY PREDICTED BY IDOCK:   -3.70 KCAL/MOL
REMARK 924 INTRA-LIGAND FREE ENERGY PREDICTED BY IDOCK:   -0.05 KCAL/MOL
REMARK 927      BINDING AFFINITY PREDICTED BY RF-SCORE:    0.00 PKD
ROOT
HETATM    1  C   UNL     1     -11.200  10.154  69.154  1.00  0.00    -0.234 C  
HETATM    2  C   UNL     1     -10.655   8.725  69.102  1.00  0.00    -0.200 C  
HETATM    3  C   UNL     1     -11.025   8.210  67.581  1.00  0.00     0.066 C  
HETATM    4  C   UNL     1     -10.067   8.714  66.413  1.00  0.00    -0.294 C  
HETATM    5  C   UNL     1      -8.530   8.837  66.731  1.00  0.00    -0.113 C  
HETATM    6  C   UNL     1      -8.467   9.299  68.172  1.00  0.00    -0.121 C  
HETATM    7  C   UNL     1      -9.169   8.386  69.167  1.00  0.00    -0.150 C  
HETATM    8  C   UNL     1      -7.187   9.949  68.684  1.00  0.00    -0.072 C  
HETATM    9  C   UNL     1      -6.893  11.149  67.792  1.00  0.00    -0.073 C  
HETATM   10  C   UNL     1      -9.296   6.797  69.212  1.00  0.00    -0.144 C  
HETATM   11  C   UNL     1      -6.646  10.643  66.404  1.00  0.00    -0.120 C  
HETATM   12  C   UNL     1     -10.738   6.507  69.857  1.00  0.00    -0.310 C  
HETATM   13  C   UNL     1     -11.095   7.877  70.373  1.00  0.00    -0.245 C  
HETATM   14  C   UNL     1      -5.498  10.968  65.801  1.00  0.00    -0.119 C  
HETATM   15  C   UNL     1      -7.776   9.851  65.755  1.00  0.00    -0.112 C  
HETATM   16  O   UNL     1     -12.425   8.134  70.760  1.00  0.00    -0.503 OA 
HETATM   17  C   UNL     1      -5.131  10.577  64.421  1.00  0.00    -0.152 C  
HETATM   18  C   UNL     1      -7.373   9.193  64.413  1.00  0.00    -0.100 C  
HETATM   19  H   UNL     1     -12.687   7.627  71.520  1.00  0.00     0.000 HD 
HETATM   20  C   UNL     1      -5.985   9.465  63.824  1.00  0.00    -0.090 C  
ENDROOT
BRANCH  13  21
HETATM   21  C   UNL     1     -10.248   7.979  71.660  1.00  0.00    -0.256 C  
HETATM   22  C   UNL     1      -9.469   8.352  72.478  1.00  0.00    -0.360 C  
ENDBRANCH  13  21
TORSDOF 1
ENDMDL
MODEL       89
REMARK 921   NORMALIZED FREE ENERGY PREDICTED BY IDOCK:   -3.31 KCAL/MOL
REMARK 922        TOTAL FREE ENERGY PREDICTED BY IDOCK:   -3.72 KCAL/MOL
REMARK 923 INTER-LIGAND FREE ENERGY PREDICTED BY IDOCK:   -3.50 KCAL/MOL
REMARK 924 INTRA-LIGAND FREE ENERGY PREDICTED BY IDOCK:   -0.22 KCAL/MOL
REMARK 927      BINDING AFFINITY PREDICTED BY RF-SCORE:    0.00 PKD
ROOT
HETATM    1  C   UNL     1      -8.975   6.615  67.787  1.00  0.00    -0.112 C  
HETATM    2  C   UNL     1      -9.304   7.678  68.836  1.00  0.00    -0.145 C  
HETATM    3  C   UNL     1     -10.846   7.322  69.298  1.00  0.00    -0.177 C  
HETATM    4  C   UNL     1     -11.013   6.121  70.330  1.00  0.00    -0.404 C  
HETATM    5  C   UNL     1      -9.918   5.962  71.450  1.00  0.00    -0.228 C  
HETATM    6  C   UNL     1      -8.619   6.365  70.783  1.00  0.00    -0.135 C  
HETATM    7  C   UNL     1      -8.612   7.768  70.193  1.00  0.00    -0.139 C  
HETATM    8  C   UNL     1      -7.300   5.918  71.403  1.00  0.00    -0.084 C  
HETATM    9  C   UNL     1      -7.329   4.397  71.499  1.00  0.00    -0.056 C  
HETATM   10  C   UNL     1      -9.286   9.117  70.708  1.00  0.00    -0.325 C  
HETATM   11  C   UNL     1      -8.444   4.014  72.423  1.00  0.00    -0.101 C  
HETATM   12  C   UNL     1      -9.678   9.928  69.378  1.00  0.00    -0.228 C  
HETATM   13  C   UNL     1      -8.926   9.139  68.338  1.00  0.00    -0.133 C  
HETATM   14  C   UNL     1      -8.160   3.241  73.477  1.00  0.00    -0.074 C  
HETATM   15  C   UNL     1      -9.843   4.479  72.035  1.00  0.00    -0.240 C  
HETATM   16  O   UNL     1      -9.230   9.342  66.978  1.00  0.00    -0.138 OA 
HETATM   17  C   UNL     1      -9.159   2.750  74.453  1.00  0.00    -0.093 C  
HETATM   18  C   UNL     1     -10.902   4.221  73.135  1.00  0.00    -0.303 C  
HETATM   19  H   UNL     1      -9.004  10.215  66.680  1.00  0.00     0.000 HD 
HETATM   20  C   UNL     1     -10.504   3.464  74.406  1.00  0.00    -0.254 C  
ENDROOT
BRANCH  13  21
HETATM   21  C   UNL     1      -7.475   9.634  68.529  1.00  0.00    -0.079 C  
HETATM   22  C   UNL     1      -6.397  10.091  68.322  1.00  0.00    -0.053 C  
ENDBRANCH  13  21
TORSDOF 1
ENDMDL
MODEL       90
REMARK 921   NORMALIZED FREE ENERGY PREDICTED BY IDOCK:   -3.28 KCAL/MOL
REMARK 922        TOTAL FREE ENERGY PREDICTED BY IDOCK:   -3.70 KCAL/MOL
REMARK 923 INTER-LIGAND FREE ENERGY PREDICTED BY IDOCK:   -3.63 KCAL/MOL
REMARK 924 INTRA-LIGAND FREE ENERGY PREDICTED BY IDOCK:   -0.06 KCAL/MOL
REMARK 927      BINDING AFFINITY PREDICTED BY RF-SCORE:    0.00 PKD
ROOT
HETATM    1  C   UNL     1      -6.926   5.297  65.987  1.00  0.00    -0.067 C  
HETATM    2  C   UNL     1      -7.596   3.940  66.211  1.00  0.00    -0.088 C  
HETATM    3  C   UNL     1      -7.003   3.434  67.663  1.00  0.00    -0.050 C  
HETATM    4  C   UNL     1      -7.666   4.079  68.959  1.00  0.00    -0.053 C  
HETATM    5  C   UNL     1      -9.214   4.363  68.923  1.00  0.00    -0.199 C  
HETATM    6  C   UNL     1      -9.499   4.783  67.496  1.00  0.00    -0.171 C  
HETATM    7  C   UNL     1      -9.095   3.767  66.438  1.00  0.00    -0.157 C  
HETATM    8  C   UNL     1     -10.778   5.556  67.195  1.00  0.00    -0.265 C  
HETATM    9  C   UNL     1     -10.773   6.809  68.063  1.00  0.00    -0.302 C  
HETATM   10  C   UNL     1      -9.144   2.174  66.451  1.00  0.00    -0.064 C  
HETATM   11  C   UNL     1     -10.805   6.376  69.497  1.00  0.00    -0.381 C  
HETATM   12  C   UNL     1      -7.888   1.705  65.568  1.00  0.00    -0.072 C  
HETATM   13  C   UNL     1      -7.494   3.009  64.926  1.00  0.00    -0.075 C  
HETATM   14  C   UNL     1     -11.780   6.847  70.283  1.00  0.00    -0.344 C  
HETATM   15  C   UNL     1      -9.662   5.484  69.967  1.00  0.00    -0.238 C  
HETATM   16  O   UNL     1      -6.241   3.104  64.288  1.00  0.00    -0.021 OA 
HETATM   17  C   UNL     1     -11.919   6.542  71.725  1.00  0.00    -0.394 C  
HETATM   18  C   UNL     1      -9.871   4.917  71.393  1.00  0.00    -0.252 C  
HETATM   19  H   UNL     1      -6.181   2.548  63.521  1.00  0.00     0.000 HD 
HETATM   20  C   UNL     1     -11.088   5.361  72.212  1.00  0.00    -0.259 C  
ENDROOT
BRANCH  13  21
HETATM   21  C   UNL     1      -8.553   3.165  63.813  1.00  0.00    -0.089 C  
HETATM   22  C   UNL     1      -9.436   2.940  63.048  1.00  0.00    -0.093 C  
ENDBRANCH  13  21
TORSDOF 1
ENDMDL
MODEL       91
REMARK 921   NORMALIZED FREE ENERGY PREDICTED BY IDOCK:   -3.25 KCAL/MOL
REMARK 922        TOTAL FREE ENERGY PREDICTED BY IDOCK:   -3.67 KCAL/MOL
REMARK 923 INTER-LIGAND FREE ENERGY PREDICTED BY IDOCK:   -3.46 KCAL/MOL
REMARK 924 INTRA-LIGAND FREE ENERGY PREDICTED BY IDOCK:   -0.21 KCAL/MOL
REMARK 927      BINDING AFFINITY PREDICTED BY RF-SCORE:    0.00 PKD
ROOT
HETATM    1  C   UNL     1     -10.277   9.436  67.860  1.00  0.00    -0.259 C  
HETATM    2  C   UNL     1      -9.665   8.437  68.844  1.00  0.00    -0.168 C  
HETATM    3  C   UNL     1     -10.759   7.206  68.899  1.00  0.00    -0.199 C  
HETATM    4  C   UNL     1     -10.722   6.174  67.688  1.00  0.00    -0.388 C  
HETATM    5  C   UNL     1      -9.314   5.801  67.089  1.00  0.00    -0.116 C  
HETATM    6  C   UNL     1      -8.506   7.079  67.173  1.00  0.00    -0.121 C  
HETATM    7  C   UNL     1      -8.377   7.664  68.571  1.00  0.00    -0.129 C  
HETATM    8  C   UNL     1      -7.269   7.229  66.293  1.00  0.00    -0.078 C  
HETATM    9  C   UNL     1      -7.709   7.043  64.846  1.00  0.00    -0.114 C  
HETATM   10  C   UNL     1      -8.231   6.951  69.989  1.00  0.00    -0.134 C  
HETATM   11  C   UNL     1      -8.231   5.647  64.698  1.00  0.00    -0.129 C  
HETATM   12  C   UNL     1      -8.988   7.915  71.027  1.00  0.00    -0.152 C  
HETATM   13  C   UNL     1      -9.175   9.147  70.180  1.00  0.00    -0.206 C  
HETATM   14  C   UNL     1      -7.691   4.861  63.760  1.00  0.00    -0.076 C  
HETATM   15  C   UNL     1      -9.404   5.258  65.591  1.00  0.00    -0.126 C  
HETATM   16  O   UNL     1     -10.066  10.146  70.619  1.00  0.00    -0.365 OA 
HETATM   17  C   UNL     1      -8.127   3.476  63.470  1.00  0.00    -0.088 C  
HETATM   18  C   UNL     1      -9.751   3.750  65.527  1.00  0.00    -0.151 C  
HETATM   19  H   UNL     1      -9.774  10.570  71.417  1.00  0.00     0.000 HD 
HETATM   20  C   UNL     1      -9.003   2.843  64.545  1.00  0.00    -0.118 C  
ENDROOT
BRANCH  13  21
HETATM   21  C   UNL     1      -7.770   9.786  70.207  1.00  0.00    -0.187 C  
HETATM   22  C   UNL     1      -6.866  10.544  70.055  1.00  0.00    -0.154 C  
ENDBRANCH  13  21
TORSDOF 1
ENDMDL
MODEL       92
REMARK 921   NORMALIZED FREE ENERGY PREDICTED BY IDOCK:   -3.22 KCAL/MOL
REMARK 922        TOTAL FREE ENERGY PREDICTED BY IDOCK:   -3.63 KCAL/MOL
REMARK 923 INTER-LIGAND FREE ENERGY PREDICTED BY IDOCK:   -3.41 KCAL/MOL
REMARK 924 INTRA-LIGAND FREE ENERGY PREDICTED BY IDOCK:   -0.22 KCAL/MOL
REMARK 927      BINDING AFFINITY PREDICTED BY RF-SCORE:    0.00 PKD
ROOT
HETATM    1  C   UNL     1      -7.653   7.599  64.387  1.00  0.00    -0.107 C  
HETATM    2  C   UNL     1      -7.839   7.353  65.885  1.00  0.00    -0.104 C  
HETATM    3  C   UNL     1      -6.572   8.143  66.582  1.00  0.00    -0.056 C  
HETATM    4  C   UNL     1      -6.720   9.721  66.731  1.00  0.00    -0.079 C  
HETATM    5  C   UNL     1      -8.146  10.292  67.077  1.00  0.00    -0.121 C  
HETATM    6  C   UNL     1      -9.114   9.389  66.342  1.00  0.00    -0.199 C  
HETATM    7  C   UNL     1      -9.006   7.913  66.694  1.00  0.00    -0.179 C  
HETATM    8  C   UNL     1     -10.530   9.887  66.075  1.00  0.00    -0.112 C  
HETATM    9  C   UNL     1     -10.420  11.193  65.297  1.00  0.00    -0.326 C  
HETATM   10  C   UNL     1      -8.692   7.193  68.081  1.00  0.00    -0.127 C  
HETATM   11  C   UNL     1      -9.720  12.191  66.168  1.00  0.00    -0.254 C  
HETATM   12  C   UNL     1      -7.884   5.861  67.693  1.00  0.00    -0.098 C  
HETATM   13  C   UNL     1      -8.111   5.819  66.205  1.00  0.00    -0.108 C  
HETATM   14  C   UNL     1     -10.326  13.358  66.412  1.00  0.00    -0.288 C  
HETATM   15  C   UNL     1      -8.322  11.819  66.647  1.00  0.00    -0.136 C  
HETATM   16  O   UNL     1      -7.323   4.955  65.420  1.00  0.00    -0.070 OA 
HETATM   17  C   UNL     1      -9.745  14.456  67.219  1.00  0.00    -0.233 C  
HETATM   18  C   UNL     1      -7.751  12.801  67.700  1.00  0.00    -0.162 C  
HETATM   19  H   UNL     1      -7.486   4.039  65.610  1.00  0.00     0.000 HD 
HETATM   20  C   UNL     1      -8.547  14.056  68.073  1.00  0.00    -0.179 C  
ENDROOT
BRANCH  13  21
HETATM   21  C   UNL     1      -9.558   5.287  66.104  1.00  0.00    -0.176 C  
HETATM   22  C   UNL     1     -10.519   4.672  65.768  1.00  0.00    -0.290 C  
ENDBRANCH  13  21
TORSDOF 1
ENDMDL
MODEL       93
REMARK 921   NORMALIZED FREE ENERGY PREDICTED BY IDOCK:   -3.20 KCAL/MOL
REMARK 922        TOTAL FREE ENERGY PREDICTED BY IDOCK:   -3.61 KCAL/MOL
REMARK 923 INTER-LIGAND FREE ENERGY PREDICTED BY IDOCK:   -3.39 KCAL/MOL
REMARK 924 INTRA-LIGAND FREE ENERGY PREDICTED BY IDOCK:   -0.22 KCAL/MOL
REMARK 927      BINDING AFFINITY PREDICTED BY RF-SCORE:    0.00 PKD
ROOT
HETATM    1  C   UNL     1      -8.737   5.806  65.272  1.00  0.00    -0.100 C  
HETATM    2  C   UNL     1      -7.499   6.682  65.472  1.00  0.00    -0.079 C  
HETATM    3  C   UNL     1      -7.534   7.724  64.195  1.00  0.00    -0.105 C  
HETATM    4  C   UNL     1      -8.536   8.955  64.315  1.00  0.00    -0.133 C  
HETATM    5  C   UNL     1      -8.713   9.616  65.733  1.00  0.00    -0.168 C  
HETATM    6  C   UNL     1      -8.621   8.465  66.713  1.00  0.00    -0.123 C  
HETATM    7  C   UNL     1      -7.334   7.658  66.633  1.00  0.00    -0.088 C  
HETATM    8  C   UNL     1      -9.185   8.646  68.118  1.00  0.00    -0.142 C  
HETATM    9  C   UNL     1     -10.653   9.031  67.980  1.00  0.00    -0.242 C  
HETATM   10  C   UNL     1      -5.835   8.114  66.341  1.00  0.00    -0.041 C  
HETATM   11  C   UNL     1     -10.719  10.348  67.268  1.00  0.00    -0.331 C  
HETATM   12  C   UNL     1      -5.165   6.885  65.554  1.00  0.00    -0.023 C  
HETATM   13  C   UNL     1      -6.202   5.814  65.773  1.00  0.00    -0.034 C  
HETATM   14  C   UNL     1     -11.372  11.357  67.854  1.00  0.00    -0.371 C  
HETATM   15  C   UNL     1     -10.092  10.406  65.879  1.00  0.00    -0.326 C  
HETATM   16  O   UNL     1      -6.143   4.641  64.996  1.00  0.00    -0.028 OA 
HETATM   17  C   UNL     1     -11.556  12.700  67.258  1.00  0.00    -0.428 C  
HETATM   18  C   UNL     1     -10.020  11.839  65.298  1.00  0.00    -0.284 C  
HETATM   19  H   UNL     1      -5.369   4.122  65.176  1.00  0.00     0.000 HD 
HETATM   20  C   UNL     1     -10.646  13.003  66.073  1.00  0.00    -0.292 C  
ENDROOT
BRANCH  13  21
HETATM   21  C   UNL     1      -5.926   5.376  67.228  1.00  0.00    -0.026 C  
HETATM   22  C   UNL     1      -5.825   4.719  68.214  1.00  0.00    -0.025 C  
ENDBRANCH  13  21
TORSDOF 1
ENDMDL
MODEL       94
REMARK 921   NORMALIZED FREE ENERGY PREDICTED BY IDOCK:   -3.19 KCAL/MOL
REMARK 922        TOTAL FREE ENERGY PREDICTED BY IDOCK:   -3.60 KCAL/MOL
REMARK 923 INTER-LIGAND FREE ENERGY PREDICTED BY IDOCK:   -3.39 KCAL/MOL
REMARK 924 INTRA-LIGAND FREE ENERGY PREDICTED BY IDOCK:   -0.21 KCAL/MOL
REMARK 927      BINDING AFFINITY PREDICTED BY RF-SCORE:    0.00 PKD
ROOT
HETATM    1  C   UNL     1     -10.660   5.084  66.366  1.00  0.00    -0.317 C  
HETATM    2  C   UNL     1      -9.189   5.056  66.784  1.00  0.00    -0.120 C  
HETATM    3  C   UNL     1      -8.406   5.815  65.548  1.00  0.00    -0.140 C  
HETATM    4  C   UNL     1      -8.469   7.406  65.545  1.00  0.00    -0.126 C  
HETATM    5  C   UNL     1      -8.412   8.142  66.936  1.00  0.00    -0.119 C  
HETATM    6  C   UNL     1      -9.174   7.239  67.885  1.00  0.00    -0.131 C  
HETATM    7  C   UNL     1      -8.638   5.819  67.985  1.00  0.00    -0.105 C  
HETATM    8  C   UNL     1      -9.709   7.822  69.188  1.00  0.00    -0.161 C  
HETATM    9  C   UNL     1     -10.610   8.998  68.831  1.00  0.00    -0.203 C  
HETATM   10  C   UNL     1      -7.144   5.264  67.945  1.00  0.00    -0.067 C  
HETATM   11  C   UNL     1      -9.766  10.036  68.157  1.00  0.00    -0.156 C  
HETATM   12  C   UNL     1      -7.246   3.826  67.239  1.00  0.00    -0.064 C  
HETATM   13  C   UNL     1      -8.736   3.608  67.260  1.00  0.00    -0.115 C  
HETATM   14  C   UNL     1      -9.756  11.275  68.662  1.00  0.00    -0.200 C  
HETATM   15  C   UNL     1      -9.041   9.608  66.886  1.00  0.00    -0.160 C  
HETATM   16  O   UNL     1      -9.286   2.581  66.468  1.00  0.00    -0.338 OA 
HETATM   17  C   UNL     1      -9.006  12.413  68.084  1.00  0.00    -0.196 C  
HETATM   18  C   UNL     1      -8.037  10.666  66.366  1.00  0.00    -0.148 C  
HETATM   19  H   UNL     1      -9.016   1.717  66.753  1.00  0.00     0.000 HD 
HETATM   20  C   UNL     1      -7.939  12.025  67.067  1.00  0.00    -0.150 C  
ENDROOT
BRANCH  13  21
HETATM   21  C   UNL     1      -8.992   3.198  68.727  1.00  0.00    -0.188 C  
HETATM   22  C   UNL     1      -9.049   2.569  69.735  1.00  0.00    -0.183 C  
ENDBRANCH  13  21
TORSDOF 1
ENDMDL
MODEL       95
REMARK 921   NORMALIZED FREE ENERGY PREDICTED BY IDOCK:   -3.15 KCAL/MOL
REMARK 922        TOTAL FREE ENERGY PREDICTED BY IDOCK:   -3.55 KCAL/MOL
REMARK 923 INTER-LIGAND FREE ENERGY PREDICTED BY IDOCK:   -3.64 KCAL/MOL
REMARK 924 INTRA-LIGAND FREE ENERGY PREDICTED BY IDOCK:    0.08 KCAL/MOL
REMARK 927      BINDING AFFINITY PREDICTED BY RF-SCORE:    0.00 PKD
ROOT
HETATM    1  C   UNL     1     -10.716   8.639  66.730  1.00  0.00    -0.086 C  
HETATM    2  C   UNL     1      -9.530   9.186  65.933  1.00  0.00    -0.326 C  
HETATM    3  C   UNL     1     -10.228   9.972  64.663  1.00  0.00     0.114 C  
HETATM    4  C   UNL     1     -10.812  11.422  64.965  1.00  0.00    -0.311 C  
HETATM    5  C   UNL     1     -10.015  12.335  65.970  1.00  0.00    -0.270 C  
HETATM    6  C   UNL     1      -9.465  11.381  67.010  1.00  0.00    -0.186 C  
HETATM    7  C   UNL     1      -8.589  10.267  66.456  1.00  0.00    -0.136 C  
HETATM    8  C   UNL     1      -9.030  11.934  68.362  1.00  0.00    -0.163 C  
HETATM    9  C   UNL     1     -10.226  12.656  68.971  1.00  0.00     0.103 C  
HETATM   10  C   UNL     1      -7.543  10.265  65.253  1.00  0.00    -0.143 C  
HETATM   11  C   UNL     1     -10.575  13.806  68.076  1.00  0.00    -0.258 C  
HETATM   12  C   UNL     1      -7.627   8.791  64.623  1.00  0.00    -0.109 C  
HETATM   13  C   UNL     1      -8.419   8.076  65.686  1.00  0.00    -0.149 C  
HETATM   14  C   UNL     1     -10.624  15.033  68.606  1.00  0.00    -0.237 C  
HETATM   15  C   UNL     1     -10.925  13.467  66.632  1.00  0.00    -0.297 C  
HETATM   16  O   UNL     1      -8.971   6.814  65.391  1.00  0.00    -0.364 OA 
HETATM   17  C   UNL     1     -10.991  16.258  67.860  1.00  0.00    -0.310 C  
HETATM   18  C   UNL     1     -11.073  14.714  65.727  1.00  0.00    -0.331 C  
HETATM   19  H   UNL     1      -8.307   6.151  65.244  1.00  0.00     0.000 HD 
HETATM   20  C   UNL     1     -10.969  16.113  66.343  1.00  0.00    -0.036 C  
ENDROOT
BRANCH  13  21
HETATM   21  C   UNL     1      -7.359   7.832  66.783  1.00  0.00    -0.089 C  
HETATM   22  C   UNL     1      -6.413   7.957  67.493  1.00  0.00    -0.056 C  
ENDBRANCH  13  21
TORSDOF 1
ENDMDL
MODEL       96
REMARK 921   NORMALIZED FREE ENERGY PREDICTED BY IDOCK:   -3.14 KCAL/MOL
REMARK 922        TOTAL FREE ENERGY PREDICTED BY IDOCK:   -3.55 KCAL/MOL
REMARK 923 INTER-LIGAND FREE ENERGY PREDICTED BY IDOCK:   -3.33 KCAL/MOL
REMARK 924 INTRA-LIGAND FREE ENERGY PREDICTED BY IDOCK:   -0.22 KCAL/MOL
REMARK 927      BINDING AFFINITY PREDICTED BY RF-SCORE:    0.00 PKD
ROOT
HETATM    1  C   UNL     1      -9.175   7.927  72.747  1.00  0.00    -0.282 C  
HETATM    2  C   UNL     1      -9.736   7.360  71.442  1.00  0.00    -0.175 C  
HETATM    3  C   UNL     1     -10.779   8.523  70.915  1.00  0.00    -0.268 C  
HETATM    4  C   UNL     1     -10.125   9.782  70.193  1.00  0.00    -0.317 C  
HETATM    5  C   UNL     1      -8.874   9.527  69.271  1.00  0.00    -0.153 C  
HETATM    6  C   UNL     1      -8.105   8.418  69.958  1.00  0.00    -0.115 C  
HETATM    7  C   UNL     1      -8.896   7.138  70.187  1.00  0.00    -0.145 C  
HETATM    8  C   UNL     1      -6.635   8.215  69.611  1.00  0.00    -0.037 C  
HETATM    9  C   UNL     1      -5.912   9.528  69.885  1.00  0.00    -0.036 C  
HETATM   10  C   UNL     1     -10.004   6.424  69.291  1.00  0.00    -0.178 C  
HETATM   11  C   UNL     1      -6.478  10.566  68.966  1.00  0.00    -0.054 C  
HETATM   12  C   UNL     1     -11.012   5.735  70.334  1.00  0.00    -0.333 C  
HETATM   13  C   UNL     1     -10.220   5.855  71.609  1.00  0.00    -0.202 C  
HETATM   14  C   UNL     1      -5.640  11.236  68.167  1.00  0.00    -0.042 C  
HETATM   15  C   UNL     1      -7.976  10.832  69.074  1.00  0.00    -0.137 C  
HETATM   16  O   UNL     1     -10.870   5.629  72.838  1.00  0.00    -0.228 OA 
HETATM   17  C   UNL     1      -6.045  12.314  67.237  1.00  0.00    -0.153 C  
HETATM   18  C   UNL     1      -8.517  11.762  67.961  1.00  0.00    -0.157 C  
HETATM   19  H   UNL     1     -11.159   4.730  72.938  1.00  0.00     0.000 HD 
HETATM   20  C   UNL     1      -7.542  12.394  66.962  1.00  0.00    -0.046 C  
ENDROOT
BRANCH  13  21
HETATM   21  C   UNL     1      -9.180   4.722  71.463  1.00  0.00    -0.186 C  
HETATM   22  C   UNL     1      -8.373   3.885  71.712  1.00  0.00    -0.087 C  
ENDBRANCH  13  21
TORSDOF 1
ENDMDL
MODEL       97
REMARK 921   NORMALIZED FREE ENERGY PREDICTED BY IDOCK:   -3.14 KCAL/MOL
REMARK 922        TOTAL FREE ENERGY PREDICTED BY IDOCK:   -3.55 KCAL/MOL
REMARK 923 INTER-LIGAND FREE ENERGY PREDICTED BY IDOCK:   -3.32 KCAL/MOL
REMARK 924 INTRA-LIGAND FREE ENERGY PREDICTED BY IDOCK:   -0.22 KCAL/MOL
REMARK 927      BINDING AFFINITY PREDICTED BY RF-SCORE:    0.00 PKD
ROOT
HETATM    1  C   UNL     1      -9.451   7.573  66.963  1.00  0.00    -0.206 C  
HETATM    2  C   UNL     1      -9.325   8.916  67.683  1.00  0.00    -0.156 C  
HETATM    3  C   UNL     1     -10.757   9.080  68.482  1.00  0.00    -0.140 C  
HETATM    4  C   UNL     1     -10.905   8.263  69.840  1.00  0.00    -0.213 C  
HETATM    5  C   UNL     1      -9.631   8.132  70.756  1.00  0.00    -0.185 C  
HETATM    6  C   UNL     1      -8.469   8.020  69.791  1.00  0.00    -0.127 C  
HETATM    7  C   UNL     1      -8.335   9.178  68.815  1.00  0.00    -0.121 C  
HETATM    8  C   UNL     1      -7.151   7.437  70.288  1.00  0.00    -0.064 C  
HETATM    9  C   UNL     1      -7.441   6.047  70.840  1.00  0.00    -0.091 C  
HETATM   10  C   UNL     1      -8.607  10.737  69.004  1.00  0.00    -0.143 C  
HETATM   11  C   UNL     1      -8.365   6.198  72.010  1.00  0.00    -0.114 C  
HETATM   12  C   UNL     1      -9.135  11.251  67.577  1.00  0.00    -0.151 C  
HETATM   13  C   UNL     1      -8.804  10.063  66.712  1.00  0.00    -0.132 C  
HETATM   14  C   UNL     1      -7.997   5.676  73.185  1.00  0.00    -0.111 C  
HETATM   15  C   UNL     1      -9.703   6.877  71.740  1.00  0.00    -0.163 C  
HETATM   16  O   UNL     1      -9.370   9.979  65.425  1.00  0.00    -0.191 OA 
HETATM   17  C   UNL     1      -8.818   5.712  74.416  1.00  0.00    -0.121 C  
HETATM   18  C   UNL     1     -10.510   7.178  73.027  1.00  0.00    -0.331 C  
HETATM   19  H   UNL     1      -9.059  10.663  64.845  1.00  0.00     0.000 HD 
HETATM   20  C   UNL     1      -9.980   6.698  74.382  1.00  0.00    -0.359 C  
ENDROOT
BRANCH  13  21
HETATM   21  C   UNL     1      -7.282  10.219  66.500  1.00  0.00    -0.109 C  
HETATM   22  C   UNL     1      -6.212  10.309  65.989  1.00  0.00    -0.097 C  
ENDBRANCH  13  21
TORSDOF 1
ENDMDL
MODEL       98
REMARK 921   NORMALIZED FREE ENERGY PREDICTED BY IDOCK:   -3.14 KCAL/MOL
REMARK 922        TOTAL FREE ENERGY PREDICTED BY IDOCK:   -3.55 KCAL/MOL
REMARK 923 INTER-LIGAND FREE ENERGY PREDICTED BY IDOCK:   -3.52 KCAL/MOL
REMARK 924 INTRA-LIGAND FREE ENERGY PREDICTED BY IDOCK:   -0.02 KCAL/MOL
REMARK 927      BINDING AFFINITY PREDICTED BY RF-SCORE:    0.00 PKD
ROOT
HETATM    1  C   UNL     1      -8.790   8.953  66.931  1.00  0.00    -0.141 C  
HETATM    2  C   UNL     1      -9.759   9.829  67.728  1.00  0.00    -0.167 C  
HETATM    3  C   UNL     1     -10.798   8.752  68.419  1.00  0.00    -0.019 C  
HETATM    4  C   UNL     1     -10.270   7.996  69.717  1.00  0.00    -0.206 C  
HETATM    5  C   UNL     1      -9.372   8.811  70.722  1.00  0.00    -0.253 C  
HETATM    6  C   UNL     1      -8.542   9.727  69.847  1.00  0.00    -0.236 C  
HETATM    7  C   UNL     1      -9.347  10.651  68.945  1.00  0.00    -0.191 C  
HETATM    8  C   UNL     1      -7.263  10.330  70.414  1.00  0.00     0.020 C  
HETATM    9  C   UNL     1      -6.373   9.180  70.869  1.00  0.00    -0.070 C  
HETATM   10  C   UNL     1     -10.729  11.405  69.194  1.00  0.00    -0.229 C  
HETATM   11  C   UNL     1      -7.085   8.453  71.968  1.00  0.00    -0.107 C  
HETATM   12  C   UNL     1     -11.448  11.455  67.758  1.00  0.00    -0.353 C  
HETATM   13  C   UNL     1     -10.310  11.043  66.861  1.00  0.00    -0.235 C  
HETATM   14  C   UNL     1      -6.458   8.299  73.140  1.00  0.00    -0.114 C  
HETATM   15  C   UNL     1      -8.454   7.873  71.630  1.00  0.00    -0.140 C  
HETATM   16  O   UNL     1     -10.590  10.674  65.531  1.00  0.00    -0.212 OA 
HETATM   17  C   UNL     1      -7.016   7.572  74.303  1.00  0.00    -0.113 C  
HETATM   18  C   UNL     1      -9.208   7.320  72.864  1.00  0.00    -0.185 C  
HETATM   19  H   UNL     1     -10.919  11.399  65.014  1.00  0.00     0.000 HD 
HETATM   20  C   UNL     1      -8.514   7.300  74.230  1.00  0.00    -0.229 C  
ENDROOT
BRANCH  13  21
HETATM   21  C   UNL     1      -9.467  12.335  66.777  1.00  0.00    -0.222 C  
HETATM   22  C   UNL     1      -8.574  13.114  66.874  1.00  0.00    -0.118 C  
ENDBRANCH  13  21
TORSDOF 1
ENDMDL
MODEL       99
REMARK 921   NORMALIZED FREE ENERGY PREDICTED BY IDOCK:   -3.09 KCAL/MOL
REMARK 922        TOTAL FREE ENERGY PREDICTED BY IDOCK:   -3.49 KCAL/MOL
REMARK 923 INTER-LIGAND FREE ENERGY PREDICTED BY IDOCK:   -3.27 KCAL/MOL
REMARK 924 INTRA-LIGAND FREE ENERGY PREDICTED BY IDOCK:   -0.22 KCAL/MOL
REMARK 927      BINDING AFFINITY PREDICTED BY RF-SCORE:    0.00 PKD
ROOT
HETATM    1  C   UNL     1      -6.420   8.028  71.232  1.00  0.00    -0.038 C  
HETATM    2  C   UNL     1      -7.759   7.288  71.227  1.00  0.00    -0.088 C  
HETATM    3  C   UNL     1      -8.840   8.412  71.761  1.00  0.00    -0.257 C  
HETATM    4  C   UNL     1      -9.327   9.487  70.693  1.00  0.00    -0.263 C  
HETATM    5  C   UNL     1      -9.534   9.001  69.210  1.00  0.00    -0.157 C  
HETATM    6  C   UNL     1      -8.444   7.975  68.982  1.00  0.00    -0.130 C  
HETATM    7  C   UNL     1      -8.453   6.806  69.956  1.00  0.00    -0.140 C  
HETATM    8  C   UNL     1      -8.051   7.622  67.552  1.00  0.00    -0.120 C  
HETATM    9  C   UNL     1      -7.635   8.912  66.857  1.00  0.00    -0.087 C  
HETATM   10  C   UNL     1      -9.665   6.025  70.636  1.00  0.00    -0.209 C  
HETATM   11  C   UNL     1      -8.829   9.817  66.812  1.00  0.00    -0.151 C  
HETATM   12  C   UNL     1      -9.126   5.587  72.083  1.00  0.00    -0.152 C  
HETATM   13  C   UNL     1      -7.654   5.867  71.931  1.00  0.00    -0.097 C  
HETATM   14  C   UNL     1      -9.228  10.288  65.625  1.00  0.00    -0.225 C  
HETATM   15  C   UNL     1      -9.451  10.193  68.152  1.00  0.00    -0.151 C  
HETATM   16  O   UNL     1      -6.843   5.893  73.083  1.00  0.00    -0.076 OA 
HETATM   17  C   UNL     1     -10.361  11.219  65.427  1.00  0.00    -0.328 C  
HETATM   18  C   UNL     1     -10.791  10.958  68.013  1.00  0.00    -0.293 C  
HETATM   19  H   UNL     1      -6.780   5.044  73.503  1.00  0.00     0.000 HD 
HETATM   20  C   UNL     1     -11.299  11.348  66.622  1.00  0.00    -0.230 C  
ENDROOT
BRANCH  13  21
HETATM   21  C   UNL     1      -7.171   4.661  71.096  1.00  0.00    -0.044 C  
HETATM   22  C   UNL     1      -6.530   3.741  70.699  1.00  0.00    -0.031 C  
ENDBRANCH  13  21
TORSDOF 1
ENDMDL
MODEL      100
REMARK 921   NORMALIZED FREE ENERGY PREDICTED BY IDOCK:   -2.99 KCAL/MOL
REMARK 922        TOTAL FREE ENERGY PREDICTED BY IDOCK:   -3.39 KCAL/MOL
REMARK 923 INTER-LIGAND FREE ENERGY PREDICTED BY IDOCK:   -3.28 KCAL/MOL
REMARK 924 INTRA-LIGAND FREE ENERGY PREDICTED BY IDOCK:   -0.11 KCAL/MOL
REMARK 927      BINDING AFFINITY PREDICTED BY RF-SCORE:    0.00 PKD
ROOT
HETATM    1  C   UNL     1     -10.964   9.555  68.874  1.00  0.00    -0.116 C  
HETATM    2  C   UNL     1     -10.456   8.176  69.299  1.00  0.00    -0.221 C  
HETATM    3  C   UNL     1     -11.005   7.165  68.119  1.00  0.00    -0.114 C  
HETATM    4  C   UNL     1     -10.177   7.151  66.759  1.00  0.00    -0.289 C  
HETATM    5  C   UNL     1      -8.612   7.290  66.856  1.00  0.00    -0.124 C  
HETATM    6  C   UNL     1      -8.377   8.240  68.012  1.00  0.00    -0.129 C  
HETATM    7  C   UNL     1      -8.978   7.796  69.337  1.00  0.00    -0.142 C  
HETATM    8  C   UNL     1      -7.035   8.955  68.119  1.00  0.00    -0.077 C  
HETATM    9  C   UNL     1      -6.821   9.728  66.823  1.00  0.00    -0.084 C  
HETATM   10  C   UNL     1      -9.130   6.344  69.978  1.00  0.00    -0.150 C  
HETATM   11  C   UNL     1      -6.744   8.736  65.702  1.00  0.00    -0.068 C  
HETATM   12  C   UNL     1     -10.494   6.396  70.823  1.00  0.00    -0.270 C  
HETATM   13  C   UNL     1     -10.764   7.878  70.830  1.00  0.00    -0.223 C  
HETATM   14  C   UNL     1      -5.665   8.751  64.911  1.00  0.00    -0.055 C  
HETATM   15  C   UNL     1      -7.955   7.832  65.506  1.00  0.00    -0.121 C  
HETATM   16  O   UNL     1     -12.036   8.336  71.225  1.00  0.00    -0.285 OA 
HETATM   17  C   UNL     1      -5.465   7.862  63.744  1.00  0.00    -0.048 C  
HETATM   18  C   UNL     1      -7.720   6.707  64.468  1.00  0.00    -0.112 C  
HETATM   19  H   UNL     1     -12.220   8.158  72.139  1.00  0.00     0.000 HD 
HETATM   20  C   UNL     1      -6.403   6.662  63.686  1.00  0.00    -0.041 C  
ENDROOT
BRANCH  13  21
HETATM   21  C   UNL     1      -9.774   8.391  71.898  1.00  0.00    -0.331 C  
HETATM   22  C   UNL     1      -9.046   8.444  72.837  1.00  0.00    -0.282 C  
ENDBRANCH  13  21
TORSDOF 1
ENDMDL
MODEL      101
REMARK 921   NORMALIZED FREE ENERGY PREDICTED BY IDOCK:   -2.93 KCAL/MOL
REMARK 922        TOTAL FREE ENERGY PREDICTED BY IDOCK:   -3.32 KCAL/MOL
REMARK 923 INTER-LIGAND FREE ENERGY PREDICTED BY IDOCK:   -3.27 KCAL/MOL
REMARK 924 INTRA-LIGAND FREE ENERGY PREDICTED BY IDOCK:   -0.05 KCAL/MOL
REMARK 927      BINDING AFFINITY PREDICTED BY RF-SCORE:    0.00 PKD
ROOT
HETATM    1  C   UNL     1      -9.790  10.597  69.428  1.00  0.00    -0.164 C  
HETATM    2  C   UNL     1      -8.912  10.491  68.180  1.00  0.00    -0.138 C  
HETATM    3  C   UNL     1      -9.909  10.942  66.948  1.00  0.00    -0.222 C  
HETATM    4  C   UNL     1     -10.141  12.506  66.763  1.00  0.00    -0.233 C  
HETATM    5  C   UNL     1      -8.917  13.461  67.027  1.00  0.00    -0.228 C  
HETATM    6  C   UNL     1      -8.163  12.819  68.173  1.00  0.00    -0.167 C  
HETATM    7  C   UNL     1      -7.707  11.390  67.917  1.00  0.00    -0.114 C  
HETATM    8  C   UNL     1      -7.196  13.670  68.989  1.00  0.00    -0.049 C  
HETATM    9  C   UNL     1      -7.979  14.853  69.545  1.00  0.00    -0.084 C  
HETATM   10  C   UNL     1      -7.180  10.687  66.587  1.00  0.00    -0.128 C  
HETATM   11  C   UNL     1      -8.469  15.667  68.387  1.00  0.00    -0.164 C  
HETATM   12  C   UNL     1      -7.686   9.167  66.684  1.00  0.00    -0.097 C  
HETATM   13  C   UNL     1      -8.128   9.109  68.123  1.00  0.00    -0.104 C  
HETATM   14  C   UNL     1      -8.155  16.967  68.344  1.00  0.00    -0.237 C  
HETATM   15  C   UNL     1      -9.362  14.954  67.378  1.00  0.00    -0.202 C  
HETATM   16  O   UNL     1      -8.916   8.023  68.551  1.00  0.00    -0.134 OA 
HETATM   17  C   UNL     1      -8.597  17.905  67.287  1.00  0.00    -0.241 C  
HETATM   18  C   UNL     1      -9.657  15.798  66.114  1.00  0.00    -0.364 C  
HETATM   19  H   UNL     1      -8.447   7.197  68.517  1.00  0.00     0.000 HD 
HETATM   20  C   UNL     1      -9.148  17.240  66.031  1.00  0.00    -0.114 C  
ENDROOT
BRANCH  13  21
HETATM   21  C   UNL     1      -6.786   8.987  68.879  1.00  0.00    -0.057 C  
HETATM   22  C   UNL     1      -5.628   8.863  69.120  1.00  0.00    -0.036 C  
ENDBRANCH  13  21
TORSDOF 1
ENDMDL
MODEL      102
REMARK 921   NORMALIZED FREE ENERGY PREDICTED BY IDOCK:   -2.92 KCAL/MOL
REMARK 922        TOTAL FREE ENERGY PREDICTED BY IDOCK:   -3.31 KCAL/MOL
REMARK 923 INTER-LIGAND FREE ENERGY PREDICTED BY IDOCK:   -3.09 KCAL/MOL
REMARK 924 INTRA-LIGAND FREE ENERGY PREDICTED BY IDOCK:   -0.22 KCAL/MOL
REMARK 927      BINDING AFFINITY PREDICTED BY RF-SCORE:    0.00 PKD
ROOT
HETATM    1  C   UNL     1      -7.303   7.671  70.263  1.00  0.00    -0.071 C  
HETATM    2  C   UNL     1      -8.666   7.879  69.600  1.00  0.00    -0.134 C  
HETATM    3  C   UNL     1      -8.299   8.240  68.034  1.00  0.00    -0.129 C  
HETATM    4  C   UNL     1      -7.927   7.009  67.095  1.00  0.00    -0.113 C  
HETATM    5  C   UNL     1      -8.711   5.661  67.312  1.00  0.00    -0.107 C  
HETATM    6  C   UNL     1      -8.938   5.581  68.808  1.00  0.00    -0.120 C  
HETATM    7  C   UNL     1      -9.688   6.763  69.404  1.00  0.00    -0.155 C  
HETATM    8  C   UNL     1      -9.259   4.229  69.434  1.00  0.00    -0.203 C  
HETATM    9  C   UNL     1      -8.124   3.276  69.078  1.00  0.00    -0.072 C  
HETATM   10  C   UNL     1     -10.882   7.642  68.819  1.00  0.00    -0.025 C  
HETATM   11  C   UNL     1      -8.105   3.117  67.589  1.00  0.00    -0.081 C  
HETATM   12  C   UNL     1     -10.646   9.118  69.406  1.00  0.00    -0.232 C  
HETATM   13  C   UNL     1      -9.601   8.839  70.454  1.00  0.00    -0.182 C  
HETATM   14  C   UNL     1      -8.184   1.884  67.078  1.00  0.00    -0.076 C  
HETATM   15  C   UNL     1      -7.915   4.389  66.769  1.00  0.00    -0.098 C  
HETATM   16  O   UNL     1      -8.896   9.921  71.016  1.00  0.00    -0.279 OA 
HETATM   17  C   UNL     1      -8.137   1.567  65.632  1.00  0.00    -0.075 C  
HETATM   18  C   UNL     1      -8.109   4.173  65.248  1.00  0.00    -0.101 C  
HETATM   19  H   UNL     1      -9.454  10.494  71.527  1.00  0.00     0.000 HD 
HETATM   20  C   UNL     1      -8.353   2.760  64.709  1.00  0.00    -0.088 C  
ENDROOT
BRANCH  13  21
HETATM   21  C   UNL     1     -10.436   8.231  71.603  1.00  0.00    -0.303 C  
HETATM   22  C   UNL     1     -10.977   8.072  72.650  1.00  0.00    -0.448 C  
ENDBRANCH  13  21
TORSDOF 1
ENDMDL
MODEL      103
REMARK 921   NORMALIZED FREE ENERGY PREDICTED BY IDOCK:   -2.90 KCAL/MOL
REMARK 922        TOTAL FREE ENERGY PREDICTED BY IDOCK:   -3.30 KCAL/MOL
REMARK 923 INTER-LIGAND FREE ENERGY PREDICTED BY IDOCK:   -3.07 KCAL/MOL
REMARK 924 INTRA-LIGAND FREE ENERGY PREDICTED BY IDOCK:   -0.22 KCAL/MOL
REMARK 927      BINDING AFFINITY PREDICTED BY RF-SCORE:    0.00 PKD
ROOT
HETATM    1  C   UNL     1     -10.418   7.591  67.585  1.00  0.00    -0.319 C  
HETATM    2  C   UNL     1      -9.235   7.493  66.620  1.00  0.00    -0.201 C  
HETATM    3  C   UNL     1      -9.402   8.811  65.644  1.00  0.00    -0.219 C  
HETATM    4  C   UNL     1      -8.914  10.201  66.246  1.00  0.00    -0.168 C  
HETATM    5  C   UNL     1      -7.628  10.192  67.155  1.00  0.00    -0.092 C  
HETATM    6  C   UNL     1      -7.704   8.887  67.921  1.00  0.00    -0.101 C  
HETATM    7  C   UNL     1      -7.779   7.640  67.053  1.00  0.00    -0.108 C  
HETATM    8  C   UNL     1      -6.891   8.735  69.202  1.00  0.00    -0.055 C  
HETATM    9  C   UNL     1      -7.303   9.859  70.145  1.00  0.00    -0.166 C  
HETATM   10  C   UNL     1      -7.088   7.299  65.658  1.00  0.00    -0.065 C  
HETATM   11  C   UNL     1      -6.935  11.160  69.500  1.00  0.00    -0.111 C  
HETATM   12  C   UNL     1      -8.139   6.364  64.883  1.00  0.00    -0.120 C  
HETATM   13  C   UNL     1      -9.098   6.037  65.998  1.00  0.00    -0.129 C  
HETATM   14  C   UNL     1      -6.152  12.008  70.176  1.00  0.00    -0.131 C  
HETATM   15  C   UNL     1      -7.557  11.448  68.138  1.00  0.00    -0.114 C  
HETATM   16  O   UNL     1     -10.345   5.466  65.678  1.00  0.00    -0.415 OA 
HETATM   17  C   UNL     1      -5.737  13.342  69.688  1.00  0.00    -0.105 C  
HETATM   18  C   UNL     1      -6.975  12.707  67.450  1.00  0.00    -0.143 C  
HETATM   19  H   UNL     1     -10.263   4.595  65.306  1.00  0.00     0.000 HD 
HETATM   20  C   UNL     1      -5.957  13.575  68.197  1.00  0.00    -0.115 C  
ENDROOT
BRANCH  13  21
HETATM   21  C   UNL     1      -8.327   4.961  66.794  1.00  0.00    -0.107 C  
HETATM   22  C   UNL     1      -8.036   3.942  67.335  1.00  0.00    -0.091 C  
ENDBRANCH  13  21
TORSDOF 1
ENDMDL
MODEL      104
REMARK 921   NORMALIZED FREE ENERGY PREDICTED BY IDOCK:   -2.87 KCAL/MOL
REMARK 922        TOTAL FREE ENERGY PREDICTED BY IDOCK:   -3.27 KCAL/MOL
REMARK 923 INTER-LIGAND FREE ENERGY PREDICTED BY IDOCK:   -3.06 KCAL/MOL
REMARK 924 INTRA-LIGAND FREE ENERGY PREDICTED BY IDOCK:   -0.21 KCAL/MOL
REMARK 927      BINDING AFFINITY PREDICTED BY RF-SCORE:    0.00 PKD
ROOT
HETATM    1  C   UNL     1      -7.380  10.188  65.755  1.00  0.00    -0.128 C  
HETATM    2  C   UNL     1      -8.269  10.255  66.998  1.00  0.00    -0.122 C  
HETATM    3  C   UNL     1      -9.688   9.570  66.514  1.00  0.00    -0.284 C  
HETATM    4  C   UNL     1      -9.722   7.979  66.465  1.00  0.00    -0.297 C  
HETATM    5  C   UNL     1      -8.940   7.196  67.585  1.00  0.00    -0.125 C  
HETATM    6  C   UNL     1      -7.709   8.036  67.857  1.00  0.00    -0.114 C  
HETATM    7  C   UNL     1      -7.993   9.470  68.277  1.00  0.00    -0.094 C  
HETATM    8  C   UNL     1      -6.510   7.387  68.541  1.00  0.00    -0.041 C  
HETATM    9  C   UNL     1      -6.088   6.192  67.695  1.00  0.00    -0.018 C  
HETATM   10  C   UNL     1      -9.156  10.081  69.179  1.00  0.00    -0.188 C  
HETATM   11  C   UNL     1      -7.219   5.210  67.687  1.00  0.00    -0.067 C  
HETATM   12  C   UNL     1      -9.442  11.539  68.570  1.00  0.00    -0.175 C  
HETATM   13  C   UNL     1      -8.253  11.701  67.660  1.00  0.00    -0.141 C  
HETATM   14  C   UNL     1      -6.977   3.956  68.082  1.00  0.00    -0.051 C  
HETATM   15  C   UNL     1      -8.555   5.711  67.147  1.00  0.00    -0.109 C  
HETATM   16  O   UNL     1      -8.263  12.734  66.703  1.00  0.00    -0.406 OA 
HETATM   17  C   UNL     1      -7.981   2.868  68.091  1.00  0.00    -0.066 C  
HETATM   18  C   UNL     1      -9.717   4.710  67.359  1.00  0.00    -0.215 C  
HETATM   19  H   UNL     1      -8.253  13.597  67.099  1.00  0.00     0.000 HD 
HETATM   20  C   UNL     1      -9.427   3.331  67.961  1.00  0.00    -0.217 C  
ENDROOT
BRANCH  13  21
HETATM   21  C   UNL     1      -7.120  12.048  68.651  1.00  0.00    -0.103 C  
HETATM   22  C   UNL     1      -6.425  12.633  69.419  1.00  0.00    -0.099 C  
ENDBRANCH  13  21
TORSDOF 1
ENDMDL
MODEL      105
REMARK 921   NORMALIZED FREE ENERGY PREDICTED BY IDOCK:   -2.87 KCAL/MOL
REMARK 922        TOTAL FREE ENERGY PREDICTED BY IDOCK:   -3.26 KCAL/MOL
REMARK 923 INTER-LIGAND FREE ENERGY PREDICTED BY IDOCK:   -3.04 KCAL/MOL
REMARK 924 INTRA-LIGAND FREE ENERGY PREDICTED BY IDOCK:   -0.22 KCAL/MOL
REMARK 927      BINDING AFFINITY PREDICTED BY RF-SCORE:    0.00 PKD
ROOT
HETATM    1  C   UNL     1     -10.635   5.141  66.234  1.00  0.00    -0.325 C  
HETATM    2  C   UNL     1      -9.180   4.689  66.360  1.00  0.00    -0.133 C  
HETATM    3  C   UNL     1      -8.370   5.637  65.282  1.00  0.00    -0.146 C  
HETATM    4  C   UNL     1      -8.045   7.123  65.753  1.00  0.00    -0.130 C  
HETATM    5  C   UNL     1      -7.666   7.343  67.265  1.00  0.00    -0.116 C  
HETATM    6  C   UNL     1      -8.520   6.351  68.028  1.00  0.00    -0.118 C  
HETATM    7  C   UNL     1      -8.336   4.899  67.615  1.00  0.00    -0.105 C  
HETATM    8  C   UNL     1      -8.757   6.575  69.517  1.00  0.00    -0.134 C  
HETATM    9  C   UNL     1      -9.378   7.956  69.682  1.00  0.00    -0.153 C  
HETATM   10  C   UNL     1      -7.035   4.103  67.154  1.00  0.00    -0.059 C  
HETATM   11  C   UNL     1      -8.384   8.969  69.202  1.00  0.00    -0.123 C  
HETATM   12  C   UNL     1      -7.556   3.020  66.089  1.00  0.00    -0.077 C  
HETATM   13  C   UNL     1      -9.044   3.106  66.307  1.00  0.00    -0.151 C  
HETATM   14  C   UNL     1      -8.020   9.950  70.036  1.00  0.00    -0.194 C  
HETATM   15  C   UNL     1      -7.921   8.840  67.755  1.00  0.00    -0.106 C  
HETATM   16  O   UNL     1      -9.906   2.521  65.360  1.00  0.00    -0.351 OA 
HETATM   17  C   UNL     1      -7.082  11.042  69.692  1.00  0.00    -0.089 C  
HETATM   18  C   UNL     1      -6.752   9.789  67.397  1.00  0.00    -0.074 C  
HETATM   19  H   UNL     1      -9.825   1.575  65.329  1.00  0.00     0.000 HD 
HETATM   20  C   UNL     1      -6.254  10.802  68.434  1.00  0.00    -0.049 C  
ENDROOT
BRANCH  13  21
HETATM   21  C   UNL     1      -9.235   2.303  67.613  1.00  0.00    -0.207 C  
HETATM   22  C   UNL     1      -9.572   1.470  68.392  1.00  0.00    -0.203 C  
ENDBRANCH  13  21
TORSDOF 1
ENDMDL
MODEL      106
REMARK 921   NORMALIZED FREE ENERGY PREDICTED BY IDOCK:   -2.80 KCAL/MOL
REMARK 922        TOTAL FREE ENERGY PREDICTED BY IDOCK:   -3.19 KCAL/MOL
REMARK 923 INTER-LIGAND FREE ENERGY PREDICTED BY IDOCK:   -2.97 KCAL/MOL
REMARK 924 INTRA-LIGAND FREE ENERGY PREDICTED BY IDOCK:   -0.22 KCAL/MOL
REMARK 927      BINDING AFFINITY PREDICTED BY RF-SCORE:    0.00 PKD
ROOT
HETATM    1  C   UNL     1      -7.986   7.630  62.957  1.00  0.00    -0.112 C  
HETATM    2  C   UNL     1      -7.586   7.056  64.317  1.00  0.00    -0.112 C  
HETATM    3  C   UNL     1      -6.154   7.798  64.659  1.00  0.00    -0.041 C  
HETATM    4  C   UNL     1      -6.245   9.287  65.213  1.00  0.00    -0.064 C  
HETATM    5  C   UNL     1      -7.436   9.634  66.184  1.00  0.00    -0.098 C  
HETATM    6  C   UNL     1      -8.605   8.819  65.671  1.00  0.00    -0.195 C  
HETATM    7  C   UNL     1      -8.360   7.319  65.606  1.00  0.00    -0.142 C  
HETATM    8  C   UNL     1     -10.019   9.226  66.069  1.00  0.00    -0.325 C  
HETATM    9  C   UNL     1     -10.223  10.671  65.630  1.00  0.00    -0.319 C  
HETATM   10  C   UNL     1      -7.535   6.356  66.571  1.00  0.00    -0.086 C  
HETATM   11  C   UNL     1      -9.252  11.524  66.387  1.00  0.00    -0.218 C  
HETATM   12  C   UNL     1      -6.927   5.218  65.615  1.00  0.00    -0.066 C  
HETATM   13  C   UNL     1      -7.704   5.471  64.350  1.00  0.00    -0.095 C  
HETATM   14  C   UNL     1      -9.727  12.551  67.101  1.00  0.00    -0.205 C  
HETATM   15  C   UNL     1      -7.774  11.194  66.216  1.00  0.00    -0.097 C  
HETATM   16  O   UNL     1      -7.269   4.871  63.152  1.00  0.00    -0.045 OA 
HETATM   17  C   UNL     1      -8.890  13.503  67.866  1.00  0.00    -0.190 C  
HETATM   18  C   UNL     1      -6.852  11.980  67.180  1.00  0.00    -0.136 C  
HETATM   19  H   UNL     1      -7.340   3.925  63.171  1.00  0.00     0.000 HD 
HETATM   20  C   UNL     1      -7.454  13.047  68.100  1.00  0.00    -0.130 C  
ENDROOT
BRANCH  13  21
HETATM   21  C   UNL     1      -9.076   4.838  64.670  1.00  0.00    -0.115 C  
HETATM   22  C   UNL     1     -10.010   4.101  64.681  1.00  0.00    -0.182 C  
ENDBRANCH  13  21
TORSDOF 1
ENDMDL
MODEL      107
REMARK 921   NORMALIZED FREE ENERGY PREDICTED BY IDOCK:   -2.77 KCAL/MOL
REMARK 922        TOTAL FREE ENERGY PREDICTED BY IDOCK:   -3.15 KCAL/MOL
REMARK 923 INTER-LIGAND FREE ENERGY PREDICTED BY IDOCK:   -2.94 KCAL/MOL
REMARK 924 INTRA-LIGAND FREE ENERGY PREDICTED BY IDOCK:   -0.22 KCAL/MOL
REMARK 927      BINDING AFFINITY PREDICTED BY RF-SCORE:    0.00 PKD
ROOT
HETATM    1  C   UNL     1      -9.894   8.013  72.846  1.00  0.00    -0.357 C  
HETATM    2  C   UNL     1     -10.287   8.290  71.394  1.00  0.00    -0.270 C  
HETATM    3  C   UNL     1      -8.969   9.048  70.759  1.00  0.00    -0.286 C  
HETATM    4  C   UNL     1      -7.748   8.113  70.345  1.00  0.00    -0.085 C  
HETATM    5  C   UNL     1      -8.085   6.706  69.724  1.00  0.00    -0.126 C  
HETATM    6  C   UNL     1      -9.329   6.246  70.454  1.00  0.00    -0.171 C  
HETATM    7  C   UNL     1     -10.515   7.194  70.357  1.00  0.00    -0.234 C  
HETATM    8  C   UNL     1      -9.685   4.764  70.446  1.00  0.00    -0.289 C  
HETATM    9  C   UNL     1      -8.495   4.002  71.016  1.00  0.00    -0.099 C  
HETATM   10  C   UNL     1     -11.018   8.113  69.156  1.00  0.00     0.068 C  
HETATM   11  C   UNL     1      -7.328   4.216  70.101  1.00  0.00    -0.045 C  
HETATM   12  C   UNL     1     -11.654   9.411  69.854  1.00  0.00     0.028 C  
HETATM   13  C   UNL     1     -11.730   8.950  71.286  1.00  0.00    -0.306 C  
HETATM   14  C   UNL     1      -6.708   3.144  69.597  1.00  0.00    -0.034 C  
HETATM   15  C   UNL     1      -6.889   5.659  69.880  1.00  0.00    -0.060 C  
HETATM   16  O   UNL     1     -11.966   9.903  72.297  1.00  0.00     0.051 OA 
HETATM   17  C   UNL     1      -5.521   3.196  68.714  1.00  0.00    -0.013 C  
HETATM   18  C   UNL     1      -5.818   5.813  68.773  1.00  0.00    -0.019 C  
HETATM   19  H   UNL     1     -12.827  10.296  72.233  1.00  0.00     0.000 HD 
HETATM   20  C   UNL     1      -5.238   4.563  68.103  1.00  0.00    -0.007 C  
ENDROOT
BRANCH  13  21
HETATM   21  C   UNL     1     -12.967   8.026  71.274  1.00  0.00    -0.205 C  
HETATM   22  C   UNL     1     -14.077   7.616  71.395  1.00  0.00    -0.479 C  
ENDBRANCH  13  21
TORSDOF 1
ENDMDL
MODEL      108
REMARK 921   NORMALIZED FREE ENERGY PREDICTED BY IDOCK:   -2.76 KCAL/MOL
REMARK 922        TOTAL FREE ENERGY PREDICTED BY IDOCK:   -3.14 KCAL/MOL
REMARK 923 INTER-LIGAND FREE ENERGY PREDICTED BY IDOCK:   -2.92 KCAL/MOL
REMARK 924 INTRA-LIGAND FREE ENERGY PREDICTED BY IDOCK:   -0.22 KCAL/MOL
REMARK 927      BINDING AFFINITY PREDICTED BY RF-SCORE:    0.00 PKD
ROOT
HETATM    1  C   UNL     1     -10.723  10.483  66.089  1.00  0.00    -0.115 C  
HETATM    2  C   UNL     1      -9.888  10.001  67.276  1.00  0.00    -0.225 C  
HETATM    3  C   UNL     1     -10.595   8.577  67.713  1.00  0.00    -0.242 C  
HETATM    4  C   UNL     1     -10.232   7.307  66.825  1.00  0.00    -0.305 C  
HETATM    5  C   UNL     1      -8.758   7.192  66.283  1.00  0.00    -0.156 C  
HETATM    6  C   UNL     1      -8.342   8.617  65.981  1.00  0.00    -0.135 C  
HETATM    7  C   UNL     1      -8.427   9.572  67.162  1.00  0.00    -0.131 C  
HETATM    8  C   UNL     1      -7.170   8.859  65.037  1.00  0.00    -0.091 C  
HETATM    9  C   UNL     1      -7.494   8.172  63.716  1.00  0.00    -0.120 C  
HETATM   10  C   UNL     1      -8.133   9.341  68.712  1.00  0.00    -0.104 C  
HETATM   11  C   UNL     1      -7.599   6.700  63.975  1.00  0.00    -0.108 C  
HETATM   12  C   UNL     1      -9.162  10.300  69.485  1.00  0.00    -0.191 C  
HETATM   13  C   UNL     1      -9.659  11.153  68.347  1.00  0.00    -0.192 C  
HETATM   14  C   UNL     1      -6.832   5.871  63.259  1.00  0.00    -0.037 C  
HETATM   15  C   UNL     1      -8.644   6.259  64.993  1.00  0.00     0.010 C  
HETATM   16  O   UNL     1     -10.807  11.946  68.542  1.00  0.00    -0.201 OA 
HETATM   17  C   UNL     1      -6.854   4.395  63.374  1.00  0.00    -0.043 C  
HETATM   18  C   UNL     1      -8.554   4.756  65.354  1.00  0.00    -0.134 C  
HETATM   19  H   UNL     1     -10.671  12.635  69.181  1.00  0.00     0.000 HD 
HETATM   20  C   UNL     1      -7.550   3.861  64.619  1.00  0.00    -0.077 C  
ENDROOT
BRANCH  13  21
HETATM   21  C   UNL     1      -8.490  12.140  68.135  1.00  0.00    -0.175 C  
HETATM   22  C   UNL     1      -7.862  13.109  67.850  1.00  0.00    -0.151 C  
ENDBRANCH  13  21
TORSDOF 1
ENDMDL
MODEL      109
REMARK 921   NORMALIZED FREE ENERGY PREDICTED BY IDOCK:   -2.74 KCAL/MOL
REMARK 922        TOTAL FREE ENERGY PREDICTED BY IDOCK:   -3.13 KCAL/MOL
REMARK 923 INTER-LIGAND FREE ENERGY PREDICTED BY IDOCK:   -2.91 KCAL/MOL
REMARK 924 INTRA-LIGAND FREE ENERGY PREDICTED BY IDOCK:   -0.22 KCAL/MOL
REMARK 927      BINDING AFFINITY PREDICTED BY RF-SCORE:    0.00 PKD
ROOT
HETATM    1  C   UNL     1      -9.432   3.318  68.244  1.00  0.00    -0.214 C  
HETATM    2  C   UNL     1      -8.079   3.915  68.634  1.00  0.00    -0.079 C  
HETATM    3  C   UNL     1      -7.209   3.885  67.234  1.00  0.00    -0.067 C  
HETATM    4  C   UNL     1      -7.520   5.043  66.186  1.00  0.00    -0.086 C  
HETATM    5  C   UNL     1      -7.839   6.476  66.754  1.00  0.00    -0.104 C  
HETATM    6  C   UNL     1      -8.612   6.224  68.032  1.00  0.00    -0.116 C  
HETATM    7  C   UNL     1      -7.888   5.368  69.059  1.00  0.00    -0.090 C  
HETATM    8  C   UNL     1      -9.465   7.347  68.611  1.00  0.00    -0.139 C  
HETATM    9  C   UNL     1     -10.457   7.773  67.536  1.00  0.00    -0.338 C  
HETATM   10  C   UNL     1      -6.345   5.293  69.451  1.00  0.00    -0.034 C  
HETATM   11  C   UNL     1      -9.678   8.318  66.379  1.00  0.00    -0.300 C  
HETATM   12  C   UNL     1      -6.086   3.761  69.858  1.00  0.00    -0.023 C  
HETATM   13  C   UNL     1      -7.501   3.255  69.960  1.00  0.00    -0.044 C  
HETATM   14  C   UNL     1      -9.956   9.553  65.947  1.00  0.00    -0.342 C  
HETATM   15  C   UNL     1      -8.670   7.376  65.730  1.00  0.00    -0.132 C  
HETATM   16  O   UNL     1      -7.725   1.866  70.015  1.00  0.00    -0.042 OA 
HETATM   17  C   UNL     1      -9.300  10.209  64.794  1.00  0.00    -0.324 C  
HETATM   18  C   UNL     1      -7.766   8.070  64.682  1.00  0.00    -0.126 C  
HETATM   19  H   UNL     1      -7.380   1.472  70.808  1.00  0.00     0.000 HD 
HETATM   20  C   UNL     1      -8.015   9.539  64.322  1.00  0.00    -0.136 C  
ENDROOT
BRANCH  13  21
HETATM   21  C   UNL     1      -7.957   3.816  71.325  1.00  0.00    -0.064 C  
HETATM   22  C   UNL     1      -8.542   3.969  72.349  1.00  0.00    -0.109 C  
ENDBRANCH  13  21
TORSDOF 1
ENDMDL
MODEL      110
REMARK 921   NORMALIZED FREE ENERGY PREDICTED BY IDOCK:   -2.70 KCAL/MOL
REMARK 922        TOTAL FREE ENERGY PREDICTED BY IDOCK:   -3.09 KCAL/MOL
REMARK 923 INTER-LIGAND FREE ENERGY PREDICTED BY IDOCK:   -2.92 KCAL/MOL
REMARK 924 INTRA-LIGAND FREE ENERGY PREDICTED BY IDOCK:   -0.17 KCAL/MOL
REMARK 927      BINDING AFFINITY PREDICTED BY RF-SCORE:    0.00 PKD
ROOT
HETATM    1  C   UNL     1      -7.294   3.556  68.160  1.00  0.00    -0.051 C  
HETATM    2  C   UNL     1      -7.517   4.051  69.591  1.00  0.00    -0.053 C  
HETATM    3  C   UNL     1      -6.408   5.257  69.775  1.00  0.00    -0.027 C  
HETATM    4  C   UNL     1      -6.783   6.664  69.133  1.00  0.00    -0.052 C  
HETATM    5  C   UNL     1      -8.290   7.116  69.194  1.00  0.00    -0.129 C  
HETATM    6  C   UNL     1      -9.086   5.839  69.023  1.00  0.00    -0.123 C  
HETATM    7  C   UNL     1      -8.788   4.758  70.051  1.00  0.00    -0.122 C  
HETATM    8  C   UNL     1     -10.543   5.930  68.584  1.00  0.00    -0.323 C  
HETATM    9  C   UNL     1     -10.579   6.687  67.262  1.00  0.00    -0.387 C  
HETATM   10  C   UNL     1      -8.444   4.864  71.604  1.00  0.00    -0.124 C  
HETATM   11  C   UNL     1     -10.070   8.074  67.512  1.00  0.00    -0.281 C  
HETATM   12  C   UNL     1      -7.439   3.646  71.898  1.00  0.00    -0.056 C  
HETATM   13  C   UNL     1      -7.586   2.849  70.629  1.00  0.00    -0.039 C  
HETATM   14  C   UNL     1     -10.845   9.109  67.168  1.00  0.00    -0.094 C  
HETATM   15  C   UNL     1      -8.658   8.193  68.074  1.00  0.00    -0.129 C  
HETATM   16  O   UNL     1      -6.647   1.837  70.348  1.00  0.00    -0.024 OA 
HETATM   17  C   UNL     1     -10.463  10.532  67.316  1.00  0.00    -0.300 C  
HETATM   18  C   UNL     1      -8.283   9.636  68.493  1.00  0.00    -0.105 C  
HETATM   19  H   UNL     1      -6.689   1.119  70.968  1.00  0.00     0.000 HD 
HETATM   20  C   UNL     1      -9.264  10.781  68.223  1.00  0.00    -0.157 C  
ENDROOT
BRANCH  13  21
HETATM   21  C   UNL     1      -8.937   2.131  70.841  1.00  0.00    -0.141 C  
HETATM   22  C   UNL     1      -9.830   1.518  71.332  1.00  0.00    -0.201 C  
ENDBRANCH  13  21
TORSDOF 1
ENDMDL
MODEL      111
REMARK 921   NORMALIZED FREE ENERGY PREDICTED BY IDOCK:   -2.69 KCAL/MOL
REMARK 922        TOTAL FREE ENERGY PREDICTED BY IDOCK:   -3.07 KCAL/MOL
REMARK 923 INTER-LIGAND FREE ENERGY PREDICTED BY IDOCK:   -2.86 KCAL/MOL
REMARK 924 INTRA-LIGAND FREE ENERGY PREDICTED BY IDOCK:   -0.21 KCAL/MOL
REMARK 927      BINDING AFFINITY PREDICTED BY RF-SCORE:    0.00 PKD
ROOT
HETATM    1  C   UNL     1     -11.082  15.376  71.307  1.00  0.00    -0.341 C  
HETATM    2  C   UNL     1     -11.430  14.686  69.987  1.00  0.00    -0.313 C  
HETATM    3  C   UNL     1     -11.833  15.926  68.980  1.00  0.00    -0.328 C  
HETATM    4  C   UNL     1     -10.623  16.738  68.340  1.00  0.00    -0.354 C  
HETATM    5  C   UNL     1      -9.334  15.930  67.936  1.00  0.00    -0.207 C  
HETATM    6  C   UNL     1      -9.202  14.854  68.993  1.00  0.00    -0.176 C  
HETATM    7  C   UNL     1     -10.411  13.940  69.130  1.00  0.00    -0.024 C  
HETATM    8  C   UNL     1      -7.852  14.173  69.189  1.00  0.00     0.063 C  
HETATM    9  C   UNL     1      -6.828  15.260  69.493  1.00  0.00    -0.180 C  
HETATM   10  C   UNL     1     -11.411  13.364  68.031  1.00  0.00    -0.320 C  
HETATM   11  C   UNL     1      -6.739  16.157  68.296  1.00  0.00    -0.127 C  
HETATM   12  C   UNL     1     -12.833  13.258  68.768  1.00  0.00     1.356 C  
HETATM   13  C   UNL     1     -12.422  13.462  70.203  1.00  0.00    -0.174 C  
HETATM   14  C   UNL     1      -5.541  16.352  67.733  1.00  0.00    -0.151 C  
HETATM   15  C   UNL     1      -8.028  16.845  67.860  1.00  0.00    -0.187 C  
HETATM   16  O   UNL     1     -13.415  13.734  71.164  1.00  0.00    -0.229 OA 
HETATM   17  C   UNL     1      -5.290  17.238  66.574  1.00  0.00    -0.206 C  
HETATM   18  C   UNL     1      -7.901  17.587  66.507  1.00  0.00    -0.312 C  
HETATM   19  H   UNL     1     -14.007  13.002  71.293  1.00  0.00     0.000 HD 
HETATM   20  C   UNL     1      -6.539  17.659  65.809  1.00  0.00    -0.164 C  
ENDROOT
BRANCH  13  21
HETATM   21  C   UNL     1     -11.829  12.086  70.578  1.00  0.00    -0.215 C  
HETATM   22  C   UNL     1     -11.722  10.961  70.949  1.00  0.00    -0.265 C  
ENDBRANCH  13  21
TORSDOF 1
ENDMDL
MODEL      112
REMARK 921   NORMALIZED FREE ENERGY PREDICTED BY IDOCK:   -2.63 KCAL/MOL
REMARK 922        TOTAL FREE ENERGY PREDICTED BY IDOCK:   -3.00 KCAL/MOL
REMARK 923 INTER-LIGAND FREE ENERGY PREDICTED BY IDOCK:   -2.85 KCAL/MOL
REMARK 924 INTRA-LIGAND FREE ENERGY PREDICTED BY IDOCK:   -0.15 KCAL/MOL
REMARK 927      BINDING AFFINITY PREDICTED BY RF-SCORE:    0.00 PKD
ROOT
HETATM    1  C   UNL     1     -14.407  15.443  71.106  1.00  0.00    -0.284 C  
HETATM    2  C   UNL     1     -13.299  14.974  72.050  1.00  0.00    -0.475 C  
HETATM    3  C   UNL     1     -13.666  13.395  72.346  1.00  0.00    -0.698 C  
HETATM    4  C   UNL     1     -13.265  12.352  71.211  1.00  0.00    -0.081 C  
HETATM    5  C   UNL     1     -11.918  12.600  70.435  1.00  0.00    -0.331 C  
HETATM    6  C   UNL     1     -11.809  14.106  70.315  1.00  0.00    -0.373 C  
HETATM    7  C   UNL     1     -11.834  14.856  71.639  1.00  0.00    -0.429 C  
HETATM    8  C   UNL     1     -10.888  14.698  69.254  1.00  0.00    -0.272 C  
HETATM    9  C   UNL     1     -11.330  14.148  67.903  1.00  0.00    -0.318 C  
HETATM   10  C   UNL     1     -11.225  14.477  73.062  1.00  0.00     1.331 C  
HETATM   11  C   UNL     1     -11.138  12.663  67.924  1.00  0.00    -0.285 C  
HETATM   12  C   UNL     1     -12.239  15.104  74.137  1.00  0.00    -0.686 C  
HETATM   13  C   UNL     1     -13.073  15.992  73.250  1.00  0.00    -0.557 C  
HETATM   14  C   UNL     1     -10.388  12.103  66.969  1.00  0.00    -0.232 C  
HETATM   15  C   UNL     1     -11.889  11.892  69.005  1.00  0.00    -0.368 C  
HETATM   16  O   UNL     1     -14.282  16.513  73.752  1.00  0.00    -0.407 OA 
HETATM   17  C   UNL     1     -10.141  10.649  66.836  1.00  0.00    -0.260 C  
HETATM   18  C   UNL     1     -11.483  10.400  69.089  1.00  0.00    -0.261 C  
HETATM   19  H   UNL     1     -14.147  17.121  74.469  1.00  0.00     0.000 HD 
HETATM   20  C   UNL     1     -10.497   9.825  68.067  1.00  0.00    -0.271 C  
ENDROOT
BRANCH  13  21
HETATM   21  C   UNL     1     -12.145  17.206  73.027  1.00  0.00     0.614 C  
HETATM   22  C   UNL     1     -11.359  18.080  73.207  1.00  0.00     1.793 C  
ENDBRANCH  13  21
TORSDOF 1
ENDMDL
MODEL      113
REMARK 921   NORMALIZED FREE ENERGY PREDICTED BY IDOCK:   -2.57 KCAL/MOL
REMARK 922        TOTAL FREE ENERGY PREDICTED BY IDOCK:   -2.95 KCAL/MOL
REMARK 923 INTER-LIGAND FREE ENERGY PREDICTED BY IDOCK:   -2.72 KCAL/MOL
REMARK 924 INTRA-LIGAND FREE ENERGY PREDICTED BY IDOCK:   -0.22 KCAL/MOL
REMARK 927      BINDING AFFINITY PREDICTED BY RF-SCORE:    0.00 PKD
ROOT
HETATM    1  C   UNL     1      -9.639  10.004  67.091  1.00  0.00    -0.202 C  
HETATM    2  C   UNL     1      -8.450  10.486  67.924  1.00  0.00    -0.119 C  
HETATM    3  C   UNL     1      -7.447  11.190  66.821  1.00  0.00    -0.146 C  
HETATM    4  C   UNL     1      -7.833  12.662  66.355  1.00  0.00     0.710 C  
HETATM    5  C   UNL     1      -8.441  13.634  67.434  1.00  0.00    -0.206 C  
HETATM    6  C   UNL     1      -9.290  12.748  68.321  1.00  0.00    -0.194 C  
HETATM    7  C   UNL     1      -8.545  11.592  68.971  1.00  0.00     0.120 C  
HETATM    8  C   UNL     1     -10.371  13.388  69.184  1.00  0.00     0.099 C  
HETATM    9  C   UNL     1     -11.303  14.160  68.259  1.00  0.00    -0.319 C  
HETATM   10  C   UNL     1      -7.060  11.499  69.541  1.00  0.00     0.016 C  
HETATM   11  C   UNL     1     -10.508  15.250  67.608  1.00  0.00    -0.263 C  
HETATM   12  C   UNL     1      -6.596   9.986  69.269  1.00  0.00    -0.051 C  
HETATM   13  C   UNL     1      -7.912   9.352  68.900  1.00  0.00    -0.087 C  
HETATM   14  C   UNL     1     -10.939  16.510  67.725  1.00  0.00    -0.252 C  
HETATM   15  C   UNL     1      -9.298  14.816  66.788  1.00  0.00    -0.268 C  
HETATM   16  O   UNL     1      -7.909   8.078  68.299  1.00  0.00    -0.117 OA 
HETATM   17  C   UNL     1     -10.284  17.685  67.106  1.00  0.00    -0.342 C  
HETATM   18  C   UNL     1      -8.416  16.001  66.321  1.00  0.00    -0.337 C  
HETATM   19  H   UNL     1      -7.588   7.401  68.882  1.00  0.00     0.000 HD 
HETATM   20  C   UNL     1      -8.865  17.437  66.608  1.00  0.00    -0.278 C  
ENDROOT
BRANCH  13  21
HETATM   21  C   UNL     1      -8.593   9.174  70.275  1.00  0.00    -0.218 C  
HETATM   22  C   UNL     1      -9.177   8.705  71.198  1.00  0.00    -0.269 C  
ENDBRANCH  13  21
TORSDOF 1
ENDMDL
MODEL      114
REMARK 921   NORMALIZED FREE ENERGY PREDICTED BY IDOCK:   -2.57 KCAL/MOL
REMARK 922        TOTAL FREE ENERGY PREDICTED BY IDOCK:   -2.94 KCAL/MOL
REMARK 923 INTER-LIGAND FREE ENERGY PREDICTED BY IDOCK:   -2.72 KCAL/MOL
REMARK 924 INTRA-LIGAND FREE ENERGY PREDICTED BY IDOCK:   -0.22 KCAL/MOL
REMARK 927      BINDING AFFINITY PREDICTED BY RF-SCORE:    0.00 PKD
ROOT
HETATM    1  C   UNL     1      -7.047  13.018  67.424  1.00  0.00    -0.124 C  
HETATM    2  C   UNL     1      -8.313  12.439  66.791  1.00  0.00    -0.060 C  
HETATM    3  C   UNL     1      -7.749  11.404  65.639  1.00  0.00     0.429 C  
HETATM    4  C   UNL     1      -7.246   9.983  66.152  1.00  0.00    -0.109 C  
HETATM    5  C   UNL     1      -8.039   9.311  67.335  1.00  0.00    -0.110 C  
HETATM    6  C   UNL     1      -8.459  10.463  68.224  1.00  0.00    -0.123 C  
HETATM    7  C   UNL     1      -9.291  11.533  67.534  1.00  0.00    -0.166 C  
HETATM    8  C   UNL     1      -8.846  10.175  69.670  1.00  0.00    -0.184 C  
HETATM    9  C   UNL     1      -7.666   9.474  70.332  1.00  0.00    -0.177 C  
HETATM   10  C   UNL     1     -10.406  11.416  66.401  1.00  0.00    -0.284 C  
HETATM   11  C   UNL     1      -7.451   8.169  69.629  1.00  0.00    -0.086 C  
HETATM   12  C   UNL     1     -10.263  12.756  65.528  1.00  0.00    -0.293 C  
HETATM   13  C   UNL     1      -9.361  13.574  66.415  1.00  0.00    -0.176 C  
HETATM   14  C   UNL     1      -7.451   7.046  70.355  1.00  0.00    -0.085 C  
HETATM   15  C   UNL     1      -7.167   8.238  68.132  1.00  0.00    -0.094 C  
HETATM   16  O   UNL     1      -8.745  14.724  65.884  1.00  0.00    -0.338 OA 
HETATM   17  C   UNL     1      -7.213   5.691  69.809  1.00  0.00    -0.069 C  
HETATM   18  C   UNL     1      -7.159   6.851  67.444  1.00  0.00    -0.084 C  
HETATM   19  H   UNL     1      -9.371  15.402  65.661  1.00  0.00     0.000 HD 
HETATM   20  C   UNL     1      -7.318   5.585  68.292  1.00  0.00    -0.073 C  
ENDROOT
BRANCH  13  21
HETATM   21  C   UNL     1     -10.333  14.075  67.506  1.00  0.00    -0.245 C  
HETATM   22  C   UNL     1     -11.005  14.780  68.189  1.00  0.00    -0.274 C  
ENDBRANCH  13  21
TORSDOF 1
ENDMDL
MODEL      115
REMARK 921   NORMALIZED FREE ENERGY PREDICTED BY IDOCK:   -2.54 KCAL/MOL
REMARK 922        TOTAL FREE ENERGY PREDICTED BY IDOCK:   -2.91 KCAL/MOL
REMARK 923 INTER-LIGAND FREE ENERGY PREDICTED BY IDOCK:   -2.70 KCAL/MOL
REMARK 924 INTRA-LIGAND FREE ENERGY PREDICTED BY IDOCK:   -0.21 KCAL/MOL
REMARK 927      BINDING AFFINITY PREDICTED BY RF-SCORE:    0.00 PKD
ROOT
HETATM    1  C   UNL     1      -7.625  11.428  68.252  1.00  0.00    -0.113 C  
HETATM    2  C   UNL     1      -8.912  11.440  67.424  1.00  0.00    -0.154 C  
HETATM    3  C   UNL     1      -8.404  11.800  65.898  1.00  0.00     0.282 C  
HETATM    4  C   UNL     1      -7.771  10.601  65.064  1.00  0.00     0.038 C  
HETATM    5  C   UNL     1      -8.403   9.170  65.247  1.00  0.00    -0.152 C  
HETATM    6  C   UNL     1      -8.799   9.105  66.707  1.00  0.00    -0.143 C  
HETATM    7  C   UNL     1      -9.757  10.197  67.159  1.00  0.00    -0.214 C  
HETATM    8  C   UNL     1      -9.024   7.741  67.350  1.00  0.00    -0.128 C  
HETATM    9  C   UNL     1      -7.746   6.931  67.172  1.00  0.00    -0.108 C  
HETATM   10  C   UNL     1     -10.969  10.899  66.400  1.00  0.00    -0.156 C  
HETATM   11  C   UNL     1      -7.525   6.734  65.704  1.00  0.00    -0.082 C  
HETATM   12  C   UNL     1     -10.992  12.410  66.945  1.00  0.00    -0.307 C  
HETATM   13  C   UNL     1     -10.056  12.297  68.120  1.00  0.00    -0.211 C  
HETATM   14  C   UNL     1      -7.389   5.486  65.241  1.00  0.00    -0.072 C  
HETATM   15  C   UNL     1      -7.395   7.995  64.857  1.00  0.00    -0.084 C  
HETATM   16  O   UNL     1      -9.563  13.476  68.714  1.00  0.00    -0.391 OA 
HETATM   17  C   UNL     1      -7.127   5.137  63.827  1.00  0.00    -0.048 C  
HETATM   18  C   UNL     1      -7.374   7.713  63.334  1.00  0.00    -0.090 C  
HETATM   19  H   UNL     1     -10.247  13.987  69.129  1.00  0.00     0.000 HD 
HETATM   20  C   UNL     1      -7.375   6.265  62.833  1.00  0.00    -0.061 C  
ENDROOT
BRANCH  13  21
HETATM   21  C   UNL     1     -10.943  11.620  69.188  1.00  0.00    -0.270 C  
HETATM   22  C   UNL     1     -11.347  11.196  70.223  1.00  0.00    -0.237 C  
ENDBRANCH  13  21
TORSDOF 1
ENDMDL
MODEL      116
REMARK 921   NORMALIZED FREE ENERGY PREDICTED BY IDOCK:   -2.49 KCAL/MOL
REMARK 922        TOTAL FREE ENERGY PREDICTED BY IDOCK:   -2.86 KCAL/MOL
REMARK 923 INTER-LIGAND FREE ENERGY PREDICTED BY IDOCK:   -2.64 KCAL/MOL
REMARK 924 INTRA-LIGAND FREE ENERGY PREDICTED BY IDOCK:   -0.22 KCAL/MOL
REMARK 927      BINDING AFFINITY PREDICTED BY RF-SCORE:    0.00 PKD
ROOT
HETATM    1  C   UNL     1      -6.990  16.146  66.492  1.00  0.00     0.231 C  
HETATM    2  C   UNL     1      -8.117  16.111  67.526  1.00  0.00    -0.164 C  
HETATM    3  C   UNL     1      -9.340  16.957  66.815  1.00  0.00    -0.267 C  
HETATM    4  C   UNL     1     -10.196  16.176  65.723  1.00  0.00    -0.397 C  
HETATM    5  C   UNL     1     -10.488  14.650  65.978  1.00  0.00    -0.313 C  
HETATM    6  C   UNL     1      -9.236  14.122  66.647  1.00  0.00    -0.272 C  
HETATM    7  C   UNL     1      -8.850  14.836  67.934  1.00  0.00    -0.167 C  
HETATM    8  C   UNL     1      -8.971  12.621  66.636  1.00  0.00    -0.164 C  
HETATM    9  C   UNL     1      -8.954  12.167  65.182  1.00  0.00     0.562 C  
HETATM   10  C   UNL     1      -9.752  15.450  69.096  1.00  0.00    -0.252 C  
HETATM   11  C   UNL     1     -10.315  12.413  64.606  1.00  0.00    -0.332 C  
HETATM   12  C   UNL     1      -8.938  16.725  69.634  1.00  0.00     0.575 C  
HETATM   13  C   UNL     1      -7.600  16.501  68.978  1.00  0.00    -0.233 C  
HETATM   14  C   UNL     1     -10.966  11.387  64.048  1.00  0.00    -0.428 C  
HETATM   15  C   UNL     1     -10.819  13.852  64.636  1.00  0.00    -0.420 C  
HETATM   16  O   UNL     1      -6.668  17.557  68.955  1.00  0.00    -0.217 OA 
HETATM   17  C   UNL     1     -12.296  11.484  63.405  1.00  0.00    -0.123 C  
HETATM   18  C   UNL     1     -12.302  13.992  64.213  1.00  0.00    -0.393 C  
HETATM   19  H   UNL     1      -6.359  17.789  69.822  1.00  0.00     0.000 HD 
HETATM   20  C   UNL     1     -13.068  12.759  63.722  1.00  0.00     0.263 C  
ENDROOT
BRANCH  13  21
HETATM   21  C   UNL     1      -6.976  15.400  69.863  1.00  0.00    -0.095 C  
HETATM   22  C   UNL     1      -6.337  14.842  70.696  1.00  0.00    -0.029 C  
ENDBRANCH  13  21
TORSDOF 1
ENDMDL
MODEL      117
REMARK 921   NORMALIZED FREE ENERGY PREDICTED BY IDOCK:   -2.47 KCAL/MOL
REMARK 922        TOTAL FREE ENERGY PREDICTED BY IDOCK:   -2.84 KCAL/MOL
REMARK 923 INTER-LIGAND FREE ENERGY PREDICTED BY IDOCK:   -2.63 KCAL/MOL
REMARK 924 INTRA-LIGAND FREE ENERGY PREDICTED BY IDOCK:   -0.21 KCAL/MOL
REMARK 927      BINDING AFFINITY PREDICTED BY RF-SCORE:    0.00 PKD
ROOT
HETATM    1  C   UNL     1      -9.573   6.698  66.790  1.00  0.00    -0.207 C  
HETATM    2  C   UNL     1      -8.373   5.771  66.587  1.00  0.00    -0.109 C  
HETATM    3  C   UNL     1      -7.107   6.605  67.235  1.00  0.00    -0.080 C  
HETATM    4  C   UNL     1      -6.979   6.572  68.821  1.00  0.00    -0.080 C  
HETATM    5  C   UNL     1      -7.353   5.232  69.557  1.00  0.00    -0.061 C  
HETATM    6  C   UNL     1      -8.510   4.662  68.763  1.00  0.00    -0.092 C  
HETATM    7  C   UNL     1      -8.218   4.424  67.289  1.00  0.00    -0.100 C  
HETATM    8  C   UNL     1      -9.416   3.626  69.418  1.00  0.00    -0.249 C  
HETATM    9  C   UNL     1      -9.979   4.245  70.691  1.00  0.00    -0.218 C  
HETATM   10  C   UNL     1      -6.891   3.933  66.556  1.00  0.00    -0.058 C  
HETATM   11  C   UNL     1      -8.832   4.525  71.614  1.00  0.00    -0.145 C  
HETATM   12  C   UNL     1      -6.891   4.680  65.134  1.00  0.00    -0.057 C  
HETATM   13  C   UNL     1      -8.299   5.214  65.099  1.00  0.00    -0.141 C  
HETATM   14  C   UNL     1      -8.864   4.006  72.846  1.00  0.00    -0.106 C  
HETATM   15  C   UNL     1      -7.744   5.455  71.089  1.00  0.00    -0.102 C  
HETATM   16  O   UNL     1      -8.634   6.190  64.140  1.00  0.00    -0.342 OA 
HETATM   17  C   UNL     1      -7.826   4.227  73.879  1.00  0.00    -0.085 C  
HETATM   18  C   UNL     1      -6.503   5.532  72.012  1.00  0.00    -0.052 C  
HETATM   19  H   UNL     1      -8.590   5.857  63.252  1.00  0.00     0.000 HD 
HETATM   20  C   UNL     1      -6.513   4.796  73.356  1.00  0.00    -0.059 C  
ENDROOT
BRANCH  13  21
HETATM   21  C   UNL     1      -9.123   3.959  64.737  1.00  0.00    -0.141 C  
HETATM   22  C   UNL     1     -10.021   3.242  64.429  1.00  0.00    -0.145 C  
ENDBRANCH  13  21
TORSDOF 1
ENDMDL
MODEL      118
REMARK 921   NORMALIZED FREE ENERGY PREDICTED BY IDOCK:   -2.39 KCAL/MOL
REMARK 922        TOTAL FREE ENERGY PREDICTED BY IDOCK:   -2.75 KCAL/MOL
REMARK 923 INTER-LIGAND FREE ENERGY PREDICTED BY IDOCK:   -2.75 KCAL/MOL
REMARK 924 INTRA-LIGAND FREE ENERGY PREDICTED BY IDOCK:   -0.00 KCAL/MOL
REMARK 927      BINDING AFFINITY PREDICTED BY RF-SCORE:    0.00 PKD
ROOT
HETATM    1  C   UNL     1      -7.505   5.560  71.375  1.00  0.00    -0.098 C  
HETATM    2  C   UNL     1      -8.842   4.842  71.562  1.00  0.00    -0.152 C  
HETATM    3  C   UNL     1      -9.390   5.386  73.018  1.00  0.00    -0.142 C  
HETATM    4  C   UNL     1     -10.062   6.830  73.024  1.00  0.00    -0.212 C  
HETATM    5  C   UNL     1     -10.935   7.235  71.778  1.00  0.00    -0.256 C  
HETATM    6  C   UNL     1     -10.237   6.602  70.592  1.00  0.00    -0.215 C  
HETATM    7  C   UNL     1     -10.065   5.093  70.683  1.00  0.00    -0.309 C  
HETATM    8  C   UNL     1     -10.526   7.136  69.194  1.00  0.00    -0.219 C  
HETATM    9  C   UNL     1     -10.198   8.624  69.194  1.00  0.00    -0.215 C  
HETATM   10  C   UNL     1     -11.020   3.970  71.290  1.00  0.00     1.365 C  
HETATM   11  C   UNL     1     -11.121   9.300  70.161  1.00  0.00    -0.260 C  
HETATM   12  C   UNL     1     -10.033   2.847  71.876  1.00  0.00    -0.213 C  
HETATM   13  C   UNL     1      -8.723   3.283  71.273  1.00  0.00    -0.078 C  
HETATM   14  C   UNL     1     -11.871  10.317  69.722  1.00  0.00    -0.217 C  
HETATM   15  C   UNL     1     -11.070   8.816  71.606  1.00  0.00    -0.398 C  
HETATM   16  O   UNL     1      -7.527   2.731  71.771  1.00  0.00    -0.039 OA 
HETATM   17  C   UNL     1     -12.798  11.105  70.566  1.00  0.00    -0.213 C  
HETATM   18  C   UNL     1     -12.187   9.416  72.495  1.00  0.00     0.057 C  
HETATM   19  H   UNL     1      -7.455   1.800  71.598  1.00  0.00     0.000 HD 
HETATM   20  C   UNL     1     -13.133  10.472  71.911  1.00  0.00    -0.567 C  
ENDROOT
BRANCH  13  21
HETATM   21  C   UNL     1      -8.847   2.789  69.815  1.00  0.00    -0.146 C  
HETATM   22  C   UNL     1      -9.275   2.318  68.810  1.00  0.00    -0.222 C  
ENDBRANCH  13  21
TORSDOF 1
ENDMDL
MODEL      119
REMARK 921   NORMALIZED FREE ENERGY PREDICTED BY IDOCK:   -2.38 KCAL/MOL
REMARK 922        TOTAL FREE ENERGY PREDICTED BY IDOCK:   -2.74 KCAL/MOL
REMARK 923 INTER-LIGAND FREE ENERGY PREDICTED BY IDOCK:   -2.51 KCAL/MOL
REMARK 924 INTRA-LIGAND FREE ENERGY PREDICTED BY IDOCK:   -0.22 KCAL/MOL
REMARK 927      BINDING AFFINITY PREDICTED BY RF-SCORE:    0.00 PKD
ROOT
HETATM    1  C   UNL     1      -9.253  17.170  68.920  1.00  0.00    -0.200 C  
HETATM    2  C   UNL     1      -8.309  16.014  68.587  1.00  0.00    -0.203 C  
HETATM    3  C   UNL     1      -9.012  14.704  69.298  1.00  0.00     0.044 C  
HETATM    4  C   UNL     1     -10.235  14.049  68.516  1.00  0.00    -0.237 C  
HETATM    5  C   UNL     1     -10.159  14.007  66.944  1.00  0.00    -0.259 C  
HETATM    6  C   UNL     1      -9.461  15.294  66.554  1.00  0.00    -0.308 C  
HETATM    7  C   UNL     1      -8.085  15.487  67.173  1.00  0.00    -0.249 C  
HETATM    8  C   UNL     1      -9.607  15.809  65.127  1.00  0.00     0.332 C  
HETATM    9  C   UNL     1     -11.095  15.977  64.848  1.00  0.00    -0.381 C  
HETATM   10  C   UNL     1      -6.931  14.436  67.498  1.00  0.00    -0.182 C  
HETATM   11  C   UNL     1     -11.736  14.626  64.933  1.00  0.00    -0.403 C  
HETATM   12  C   UNL     1      -6.211  14.994  68.819  1.00  0.00    -0.083 C  
HETATM   13  C   UNL     1      -6.792  16.382  68.891  1.00  0.00    -0.180 C  
HETATM   14  C   UNL     1     -12.440  14.187  63.884  1.00  0.00    -0.115 C  
HETATM   15  C   UNL     1     -11.595  13.885  66.258  1.00  0.00    -0.378 C  
HETATM   16  O   UNL     1      -6.643  17.123  70.079  1.00  0.00     0.001 OA 
HETATM   17  C   UNL     1     -13.161  12.894  63.835  1.00  0.00     0.325 C  
HETATM   18  C   UNL     1     -12.103  12.423  66.202  1.00  0.00    -0.295 C  
HETATM   19  H   UNL     1      -5.737  17.343  70.260  1.00  0.00     0.000 HD 
HETATM   20  C   UNL     1     -12.769  11.902  64.924  1.00  0.00     0.539 C  
ENDROOT
BRANCH  13  21
HETATM   21  C   UNL     1      -5.984  17.137  67.813  1.00  0.00    -0.140 C  
HETATM   22  C   UNL     1      -5.378  17.982  67.234  1.00  0.00    -0.144 C  
ENDBRANCH  13  21
TORSDOF 1
ENDMDL
MODEL      120
REMARK 921   NORMALIZED FREE ENERGY PREDICTED BY IDOCK:   -2.22 KCAL/MOL
REMARK 922        TOTAL FREE ENERGY PREDICTED BY IDOCK:   -2.57 KCAL/MOL
REMARK 923 INTER-LIGAND FREE ENERGY PREDICTED BY IDOCK:   -2.61 KCAL/MOL
REMARK 924 INTRA-LIGAND FREE ENERGY PREDICTED BY IDOCK:    0.04 KCAL/MOL
REMARK 927      BINDING AFFINITY PREDICTED BY RF-SCORE:    0.00 PKD
ROOT
HETATM    1  C   UNL     1      -8.169   7.500  71.051  1.00  0.00    -0.108 C  
HETATM    2  C   UNL     1      -8.939   6.188  71.209  1.00  0.00    -0.140 C  
HETATM    3  C   UNL     1     -10.298   6.407  70.303  1.00  0.00    -0.252 C  
HETATM    4  C   UNL     1     -10.134   6.226  68.730  1.00  0.00    -0.191 C  
HETATM    5  C   UNL     1      -9.157   5.101  68.222  1.00  0.00    -0.128 C  
HETATM    6  C   UNL     1      -8.022   5.090  69.226  1.00  0.00    -0.079 C  
HETATM    7  C   UNL     1      -8.446   4.849  70.667  1.00  0.00    -0.111 C  
HETATM    8  C   UNL     1      -6.692   4.459  68.829  1.00  0.00    -0.046 C  
HETATM    9  C   UNL     1      -6.203   5.169  67.572  1.00  0.00    -0.038 C  
HETATM   10  C   UNL     1      -9.588   3.918  71.276  1.00  0.00    -0.241 C  
HETATM   11  C   UNL     1      -7.196   4.911  66.481  1.00  0.00    -0.077 C  
HETATM   12  C   UNL     1     -10.113   4.692  72.581  1.00  0.00    -0.224 C  
HETATM   13  C   UNL     1      -9.044   5.743  72.732  1.00  0.00    -0.133 C  
HETATM   14  C   UNL     1      -6.760   4.371  65.337  1.00  0.00    -0.052 C  
HETATM   15  C   UNL     1      -8.629   5.364  66.739  1.00  0.00    -0.110 C  
HETATM   16  O   UNL     1      -9.276   6.830  73.598  1.00  0.00    -0.138 OA 
HETATM   17  C   UNL     1      -7.612   4.096  64.158  1.00  0.00    -0.071 C  
HETATM   18  C   UNL     1      -9.629   4.883  65.659  1.00  0.00    -0.168 C  
HETATM   19  H   UNL     1      -9.338   6.564  74.508  1.00  0.00     0.000 HD 
HETATM   20  C   UNL     1      -9.112   4.128  64.431  1.00  0.00    -0.147 C  
ENDROOT
BRANCH  13  21
HETATM   21  C   UNL     1      -7.877   4.944  73.353  1.00  0.00    -0.096 C  
HETATM   22  C   UNL     1      -6.863   4.337  73.485  1.00  0.00    -0.059 C  
ENDBRANCH  13  21
TORSDOF 1
ENDMDL
MODEL      121
REMARK 921   NORMALIZED FREE ENERGY PREDICTED BY IDOCK:   -2.12 KCAL/MOL
REMARK 922        TOTAL FREE ENERGY PREDICTED BY IDOCK:   -2.47 KCAL/MOL
REMARK 923 INTER-LIGAND FREE ENERGY PREDICTED BY IDOCK:   -2.24 KCAL/MOL
REMARK 924 INTRA-LIGAND FREE ENERGY PREDICTED BY IDOCK:   -0.22 KCAL/MOL
REMARK 927      BINDING AFFINITY PREDICTED BY RF-SCORE:    0.00 PKD
ROOT
HETATM    1  C   UNL     1      -8.716   8.875  71.224  1.00  0.00    -0.279 C  
HETATM    2  C   UNL     1      -7.402   8.107  71.071  1.00  0.00    -0.058 C  
HETATM    3  C   UNL     1      -7.758   6.591  71.613  1.00  0.00    -0.099 C  
HETATM    4  C   UNL     1      -8.536   5.644  70.598  1.00  0.00    -0.130 C  
HETATM    5  C   UNL     1      -8.164   5.746  69.071  1.00  0.00    -0.101 C  
HETATM    6  C   UNL     1      -7.864   7.213  68.842  1.00  0.00    -0.115 C  
HETATM    7  C   UNL     1      -6.764   7.786  69.723  1.00  0.00    -0.039 C  
HETATM    8  C   UNL     1      -7.906   7.762  67.420  1.00  0.00    -0.118 C  
HETATM    9  C   UNL     1      -9.290   7.470  66.855  1.00  0.00    -0.197 C  
HETATM   10  C   UNL     1      -5.411   7.134  70.257  1.00  0.00    -0.023 C  
HETATM   11  C   UNL     1      -9.460   5.982  66.796  1.00  0.00    -0.158 C  
HETATM   12  C   UNL     1      -5.166   7.790  71.701  1.00  0.00    -0.034 C  
HETATM   13  C   UNL     1      -6.171   8.913  71.673  1.00  0.00    -0.074 C  
HETATM   14  C   UNL     1      -9.778   5.423  65.623  1.00  0.00     0.023 C  
HETATM   15  C   UNL     1      -9.330   5.227  68.114  1.00  0.00    -0.139 C  
HETATM   16  O   UNL     1      -6.491   9.571  72.876  1.00  0.00    -0.124 OA 
HETATM   17  C   UNL     1     -10.016   3.976  65.418  1.00  0.00    -0.182 C  
HETATM   18  C   UNL     1      -9.315   3.688  67.941  1.00  0.00    -0.241 C  
HETATM   19  H   UNL     1      -5.756  10.053  73.235  1.00  0.00     0.000 HD 
HETATM   20  C   UNL     1      -9.529   3.081  66.551  1.00  0.00    -0.029 C  
ENDROOT
BRANCH  13  21
HETATM   21  C   UNL     1      -5.470   9.964  70.785  1.00  0.00    -0.061 C  
HETATM   22  C   UNL     1      -5.142  10.997  70.295  1.00  0.00    -0.064 C  
ENDBRANCH  13  21
TORSDOF 1
ENDMDL
MODEL      122
REMARK 921   NORMALIZED FREE ENERGY PREDICTED BY IDOCK:   -2.11 KCAL/MOL
REMARK 922        TOTAL FREE ENERGY PREDICTED BY IDOCK:   -2.46 KCAL/MOL
REMARK 923 INTER-LIGAND FREE ENERGY PREDICTED BY IDOCK:   -2.24 KCAL/MOL
REMARK 924 INTRA-LIGAND FREE ENERGY PREDICTED BY IDOCK:   -0.22 KCAL/MOL
REMARK 927      BINDING AFFINITY PREDICTED BY RF-SCORE:    0.00 PKD
ROOT
HETATM    1  C   UNL     1      -8.961   8.908  70.186  1.00  0.00    -0.183 C  
HETATM    2  C   UNL     1      -7.734   8.914  69.272  1.00  0.00    -0.094 C  
HETATM    3  C   UNL     1      -6.732   7.788  69.938  1.00  0.00    -0.042 C  
HETATM    4  C   UNL     1      -7.073   6.265  69.621  1.00  0.00    -0.073 C  
HETATM    5  C   UNL     1      -7.616   5.922  68.183  1.00  0.00    -0.089 C  
HETATM    6  C   UNL     1      -8.477   7.108  67.800  1.00  0.00    -0.120 C  
HETATM    7  C   UNL     1      -7.761   8.450  67.819  1.00  0.00    -0.103 C  
HETATM    8  C   UNL     1      -9.511   6.942  66.693  1.00  0.00    -0.209 C  
HETATM    9  C   UNL     1     -10.435   5.799  67.094  1.00  0.00    -0.337 C  
HETATM   10  C   UNL     1      -6.266   8.839  67.424  1.00  0.00    -0.056 C  
HETATM   11  C   UNL     1      -9.615   4.548  67.169  1.00  0.00    -0.209 C  
HETATM   12  C   UNL     1      -5.868  10.042  68.410  1.00  0.00    -0.042 C  
HETATM   13  C   UNL     1      -7.216  10.390  68.986  1.00  0.00    -0.088 C  
HETATM   14  C   UNL     1      -9.995   3.491  66.442  1.00  0.00     0.240 C  
HETATM   15  C   UNL     1      -8.442   4.557  68.144  1.00  0.00    -0.099 C  
HETATM   16  O   UNL     1      -7.277  11.215  70.127  1.00  0.00    -0.434 OA 
HETATM   17  C   UNL     1      -9.310   2.179  66.443  1.00  0.00     0.097 C  
HETATM   18  C   UNL     1      -7.528   3.314  68.017  1.00  0.00    -0.054 C  
HETATM   19  H   UNL     1      -6.967  12.096  69.956  1.00  0.00     0.000 HD 
HETATM   20  C   UNL     1      -7.914   2.186  67.055  1.00  0.00    -0.067 C  
ENDROOT
BRANCH  13  21
HETATM   21  C   UNL     1      -7.869  11.195  67.842  1.00  0.00    -0.111 C  
HETATM   22  C   UNL     1      -8.553  11.961  67.241  1.00  0.00    -0.170 C  
ENDBRANCH  13  21
TORSDOF 1
ENDMDL
MODEL      123
REMARK 921   NORMALIZED FREE ENERGY PREDICTED BY IDOCK:   -1.58 KCAL/MOL
REMARK 922        TOTAL FREE ENERGY PREDICTED BY IDOCK:   -1.90 KCAL/MOL
REMARK 923 INTER-LIGAND FREE ENERGY PREDICTED BY IDOCK:   -1.73 KCAL/MOL
REMARK 924 INTRA-LIGAND FREE ENERGY PREDICTED BY IDOCK:   -0.17 KCAL/MOL
REMARK 927      BINDING AFFINITY PREDICTED BY RF-SCORE:    0.00 PKD
ROOT
HETATM    1  C   UNL     1      -9.524   9.540  71.196  1.00  0.00    -0.032 C  
HETATM    2  C   UNL     1      -8.157   8.860  71.280  1.00  0.00    -0.185 C  
HETATM    3  C   UNL     1      -7.900   8.675  72.898  1.00  0.00     0.035 C  
HETATM    4  C   UNL     1      -8.650   7.457  73.597  1.00  0.00    -0.216 C  
HETATM    5  C   UNL     1      -8.794   6.121  72.778  1.00  0.00    -0.123 C  
HETATM    6  C   UNL     1      -8.996   6.564  71.343  1.00  0.00    -0.140 C  
HETATM    7  C   UNL     1      -7.887   7.442  70.783  1.00  0.00    -0.096 C  
HETATM    8  C   UNL     1      -9.611   5.586  70.349  1.00  0.00    -0.224 C  
HETATM    9  C   UNL     1     -10.963   5.154  70.903  1.00  0.00     0.090 C  
HETATM   10  C   UNL     1      -6.312   7.409  71.021  1.00  0.00    -0.036 C  
HETATM   11  C   UNL     1     -10.722   4.431  72.193  1.00  0.00    -0.019 C  
HETATM   12  C   UNL     1      -5.839   8.942  70.936  1.00  0.00    -0.039 C  
HETATM   13  C   UNL     1      -7.077   9.585  70.366  1.00  0.00    -0.120 C  
HETATM   14  C   UNL     1     -11.207   3.192  72.330  1.00  0.00     0.750 C  
HETATM   15  C   UNL     1     -10.001   5.209  73.288  1.00  0.00    -0.182 C  
HETATM   16  O   UNL     1      -7.193  10.988  70.403  1.00  0.00    -0.423 OA 
HETATM   17  C   UNL     1     -11.085   2.371  73.556  1.00  0.00    -0.312 C  
HETATM   18  C   UNL     1      -9.611   4.337  74.507  1.00  0.00    -0.143 C  
HETATM   19  H   UNL     1      -6.547  11.421  69.856  1.00  0.00     0.000 HD 
HETATM   20  C   UNL     1     -10.053   2.871  74.560  1.00  0.00    -0.188 C  
ENDROOT
BRANCH  13  21
HETATM   21  C   UNL     1      -6.993   9.202  68.873  1.00  0.00    -0.064 C  
HETATM   22  C   UNL     1      -6.587   9.021  67.770  1.00  0.00    -0.061 C  
ENDBRANCH  13  21
TORSDOF 1
ENDMDL
MODEL      124
REMARK 921   NORMALIZED FREE ENERGY PREDICTED BY IDOCK:   -1.14 KCAL/MOL
REMARK 922        TOTAL FREE ENERGY PREDICTED BY IDOCK:   -1.44 KCAL/MOL
REMARK 923 INTER-LIGAND FREE ENERGY PREDICTED BY IDOCK:   -1.22 KCAL/MOL
REMARK 924 INTRA-LIGAND FREE ENERGY PREDICTED BY IDOCK:   -0.22 KCAL/MOL
REMARK 927      BINDING AFFINITY PREDICTED BY RF-SCORE:    0.00 PKD
ROOT
HETATM    1  C   UNL     1      -6.546   4.836  69.140  1.00  0.00    -0.044 C  
HETATM    2  C   UNL     1      -6.929   5.315  70.541  1.00  0.00    -0.052 C  
HETATM    3  C   UNL     1      -5.546   5.993  71.126  1.00  0.00    -0.018 C  
HETATM    4  C   UNL     1      -5.210   7.464  70.616  1.00  0.00    -0.023 C  
HETATM    5  C   UNL     1      -6.413   8.457  70.407  1.00  0.00    -0.035 C  
HETATM    6  C   UNL     1      -7.546   7.592  69.894  1.00  0.00    -0.093 C  
HETATM    7  C   UNL     1      -7.931   6.436  70.805  1.00  0.00    -0.111 C  
HETATM    8  C   UNL     1      -8.709   8.255  69.165  1.00  0.00    -0.143 C  
HETATM    9  C   UNL     1      -8.132   9.026  67.983  1.00  0.00    -0.105 C  
HETATM   10  C   UNL     1      -7.978   6.334  72.395  1.00  0.00    -0.104 C  
HETATM   11  C   UNL     1      -7.237  10.098  68.525  1.00  0.00    -0.080 C  
HETATM   12  C   UNL     1      -7.592   4.812  72.732  1.00  0.00    -0.091 C  
HETATM   13  C   UNL     1      -7.690   4.188  71.365  1.00  0.00    -0.065 C  
HETATM   14  C   UNL     1      -7.470  11.365  68.165  1.00  0.00    -0.100 C  
HETATM   15  C   UNL     1      -6.070   9.640  69.393  1.00  0.00    -0.036 C  
HETATM   16  O   UNL     1      -7.143   2.907  71.160  1.00  0.00    -0.032 OA 
HETATM   17  C   UNL     1      -6.650  12.524  68.586  1.00  0.00    -0.083 C  
HETATM   18  C   UNL     1      -5.317  10.808  70.077  1.00  0.00    -0.045 C  
HETATM   19  H   UNL     1      -7.598   2.233  71.652  1.00  0.00     0.000 HD 
HETATM   20  C   UNL     1      -5.714  12.253  69.758  1.00  0.00    -0.112 C  
ENDROOT
BRANCH  13  21
HETATM   21  C   UNL     1      -9.216   4.036  71.177  1.00  0.00    -0.196 C  
HETATM   22  C   UNL     1     -10.280   3.656  70.806  1.00  0.00     0.354 C  
ENDBRANCH  13  21
TORSDOF 1
ENDMDL
MODEL      125
REMARK 921   NORMALIZED FREE ENERGY PREDICTED BY IDOCK:   -0.77 KCAL/MOL
REMARK 922        TOTAL FREE ENERGY PREDICTED BY IDOCK:   -1.04 KCAL/MOL
REMARK 923 INTER-LIGAND FREE ENERGY PREDICTED BY IDOCK:   -0.81 KCAL/MOL
REMARK 924 INTRA-LIGAND FREE ENERGY PREDICTED BY IDOCK:   -0.22 KCAL/MOL
REMARK 927      BINDING AFFINITY PREDICTED BY RF-SCORE:    0.00 PKD
ROOT
HETATM    1  C   UNL     1      -7.432   9.853  66.507  1.00  0.00    -0.100 C  
HETATM    2  C   UNL     1      -8.025   9.986  65.103  1.00  0.00    -0.145 C  
HETATM    3  C   UNL     1      -6.729   9.801  64.101  1.00  0.00    -0.120 C  
HETATM    4  C   UNL     1      -6.239   8.307  63.851  1.00  0.00    -0.067 C  
HETATM    5  C   UNL     1      -7.339   7.185  63.749  1.00  0.00    -0.089 C  
HETATM    6  C   UNL     1      -8.409   7.599  64.738  1.00  0.00    -0.034 C  
HETATM    7  C   UNL     1      -9.000   8.980  64.499  1.00  0.00    -0.069 C  
HETATM    8  C   UNL     1      -9.396   6.551  65.240  1.00  0.00     0.568 C  
HETATM    9  C   UNL     1      -8.588   5.420  65.865  1.00  0.00    -0.131 C  
HETATM   10  C   UNL     1      -9.322   9.755  63.144  1.00  0.00    -0.125 C  
HETATM   11  C   UNL     1      -7.747   4.804  64.789  1.00  0.00    -0.078 C  
HETATM   12  C   UNL     1      -9.075  11.306  63.475  1.00  0.00    -0.080 C  
HETATM   13  C   UNL     1      -8.969  11.259  64.977  1.00  0.00    -0.005 C  
HETATM   14  C   UNL     1      -7.852   3.489  64.572  1.00  0.00    -0.085 C  
HETATM   15  C   UNL     1      -6.769   5.729  64.073  1.00  0.00    -0.037 C  
HETATM   16  O   UNL     1      -8.459  12.381  65.659  1.00  0.00     0.042 OA 
HETATM   17  C   UNL     1      -7.060   2.734  63.575  1.00  0.00    -0.044 C  
HETATM   18  C   UNL     1      -6.087   5.073  62.848  1.00  0.00    -0.021 C  
HETATM   19  H   UNL     1      -9.024  13.140  65.584  1.00  0.00     0.000 HD 
HETATM   20  C   UNL     1      -6.352   3.596  62.536  1.00  0.00    -0.021 C  
ENDROOT
BRANCH  13  21
HETATM   21  C   UNL     1     -10.446  11.130  65.411  1.00  0.00    -0.321 C  
HETATM   22  C   UNL     1     -11.499  11.337  65.924  1.00  0.00     0.149 C  
ENDBRANCH  13  21
TORSDOF 1
ENDMDL
MODEL      126
REMARK 921   NORMALIZED FREE ENERGY PREDICTED BY IDOCK:   -0.59 KCAL/MOL
REMARK 922        TOTAL FREE ENERGY PREDICTED BY IDOCK:   -0.85 KCAL/MOL
REMARK 923 INTER-LIGAND FREE ENERGY PREDICTED BY IDOCK:   -0.88 KCAL/MOL
REMARK 924 INTRA-LIGAND FREE ENERGY PREDICTED BY IDOCK:    0.03 KCAL/MOL
REMARK 927      BINDING AFFINITY PREDICTED BY RF-SCORE:    0.00 PKD
ROOT
HETATM    1  C   UNL     1     -10.399   4.926  71.158  1.00  0.00    -0.222 C  
HETATM    2  C   UNL     1      -9.777   4.601  69.798  1.00  0.00    -0.280 C  
HETATM    3  C   UNL     1     -11.019   4.793  68.732  1.00  0.00     1.450 C  
HETATM    4  C   UNL     1     -11.368   6.289  68.317  1.00  0.00    -0.071 C  
HETATM    5  C   UNL     1     -10.172   7.299  68.150  1.00  0.00    -0.222 C  
HETATM    6  C   UNL     1      -9.174   6.899  69.216  1.00  0.00    -0.139 C  
HETATM    7  C   UNL     1      -8.698   5.456  69.138  1.00  0.00    -0.104 C  
HETATM    8  C   UNL     1      -8.115   7.906  69.651  1.00  0.00    -0.117 C  
HETATM    9  C   UNL     1      -8.839   9.158  70.130  1.00  0.00    -0.215 C  
HETATM   10  C   UNL     1      -8.403   4.523  67.879  1.00  0.00    -0.098 C  
HETATM   11  C   UNL     1      -9.590   9.730  68.966  1.00  0.00    -0.177 C  
HETATM   12  C   UNL     1      -8.795   3.040  68.351  1.00  0.00    -0.167 C  
HETATM   13  C   UNL     1      -8.943   3.248  69.836  1.00  0.00    -0.108 C  
HETATM   14  C   UNL     1      -9.363  11.003  68.625  1.00  0.00    -0.196 C  
HETATM   15  C   UNL     1     -10.622   8.823  68.306  1.00  0.00    -0.194 C  
HETATM   16  O   UNL     1      -9.571   2.248  70.604  1.00  0.00    -0.135 OA 
HETATM   17  C   UNL     1     -10.055  11.717  67.528  1.00  0.00    -0.209 C  
HETATM   18  C   UNL     1     -11.205   9.406  66.996  1.00  0.00     0.589 C  
HETATM   19  H   UNL     1      -9.073   1.440  70.627  1.00  0.00     0.000 HD 
HETATM   20  C   UNL     1     -10.802  10.816  66.551  1.00  0.00    -0.196 C  
ENDROOT
BRANCH  13  21
HETATM   21  C   UNL     1      -7.475   3.295  70.314  1.00  0.00    -0.040 C  
HETATM   22  C   UNL     1      -6.417   3.688  70.687  1.00  0.00    -0.031 C  
ENDBRANCH  13  21
TORSDOF 1
ENDMDL
MODEL      127
REMARK 921   NORMALIZED FREE ENERGY PREDICTED BY IDOCK:   -0.57 KCAL/MOL
REMARK 922        TOTAL FREE ENERGY PREDICTED BY IDOCK:   -0.82 KCAL/MOL
REMARK 923 INTER-LIGAND FREE ENERGY PREDICTED BY IDOCK:   -0.81 KCAL/MOL
REMARK 924 INTRA-LIGAND FREE ENERGY PREDICTED BY IDOCK:   -0.02 KCAL/MOL
REMARK 927      BINDING AFFINITY PREDICTED BY RF-SCORE:    0.00 PKD
ROOT
HETATM    1  C   UNL     1     -13.229  14.542  69.333  1.00  0.00     1.436 C  
HETATM    2  C   UNL     1     -11.796  14.543  69.869  1.00  0.00    -0.373 C  
HETATM    3  C   UNL     1     -11.668  13.112  70.675  1.00  0.00     0.093 C  
HETATM    4  C   UNL     1     -11.429  11.817  69.781  1.00  0.00    -0.320 C  
HETATM    5  C   UNL     1     -10.505  11.965  68.514  1.00  0.00    -0.240 C  
HETATM    6  C   UNL     1     -10.795  13.353  67.982  1.00  0.00    -0.264 C  
HETATM    7  C   UNL     1     -10.561  14.480  68.975  1.00  0.00    -0.250 C  
HETATM    8  C   UNL     1     -10.436  13.679  66.537  1.00  0.00    -0.281 C  
HETATM    9  C   UNL     1     -11.153  12.673  65.645  1.00  0.00    -0.327 C  
HETATM   10  C   UNL     1      -9.450  14.660  70.104  1.00  0.00     0.832 C  
HETATM   11  C   UNL     1     -10.625  11.309  65.970  1.00  0.00    -0.314 C  
HETATM   12  C   UNL     1     -10.175  15.470  71.286  1.00  0.00     1.026 C  
HETATM   13  C   UNL     1     -11.435  15.914  70.590  1.00  0.00    -0.400 C  
HETATM   14  C   UNL     1     -10.119  10.568  64.978  1.00  0.00    -0.390 C  
HETATM   15  C   UNL     1     -10.781  10.842  67.413  1.00  0.00    -0.305 C  
HETATM   16  O   UNL     1     -12.500  16.415  71.363  1.00  0.00    -0.459 OA 
HETATM   17  C   UNL     1      -9.598   9.192  65.137  1.00  0.00     0.000 C  
HETATM   18  C   UNL     1     -10.035   9.519  67.715  1.00  0.00    -0.216 C  
HETATM   19  H   UNL     1     -12.284  17.234  71.793  1.00  0.00     0.000 HD 
HETATM   20  C   UNL     1      -9.331   8.772  66.578  1.00  0.00    -0.260 C  
ENDROOT
BRANCH  13  21
HETATM   21  C   UNL     1     -10.939  17.095  69.727  1.00  0.00     0.344 C  
HETATM   22  C   UNL     1     -10.655  17.778  68.796  1.00  0.00    -0.135 C  
ENDBRANCH  13  21
TORSDOF 1
ENDMDL
MODEL      128
REMARK 921   NORMALIZED FREE ENERGY PREDICTED BY IDOCK:    1.13 KCAL/MOL
REMARK 922        TOTAL FREE ENERGY PREDICTED BY IDOCK:    0.97 KCAL/MOL
REMARK 923 INTER-LIGAND FREE ENERGY PREDICTED BY IDOCK:    1.02 KCAL/MOL
REMARK 924 INTRA-LIGAND FREE ENERGY PREDICTED BY IDOCK:   -0.05 KCAL/MOL
REMARK 927      BINDING AFFINITY PREDICTED BY RF-SCORE:    0.00 PKD
ROOT
HETATM    1  C   UNL     1      -5.129   9.006  68.805  1.00  0.00    -0.034 C  
HETATM    2  C   UNL     1      -6.612   9.132  68.450  1.00  0.00    -0.059 C  
HETATM    3  C   UNL     1      -6.646   8.976  66.810  1.00  0.00    -0.064 C  
HETATM    4  C   UNL     1      -6.542   7.494  66.239  1.00  0.00    -0.049 C  
HETATM    5  C   UNL     1      -7.265   6.349  67.043  1.00  0.00    -0.074 C  
HETATM    6  C   UNL     1      -7.109   6.738  68.498  1.00  0.00    -0.083 C  
HETATM    7  C   UNL     1      -7.667   8.107  68.858  1.00  0.00    -0.103 C  
HETATM    8  C   UNL     1      -7.281   5.668  69.570  1.00  0.00    -0.066 C  
HETATM    9  C   UNL     1      -6.287   4.552  69.271  1.00  0.00    -0.031 C  
HETATM   10  C   UNL     1      -8.956   8.879  68.326  1.00  0.00    -0.137 C  
HETATM   11  C   UNL     1      -6.647   3.958  67.944  1.00  0.00    -0.042 C  
HETATM   12  C   UNL     1      -8.558  10.434  68.353  1.00  0.00    -0.128 C  
HETATM   13  C   UNL     1      -7.287  10.385  69.159  1.00  0.00    -0.102 C  
HETATM   14  C   UNL     1      -6.871   2.641  67.875  1.00  0.00    -0.048 C  
HETATM   15  C   UNL     1      -6.652   4.905  66.749  1.00  0.00    -0.050 C  
HETATM   16  O   UNL     1      -6.446  11.514  69.175  1.00  0.00    -0.074 OA 
HETATM   17  C   UNL     1      -7.196   1.906  66.631  1.00  0.00    -0.055 C  
HETATM   18  C   UNL     1      -7.226   4.267  65.461  1.00  0.00    -0.068 C  
HETATM   19  H   UNL     1      -6.849  12.263  69.599  1.00  0.00     0.000 HD 
HETATM   20  C   UNL     1      -7.620   2.786  65.461  1.00  0.00    -0.076 C  
ENDROOT
BRANCH  13  21
HETATM   21  C   UNL     1      -7.813  10.224  70.602  1.00  0.00     0.824 C  
HETATM   22  C   UNL     1      -8.005   9.805  71.699  1.00  0.00     1.538 C  
ENDBRANCH  13  21
TORSDOF 1
ENDMDL
MODEL      129
REMARK 921   NORMALIZED FREE ENERGY PREDICTED BY IDOCK:    1.26 KCAL/MOL
REMARK 922        TOTAL FREE ENERGY PREDICTED BY IDOCK:    1.10 KCAL/MOL
REMARK 923 INTER-LIGAND FREE ENERGY PREDICTED BY IDOCK:    1.09 KCAL/MOL
REMARK 924 INTRA-LIGAND FREE ENERGY PREDICTED BY IDOCK:    0.02 KCAL/MOL
REMARK 927      BINDING AFFINITY PREDICTED BY RF-SCORE:    0.00 PKD
ROOT
HETATM    1  C   UNL     1      -7.097  11.207  66.819  1.00  0.00    -0.139 C  
HETATM    2  C   UNL     1      -8.395  10.511  67.231  1.00  0.00    -0.122 C  
HETATM    3  C   UNL     1      -8.418  10.644  68.873  1.00  0.00    -0.154 C  
HETATM    4  C   UNL     1      -8.878  12.050  69.462  1.00  0.00     1.347 C  
HETATM    5  C   UNL     1     -10.026  12.818  68.705  1.00  0.00    -0.099 C  
HETATM    6  C   UNL     1      -9.792  12.519  67.239  1.00  0.00    -0.204 C  
HETATM    7  C   UNL     1      -9.784  11.040  66.881  1.00  0.00    -0.215 C  
HETATM    8  C   UNL     1     -10.415  13.434  66.190  1.00  0.00    -0.295 C  
HETATM    9  C   UNL     1      -9.925  14.850  66.466  1.00  0.00    -0.277 C  
HETATM   10  C   UNL     1     -10.644   9.826  67.452  1.00  0.00    -0.330 C  
HETATM   11  C   UNL     1     -10.432  15.259  67.815  1.00  0.00    -0.253 C  
HETATM   12  C   UNL     1      -9.671   8.550  67.386  1.00  0.00    -0.222 C  
HETATM   13  C   UNL     1      -8.556   9.093  66.531  1.00  0.00    -0.127 C  
HETATM   14  C   UNL     1     -11.151  16.383  67.913  1.00  0.00    -0.249 C  
HETATM   15  C   UNL     1     -10.014  14.388  68.995  1.00  0.00    -0.135 C  
HETATM   16  O   UNL     1      -7.341   8.383  66.464  1.00  0.00    -0.079 OA 
HETATM   17  C   UNL     1     -11.683  16.934  69.179  1.00  0.00     0.763 C  
HETATM   18  C   UNL     1     -10.738  14.752  70.314  1.00  0.00    -0.006 C  
HETATM   19  H   UNL     1      -7.437   7.535  66.046  1.00  0.00     0.000 HD 
HETATM   20  C   UNL     1     -11.679  15.961  70.352  1.00  0.00    -0.371 C  
ENDROOT
BRANCH  13  21
HETATM   21  C   UNL     1      -9.164   9.031  65.112  1.00  0.00    -0.159 C  
HETATM   22  C   UNL     1      -9.932   8.909  64.213  1.00  0.00     2.415 C  
ENDBRANCH  13  21
TORSDOF 1
ENDMDL
MODEL      130
REMARK 921   NORMALIZED FREE ENERGY PREDICTED BY IDOCK:    1.55 KCAL/MOL
REMARK 922        TOTAL FREE ENERGY PREDICTED BY IDOCK:    1.42 KCAL/MOL
REMARK 923 INTER-LIGAND FREE ENERGY PREDICTED BY IDOCK:    1.64 KCAL/MOL
REMARK 924 INTRA-LIGAND FREE ENERGY PREDICTED BY IDOCK:   -0.22 KCAL/MOL
REMARK 927      BINDING AFFINITY PREDICTED BY RF-SCORE:    0.00 PKD
ROOT
HETATM    1  C   UNL     1      -7.931  18.736  68.626  1.00  0.00    -0.369 C  
HETATM    2  C   UNL     1      -7.134  17.520  68.150  1.00  0.00    -0.206 C  
HETATM    3  C   UNL     1      -6.871  16.650  69.524  1.00  0.00    -0.157 C  
HETATM    4  C   UNL     1      -8.088  15.764  70.043  1.00  0.00     0.554 C  
HETATM    5  C   UNL     1      -8.994  15.063  68.962  1.00  0.00    -0.205 C  
HETATM    6  C   UNL     1      -9.057  16.047  67.812  1.00  0.00    -0.196 C  
HETATM    7  C   UNL     1      -7.706  16.442  67.233  1.00  0.00    -0.194 C  
HETATM    8  C   UNL     1     -10.184  15.920  66.793  1.00  0.00    -0.283 C  
HETATM    9  C   UNL     1     -11.502  15.999  67.553  1.00  0.00     0.051 C  
HETATM   10  C   UNL     1      -6.376  15.591  67.019  1.00  0.00     0.335 C  
HETATM   11  C   UNL     1     -11.569  14.827  68.484  1.00  0.00    -0.348 C  
HETATM   12  C   UNL     1      -5.170  16.630  67.229  1.00  0.00    -0.159 C  
HETATM   13  C   UNL     1      -5.921  17.937  67.211  1.00  0.00    -0.136 C  
HETATM   14  C   UNL     1     -12.624  14.009  68.405  1.00  0.00     0.536 C  
HETATM   15  C   UNL     1     -10.449  14.707  69.512  1.00  0.00    -0.124 C  
HETATM   16  O   UNL     1      -5.268  19.103  67.656  1.00  0.00    -0.169 OA 
HETATM   17  C   UNL     1     -12.848  12.837  69.282  1.00  0.00     1.125 C  
HETATM   18  C   UNL     1     -10.476  13.372  70.296  1.00  0.00     1.886 C  
HETATM   19  H   UNL     1      -4.544  19.352  67.095  1.00  0.00     0.000 HD 
HETATM   20  C   UNL     1     -11.624  12.383  70.067  1.00  0.00    -0.216 C  
ENDROOT
BRANCH  13  21
HETATM   21  C   UNL     1      -6.189  18.146  65.704  1.00  0.00    -0.279 C  
HETATM   22  C   UNL     1      -6.171  18.588  64.600  1.00  0.00     0.191 C  
ENDBRANCH  13  21
TORSDOF 1
ENDMDL
MODEL      131
REMARK 921   NORMALIZED FREE ENERGY PREDICTED BY IDOCK:    4.26 KCAL/MOL
REMARK 922        TOTAL FREE ENERGY PREDICTED BY IDOCK:    4.29 KCAL/MOL
REMARK 923 INTER-LIGAND FREE ENERGY PREDICTED BY IDOCK:    4.48 KCAL/MOL
REMARK 924 INTRA-LIGAND FREE ENERGY PREDICTED BY IDOCK:   -0.19 KCAL/MOL
REMARK 927      BINDING AFFINITY PREDICTED BY RF-SCORE:    0.00 PKD
ROOT
HETATM    1  C   UNL     1      -7.082  11.646  64.462  1.00  0.00     2.684 C  
HETATM    2  C   UNL     1      -6.760  10.847  65.726  1.00  0.00     0.006 C  
HETATM    3  C   UNL     1      -5.477  11.642  66.387  1.00  0.00    -0.001 C  
HETATM    4  C   UNL     1      -5.813  12.968  67.202  1.00  0.00     0.293 C  
HETATM    5  C   UNL     1      -7.134  12.983  68.059  1.00  0.00    -0.115 C  
HETATM    6  C   UNL     1      -8.130  12.179  67.251  1.00  0.00    -0.176 C  
HETATM    7  C   UNL     1      -7.693  10.757  66.929  1.00  0.00    -0.130 C  
HETATM    8  C   UNL     1      -9.619  12.349  67.534  1.00  0.00    -0.185 C  
HETATM    9  C   UNL     1      -9.954  13.825  67.361  1.00  0.00    -0.237 C  
HETATM   10  C   UNL     1      -6.862   9.703  67.789  1.00  0.00    -0.078 C  
HETATM   11  C   UNL     1      -9.183  14.597  68.388  1.00  0.00    -0.197 C  
HETATM   12  C   UNL     1      -6.018   8.856  66.718  1.00  0.00    -0.053 C  
HETATM   13  C   UNL     1      -6.682   9.285  65.435  1.00  0.00    -0.073 C  
HETATM   14  C   UNL     1      -9.856  15.400  69.220  1.00  0.00    -0.262 C  
HETATM   15  C   UNL     1      -7.665  14.460  68.349  1.00  0.00    -0.132 C  
HETATM   16  O   UNL     1      -6.050   8.994  64.211  1.00  0.00    -0.070 OA 
HETATM   17  C   UNL     1      -9.232  16.252  70.256  1.00  0.00     1.429 C  
HETATM   18  C   UNL     1      -6.958  15.119  69.558  1.00  0.00    -0.189 C  
HETATM   19  H   UNL     1      -6.004   8.062  64.037  1.00  0.00     0.000 HD 
HETATM   20  C   UNL     1      -7.783  15.906  70.581  1.00  0.00     2.103 C  
ENDROOT
BRANCH  13  21
HETATM   21  C   UNL     1      -7.990   8.464  65.446  1.00  0.00    -0.122 C  
HETATM   22  C   UNL     1      -8.759   7.557  65.455  1.00  0.00    -0.013 C  
ENDBRANCH  13  21
TORSDOF 1
ENDMDL
MODEL      132
REMARK 921   NORMALIZED FREE ENERGY PREDICTED BY IDOCK:    6.87 KCAL/MOL
REMARK 922        TOTAL FREE ENERGY PREDICTED BY IDOCK:    7.05 KCAL/MOL
REMARK 923 INTER-LIGAND FREE ENERGY PREDICTED BY IDOCK:    7.19 KCAL/MOL
REMARK 924 INTRA-LIGAND FREE ENERGY PREDICTED BY IDOCK:   -0.14 KCAL/MOL
REMARK 927      BINDING AFFINITY PREDICTED BY RF-SCORE:    0.00 PKD
ROOT
HETATM    1  C   UNL     1     -12.136  16.721  64.455  1.00  0.00     1.786 C  
HETATM    2  C   UNL     1     -11.116  15.638  64.809  1.00  0.00    -0.426 C  
HETATM    3  C   UNL     1      -9.681  16.248  64.275  1.00  0.00     4.138 C  
HETATM    4  C   UNL     1      -8.986  17.335  65.208  1.00  0.00     1.739 C  
HETATM    5  C   UNL     1      -9.101  17.140  66.766  1.00  0.00    -0.266 C  
HETATM    6  C   UNL     1     -10.481  16.557  66.984  1.00  0.00    -0.289 C  
HETATM    7  C   UNL     1     -10.751  15.257  66.240  1.00  0.00    -0.315 C  
HETATM    8  C   UNL     1     -11.113  16.652  68.368  1.00  0.00    -0.305 C  
HETATM    9  C   UNL     1     -11.158  18.126  68.753  1.00  0.00     0.918 C  
HETATM   10  C   UNL     1      -9.793  14.025  65.915  1.00  0.00    -0.302 C  
HETATM   11  C   UNL     1      -9.748  18.624  68.838  1.00  0.00    -0.363 C  
HETATM   12  C   UNL     1     -10.292  13.466  64.495  1.00  0.00    -0.394 C  
HETATM   13  C   UNL     1     -11.602  14.195  64.351  1.00  0.00    -0.362 C  
HETATM   14  C   UNL     1      -9.343  19.200  69.975  1.00  0.00     0.938 C  
HETATM   15  C   UNL     1      -8.902  18.502  67.575  1.00  0.00    -0.276 C  
HETATM   16  O   UNL     1     -12.238  14.211  63.094  1.00  0.00    -1.038 OA 
HETATM   17  C   UNL     1      -7.996  19.774  70.195  1.00  0.00     0.904 C  
HETATM   18  C   UNL     1      -7.410  18.846  67.800  1.00  0.00    -0.254 C  
HETATM   19  H   UNL     1     -12.528  13.349  62.822  1.00  0.00     0.000 HD 
HETATM   20  C   UNL     1      -6.949  19.359  69.168  1.00  0.00    -0.390 C  
ENDROOT
BRANCH  13  21
HETATM   21  C   UNL     1     -12.533  13.395  65.290  1.00  0.00    -0.532 C  
HETATM   22  C   UNL     1     -13.414  13.103  66.033  1.00  0.00     2.278 C  
ENDBRANCH  13  21
TORSDOF 1
ENDMDL
MODEL      133
REMARK 921   NORMALIZED FREE ENERGY PREDICTED BY IDOCK:   14.22 KCAL/MOL
REMARK 922        TOTAL FREE ENERGY PREDICTED BY IDOCK:   14.83 KCAL/MOL
REMARK 923 INTER-LIGAND FREE ENERGY PREDICTED BY IDOCK:   15.01 KCAL/MOL
REMARK 924 INTRA-LIGAND FREE ENERGY PREDICTED BY IDOCK:   -0.19 KCAL/MOL
REMARK 927      BINDING AFFINITY PREDICTED BY RF-SCORE:    0.00 PKD
ROOT
HETATM    1  C   UNL     1      -9.972  11.135  70.427  1.00  0.00     1.926 C  
HETATM    2  C   UNL     1      -8.695  10.703  69.704  1.00  0.00     0.132 C  
HETATM    3  C   UNL     1      -8.687  11.609  68.327  1.00  0.00    -0.163 C  
HETATM    4  C   UNL     1      -8.201  13.117  68.477  1.00  0.00    -0.076 C  
HETATM    5  C   UNL     1      -7.027  13.410  69.486  1.00  0.00     0.139 C  
HETATM    6  C   UNL     1      -7.252  12.446  70.633  1.00  0.00     3.116 C  
HETATM    7  C   UNL     1      -7.291  10.978  70.236  1.00  0.00     0.811 C  
HETATM    8  C   UNL     1      -6.596  12.735  71.978  1.00  0.00     4.252 C  
HETATM    9  C   UNL     1      -7.055  14.116  72.427  1.00  0.00     3.786 C  
HETATM   10  C   UNL     1      -6.465  10.174  69.134  1.00  0.00    -0.049 C  
HETATM   11  C   UNL     1      -6.554  15.116  71.430  1.00  0.00     1.057 C  
HETATM   12  C   UNL     1      -7.467   9.039  68.599  1.00  0.00    -0.084 C  
HETATM   13  C   UNL     1      -8.560   9.121  69.633  1.00  0.00    -0.143 C  
HETATM   14  C   UNL     1      -5.811  16.137  71.869  1.00  0.00     1.254 C  
HETATM   15  C   UNL     1      -7.005  14.925  69.986  1.00  0.00    -0.095 C  
HETATM   16  O   UNL     1      -9.790   8.484  69.376  1.00  0.00    -0.178 OA 
HETATM   17  C   UNL     1      -5.279  17.221  71.012  1.00  0.00    -0.171 C  
HETATM   18  C   UNL     1      -6.288  15.868  68.989  1.00  0.00    -0.133 C  
HETATM   19  H   UNL     1      -9.709   7.539  69.334  1.00  0.00     0.000 HD 
HETATM   20  C   UNL     1      -5.319  16.932  69.517  1.00  0.00    -0.153 C  
ENDROOT
BRANCH  13  21
HETATM   21  C   UNL     1      -7.937   8.376  70.835  1.00  0.00    -0.112 C  
HETATM   22  C   UNL     1      -7.757   7.930  71.923  1.00  0.00    -0.104 C  
ENDBRANCH  13  21
TORSDOF 1
ENDMDL
MODEL      134
REMARK 921   NORMALIZED FREE ENERGY PREDICTED BY IDOCK:   15.21 KCAL/MOL
REMARK 922        TOTAL FREE ENERGY PREDICTED BY IDOCK:   15.88 KCAL/MOL
REMARK 923 INTER-LIGAND FREE ENERGY PREDICTED BY IDOCK:   15.76 KCAL/MOL
REMARK 924 INTRA-LIGAND FREE ENERGY PREDICTED BY IDOCK:    0.12 KCAL/MOL
REMARK 927      BINDING AFFINITY PREDICTED BY RF-SCORE:    0.00 PKD
ROOT
HETATM    1  C   UNL     1     -12.231   9.214  70.987  1.00  0.00    -0.302 C  
HETATM    2  C   UNL     1     -11.239   9.636  69.902  1.00  0.00    -0.244 C  
HETATM    3  C   UNL     1      -9.804   9.775  70.702  1.00  0.00    -0.171 C  
HETATM    4  C   UNL     1      -9.032   8.417  71.006  1.00  0.00    -0.199 C  
HETATM    5  C   UNL     1      -9.092   7.282  69.916  1.00  0.00    -0.141 C  
HETATM    6  C   UNL     1     -10.483   7.383  69.327  1.00  0.00    -0.222 C  
HETATM    7  C   UNL     1     -10.831   8.741  68.735  1.00  0.00    -0.026 C  
HETATM    8  C   UNL     1     -11.055   6.185  68.576  1.00  0.00    -0.352 C  
HETATM    9  C   UNL     1     -11.030   4.993  69.524  1.00  0.00     0.839 C  
HETATM   10  C   UNL     1      -9.934   9.791  67.940  1.00  0.00    -0.196 C  
HETATM   11  C   UNL     1      -9.599   4.703  69.863  1.00  0.00    -0.261 C  
HETATM   12  C   UNL     1     -10.510  11.233  68.348  1.00  0.00    -0.219 C  
HETATM   13  C   UNL     1     -11.797  10.840  69.025  1.00  0.00    -0.254 C  
HETATM   14  C   UNL     1      -9.128   3.472  69.638  1.00  0.00    -0.204 C  
HETATM   15  C   UNL     1      -8.810   5.831  70.518  1.00  0.00    -0.144 C  
HETATM   16  O   UNL     1     -12.481  11.799  69.797  1.00  0.00    -0.132 OA 
HETATM   17  C   UNL     1      -7.753   3.026  69.957  1.00  0.00    -0.044 C  
HETATM   18  C   UNL     1      -7.298   5.527  70.650  1.00  0.00    -0.079 C  
HETATM   19  H   UNL     1     -12.814  12.518  69.273  1.00  0.00     0.000 HD 
HETATM   20  C   UNL     1      -6.764   4.152  70.235  1.00  0.00    -0.033 C  
ENDROOT
BRANCH  13  21
HETATM   21  C   UNL     1     -12.718  10.519  67.828  1.00  0.00     4.820 C  
HETATM   22  C   UNL     1     -13.148  10.056  66.820  1.00  0.00    13.322 C  
ENDBRANCH  13  21
TORSDOF 1
ENDMDL
MODEL      135
REMARK 921   NORMALIZED FREE ENERGY PREDICTED BY IDOCK:   18.51 KCAL/MOL
REMARK 922        TOTAL FREE ENERGY PREDICTED BY IDOCK:   19.37 KCAL/MOL
REMARK 923 INTER-LIGAND FREE ENERGY PREDICTED BY IDOCK:   19.27 KCAL/MOL
REMARK 924 INTRA-LIGAND FREE ENERGY PREDICTED BY IDOCK:    0.09 KCAL/MOL
REMARK 927      BINDING AFFINITY PREDICTED BY RF-SCORE:    0.00 PKD
ROOT
HETATM    1  C   UNL     1      -8.904   9.433  67.744  1.00  0.00    -0.124 C  
HETATM    2  C   UNL     1     -10.037  10.228  68.395  1.00  0.00    -0.178 C  
HETATM    3  C   UNL     1      -9.899   9.880  70.001  1.00  0.00    -0.291 C  
HETATM    4  C   UNL     1      -8.767  10.665  70.799  1.00  0.00     2.734 C  
HETATM    5  C   UNL     1      -8.507  12.167  70.407  1.00  0.00     5.113 C  
HETATM    6  C   UNL     1      -8.715  12.220  68.908  1.00  0.00     0.264 C  
HETATM    7  C   UNL     1     -10.084  11.752  68.436  1.00  0.00    -0.201 C  
HETATM    8  C   UNL     1      -8.123  13.384  68.121  1.00  0.00    -0.155 C  
HETATM    9  C   UNL     1      -6.623  13.405  68.390  1.00  0.00    -0.094 C  
HETATM   10  C   UNL     1     -11.526  11.922  69.092  1.00  0.00    -0.356 C  
HETATM   11  C   UNL     1      -6.419  13.666  69.851  1.00  0.00    -0.035 C  
HETATM   12  C   UNL     1     -12.334  10.595  68.687  1.00  0.00     0.600 C  
HETATM   13  C   UNL     1     -11.419  10.020  67.637  1.00  0.00     0.444 C  
HETATM   14  C   UNL     1      -5.654  14.702  70.213  1.00  0.00    -0.122 C  
HETATM   15  C   UNL     1      -7.048  12.669  70.817  1.00  0.00     3.073 C  
HETATM   16  O   UNL     1     -11.612   8.688  67.221  1.00  0.00     0.736 OA 
HETATM   17  C   UNL     1      -5.330  15.061  71.612  1.00  0.00    -0.019 C  
HETATM   18  C   UNL     1      -6.968  13.115  72.298  1.00  0.00     5.931 C  
HETATM   19  H   UNL     1     -12.437   8.564  66.768  1.00  0.00     0.000 HD 
HETATM   20  C   UNL     1      -6.211  14.396  72.663  1.00  0.00     0.793 C  
ENDROOT
BRANCH  13  21
HETATM   21  C   UNL     1     -11.728  10.900  66.407  1.00  0.00     0.970 C  
HETATM   22  C   UNL     1     -11.999  11.832  65.719  1.00  0.00     0.192 C  
ENDBRANCH  13  21
TORSDOF 1
ENDMDL
MODEL      136
REMARK 921   NORMALIZED FREE ENERGY PREDICTED BY IDOCK:   21.24 KCAL/MOL
REMARK 922        TOTAL FREE ENERGY PREDICTED BY IDOCK:   22.26 KCAL/MOL
REMARK 923 INTER-LIGAND FREE ENERGY PREDICTED BY IDOCK:   22.20 KCAL/MOL
REMARK 924 INTRA-LIGAND FREE ENERGY PREDICTED BY IDOCK:    0.06 KCAL/MOL
REMARK 927      BINDING AFFINITY PREDICTED BY RF-SCORE:    0.00 PKD
ROOT
HETATM    1  C   UNL     1      -7.840   9.510  65.422  1.00  0.00    -0.109 C  
HETATM    2  C   UNL     1      -8.865   9.579  64.289  1.00  0.00    -0.247 C  
HETATM    3  C   UNL     1      -8.211   8.646  63.098  1.00  0.00    -0.170 C  
HETATM    4  C   UNL     1      -8.371   7.071  63.268  1.00  0.00     0.195 C  
HETATM    5  C   UNL     1      -9.717   6.536  63.885  1.00  0.00     3.357 C  
HETATM    6  C   UNL     1     -10.108   7.570  64.920  1.00  0.00     3.677 C  
HETATM    7  C   UNL     1     -10.267   8.984  64.381  1.00  0.00     2.983 C  
HETATM    8  C   UNL     1     -11.094   7.181  66.016  1.00  0.00     2.467 C  
HETATM    9  C   UNL     1     -10.515   5.978  66.750  1.00  0.00    -0.329 C  
HETATM   10  C   UNL     1     -10.835   9.511  62.988  1.00  0.00     5.284 C  
HETATM   11  C   UNL     1     -10.419   4.845  65.773  1.00  0.00    -0.227 C  
HETATM   12  C   UNL     1      -9.991  10.838  62.662  1.00  0.00    -0.072 C  
HETATM   13  C   UNL     1      -9.317  11.074  63.989  1.00  0.00    -0.207 C  
HETATM   14  C   UNL     1     -11.019   3.689  66.077  1.00  0.00     2.309 C  
HETATM   15  C   UNL     1      -9.566   5.084  64.532  1.00  0.00     0.286 C  
HETATM   16  O   UNL     1      -8.246  11.986  64.056  1.00  0.00     1.129 OA 
HETATM   17  C   UNL     1     -10.979   2.473  65.234  1.00  0.00     2.782 C  
HETATM   18  C   UNL     1      -9.681   3.952  63.481  1.00  0.00    -0.157 C  
HETATM   19  H   UNL     1      -8.516  12.879  63.877  1.00  0.00     0.000 HD 
HETATM   20  C   UNL     1     -10.508   2.703  63.802  1.00  0.00    -0.133 C  
ENDROOT
BRANCH  13  21
HETATM   21  C   UNL     1     -10.454  11.687  64.835  1.00  0.00    -0.339 C  
HETATM   22  C   UNL     1     -11.374  11.810  65.579  1.00  0.00    -0.283 C  
ENDBRANCH  13  21
TORSDOF 1
ENDMDL
MODEL      137
REMARK 921   NORMALIZED FREE ENERGY PREDICTED BY IDOCK:   22.54 KCAL/MOL
REMARK 922        TOTAL FREE ENERGY PREDICTED BY IDOCK:   23.64 KCAL/MOL
REMARK 923 INTER-LIGAND FREE ENERGY PREDICTED BY IDOCK:   23.70 KCAL/MOL
REMARK 924 INTRA-LIGAND FREE ENERGY PREDICTED BY IDOCK:   -0.07 KCAL/MOL
REMARK 927      BINDING AFFINITY PREDICTED BY RF-SCORE:    0.00 PKD
ROOT
HETATM    1  C   UNL     1      -7.089  11.648  69.175  1.00  0.00    -0.090 C  
HETATM    2  C   UNL     1      -7.918  10.417  68.804  1.00  0.00    -0.122 C  
HETATM    3  C   UNL     1      -9.003  10.277  70.036  1.00  0.00     0.110 C  
HETATM    4  C   UNL     1     -10.261  11.252  69.982  1.00  0.00     0.866 C  
HETATM    5  C   UNL     1     -10.879  11.569  68.569  1.00  0.00    -0.254 C  
HETATM    6  C   UNL     1      -9.692  11.622  67.629  1.00  0.00    -0.186 C  
HETATM    7  C   UNL     1      -8.847  10.357  67.595  1.00  0.00    -0.124 C  
HETATM    8  C   UNL     1      -9.841  12.336  66.291  1.00  0.00    -0.254 C  
HETATM    9  C   UNL     1     -10.278  13.767  66.579  1.00  0.00    -0.284 C  
HETATM   10  C   UNL     1      -9.264   8.823  67.700  1.00  0.00    -0.148 C  
HETATM   11  C   UNL     1     -11.620  13.715  67.242  1.00  0.00    -0.387 C  
HETATM   12  C   UNL     1      -8.042   8.102  68.452  1.00  0.00    -0.128 C  
HETATM   13  C   UNL     1      -6.998   9.187  68.392  1.00  0.00    -0.068 C  
HETATM   14  C   UNL     1     -12.629  14.402  66.695  1.00  0.00     0.078 C  
HETATM   15  C   UNL     1     -11.707  12.934  68.549  1.00  0.00    -0.374 C  
HETATM   16  O   UNL     1      -5.852   9.074  69.202  1.00  0.00    -0.038 OA 
HETATM   17  C   UNL     1     -13.997  14.479  67.256  1.00  0.00     8.595 C  
HETATM   18  C   UNL     1     -13.156  12.755  69.063  1.00  0.00     2.269 C  
HETATM   19  H   UNL     1      -5.302   8.339  68.956  1.00  0.00     0.000 HD 
HETATM   20  C   UNL     1     -14.312  13.433  68.319  1.00  0.00    14.367 C  
ENDROOT
BRANCH  13  21
HETATM   21  C   UNL     1      -6.501   9.090  66.933  1.00  0.00    -0.064 C  
HETATM   22  C   UNL     1      -6.187   9.373  65.821  1.00  0.00    -0.060 C  
ENDBRANCH  13  21
TORSDOF 1
ENDMDL
MODEL      138
REMARK 921   NORMALIZED FREE ENERGY PREDICTED BY IDOCK:   25.87 KCAL/MOL
REMARK 922        TOTAL FREE ENERGY PREDICTED BY IDOCK:   27.16 KCAL/MOL
REMARK 923 INTER-LIGAND FREE ENERGY PREDICTED BY IDOCK:   27.38 KCAL/MOL
REMARK 924 INTRA-LIGAND FREE ENERGY PREDICTED BY IDOCK:   -0.22 KCAL/MOL
REMARK 927      BINDING AFFINITY PREDICTED BY RF-SCORE:    0.00 PKD
ROOT
HETATM    1  C   UNL     1      -8.704  11.152  72.648  1.00  0.00    16.684 C  
HETATM    2  C   UNL     1      -7.430  10.510  72.097  1.00  0.00     5.140 C  
HETATM    3  C   UNL     1      -7.081   9.317  73.179  1.00  0.00     0.827 C  
HETATM    4  C   UNL     1      -7.924   7.973  73.044  1.00  0.00    -0.207 C  
HETATM    5  C   UNL     1      -8.292   7.484  71.594  1.00  0.00    -0.114 C  
HETATM    6  C   UNL     1      -8.542   8.755  70.807  1.00  0.00    -0.218 C  
HETATM    7  C   UNL     1      -7.376   9.732  70.785  1.00  0.00     0.010 C  
HETATM    8  C   UNL     1      -9.345   8.676  69.514  1.00  0.00    -0.153 C  
HETATM    9  C   UNL     1     -10.696   8.056  69.847  1.00  0.00    -0.242 C  
HETATM   10  C   UNL     1      -5.804   9.477  70.732  1.00  0.00    -0.066 C  
HETATM   11  C   UNL     1     -10.454   6.662  70.342  1.00  0.00    -0.249 C  
HETATM   12  C   UNL     1      -5.152  10.680  71.572  1.00  0.00    -0.071 C  
HETATM   13  C   UNL     1      -6.337  11.599  71.712  1.00  0.00     2.811 C  
HETATM   14  C   UNL     1     -11.078   5.651  69.729  1.00  0.00    -0.170 C  
HETATM   15  C   UNL     1      -9.563   6.519  71.571  1.00  0.00    -0.169 C  
HETATM   16  O   UNL     1      -6.274  12.654  72.642  1.00  0.00     1.396 OA 
HETATM   17  C   UNL     1     -10.970   4.229  70.128  1.00  0.00     2.371 C  
HETATM   18  C   UNL     1      -9.198   5.050  71.896  1.00  0.00    -0.164 C  
HETATM   19  H   UNL     1      -5.622  13.305  72.412  1.00  0.00     0.000 HD 
HETATM   20  C   UNL     1      -9.814   3.916  71.070  1.00  0.00    -0.219 C  
ENDROOT
BRANCH  13  21
HETATM   21  C   UNL     1      -6.411  12.262  70.318  1.00  0.00     0.296 C  
HETATM   22  C   UNL     1      -6.347  13.057  69.437  1.00  0.00    -0.111 C  
ENDBRANCH  13  21
TORSDOF 1
ENDMDL
MODEL      139
REMARK 921   NORMALIZED FREE ENERGY PREDICTED BY IDOCK:   35.86 KCAL/MOL
REMARK 922        TOTAL FREE ENERGY PREDICTED BY IDOCK:   37.73 KCAL/MOL
REMARK 923 INTER-LIGAND FREE ENERGY PREDICTED BY IDOCK:   37.80 KCAL/MOL
REMARK 924 INTRA-LIGAND FREE ENERGY PREDICTED BY IDOCK:   -0.07 KCAL/MOL
REMARK 927      BINDING AFFINITY PREDICTED BY RF-SCORE:    0.00 PKD
ROOT
HETATM    1  C   UNL     1      -7.064  11.796  69.414  1.00  0.00     0.025 C  
HETATM    2  C   UNL     1      -8.328  11.019  69.786  1.00  0.00     0.633 C  
HETATM    3  C   UNL     1      -8.536  11.337  71.390  1.00  0.00     8.952 C  
HETATM    4  C   UNL     1      -9.185  12.744  71.752  1.00  0.00    18.804 C  
HETATM    5  C   UNL     1     -10.313  13.294  70.802  1.00  0.00     4.252 C  
HETATM    6  C   UNL     1      -9.900  12.855  69.413  1.00  0.00     0.880 C  
HETATM    7  C   UNL     1      -9.715  11.354  69.246  1.00  0.00     0.183 C  
HETATM    8  C   UNL     1     -10.492  13.572  68.205  1.00  0.00    -0.249 C  
HETATM    9  C   UNL     1     -10.169  15.054  68.346  1.00  0.00    -0.228 C  
HETATM   10  C   UNL     1     -10.513  10.129  69.881  1.00  0.00    -0.322 C  
HETATM   11  C   UNL     1     -10.851  15.560  69.580  1.00  0.00    -0.285 C  
HETATM   12  C   UNL     1      -9.422   8.965  70.066  1.00  0.00    -0.189 C  
HETATM   13  C   UNL     1      -8.279   9.520  69.257  1.00  0.00    -0.112 C  
HETATM   14  C   UNL     1     -11.678  16.605  69.469  1.00  0.00     0.455 C  
HETATM   15  C   UNL     1     -10.480  14.879  70.893  1.00  0.00     0.442 C  
HETATM   16  O   UNL     1      -7.003   8.940  69.394  1.00  0.00    -0.051 OA 
HETATM   17  C   UNL     1     -12.391  17.239  70.601  1.00  0.00     5.247 C  
HETATM   18  C   UNL     1     -11.370  15.315  72.083  1.00  0.00    -0.414 C  
HETATM   19  H   UNL     1      -6.974   8.045  69.077  1.00  0.00     0.000 HD 
HETATM   20  C   UNL     1     -12.419  16.413  71.882  1.00  0.00     0.067 C  
ENDROOT
BRANCH  13  21
HETATM   21  C   UNL     1      -8.726   9.232  67.807  1.00  0.00    -0.120 C  
HETATM   22  C   UNL     1      -8.993   9.364  66.656  1.00  0.00    -0.170 C  
ENDBRANCH  13  21
TORSDOF 1
ENDMDL
MODEL      140
REMARK 921   NORMALIZED FREE ENERGY PREDICTED BY IDOCK:   47.54 KCAL/MOL
REMARK 922        TOTAL FREE ENERGY PREDICTED BY IDOCK:   50.10 KCAL/MOL
REMARK 923 INTER-LIGAND FREE ENERGY PREDICTED BY IDOCK:   50.01 KCAL/MOL
REMARK 924 INTRA-LIGAND FREE ENERGY PREDICTED BY IDOCK:    0.08 KCAL/MOL
REMARK 927      BINDING AFFINITY PREDICTED BY RF-SCORE:    0.00 PKD
ROOT
HETATM    1  C   UNL     1      -8.670  11.937  72.986  1.00  0.00    24.156 C  
HETATM    2  C   UNL     1      -7.231  12.118  72.501  1.00  0.00    10.826 C  
HETATM    3  C   UNL     1      -6.363  11.058  73.418  1.00  0.00     3.626 C  
HETATM    4  C   UNL     1      -6.417   9.531  72.972  1.00  0.00     0.746 C  
HETATM    5  C   UNL     1      -6.450   9.221  71.429  1.00  0.00    -0.039 C  
HETATM    6  C   UNL     1      -7.278  10.336  70.826  1.00  0.00     0.498 C  
HETATM    7  C   UNL     1      -6.758  11.739  71.101  1.00  0.00     2.696 C  
HETATM    8  C   UNL     1      -7.897  10.134  69.448  1.00  0.00    -0.150 C  
HETATM    9  C   UNL     1      -8.765   8.884  69.511  1.00  0.00    -0.142 C  
HETATM   10  C   UNL     1      -5.267  12.296  71.202  1.00  0.00    -0.130 C  
HETATM   11  C   UNL     1      -7.873   7.717  69.808  1.00  0.00    -0.106 C  
HETATM   12  C   UNL     1      -5.329  13.473  72.293  1.00  0.00    -0.082 C  
HETATM   13  C   UNL     1      -6.819  13.652  72.428  1.00  0.00     4.004 C  
HETATM   14  C   UNL     1      -7.890   6.673  68.972  1.00  0.00    -0.111 C  
HETATM   15  C   UNL     1      -7.066   7.786  71.099  1.00  0.00    -0.050 C  
HETATM   16  O   UNL     1      -7.319  14.398  73.513  1.00  0.00     2.429 OA 
HETATM   17  C   UNL     1      -7.097   5.437  69.154  1.00  0.00    -0.057 C  
HETATM   18  C   UNL     1      -6.024   6.648  71.233  1.00  0.00    -0.036 C  
HETATM   19  H   UNL     1      -7.073  15.314  73.469  1.00  0.00     0.000 HD 
HETATM   20  C   UNL     1      -5.966   5.546  70.171  1.00  0.00    -0.021 C  
ENDROOT
BRANCH  13  21
HETATM   21  C   UNL     1      -7.174  14.454  71.157  1.00  0.00     1.783 C  
HETATM   22  C   UNL     1      -7.454  14.737  70.037  1.00  0.00     0.171 C  
ENDBRANCH  13  21
TORSDOF 1
ENDMDL
MODEL      141
REMARK 921   NORMALIZED FREE ENERGY PREDICTED BY IDOCK:   48.05 KCAL/MOL
REMARK 922        TOTAL FREE ENERGY PREDICTED BY IDOCK:   50.64 KCAL/MOL
REMARK 923 INTER-LIGAND FREE ENERGY PREDICTED BY IDOCK:   50.86 KCAL/MOL
REMARK 924 INTRA-LIGAND FREE ENERGY PREDICTED BY IDOCK:   -0.22 KCAL/MOL
REMARK 927      BINDING AFFINITY PREDICTED BY RF-SCORE:    0.00 PKD
ROOT
HETATM    1  C   UNL     1      -8.095  11.628  68.932  1.00  0.00    -0.005 C  
HETATM    2  C   UNL     1      -9.243  10.870  69.601  1.00  0.00     0.372 C  
HETATM    3  C   UNL     1     -10.536  11.880  69.443  1.00  0.00     0.068 C  
HETATM    4  C   UNL     1     -11.252  11.893  68.021  1.00  0.00    -0.317 C  
HETATM    5  C   UNL     1     -11.362  10.527  67.246  1.00  0.00    -0.058 C  
HETATM    6  C   UNL     1     -10.079   9.791  67.571  1.00  0.00    -0.246 C  
HETATM    7  C   UNL     1      -9.827   9.570  69.055  1.00  0.00    -0.178 C  
HETATM    8  C   UNL     1      -9.630   8.652  66.663  1.00  0.00    -0.285 C  
HETATM    9  C   UNL     1      -9.508   9.210  65.250  1.00  0.00    -0.169 C  
HETATM   10  C   UNL     1     -10.836   9.252  70.247  1.00  0.00    -0.286 C  
HETATM   11  C   UNL     1     -10.869   9.660  64.813  1.00  0.00     2.887 C  
HETATM   12  C   UNL     1     -10.204   9.966  71.539  1.00  0.00     0.853 C  
HETATM   13  C   UNL     1      -8.828  10.303  71.027  1.00  0.00     2.212 C  
HETATM   14  C   UNL     1     -11.370   9.164  63.677  1.00  0.00    11.120 C  
HETATM   15  C   UNL     1     -11.547  10.721  65.673  1.00  0.00     1.073 C  
HETATM   16  O   UNL     1      -8.032  11.207  71.757  1.00  0.00     5.955 OA 
HETATM   17  C   UNL     1     -12.679   9.541  63.098  1.00  0.00    13.497 C  
HETATM   18  C   UNL     1     -13.021  10.983  65.277  1.00  0.00     5.480 C  
HETATM   19  H   UNL     1      -7.784  10.868  72.609  1.00  0.00     0.000 HD 
HETATM   20  C   UNL     1     -13.613  10.275  64.053  1.00  0.00     9.156 C  
ENDROOT
BRANCH  13  21
HETATM   21  C   UNL     1      -8.103   8.941  71.100  1.00  0.00    -0.201 C  
HETATM   22  C   UNL     1      -7.273   8.107  71.269  1.00  0.00    -0.066 C  
ENDBRANCH  13  21
TORSDOF 1
ENDMDL
MODEL      142
REMARK 921   NORMALIZED FREE ENERGY PREDICTED BY IDOCK:   55.28 KCAL/MOL
REMARK 922        TOTAL FREE ENERGY PREDICTED BY IDOCK:   58.29 KCAL/MOL
REMARK 923 INTER-LIGAND FREE ENERGY PREDICTED BY IDOCK:   58.39 KCAL/MOL
REMARK 924 INTRA-LIGAND FREE ENERGY PREDICTED BY IDOCK:   -0.10 KCAL/MOL
REMARK 927      BINDING AFFINITY PREDICTED BY RF-SCORE:    0.00 PKD
ROOT
HETATM    1  C   UNL     1     -10.236   4.518  71.782  1.00  0.00    -0.226 C  
HETATM    2  C   UNL     1     -10.243   5.349  70.498  1.00  0.00    -0.326 C  
HETATM    3  C   UNL     1     -11.764   5.980  70.435  1.00  0.00     0.030 C  
HETATM    4  C   UNL     1     -12.042   7.245  71.362  1.00  0.00    -0.370 C  
HETATM    5  C   UNL     1     -10.880   8.294  71.533  1.00  0.00    -0.308 C  
HETATM    6  C   UNL     1      -9.610   7.470  71.538  1.00  0.00    -0.171 C  
HETATM    7  C   UNL     1      -9.402   6.607  70.302  1.00  0.00    -0.160 C  
HETATM    8  C   UNL     1      -8.340   8.075  72.125  1.00  0.00    -0.188 C  
HETATM    9  C   UNL     1      -8.644   8.481  73.561  1.00  0.00    -0.028 C  
HETATM   10  C   UNL     1      -9.749   6.881  68.770  1.00  0.00    -0.137 C  
HETATM   11  C   UNL     1      -9.704   9.539  73.527  1.00  0.00     5.610 C  
HETATM   12  C   UNL     1     -10.123   5.444  68.158  1.00  0.00    -0.220 C  
HETATM   13  C   UNL     1      -9.652   4.537  69.265  1.00  0.00    -0.188 C  
HETATM   14  C   UNL     1      -9.458  10.707  74.132  1.00  0.00    16.345 C  
HETATM   15  C   UNL     1     -11.024   9.163  72.864  1.00  0.00     1.579 C  
HETATM   16  O   UNL     1     -10.059   3.189  69.260  1.00  0.00     0.393 OA 
HETATM   17  C   UNL     1     -10.419  11.830  74.216  1.00  0.00    23.253 C  
HETATM   18  C   UNL     1     -11.986  10.363  72.687  1.00  0.00     2.575 C  
HETATM   19  H   UNL     1      -9.706   2.704  68.524  1.00  0.00     0.000 HD 
HETATM   20  C   UNL     1     -11.602  11.732  73.260  1.00  0.00    11.047 C  
ENDROOT
BRANCH  13  21
HETATM   21  C   UNL     1      -8.122   4.522  69.054  1.00  0.00    -0.073 C  
HETATM   22  C   UNL     1      -6.950   4.539  69.254  1.00  0.00    -0.050 C  
ENDBRANCH  13  21
TORSDOF 1
ENDMDL
MODEL      143
REMARK 921   NORMALIZED FREE ENERGY PREDICTED BY IDOCK:   58.92 KCAL/MOL
REMARK 922        TOTAL FREE ENERGY PREDICTED BY IDOCK:   62.14 KCAL/MOL
REMARK 923 INTER-LIGAND FREE ENERGY PREDICTED BY IDOCK:   62.35 KCAL/MOL
REMARK 924 INTRA-LIGAND FREE ENERGY PREDICTED BY IDOCK:   -0.21 KCAL/MOL
REMARK 927      BINDING AFFINITY PREDICTED BY RF-SCORE:    0.00 PKD
ROOT
HETATM    1  C   UNL     1     -10.429  12.272  66.366  1.00  0.00    -0.263 C  
HETATM    2  C   UNL     1      -9.292  11.251  66.295  1.00  0.00    -0.226 C  
HETATM    3  C   UNL     1      -8.838  11.046  67.866  1.00  0.00    -0.134 C  
HETATM    4  C   UNL     1      -9.759  10.094  68.749  1.00  0.00    -0.174 C  
HETATM    5  C   UNL     1     -10.377   8.824  68.052  1.00  0.00    -0.273 C  
HETATM    6  C   UNL     1     -10.682   9.268  66.636  1.00  0.00    -0.066 C  
HETATM    7  C   UNL     1      -9.486   9.800  65.861  1.00  0.00    -0.285 C  
HETATM    8  C   UNL     1     -11.681   8.466  65.811  1.00  0.00     7.827 C  
HETATM    9  C   UNL     1     -12.993   8.428  66.586  1.00  0.00    16.028 C  
HETATM   10  C   UNL     1      -7.956   9.351  65.867  1.00  0.00    -0.106 C  
HETATM   11  C   UNL     1     -12.748   7.702  67.873  1.00  0.00     8.800 C  
HETATM   12  C   UNL     1      -7.119  10.697  65.610  1.00  0.00    -0.076 C  
HETATM   13  C   UNL     1      -8.219  11.634  65.186  1.00  0.00     0.884 C  
HETATM   14  C   UNL     1     -13.512   6.643  68.163  1.00  0.00    14.532 C  
HETATM   15  C   UNL     1     -11.683   8.285  68.795  1.00  0.00     1.601 C  
HETATM   16  O   UNL     1      -7.957  13.017  65.143  1.00  0.00     2.937 OA 
HETATM   17  C   UNL     1     -13.415   5.851  69.410  1.00  0.00    10.629 C  
HETATM   18  C   UNL     1     -11.346   7.373  69.999  1.00  0.00    -0.150 C  
HETATM   19  H   UNL     1      -7.316  13.246  64.480  1.00  0.00     0.000 HD 
HETATM   20  C   UNL     1     -12.142   6.081  70.216  1.00  0.00     0.780 C  
ENDROOT
BRANCH  13  21
HETATM   21  C   UNL     1      -8.478  11.204  63.725  1.00  0.00     0.314 C  
HETATM   22  C   UNL     1      -8.393  11.091  62.544  1.00  0.00    -0.229 C  
ENDBRANCH  13  21
TORSDOF 1
ENDMDL
MODEL      144
REMARK 921   NORMALIZED FREE ENERGY PREDICTED BY IDOCK:   63.00 KCAL/MOL
REMARK 922        TOTAL FREE ENERGY PREDICTED BY IDOCK:   66.46 KCAL/MOL
REMARK 923 INTER-LIGAND FREE ENERGY PREDICTED BY IDOCK:   66.67 KCAL/MOL
REMARK 924 INTRA-LIGAND FREE ENERGY PREDICTED BY IDOCK:   -0.21 KCAL/MOL
REMARK 927      BINDING AFFINITY PREDICTED BY RF-SCORE:    0.00 PKD
ROOT
HETATM    1  C   UNL     1     -11.656  11.890  66.382  1.00  0.00    -0.315 C  
HETATM    2  C   UNL     1     -12.653  13.031  66.588  1.00  0.00     0.335 C  
HETATM    3  C   UNL     1     -14.051  12.271  67.017  1.00  0.00    13.641 C  
HETATM    4  C   UNL     1     -14.156  11.786  68.529  1.00  0.00    11.302 C  
HETATM    5  C   UNL     1     -13.519  12.706  69.637  1.00  0.00     2.873 C  
HETATM    6  C   UNL     1     -12.281  13.292  68.991  1.00  0.00    -0.156 C  
HETATM    7  C   UNL     1     -12.535  14.064  67.705  1.00  0.00     0.179 C  
HETATM    8  C   UNL     1     -11.184  13.863  69.882  1.00  0.00    -0.093 C  
HETATM    9  C   UNL     1     -10.741  12.758  70.833  1.00  0.00     3.961 C  
HETATM   10  C   UNL     1     -13.748  15.006  67.278  1.00  0.00     6.673 C  
HETATM   11  C   UNL     1     -11.912  12.394  71.694  1.00  0.00     1.199 C  
HETATM   12  C   UNL     1     -13.907  14.799  65.694  1.00  0.00     2.771 C  
HETATM   13  C   UNL     1     -12.631  14.063  65.378  1.00  0.00    -0.505 C  
HETATM   14  C   UNL     1     -11.767  12.449  73.023  1.00  0.00     7.498 C  
HETATM   15  C   UNL     1     -13.165  11.910  70.974  1.00  0.00     0.148 C  
HETATM   16  O   UNL     1     -12.503  13.427  64.128  1.00  0.00    -0.608 OA 
HETATM   17  C   UNL     1     -12.817  12.082  74.000  1.00  0.00    12.032 C  
HETATM   18  C   UNL     1     -14.388  11.750  71.911  1.00  0.00     1.666 C  
HETATM   19  H   UNL     1     -12.489  14.044  63.406  1.00  0.00     0.000 HD 
HETATM   20  C   UNL     1     -14.222  11.972  73.417  1.00  0.00     4.684 C  
ENDROOT
BRANCH  13  21
HETATM   21  C   UNL     1     -11.581  15.196  65.391  1.00  0.00    -0.171 C  
HETATM   22  C   UNL     1     -10.568  15.804  65.256  1.00  0.00    -0.446 C  
ENDBRANCH  13  21
TORSDOF 1
ENDMDL
