MODEL        1
REMARK 921   NORMALIZED FREE ENERGY PREDICTED BY IDOCK:   -7.18 KCAL/MOL
REMARK 922        TOTAL FREE ENERGY PREDICTED BY IDOCK:  -13.21 KCAL/MOL
REMARK 923 INTER-LIGAND FREE ENERGY PREDICTED BY IDOCK:  -11.80 KCAL/MOL
REMARK 924 INTRA-LIGAND FREE ENERGY PREDICTED BY IDOCK:   -1.42 KCAL/MOL
REMARK 927      BINDING AFFINITY PREDICTED BY RF-SCORE:    0.00 PKD
ROOT
HETATM    1  C   UNL     1     -14.321   8.706  72.190  1.00  0.00    -0.518 C  
HETATM    2  C   UNL     1     -14.096   7.380  71.482  1.00  0.00    -0.541 C  
ENDROOT
BRANCH   2   3
HETATM    3  C   UNL     1     -12.623   6.992  71.441  1.00  0.00    -0.386 C  
BRANCH   3   4
HETATM    4  N   UNL     1     -11.860   8.004  70.657  1.00  0.00    -0.466 N  
HETATM    5  H   UNL     1     -12.227   8.484  69.836  1.00  0.00     0.000 HD 
BRANCH   4   6
HETATM    6  S   UNL     1     -10.325   8.259  71.284  1.00  0.00    -0.215 S  
HETATM    7  O   UNL     1     -10.536   8.506  72.694  1.00  0.00    -0.304 OA 
HETATM    8  O   UNL     1      -9.457   7.209  70.822  1.00  0.00    -0.164 OA 
BRANCH   6   9
HETATM    9  N   UNL     1      -9.908   9.729  70.599  1.00  0.00    -0.347 N  
HETATM   10  H   UNL     1      -9.324  10.406  71.091  1.00  0.00     0.000 HD 
BRANCH   9  11
HETATM   11  C   UNL     1     -10.410   9.980  69.300  1.00  0.00    -0.219 A  
HETATM   12  C   UNL     1     -11.173  11.103  68.956  1.00  0.00    -0.318 A  
HETATM   13  C   UNL     1     -11.407  11.140  67.574  1.00  0.00    -0.278 A  
HETATM   14  N   UNL     1     -10.048   8.979  68.474  1.00  0.00    -0.184 NA 
HETATM   15  N   UNL     1     -11.033  10.187  66.690  1.00  0.00    -0.013 NA 
HETATM   16  C   UNL     1     -10.383   9.140  67.196  1.00  0.00    -0.267 A  
BRANCH  12  17
HETATM   17  C   UNL     1     -11.729  12.131  69.909  1.00  0.00    -0.361 A  
HETATM   18  C   UNL     1     -11.502  13.512  69.784  1.00  0.00    -0.246 A  
HETATM   19  C   UNL     1     -12.095  14.471  70.616  1.00  0.00    -0.392 A  
HETATM   20  C   UNL     1     -13.172  12.715  71.831  1.00  0.00    -0.504 A  
HETATM   21  C   UNL     1     -12.546  11.767  71.003  1.00  0.00    -0.409 A  
HETATM   22 BR   UNL     1     -13.836  15.358  72.679  1.00  0.00    -0.602 Br 
HETATM   23  C   UNL     1     -12.956  14.067  71.620  1.00  0.00    -0.352 A  
ENDBRANCH  12  17
BRANCH  13  24
HETATM   24  O   UNL     1     -12.063  12.242  67.063  1.00  0.00    -0.575 OA 
BRANCH  24  25
HETATM   25  C   UNL     1     -11.749  12.639  65.728  1.00  0.00    -0.419 C  
BRANCH  25  26
HETATM   26  C   UNL     1     -12.086  14.126  65.614  1.00  0.00    -0.415 C  
BRANCH  26  27
HETATM   27  O   UNL     1     -10.938  14.857  65.192  1.00  0.00    -0.350 OA 
BRANCH  27  28
HETATM   28  C   UNL     1     -10.732  16.005  65.931  1.00  0.00    -0.280 A  
HETATM   29  N   UNL     1     -10.495  17.175  65.309  1.00  0.00    -0.662 NA 
HETATM   30  C   UNL     1     -10.307  18.246  66.112  1.00  0.00    -0.398 A  
HETATM   31  C   UNL     1     -10.347  18.183  67.485  1.00  0.00    -0.392 A  
HETATM   32  C   UNL     1     -10.591  16.937  68.012  1.00  0.00    -0.367 A  
HETATM   33 BR   UNL     1     -10.087  19.695  68.566  1.00  0.00    -0.538 Br 
HETATM   34  N   UNL     1     -10.785  15.832  67.260  1.00  0.00    -0.315 NA 
ENDBRANCH  27  28
ENDBRANCH  26  27
ENDBRANCH  25  26
ENDBRANCH  24  25
ENDBRANCH  13  24
ENDBRANCH   9  11
ENDBRANCH   6   9
ENDBRANCH   4   6
ENDBRANCH   3   4
ENDBRANCH   2   3
TORSDOF 11
ENDMDL
MODEL        2
REMARK 921   NORMALIZED FREE ENERGY PREDICTED BY IDOCK:   -6.73 KCAL/MOL
REMARK 922        TOTAL FREE ENERGY PREDICTED BY IDOCK:  -12.48 KCAL/MOL
REMARK 923 INTER-LIGAND FREE ENERGY PREDICTED BY IDOCK:  -10.20 KCAL/MOL
REMARK 924 INTRA-LIGAND FREE ENERGY PREDICTED BY IDOCK:   -2.28 KCAL/MOL
REMARK 927      BINDING AFFINITY PREDICTED BY RF-SCORE:    0.00 PKD
ROOT
HETATM    1  C   UNL     1     -10.179   5.517  68.786  1.00  0.00    -0.270 C  
HETATM    2  C   UNL     1     -11.143   6.655  69.080  1.00  0.00    -0.332 C  
ENDROOT
BRANCH   2   3
HETATM    3  C   UNL     1     -11.279   6.923  70.574  1.00  0.00    -0.307 C  
BRANCH   3   4
HETATM    4  N   UNL     1     -12.688   7.292  70.891  1.00  0.00    -0.592 N  
HETATM    5  H   UNL     1     -13.499   6.743  70.606  1.00  0.00     0.000 HD 
BRANCH   4   6
HETATM    6  S   UNL     1     -12.783   8.718  71.769  1.00  0.00    -0.381 S  
HETATM    7  O   UNL     1     -13.910   8.534  72.657  1.00  0.00    -0.273 OA 
HETATM    8  O   UNL     1     -11.473   9.041  72.268  1.00  0.00    -0.323 OA 
BRANCH   6   9
HETATM    9  N   UNL     1     -13.268   9.816  70.601  1.00  0.00    -0.599 N  
HETATM   10  H   UNL     1     -13.848   9.538  69.808  1.00  0.00     0.000 HD 
BRANCH   9  11
HETATM   11  C   UNL     1     -12.830  11.150  70.776  1.00  0.00    -0.234 A  
HETATM   12  C   UNL     1     -11.825  11.754  70.010  1.00  0.00    -0.422 A  
HETATM   13  C   UNL     1     -11.709  13.115  70.326  1.00  0.00    -0.127 A  
HETATM   14  N   UNL     1     -13.519  11.725  71.781  1.00  0.00    -0.221 NA 
HETATM   15  N   UNL     1     -12.400  13.756  71.295  1.00  0.00    -0.345 NA 
HETATM   16  C   UNL     1     -13.264  13.015  71.988  1.00  0.00    -0.444 A  
BRANCH  12  17
HETATM   17  C   UNL     1     -10.932  11.066  69.008  1.00  0.00    -0.284 A  
HETATM   18  C   UNL     1      -9.792  10.325  69.361  1.00  0.00    -0.247 A  
HETATM   19  C   UNL     1      -9.017   9.611  68.436  1.00  0.00    -0.123 A  
HETATM   20  C   UNL     1     -10.449  10.378  66.682  1.00  0.00    -0.279 A  
HETATM   21  C   UNL     1     -11.197  11.110  67.621  1.00  0.00    -0.364 A  
HETATM   22 BR   UNL     1      -8.391   8.577  65.865  1.00  0.00    -0.157 Br 
HETATM   23  C   UNL     1      -9.370   9.616  67.099  1.00  0.00    -0.139 A  
ENDBRANCH  12  17
BRANCH  13  24
HETATM   24  O   UNL     1     -10.826  13.873  69.584  1.00  0.00    -0.089 OA 
BRANCH  24  25
HETATM   25  C   UNL     1     -10.815  15.284  69.806  1.00  0.00    -0.289 C  
BRANCH  25  26
HETATM   26  C   UNL     1     -11.559  15.927  68.636  1.00  0.00    -0.380 C  
BRANCH  26  27
HETATM   27  O   UNL     1     -10.706  16.006  67.498  1.00  0.00    -0.312 OA 
BRANCH  27  28
HETATM   28  C   UNL     1     -11.024  15.081  66.524  1.00  0.00    -0.327 A  
HETATM   29  N   UNL     1     -10.077  14.644  65.672  1.00  0.00    -0.342 NA 
HETATM   30  C   UNL     1     -10.478  13.737  64.754  1.00  0.00    -0.428 A  
HETATM   31  C   UNL     1     -11.767  13.265  64.663  1.00  0.00    -0.364 A  
HETATM   32  C   UNL     1     -12.651  13.784  65.580  1.00  0.00    -0.512 A  
HETATM   33 BR   UNL     1     -12.283  12.000  63.377  1.00  0.00    -0.533 Br 
HETATM   34  N   UNL     1     -12.308  14.692  66.519  1.00  0.00    -0.162 NA 
ENDBRANCH  27  28
ENDBRANCH  26  27
ENDBRANCH  25  26
ENDBRANCH  24  25
ENDBRANCH  13  24
ENDBRANCH   9  11
ENDBRANCH   6   9
ENDBRANCH   4   6
ENDBRANCH   3   4
ENDBRANCH   2   3
TORSDOF 11
ENDMDL
MODEL        3
REMARK 921   NORMALIZED FREE ENERGY PREDICTED BY IDOCK:   -6.67 KCAL/MOL
REMARK 922        TOTAL FREE ENERGY PREDICTED BY IDOCK:  -12.37 KCAL/MOL
REMARK 923 INTER-LIGAND FREE ENERGY PREDICTED BY IDOCK:  -10.53 KCAL/MOL
REMARK 924 INTRA-LIGAND FREE ENERGY PREDICTED BY IDOCK:   -1.84 KCAL/MOL
REMARK 927      BINDING AFFINITY PREDICTED BY RF-SCORE:    0.00 PKD
ROOT
HETATM    1  C   UNL     1     -10.569   5.905  71.628  1.00  0.00    -0.295 C  
HETATM    2  C   UNL     1     -11.491   6.551  70.606  1.00  0.00    -0.433 C  
ENDROOT
BRANCH   2   3
HETATM    3  C   UNL     1     -11.432   8.073  70.660  1.00  0.00    -0.232 C  
BRANCH   3   4
HETATM    4  N   UNL     1     -10.539   8.578  69.579  1.00  0.00    -0.237 N  
HETATM    5  H   UNL     1     -10.786   8.579  68.589  1.00  0.00     0.000 HD 
BRANCH   4   6
HETATM    6  S   UNL     1      -9.080   9.145  70.181  1.00  0.00    -0.225 S  
HETATM    7  O   UNL     1      -9.327   9.390  71.586  1.00  0.00    -0.262 OA 
HETATM    8  O   UNL     1      -8.026   8.270  69.741  1.00  0.00    -0.101 OA 
BRANCH   6   9
HETATM    9  N   UNL     1      -8.959  10.647  69.449  1.00  0.00    -0.380 N  
HETATM   10  H   UNL     1      -8.370  11.387  69.833  1.00  0.00     0.000 HD 
BRANCH   9  11
HETATM   11  C   UNL     1      -9.718  10.831  68.270  1.00  0.00    -0.164 A  
HETATM   12  C   UNL     1     -10.754  11.766  68.140  1.00  0.00    -0.247 A  
HETATM   13  C   UNL     1     -11.223  11.806  66.819  1.00  0.00    -0.328 A  
HETATM   14  N   UNL     1      -9.294   9.975  67.320  1.00  0.00    -0.147 NA 
HETATM   15  N   UNL     1     -10.809  11.001  65.815  1.00  0.00    -0.155 NA 
HETATM   16  C   UNL     1      -9.870  10.109  66.127  1.00  0.00    -0.237 A  
BRANCH  12  17
HETATM   17  C   UNL     1     -11.348  12.599  69.248  1.00  0.00    -0.306 A  
HETATM   18  C   UNL     1     -11.164  13.988  69.361  1.00  0.00    -0.283 A  
HETATM   19  C   UNL     1     -11.792  14.772  70.337  1.00  0.00    -0.352 A  
HETATM   20  C   UNL     1     -12.821  12.804  71.224  1.00  0.00    -0.355 A  
HETATM   21  C   UNL     1     -12.160  12.030  70.254  1.00  0.00    -0.395 A  
HETATM   22 BR   UNL     1     -13.573  15.243  72.501  1.00  0.00    -0.657 Br 
HETATM   23  C   UNL     1     -12.646  14.178  71.249  1.00  0.00    -0.363 A  
ENDBRANCH  12  17
BRANCH  13  24
HETATM   24  O   UNL     1     -12.180  12.751  66.508  1.00  0.00    -0.494 OA 
BRANCH  24  25
HETATM   25  C   UNL     1     -12.558  12.884  65.137  1.00  0.00    -0.471 C  
BRANCH  25  26
HETATM   26  C   UNL     1     -12.398  14.359  64.770  1.00  0.00    -0.414 C  
BRANCH  26  27
HETATM   27  O   UNL     1     -11.016  14.691  64.669  1.00  0.00    -0.378 OA 
BRANCH  27  28
HETATM   28  C   UNL     1     -10.683  15.823  65.387  1.00  0.00    -0.404 A  
HETATM   29  N   UNL     1     -10.064  15.710  66.577  1.00  0.00    -0.270 NA 
HETATM   30  C   UNL     1      -9.775  16.870  67.207  1.00  0.00    -0.251 A  
HETATM   31  C   UNL     1     -10.079  18.110  66.695  1.00  0.00    -0.373 A  
HETATM   32  C   UNL     1     -10.716  18.106  65.477  1.00  0.00     0.062 A  
HETATM   33 BR   UNL     1      -9.655  19.699  67.599  1.00  0.00    -0.481 Br 
HETATM   34  N   UNL     1     -11.031  16.979  64.802  1.00  0.00    -0.905 NA 
ENDBRANCH  27  28
ENDBRANCH  26  27
ENDBRANCH  25  26
ENDBRANCH  24  25
ENDBRANCH  13  24
ENDBRANCH   9  11
ENDBRANCH   6   9
ENDBRANCH   4   6
ENDBRANCH   3   4
ENDBRANCH   2   3
TORSDOF 11
ENDMDL
MODEL        4
REMARK 921   NORMALIZED FREE ENERGY PREDICTED BY IDOCK:   -6.66 KCAL/MOL
REMARK 922        TOTAL FREE ENERGY PREDICTED BY IDOCK:  -12.36 KCAL/MOL
REMARK 923 INTER-LIGAND FREE ENERGY PREDICTED BY IDOCK:  -11.05 KCAL/MOL
REMARK 924 INTRA-LIGAND FREE ENERGY PREDICTED BY IDOCK:   -1.31 KCAL/MOL
REMARK 927      BINDING AFFINITY PREDICTED BY RF-SCORE:    0.00 PKD
ROOT
HETATM    1  C   UNL     1     -10.811   6.135  68.317  1.00  0.00    -0.387 C  
HETATM    2  C   UNL     1     -10.910   5.658  69.757  1.00  0.00    -0.370 C  
ENDROOT
BRANCH   2   3
HETATM    3  C   UNL     1     -10.971   6.818  70.745  1.00  0.00    -0.262 C  
BRANCH   3   4
HETATM    4  N   UNL     1     -11.439   8.047  70.045  1.00  0.00    -0.469 N  
HETATM    5  H   UNL     1     -11.611   8.102  69.042  1.00  0.00     0.000 HD 
BRANCH   4   6
HETATM    6  S   UNL     1     -11.650   9.331  71.104  1.00  0.00    -0.355 S  
HETATM    7  O   UNL     1     -13.012   9.772  70.887  1.00  0.00    -0.308 OA 
HETATM    8  O   UNL     1     -11.181   8.939  72.406  1.00  0.00    -0.286 OA 
BRANCH   6   9
HETATM    9  N   UNL     1     -10.657  10.503  70.435  1.00  0.00    -0.414 N  
HETATM   10  H   UNL     1      -9.779  10.780  70.875  1.00  0.00     0.000 HD 
BRANCH   9  11
HETATM   11  C   UNL     1     -11.104  11.086  69.226  1.00  0.00    -0.254 A  
HETATM   12  C   UNL     1     -11.603  12.391  69.121  1.00  0.00    -0.369 A  
HETATM   13  C   UNL     1     -11.836  12.727  67.779  1.00  0.00    -0.332 A  
HETATM   14  N   UNL     1     -10.980  10.197  68.221  1.00  0.00    -0.255 NA 
HETATM   15  N   UNL     1     -11.691  11.892  66.726  1.00  0.00    -0.590 NA 
HETATM   16  C   UNL     1     -11.283  10.656  67.009  1.00  0.00    -0.040 A  
BRANCH  12  17
HETATM   17  C   UNL     1     -11.910  13.325  70.265  1.00  0.00    -0.307 A  
HETATM   18  C   UNL     1     -12.802  13.014  71.305  1.00  0.00    -0.370 A  
HETATM   19  C   UNL     1     -13.014  13.845  72.414  1.00  0.00    -0.457 A  
HETATM   20  C   UNL     1     -11.475  15.426  71.494  1.00  0.00    -0.478 A  
HETATM   21  C   UNL     1     -11.296  14.592  70.377  1.00  0.00    -0.232 A  
HETATM   22 BR   UNL     1     -12.529  16.112  74.056  1.00  0.00    -0.693 Br 
HETATM   23  C   UNL     1     -12.323  15.038  72.518  1.00  0.00    -0.357 A  
ENDBRANCH  12  17
BRANCH  13  24
HETATM   24  O   UNL     1     -12.237  14.018  67.502  1.00  0.00    -0.366 OA 
BRANCH  24  25
HETATM   25  C   UNL     1     -11.876  14.566  66.234  1.00  0.00    -0.344 C  
BRANCH  25  26
HETATM   26  C   UNL     1     -10.724  15.540  66.480  1.00  0.00    -0.304 C  
BRANCH  26  27
HETATM   27  O   UNL     1     -11.076  16.466  67.504  1.00  0.00    -0.241 OA 
BRANCH  27  28
HETATM   28  C   UNL     1     -10.055  17.343  67.810  1.00  0.00    -0.323 A  
HETATM   29  N   UNL     1     -10.303  18.662  67.904  1.00  0.00    -0.389 NA 
HETATM   30  C   UNL     1      -9.244  19.444  68.209  1.00  0.00    -0.346 A  
HETATM   31  C   UNL     1      -7.974  18.959  68.416  1.00  0.00    -0.338 A  
HETATM   32  C   UNL     1      -7.835  17.597  68.289  1.00  0.00    -0.256 A  
HETATM   33 BR   UNL     1      -6.530  20.078  68.845  1.00  0.00    -0.351 Br 
HETATM   34  N   UNL     1      -8.856  16.766  67.986  1.00  0.00    -0.212 NA 
ENDBRANCH  27  28
ENDBRANCH  26  27
ENDBRANCH  25  26
ENDBRANCH  24  25
ENDBRANCH  13  24
ENDBRANCH   9  11
ENDBRANCH   6   9
ENDBRANCH   4   6
ENDBRANCH   3   4
ENDBRANCH   2   3
TORSDOF 11
ENDMDL
MODEL        5
REMARK 921   NORMALIZED FREE ENERGY PREDICTED BY IDOCK:   -6.64 KCAL/MOL
REMARK 922        TOTAL FREE ENERGY PREDICTED BY IDOCK:  -12.33 KCAL/MOL
REMARK 923 INTER-LIGAND FREE ENERGY PREDICTED BY IDOCK:   -9.64 KCAL/MOL
REMARK 924 INTRA-LIGAND FREE ENERGY PREDICTED BY IDOCK:   -2.69 KCAL/MOL
REMARK 927      BINDING AFFINITY PREDICTED BY RF-SCORE:    0.00 PKD
ROOT
HETATM    1  C   UNL     1      -8.736   5.939  68.763  1.00  0.00    -0.109 C  
HETATM    2  C   UNL     1     -10.218   5.976  68.426  1.00  0.00    -0.220 C  
ENDROOT
BRANCH   2   3
HETATM    3  C   UNL     1     -11.065   6.435  69.607  1.00  0.00    -0.401 C  
BRANCH   3   4
HETATM    4  N   UNL     1     -10.179   6.961  70.685  1.00  0.00    -0.195 N  
HETATM    5  H   UNL     1      -9.172   6.809  70.719  1.00  0.00     0.000 HD 
BRANCH   4   6
HETATM    6  S   UNL     1     -11.036   7.832  71.834  1.00  0.00    -0.263 S  
HETATM    7  O   UNL     1     -11.668   6.830  72.666  1.00  0.00    -0.199 OA 
HETATM    8  O   UNL     1     -10.172   8.839  72.389  1.00  0.00    -0.293 OA 
BRANCH   6   9
HETATM    9  N   UNL     1     -12.251   8.525  70.914  1.00  0.00    -0.478 N  
HETATM   10  H   UNL     1     -12.935   7.958  70.410  1.00  0.00     0.000 HD 
BRANCH   9  11
HETATM   11  C   UNL     1     -12.277   9.939  70.873  1.00  0.00    -0.328 A  
HETATM   12  C   UNL     1     -11.578  10.711  69.936  1.00  0.00    -0.396 A  
HETATM   13  C   UNL     1     -11.908  12.068  70.065  1.00  0.00    -0.314 A  
HETATM   14  N   UNL     1     -13.060  10.406  71.865  1.00  0.00    -0.466 NA 
HETATM   15  N   UNL     1     -12.718  12.590  71.013  1.00  0.00    -0.291 NA 
HETATM   16  C   UNL     1     -13.242  11.725  71.880  1.00  0.00    -0.362 A  
BRANCH  12  17
HETATM   17  C   UNL     1     -10.565  10.205  68.940  1.00  0.00    -0.237 A  
HETATM   18  C   UNL     1     -10.890   9.810  67.631  1.00  0.00    -0.301 A  
HETATM   19  C   UNL     1      -9.934   9.428  66.680  1.00  0.00    -0.326 A  
HETATM   20  C   UNL     1      -8.216   9.755  68.311  1.00  0.00    -0.105 A  
HETATM   21  C   UNL     1      -9.192  10.108  69.258  1.00  0.00    -0.220 A  
HETATM   22 BR   UNL     1      -7.295   9.017  65.712  1.00  0.00    -0.090 Br 
HETATM   23  C   UNL     1      -8.593   9.433  67.017  1.00  0.00    -0.128 A  
ENDBRANCH  12  17
BRANCH  13  24
HETATM   24  O   UNL     1     -11.374  12.948  69.146  1.00  0.00    -0.261 OA 
BRANCH  24  25
HETATM   25  C   UNL     1     -12.074  14.171  68.917  1.00  0.00    -0.304 C  
BRANCH  25  26
HETATM   26  C   UNL     1     -11.752  14.610  67.488  1.00  0.00    -0.379 C  
BRANCH  26  27
HETATM   27  O   UNL     1     -12.653  13.993  66.573  1.00  0.00    -0.393 OA 
BRANCH  27  28
HETATM   28  C   UNL     1     -12.011  13.212  65.633  1.00  0.00    -0.415 A  
HETATM   29  N   UNL     1     -12.721  12.588  64.675  1.00  0.00    -0.725 NA 
HETATM   30  C   UNL     1     -12.008  11.847  63.797  1.00  0.00    -0.445 A  
HETATM   31  C   UNL     1     -10.640  11.714  63.848  1.00  0.00    -0.391 A  
HETATM   32  C   UNL     1     -10.020  12.390  64.871  1.00  0.00    -0.184 A  
HETATM   33 BR   UNL     1      -9.687  10.680  62.605  1.00  0.00    -0.143 Br 
HETATM   34  N   UNL     1     -10.679  13.144  65.777  1.00  0.00    -0.276 NA 
ENDBRANCH  27  28
ENDBRANCH  26  27
ENDBRANCH  25  26
ENDBRANCH  24  25
ENDBRANCH  13  24
ENDBRANCH   9  11
ENDBRANCH   6   9
ENDBRANCH   4   6
ENDBRANCH   3   4
ENDBRANCH   2   3
TORSDOF 11
ENDMDL
MODEL        6
REMARK 921   NORMALIZED FREE ENERGY PREDICTED BY IDOCK:   -6.61 KCAL/MOL
REMARK 922        TOTAL FREE ENERGY PREDICTED BY IDOCK:  -12.28 KCAL/MOL
REMARK 923 INTER-LIGAND FREE ENERGY PREDICTED BY IDOCK:  -10.90 KCAL/MOL
REMARK 924 INTRA-LIGAND FREE ENERGY PREDICTED BY IDOCK:   -1.38 KCAL/MOL
REMARK 927      BINDING AFFINITY PREDICTED BY RF-SCORE:    0.00 PKD
ROOT
HETATM    1  C   UNL     1     -10.272  19.833  65.998  1.00  0.00    -0.600 C  
HETATM    2  C   UNL     1      -9.869  20.222  67.412  1.00  0.00    -0.586 C  
ENDROOT
BRANCH   2   3
HETATM    3  C   UNL     1      -9.998  19.059  68.388  1.00  0.00    -0.408 C  
BRANCH   3   4
HETATM    4  N   UNL     1      -8.802  18.176  68.277  1.00  0.00    -0.277 N  
HETATM    5  H   UNL     1      -7.846  18.521  68.190  1.00  0.00     0.000 HD 
BRANCH   4   6
HETATM    6  S   UNL     1      -9.214  16.551  68.310  1.00  0.00    -0.220 S  
HETATM    7  O   UNL     1      -8.964  16.076  66.965  1.00  0.00    -0.196 OA 
HETATM    8  O   UNL     1      -8.593  15.940  69.454  1.00  0.00    -0.256 OA 
BRANCH   6   9
HETATM    9  N   UNL     1     -10.878  16.616  68.491  1.00  0.00    -0.348 N  
HETATM   10  H   UNL     1     -11.451  17.281  67.972  1.00  0.00     0.000 HD 
BRANCH   9  11
HETATM   11  C   UNL     1     -11.444  15.696  69.406  1.00  0.00    -0.348 A  
HETATM   12  C   UNL     1     -11.643  14.337  69.131  1.00  0.00    -0.346 A  
HETATM   13  C   UNL     1     -12.093  13.660  70.274  1.00  0.00    -0.357 A  
HETATM   14  N   UNL     1     -11.756  16.331  70.552  1.00  0.00    -0.229 NA 
HETATM   15  N   UNL     1     -12.385  14.236  71.462  1.00  0.00    -0.349 NA 
HETATM   16  C   UNL     1     -12.215  15.556  71.532  1.00  0.00    -0.397 A  
BRANCH  12  17
HETATM   17  C   UNL     1     -11.461  13.659  67.796  1.00  0.00    -0.351 A  
HETATM   18  C   UNL     1     -12.380  13.766  66.738  1.00  0.00    -0.365 A  
HETATM   19  C   UNL     1     -12.163  13.212  65.469  1.00  0.00    -0.513 A  
HETATM   20  C   UNL     1     -10.077  12.331  66.236  1.00  0.00    -0.253 A  
HETATM   21  C   UNL     1     -10.325  12.871  67.510  1.00  0.00    -0.223 A  
HETATM   22 BR   UNL     1     -10.651  11.859  63.480  1.00  0.00    -0.523 Br 
HETATM   23  C   UNL     1     -10.993  12.521  65.214  1.00  0.00    -0.293 A  
ENDBRANCH  12  17
BRANCH  13  24
HETATM   24  O   UNL     1     -12.243  12.291  70.191  1.00  0.00    -0.292 OA 
BRANCH  24  25
HETATM   25  C   UNL     1     -12.822  11.619  71.310  1.00  0.00    -0.328 C  
BRANCH  25  26
HETATM   26  C   UNL     1     -12.746  10.119  71.020  1.00  0.00    -0.386 C  
BRANCH  26  27
HETATM   27  O   UNL     1     -12.611   9.392  72.237  1.00  0.00    -0.359 OA 
BRANCH  27  28
HETATM   28  C   UNL     1     -11.921   8.207  72.080  1.00  0.00    -0.359 A  
HETATM   29  N   UNL     1     -11.110   7.762  73.059  1.00  0.00    -0.407 NA 
HETATM   30  C   UNL     1     -10.477   6.593  72.819  1.00  0.00    -0.217 A  
HETATM   31  C   UNL     1     -10.625   5.871  71.657  1.00  0.00    -0.241 A  
HETATM   32  C   UNL     1     -11.473   6.422  70.725  1.00  0.00    -0.353 A  
HETATM   33 BR   UNL     1      -9.733   4.247  71.364  1.00  0.00    -0.257 Br 
HETATM   34  N   UNL     1     -12.132   7.587  70.909  1.00  0.00    -0.266 NA 
ENDBRANCH  27  28
ENDBRANCH  26  27
ENDBRANCH  25  26
ENDBRANCH  24  25
ENDBRANCH  13  24
ENDBRANCH   9  11
ENDBRANCH   6   9
ENDBRANCH   4   6
ENDBRANCH   3   4
ENDBRANCH   2   3
TORSDOF 11
ENDMDL
MODEL        7
REMARK 921   NORMALIZED FREE ENERGY PREDICTED BY IDOCK:   -6.58 KCAL/MOL
REMARK 922        TOTAL FREE ENERGY PREDICTED BY IDOCK:  -12.23 KCAL/MOL
REMARK 923 INTER-LIGAND FREE ENERGY PREDICTED BY IDOCK:  -10.19 KCAL/MOL
REMARK 924 INTRA-LIGAND FREE ENERGY PREDICTED BY IDOCK:   -2.04 KCAL/MOL
REMARK 927      BINDING AFFINITY PREDICTED BY RF-SCORE:    0.00 PKD
ROOT
HETATM    1  C   UNL     1     -10.187  17.138  66.934  1.00  0.00    -0.315 C  
HETATM    2  C   UNL     1      -9.691  16.008  66.046  1.00  0.00    -0.376 C  
ENDROOT
BRANCH   2   3
HETATM    3  C   UNL     1     -10.674  15.680  64.929  1.00  0.00    -0.382 C  
BRANCH   3   4
HETATM    4  N   UNL     1     -10.685  14.209  64.687  1.00  0.00    -0.545 N  
HETATM    5  H   UNL     1      -9.845  13.633  64.640  1.00  0.00     0.000 HD 
BRANCH   4   6
HETATM    6  S   UNL     1     -12.242  13.614  64.503  1.00  0.00    -0.385 S  
HETATM    7  O   UNL     1     -13.065  14.455  65.346  1.00  0.00    -0.604 OA 
HETATM    8  O   UNL     1     -12.514  13.456  63.099  1.00  0.00    -0.710 OA 
BRANCH   6   9
HETATM    9  N   UNL     1     -12.141  12.126  65.266  1.00  0.00    -0.289 N  
HETATM   10  H   UNL     1     -12.965  11.548  65.431  1.00  0.00     0.000 HD 
BRANCH   9  11
HETATM   11  C   UNL     1     -10.848  11.716  65.667  1.00  0.00    -0.276 A  
HETATM   12  C   UNL     1     -10.403  11.705  66.996  1.00  0.00    -0.248 A  
HETATM   13  C   UNL     1      -9.131  11.123  67.090  1.00  0.00    -0.147 A  
HETATM   14  N   UNL     1     -10.131  11.353  64.585  1.00  0.00    -0.262 NA 
HETATM   15  N   UNL     1      -8.383  10.703  66.046  1.00  0.00    -0.156 NA 
HETATM   16  C   UNL     1      -8.921  10.859  64.837  1.00  0.00    -0.152 A  
BRANCH  12  17
HETATM   17  C   UNL     1     -11.135  12.275  68.186  1.00  0.00    -0.285 A  
HETATM   18  C   UNL     1     -11.668  11.487  69.220  1.00  0.00    -0.397 A  
HETATM   19  C   UNL     1     -12.266  12.024  70.369  1.00  0.00    -0.379 A  
HETATM   20  C   UNL     1     -11.890  14.223  69.508  1.00  0.00    -0.378 A  
HETATM   21  C   UNL     1     -11.320  13.665  68.351  1.00  0.00    -0.329 A  
HETATM   22 BR   UNL     1     -13.057  14.125  72.111  1.00  0.00    -0.519 Br 
HETATM   23  C   UNL     1     -12.346  13.396  70.522  1.00  0.00    -0.329 A  
ENDBRANCH  12  17
BRANCH  13  24
HETATM   24  O   UNL     1      -8.597  10.949  68.351  1.00  0.00    -0.131 OA 
BRANCH  24  25
HETATM   25  C   UNL     1      -7.685   9.868  68.540  1.00  0.00    -0.081 C  
BRANCH  25  26
HETATM   26  C   UNL     1      -8.509   8.660  68.987  1.00  0.00    -0.124 C  
BRANCH  26  27
HETATM   27  O   UNL     1      -8.777   8.740  70.384  1.00  0.00    -0.140 OA 
BRANCH  27  28
HETATM   28  C   UNL     1     -10.064   8.360  70.706  1.00  0.00    -0.193 A  
HETATM   29  N   UNL     1     -10.595   7.247  70.165  1.00  0.00    -0.226 NA 
HETATM   30  C   UNL     1     -11.860   6.952  70.540  1.00  0.00    -0.333 A  
HETATM   31  C   UNL     1     -12.592   7.717  71.417  1.00  0.00    -0.333 A  
HETATM   32  C   UNL     1     -11.953   8.832  71.903  1.00  0.00    -0.365 A  
HETATM   33 BR   UNL     1     -14.345   7.268  71.917  1.00  0.00    -0.459 Br 
HETATM   34  N   UNL     1     -10.692   9.178  71.565  1.00  0.00    -0.345 NA 
ENDBRANCH  27  28
ENDBRANCH  26  27
ENDBRANCH  25  26
ENDBRANCH  24  25
ENDBRANCH  13  24
ENDBRANCH   9  11
ENDBRANCH   6   9
ENDBRANCH   4   6
ENDBRANCH   3   4
ENDBRANCH   2   3
TORSDOF 11
ENDMDL
MODEL        8
REMARK 921   NORMALIZED FREE ENERGY PREDICTED BY IDOCK:   -6.57 KCAL/MOL
REMARK 922        TOTAL FREE ENERGY PREDICTED BY IDOCK:  -12.22 KCAL/MOL
REMARK 923 INTER-LIGAND FREE ENERGY PREDICTED BY IDOCK:   -9.93 KCAL/MOL
REMARK 924 INTRA-LIGAND FREE ENERGY PREDICTED BY IDOCK:   -2.29 KCAL/MOL
REMARK 927      BINDING AFFINITY PREDICTED BY RF-SCORE:    0.00 PKD
ROOT
HETATM    1  C   UNL     1     -11.704  15.398  64.502  1.00  0.00    -0.277 C  
HETATM    2  C   UNL     1     -10.366  15.272  65.212  1.00  0.00    -0.430 C  
ENDROOT
BRANCH   2   3
HETATM    3  C   UNL     1     -10.084  16.461  66.123  1.00  0.00    -0.346 C  
BRANCH   3   4
HETATM    4  N   UNL     1      -9.304  16.010  67.310  1.00  0.00    -0.209 N  
HETATM    5  H   UNL     1      -8.450  15.455  67.253  1.00  0.00     0.000 HD 
BRANCH   4   6
HETATM    6  S   UNL     1      -9.996  16.522  68.749  1.00  0.00    -0.269 S  
HETATM    7  O   UNL     1      -9.389  15.693  69.769  1.00  0.00    -0.270 OA 
HETATM    8  O   UNL     1      -9.934  17.958  68.807  1.00  0.00    -0.359 OA 
BRANCH   6   9
HETATM    9  N   UNL     1     -11.577  15.995  68.584  1.00  0.00    -0.384 N  
HETATM   10  H   UNL     1     -12.190  16.353  67.852  1.00  0.00     0.000 HD 
BRANCH   9  11
HETATM   11  C   UNL     1     -12.013  15.024  69.517  1.00  0.00    -0.313 A  
HETATM   12  C   UNL     1     -11.796  13.647  69.378  1.00  0.00    -0.392 A  
HETATM   13  C   UNL     1     -12.224  12.959  70.522  1.00  0.00    -0.314 A  
HETATM   14  N   UNL     1     -12.662  15.630  70.530  1.00  0.00    -0.419 NA 
HETATM   15  N   UNL     1     -12.843  13.517  71.587  1.00  0.00    -0.346 NA 
HETATM   16  C   UNL     1     -13.046  14.832  71.525  1.00  0.00    -0.354 A  
BRANCH  12  17
HETATM   17  C   UNL     1     -11.230  12.950  68.166  1.00  0.00    -0.305 A  
HETATM   18  C   UNL     1      -9.889  12.546  68.056  1.00  0.00    -0.214 A  
HETATM   19  C   UNL     1      -9.389  11.817  66.968  1.00  0.00    -0.187 A  
HETATM   20  C   UNL     1     -11.555  11.883  65.958  1.00  0.00    -0.296 A  
HETATM   21  C   UNL     1     -12.031  12.637  67.045  1.00  0.00    -0.330 A  
HETATM   22 BR   UNL     1      -9.592  10.395  64.517  1.00  0.00    -0.394 Br 
HETATM   23  C   UNL     1     -10.236  11.461  65.935  1.00  0.00    -0.246 A  
ENDBRANCH  12  17
BRANCH  13  24
HETATM   24  O   UNL     1     -11.986  11.601  70.580  1.00  0.00    -0.360 OA 
BRANCH  24  25
HETATM   25  C   UNL     1     -12.977  10.781  71.201  1.00  0.00    -0.371 C  
BRANCH  25  26
HETATM   26  C   UNL     1     -12.261   9.539  71.733  1.00  0.00    -0.387 C  
BRANCH  26  27
HETATM   27  O   UNL     1     -10.947   9.461  71.187  1.00  0.00    -0.302 OA 
BRANCH  27  28
HETATM   28  C   UNL     1     -10.856   8.571  70.135  1.00  0.00    -0.233 A  
HETATM   29  N   UNL     1     -10.391   8.982  68.941  1.00  0.00    -0.212 NA 
HETATM   30  C   UNL     1     -10.335   8.043  67.971  1.00  0.00    -0.206 A  
HETATM   31  C   UNL     1     -10.722   6.736  68.154  1.00  0.00    -0.236 A  
HETATM   32  C   UNL     1     -11.186   6.429  69.411  1.00  0.00    -0.394 A  
HETATM   33 BR   UNL     1     -10.623   5.459  66.782  1.00  0.00    -0.297 Br 
HETATM   34  N   UNL     1     -11.265   7.325  70.419  1.00  0.00    -0.275 NA 
ENDBRANCH  27  28
ENDBRANCH  26  27
ENDBRANCH  25  26
ENDBRANCH  24  25
ENDBRANCH  13  24
ENDBRANCH   9  11
ENDBRANCH   6   9
ENDBRANCH   4   6
ENDBRANCH   3   4
ENDBRANCH   2   3
TORSDOF 11
ENDMDL
MODEL        9
REMARK 921   NORMALIZED FREE ENERGY PREDICTED BY IDOCK:   -6.50 KCAL/MOL
REMARK 922        TOTAL FREE ENERGY PREDICTED BY IDOCK:  -12.10 KCAL/MOL
REMARK 923 INTER-LIGAND FREE ENERGY PREDICTED BY IDOCK:   -9.43 KCAL/MOL
REMARK 924 INTRA-LIGAND FREE ENERGY PREDICTED BY IDOCK:   -2.67 KCAL/MOL
REMARK 927      BINDING AFFINITY PREDICTED BY RF-SCORE:    0.00 PKD
ROOT
HETATM    1  C   UNL     1     -10.361  17.848  66.138  1.00  0.00    -0.352 C  
HETATM    2  C   UNL     1     -10.018  16.399  65.832  1.00  0.00    -0.358 C  
ENDROOT
BRANCH   2   3
HETATM    3  C   UNL     1     -10.997  15.770  64.848  1.00  0.00    -0.427 C  
BRANCH   3   4
HETATM    4  N   UNL     1     -10.852  14.287  64.874  1.00  0.00    -0.396 N  
HETATM    5  H   UNL     1      -9.959  13.804  64.971  1.00  0.00     0.000 HD 
BRANCH   4   6
HETATM    6  S   UNL     1     -12.329  13.508  64.726  1.00  0.00    -0.377 S  
HETATM    7  O   UNL     1     -13.264  14.342  65.451  1.00  0.00    -0.688 OA 
HETATM    8  O   UNL     1     -12.536  13.167  63.344  1.00  0.00    -0.730 OA 
BRANCH   6   9
HETATM    9  N   UNL     1     -12.095  12.134  65.655  1.00  0.00    -0.239 N  
HETATM   10  H   UNL     1     -12.869  11.525  65.921  1.00  0.00     0.000 HD 
BRANCH   9  11
HETATM   11  C   UNL     1     -10.763  11.866  66.051  1.00  0.00    -0.285 A  
HETATM   12  C   UNL     1     -10.255  12.130  67.330  1.00  0.00    -0.216 A  
HETATM   13  C   UNL     1      -8.950  11.633  67.458  1.00  0.00    -0.165 A  
HETATM   14  N   UNL     1     -10.082  11.335  65.017  1.00  0.00    -0.262 NA 
HETATM   15  N   UNL     1      -8.231  11.055  66.470  1.00  0.00    -0.156 NA 
HETATM   16  C   UNL     1      -8.836  10.952  65.287  1.00  0.00    -0.167 A  
BRANCH  12  17
HETATM   17  C   UNL     1     -10.957  12.884  68.432  1.00  0.00    -0.285 A  
HETATM   18  C   UNL     1     -11.685  12.260  69.459  1.00  0.00    -0.398 A  
HETATM   19  C   UNL     1     -12.258  12.957  70.532  1.00  0.00    -0.395 A  
HETATM   20  C   UNL     1     -11.460  15.007  69.596  1.00  0.00    -0.321 A  
HETATM   21  C   UNL     1     -10.916  14.293  68.514  1.00  0.00    -0.267 A  
HETATM   22 BR   UNL     1     -12.798  15.261  72.104  1.00  0.00    -0.492 Br 
HETATM   23  C   UNL     1     -12.115  14.330  70.611  1.00  0.00    -0.346 A  
ENDBRANCH  12  17
BRANCH  13  24
HETATM   24  O   UNL     1      -8.347  11.728  68.695  1.00  0.00    -0.145 OA 
BRANCH  24  25
HETATM   25  C   UNL     1      -7.030  12.278  68.750  1.00  0.00    -0.098 C  
BRANCH  25  26
HETATM   26  C   UNL     1      -7.183  13.797  68.839  1.00  0.00    -0.095 C  
BRANCH  26  27
HETATM   27  O   UNL     1      -6.833  14.397  67.595  1.00  0.00    -0.169 OA 
BRANCH  27  28
HETATM   28  C   UNL     1      -6.876  15.777  67.634  1.00  0.00    -0.173 A  
HETATM   29  N   UNL     1      -6.248  16.499  66.688  1.00  0.00    -0.295 NA 
HETATM   30  C   UNL     1      -6.345  17.842  66.806  1.00  0.00    -0.176 A  
HETATM   31  C   UNL     1      -7.035  18.470  67.817  1.00  0.00    -0.214 A  
HETATM   32  C   UNL     1      -7.632  17.633  68.730  1.00  0.00    -0.253 A  
HETATM   33 BR   UNL     1      -7.152  20.338  67.941  1.00  0.00    -0.313 Br 
HETATM   34  N   UNL     1      -7.569  16.286  68.664  1.00  0.00    -0.176 NA 
ENDBRANCH  27  28
ENDBRANCH  26  27
ENDBRANCH  25  26
ENDBRANCH  24  25
ENDBRANCH  13  24
ENDBRANCH   9  11
ENDBRANCH   6   9
ENDBRANCH   4   6
ENDBRANCH   3   4
ENDBRANCH   2   3
TORSDOF 11
ENDMDL
MODEL       10
REMARK 921   NORMALIZED FREE ENERGY PREDICTED BY IDOCK:   -6.49 KCAL/MOL
REMARK 922        TOTAL FREE ENERGY PREDICTED BY IDOCK:  -12.08 KCAL/MOL
REMARK 923 INTER-LIGAND FREE ENERGY PREDICTED BY IDOCK:  -10.11 KCAL/MOL
REMARK 924 INTRA-LIGAND FREE ENERGY PREDICTED BY IDOCK:   -1.96 KCAL/MOL
REMARK 927      BINDING AFFINITY PREDICTED BY RF-SCORE:    0.00 PKD
ROOT
HETATM    1  C   UNL     1     -10.743   7.607  67.592  1.00  0.00    -0.246 C  
HETATM    2  C   UNL     1      -9.540   7.531  68.518  1.00  0.00    -0.150 C  
ENDROOT
BRANCH   2   3
HETATM    3  C   UNL     1      -9.933   7.160  69.943  1.00  0.00    -0.182 C  
BRANCH   3   4
HETATM    4  N   UNL     1     -11.379   7.453  70.157  1.00  0.00    -0.427 N  
HETATM    5  H   UNL     1     -12.136   6.946  69.701  1.00  0.00     0.000 HD 
BRANCH   4   6
HETATM    6  S   UNL     1     -11.612   8.716  71.235  1.00  0.00    -0.298 S  
HETATM    7  O   UNL     1     -12.330   8.129  72.346  1.00  0.00    -0.337 OA 
HETATM    8  O   UNL     1     -10.361   9.402  71.422  1.00  0.00    -0.324 OA 
BRANCH   6   9
HETATM    9  N   UNL     1     -12.708   9.680  70.414  1.00  0.00    -0.492 N  
HETATM   10  H   UNL     1     -13.383   9.288  69.756  1.00  0.00     0.000 HD 
BRANCH   9  11
HETATM   11  C   UNL     1     -12.646  11.067  70.682  1.00  0.00    -0.338 A  
HETATM   12  C   UNL     1     -12.021  12.003  69.847  1.00  0.00    -0.391 A  
HETATM   13  C   UNL     1     -12.243  13.308  70.310  1.00  0.00    -0.321 A  
HETATM   14  N   UNL     1     -13.266  11.331  71.849  1.00  0.00    -0.461 NA 
HETATM   15  N   UNL     1     -12.891  13.636  71.450  1.00  0.00    -0.355 NA 
HETATM   16  C   UNL     1     -13.357  12.619  72.173  1.00  0.00    -0.466 A  
BRANCH  12  17
HETATM   17  C   UNL     1     -11.176  11.694  68.637  1.00  0.00    -0.308 A  
HETATM   18  C   UNL     1      -9.804  11.399  68.701  1.00  0.00    -0.199 A  
HETATM   19  C   UNL     1      -9.043  11.023  67.585  1.00  0.00    -0.145 A  
HETATM   20  C   UNL     1     -10.983  11.264  66.209  1.00  0.00    -0.265 A  
HETATM   21  C   UNL     1     -11.723  11.665  67.335  1.00  0.00    -0.278 A  
HETATM   22 BR   UNL     1      -8.650  10.324  64.860  1.00  0.00    -0.202 Br 
HETATM   23  C   UNL     1      -9.646  10.926  66.345  1.00  0.00    -0.197 A  
ENDBRANCH  12  17
BRANCH  13  24
HETATM   24  O   UNL     1     -11.772  14.350  69.537  1.00  0.00    -0.275 OA 
BRANCH  24  25
HETATM   25  C   UNL     1     -12.041  15.680  69.985  1.00  0.00    -0.359 C  
BRANCH  25  26
HETATM   26  C   UNL     1     -10.803  16.518  69.663  1.00  0.00    -0.322 C  
BRANCH  26  27
HETATM   27  O   UNL     1     -10.927  17.095  68.366  1.00  0.00    -0.337 OA 
BRANCH  27  28
HETATM   28  C   UNL     1      -9.957  18.043  68.106  1.00  0.00    -0.353 A  
HETATM   29  N   UNL     1     -10.292  19.211  67.527  1.00  0.00    -0.404 NA 
HETATM   30  C   UNL     1      -9.278  20.078  67.312  1.00  0.00    -0.367 A  
HETATM   31  C   UNL     1      -7.970  19.819  67.650  1.00  0.00    -0.290 A  
HETATM   32  C   UNL     1      -7.743  18.593  68.230  1.00  0.00    -0.298 A  
HETATM   33 BR   UNL     1      -6.591  21.053  67.341  1.00  0.00    -0.443 Br 
HETATM   34  N   UNL     1      -8.716  17.687  68.469  1.00  0.00    -0.286 NA 
ENDBRANCH  27  28
ENDBRANCH  26  27
ENDBRANCH  25  26
ENDBRANCH  24  25
ENDBRANCH  13  24
ENDBRANCH   9  11
ENDBRANCH   6   9
ENDBRANCH   4   6
ENDBRANCH   3   4
ENDBRANCH   2   3
TORSDOF 11
ENDMDL
MODEL       11
REMARK 921   NORMALIZED FREE ENERGY PREDICTED BY IDOCK:   -6.49 KCAL/MOL
REMARK 922        TOTAL FREE ENERGY PREDICTED BY IDOCK:  -12.08 KCAL/MOL
REMARK 923 INTER-LIGAND FREE ENERGY PREDICTED BY IDOCK:   -9.99 KCAL/MOL
REMARK 924 INTRA-LIGAND FREE ENERGY PREDICTED BY IDOCK:   -2.08 KCAL/MOL
REMARK 927      BINDING AFFINITY PREDICTED BY RF-SCORE:    0.00 PKD
ROOT
HETATM    1  C   UNL     1     -12.147  10.380  71.228  1.00  0.00    -0.461 C  
HETATM    2  C   UNL     1     -11.242   9.159  71.281  1.00  0.00    -0.407 C  
ENDROOT
BRANCH   2   3
HETATM    3  C   UNL     1      -9.892   9.415  70.623  1.00  0.00    -0.276 C  
BRANCH   3   4
HETATM    4  N   UNL     1      -9.988  10.601  69.726  1.00  0.00    -0.440 N  
HETATM    5  H   UNL     1      -9.978  11.567  70.054  1.00  0.00     0.000 HD 
BRANCH   4   6
HETATM    6  S   UNL     1     -10.116  10.161  68.112  1.00  0.00    -0.160 S  
HETATM    7  O   UNL     1      -9.348   8.940  67.997  1.00  0.00    -0.141 OA 
HETATM    8  O   UNL     1     -11.500  10.222  67.725  1.00  0.00    -0.351 OA 
BRANCH   6   9
HETATM    9  N   UNL     1      -9.226  11.359  67.351  1.00  0.00    -0.162 N  
HETATM   10  H   UNL     1      -8.247  11.531  67.582  1.00  0.00     0.000 HD 
BRANCH   9  11
HETATM   11  C   UNL     1      -9.908  12.118  66.372  1.00  0.00    -0.227 A  
HETATM   12  C   UNL     1     -10.583  13.317  66.636  1.00  0.00    -0.283 A  
HETATM   13  C   UNL     1     -11.041  13.902  65.446  1.00  0.00    -0.310 A  
HETATM   14  N   UNL     1      -9.808  11.508  65.175  1.00  0.00    -0.251 NA 
HETATM   15  N   UNL     1     -10.934  13.357  64.214  1.00  0.00    -0.388 NA 
HETATM   16  C   UNL     1     -10.333  12.170  64.146  1.00  0.00    -0.354 A  
BRANCH  12  17
HETATM   17  C   UNL     1     -10.848  13.911  67.997  1.00  0.00    -0.259 A  
HETATM   18  C   UNL     1      -9.982  14.816  68.633  1.00  0.00    -0.232 A  
HETATM   19  C   UNL     1     -10.275  15.436  69.855  1.00  0.00    -0.279 A  
HETATM   20  C   UNL     1     -12.342  14.237  69.941  1.00  0.00    -0.377 A  
HETATM   21  C   UNL     1     -12.017  13.604  68.728  1.00  0.00    -0.394 A  
HETATM   22 BR   UNL     1     -11.918  16.074  72.084  1.00  0.00    -0.657 Br 
HETATM   23  C   UNL     1     -11.473  15.166  70.490  1.00  0.00    -0.304 A  
ENDBRANCH  12  17
BRANCH  13  24
HETATM   24  O   UNL     1     -11.642  15.142  65.531  1.00  0.00    -0.272 OA 
BRANCH  24  25
HETATM   25  C   UNL     1     -11.120  16.188  64.711  1.00  0.00    -0.333 C  
BRANCH  25  26
HETATM   26  C   UNL     1     -10.455  17.199  65.646  1.00  0.00    -0.197 C  
BRANCH  26  27
HETATM   27  O   UNL     1      -9.065  16.911  65.769  1.00  0.00    -0.523 OA 
BRANCH  27  28
HETATM   28  C   UNL     1      -8.449  17.658  66.753  1.00  0.00    -0.251 A  
HETATM   29  N   UNL     1      -9.188  18.330  67.655  1.00  0.00    -0.265 NA 
HETATM   30  C   UNL     1      -8.500  19.031  68.582  1.00  0.00    -0.359 A  
HETATM   31  C   UNL     1      -7.126  19.081  68.634  1.00  0.00    -0.307 A  
HETATM   32  C   UNL     1      -6.473  18.362  67.661  1.00  0.00    -0.199 A  
HETATM   33 BR   UNL     1      -6.206  20.062  69.942  1.00  0.00    -0.386 Br 
HETATM   34  N   UNL     1      -7.108  17.643  66.709  1.00  0.00    -0.186 NA 
ENDBRANCH  27  28
ENDBRANCH  26  27
ENDBRANCH  25  26
ENDBRANCH  24  25
ENDBRANCH  13  24
ENDBRANCH   9  11
ENDBRANCH   6   9
ENDBRANCH   4   6
ENDBRANCH   3   4
ENDBRANCH   2   3
TORSDOF 11
ENDMDL
MODEL       12
REMARK 921   NORMALIZED FREE ENERGY PREDICTED BY IDOCK:   -6.44 KCAL/MOL
REMARK 922        TOTAL FREE ENERGY PREDICTED BY IDOCK:  -11.99 KCAL/MOL
REMARK 923 INTER-LIGAND FREE ENERGY PREDICTED BY IDOCK:  -11.32 KCAL/MOL
REMARK 924 INTRA-LIGAND FREE ENERGY PREDICTED BY IDOCK:   -0.67 KCAL/MOL
REMARK 927      BINDING AFFINITY PREDICTED BY RF-SCORE:    0.00 PKD
ROOT
HETATM    1  C   UNL     1     -10.380  19.984  68.313  1.00  0.00    -0.494 C  
HETATM    2  C   UNL     1     -10.272  20.075  66.799  1.00  0.00    -0.592 C  
ENDROOT
BRANCH   2   3
HETATM    3  C   UNL     1     -10.477  18.723  66.125  1.00  0.00    -0.446 C  
BRANCH   3   4
HETATM    4  N   UNL     1     -10.665  17.669  67.163  1.00  0.00    -0.262 N  
HETATM    5  H   UNL     1     -10.934  17.861  68.127  1.00  0.00     0.000 HD 
BRANCH   4   6
HETATM    6  S   UNL     1     -10.379  16.132  66.557  1.00  0.00    -0.309 S  
HETATM    7  O   UNL     1     -10.411  16.287  65.118  1.00  0.00    -0.587 OA 
HETATM    8  O   UNL     1      -9.238  15.573  67.231  1.00  0.00    -0.201 OA 
BRANCH   6   9
HETATM    9  N   UNL     1     -11.782  15.322  66.981  1.00  0.00    -0.112 N  
HETATM   10  H   UNL     1     -12.680  15.802  67.054  1.00  0.00     0.000 HD 
BRANCH   9  11
HETATM   11  C   UNL     1     -11.653  13.936  67.233  1.00  0.00    -0.365 A  
HETATM   12  C   UNL     1     -11.849  13.343  68.487  1.00  0.00    -0.401 A  
HETATM   13  C   UNL     1     -11.784  11.946  68.392  1.00  0.00    -0.326 A  
HETATM   14  N   UNL     1     -11.313  13.299  66.095  1.00  0.00    -0.301 NA 
HETATM   15  N   UNL     1     -11.487  11.250  67.272  1.00  0.00    -0.510 NA 
HETATM   16  C   UNL     1     -11.249  11.972  66.178  1.00  0.00    -0.343 A  
BRANCH  12  17
HETATM   17  C   UNL     1     -12.055  14.067  69.794  1.00  0.00    -0.405 A  
HETATM   18  C   UNL     1     -13.060  13.735  70.718  1.00  0.00    -0.165 A  
HETATM   19  C   UNL     1     -13.190  14.349  71.971  1.00  0.00    -0.453 A  
HETATM   20  C   UNL     1     -11.321  15.747  71.455  1.00  0.00    -0.438 A  
HETATM   21  C   UNL     1     -11.223  15.138  70.191  1.00  0.00    -0.299 A  
HETATM   22 BR   UNL     1     -12.405  16.093  74.072  1.00  0.00    -0.670 Br 
HETATM   23  C   UNL     1     -12.297  15.334  72.347  1.00  0.00    -0.373 A  
ENDBRANCH  12  17
BRANCH  13  24
HETATM   24  O   UNL     1     -12.055  11.213  69.529  1.00  0.00    -0.322 OA 
BRANCH  24  25
HETATM   25  C   UNL     1     -11.082  10.255  69.948  1.00  0.00    -0.304 C  
BRANCH  25  26
HETATM   26  C   UNL     1     -11.668   9.520  71.154  1.00  0.00    -0.363 C  
BRANCH  26  27
HETATM   27  O   UNL     1     -10.631   9.185  72.072  1.00  0.00    -0.333 OA 
BRANCH  27  28
HETATM   28  C   UNL     1     -10.654   7.855  72.444  1.00  0.00    -0.298 A  
HETATM   29  N   UNL     1     -10.302   7.496  73.692  1.00  0.00    -0.322 NA 
HETATM   30  C   UNL     1     -10.356   6.174  73.967  1.00  0.00    -0.300 A  
HETATM   31  C   UNL     1     -10.741   5.222  73.052  1.00  0.00    -0.257 A  
HETATM   32  C   UNL     1     -11.074   5.701  71.807  1.00  0.00    -0.199 A  
HETATM   33 BR   UNL     1     -10.810   3.395  73.475  1.00  0.00    -0.332 Br 
HETATM   34  N   UNL     1     -11.038   7.010  71.475  1.00  0.00    -0.239 NA 
ENDBRANCH  27  28
ENDBRANCH  26  27
ENDBRANCH  25  26
ENDBRANCH  24  25
ENDBRANCH  13  24
ENDBRANCH   9  11
ENDBRANCH   6   9
ENDBRANCH   4   6
ENDBRANCH   3   4
ENDBRANCH   2   3
TORSDOF 11
ENDMDL
MODEL       13
REMARK 921   NORMALIZED FREE ENERGY PREDICTED BY IDOCK:   -6.42 KCAL/MOL
REMARK 922        TOTAL FREE ENERGY PREDICTED BY IDOCK:  -11.97 KCAL/MOL
REMARK 923 INTER-LIGAND FREE ENERGY PREDICTED BY IDOCK:  -10.06 KCAL/MOL
REMARK 924 INTRA-LIGAND FREE ENERGY PREDICTED BY IDOCK:   -1.91 KCAL/MOL
REMARK 927      BINDING AFFINITY PREDICTED BY RF-SCORE:    0.00 PKD
ROOT
HETATM    1  C   UNL     1     -11.644  14.702  64.677  1.00  0.00    -0.406 C  
HETATM    2  C   UNL     1     -10.286  14.899  65.331  1.00  0.00    -0.409 C  
ENDROOT
BRANCH   2   3
HETATM    3  C   UNL     1     -10.260  16.116  66.249  1.00  0.00    -0.320 C  
BRANCH   3   4
HETATM    4  N   UNL     1      -9.485  15.798  67.481  1.00  0.00    -0.217 N  
HETATM    5  H   UNL     1      -8.601  15.290  67.483  1.00  0.00     0.000 HD 
BRANCH   4   6
HETATM    6  S   UNL     1     -10.236  16.377  68.864  1.00  0.00    -0.276 S  
HETATM    7  O   UNL     1      -9.631  15.639  69.953  1.00  0.00    -0.262 OA 
HETATM    8  O   UNL     1     -10.228  17.815  68.829  1.00  0.00    -0.366 OA 
BRANCH   6   9
HETATM    9  N   UNL     1     -11.792  15.781  68.691  1.00  0.00    -0.497 N  
HETATM   10  H   UNL     1     -12.405  16.087  67.935  1.00  0.00     0.000 HD 
BRANCH   9  11
HETATM   11  C   UNL     1     -12.209  14.830  69.653  1.00  0.00    -0.270 A  
HETATM   12  C   UNL     1     -11.872  13.471  69.612  1.00  0.00    -0.398 A  
HETATM   13  C   UNL     1     -12.316  12.814  70.769  1.00  0.00    -0.287 A  
HETATM   14  N   UNL     1     -12.970  15.435  70.587  1.00  0.00    -0.433 NA 
HETATM   15  N   UNL     1     -13.047  13.376  71.757  1.00  0.00    -0.389 NA 
HETATM   16  C   UNL     1     -13.352  14.664  71.603  1.00  0.00    -0.355 A  
BRANCH  12  17
HETATM   17  C   UNL     1     -11.173  12.758  68.481  1.00  0.00    -0.314 A  
HETATM   18  C   UNL     1      -9.786  12.535  68.441  1.00  0.00    -0.202 A  
HETATM   19  C   UNL     1      -9.153  11.793  67.436  1.00  0.00    -0.175 A  
HETATM   20  C   UNL     1     -11.270  11.472  66.372  1.00  0.00    -0.307 A  
HETATM   21  C   UNL     1     -11.883  12.243  67.374  1.00  0.00    -0.327 A  
HETATM   22 BR   UNL     1      -9.072  10.152  65.117  1.00  0.00    -0.270 Br 
HETATM   23  C   UNL     1      -9.906  11.236  66.418  1.00  0.00    -0.211 A  
ENDBRANCH  12  17
BRANCH  13  24
HETATM   24  O   UNL     1     -11.974  11.486  70.923  1.00  0.00    -0.307 OA 
BRANCH  24  25
HETATM   25  C   UNL     1     -13.030  10.526  70.926  1.00  0.00    -0.367 C  
BRANCH  25  26
HETATM   26  C   UNL     1     -12.674   9.473  71.977  1.00  0.00    -0.396 C  
BRANCH  26  27
HETATM   27  O   UNL     1     -11.333   9.031  71.791  1.00  0.00    -0.334 OA 
BRANCH  27  28
HETATM   28  C   UNL     1     -11.062   7.848  72.449  1.00  0.00    -0.333 A  
HETATM   29  N   UNL     1     -10.034   7.777  73.315  1.00  0.00    -0.310 NA 
HETATM   30  C   UNL     1      -9.845   6.580  73.914  1.00  0.00    -0.252 A  
HETATM   31  C   UNL     1     -10.634   5.478  73.678  1.00  0.00    -0.282 A  
HETATM   32  C   UNL     1     -11.651   5.664  72.772  1.00  0.00    -0.232 A  
HETATM   33 BR   UNL     1     -10.343   3.834  74.536  1.00  0.00    -0.255 Br 
HETATM   34  N   UNL     1     -11.887   6.836  72.142  1.00  0.00    -0.300 NA 
ENDBRANCH  27  28
ENDBRANCH  26  27
ENDBRANCH  25  26
ENDBRANCH  24  25
ENDBRANCH  13  24
ENDBRANCH   9  11
ENDBRANCH   6   9
ENDBRANCH   4   6
ENDBRANCH   3   4
ENDBRANCH   2   3
TORSDOF 11
ENDMDL
MODEL       14
REMARK 921   NORMALIZED FREE ENERGY PREDICTED BY IDOCK:   -6.39 KCAL/MOL
REMARK 922        TOTAL FREE ENERGY PREDICTED BY IDOCK:  -11.92 KCAL/MOL
REMARK 923 INTER-LIGAND FREE ENERGY PREDICTED BY IDOCK:  -10.75 KCAL/MOL
REMARK 924 INTRA-LIGAND FREE ENERGY PREDICTED BY IDOCK:   -1.17 KCAL/MOL
REMARK 927      BINDING AFFINITY PREDICTED BY RF-SCORE:    0.00 PKD
ROOT
HETATM    1  C   UNL     1     -10.092  19.609  68.626  1.00  0.00    -0.547 C  
HETATM    2  C   UNL     1      -9.169  20.042  67.499  1.00  0.00    -0.475 C  
ENDROOT
BRANCH   2   3
HETATM    3  C   UNL     1      -9.164  19.048  66.344  1.00  0.00    -0.334 C  
BRANCH   3   4
HETATM    4  N   UNL     1     -10.484  18.359  66.270  1.00  0.00    -0.412 N  
HETATM    5  H   UNL     1     -11.360  18.771  66.590  1.00  0.00     0.000 HD 
BRANCH   4   6
HETATM    6  S   UNL     1     -10.358  16.828  65.598  1.00  0.00    -0.186 S  
HETATM    7  O   UNL     1     -11.119  16.896  64.369  1.00  0.00    -1.128 OA 
HETATM    8  O   UNL     1      -8.975  16.430  65.609  1.00  0.00    -0.427 OA 
BRANCH   6   9
HETATM    9  N   UNL     1     -11.257  15.902  66.666  1.00  0.00    -0.041 N  
HETATM   10  H   UNL     1     -11.723  16.314  67.475  1.00  0.00     0.000 HD 
BRANCH   9  11
HETATM   11  C   UNL     1     -11.334  14.518  66.383  1.00  0.00    -0.349 A  
HETATM   12  C   UNL     1     -10.466  13.557  66.918  1.00  0.00    -0.271 A  
HETATM   13  C   UNL     1     -10.876  12.264  66.562  1.00  0.00    -0.259 A  
HETATM   14  N   UNL     1     -12.350  14.286  65.530  1.00  0.00    -0.420 NA 
HETATM   15  N   UNL     1     -11.910  11.968  65.744  1.00  0.00    -0.480 NA 
HETATM   16  C   UNL     1     -12.587  13.005  65.254  1.00  0.00    -0.457 A  
BRANCH  12  17
HETATM   17  C   UNL     1      -9.223  13.829  67.729  1.00  0.00    -0.206 A  
HETATM   18  C   UNL     1      -7.998  13.175  67.518  1.00  0.00    -0.179 A  
HETATM   19  C   UNL     1      -6.823  13.495  68.210  1.00  0.00    -0.108 A  
HETATM   20  C   UNL     1      -8.030  15.146  69.449  1.00  0.00    -0.205 A  
HETATM   21  C   UNL     1      -9.205  14.791  68.763  1.00  0.00    -0.196 A  
HETATM   22 BR   UNL     1      -5.237  15.009  70.018  1.00  0.00    -0.107 Br 
HETATM   23  C   UNL     1      -6.837  14.505  69.155  1.00  0.00    -0.123 A  
ENDBRANCH  12  17
BRANCH  13  24
HETATM   24  O   UNL     1     -10.178  11.201  67.096  1.00  0.00    -0.189 OA 
BRANCH  24  25
HETATM   25  C   UNL     1     -10.922  10.205  67.798  1.00  0.00    -0.277 C  
BRANCH  25  26
HETATM   26  C   UNL     1     -10.746  10.483  69.291  1.00  0.00    -0.234 C  
BRANCH  26  27
HETATM   27  O   UNL     1     -12.011  10.458  69.946  1.00  0.00    -0.260 OA 
BRANCH  27  28
HETATM   28  C   UNL     1     -12.310  11.647  70.580  1.00  0.00    -0.344 A  
HETATM   29  N   UNL     1     -11.810  12.806  70.113  1.00  0.00    -0.296 NA 
HETATM   30  C   UNL     1     -12.157  13.920  70.795  1.00  0.00    -0.330 A  
HETATM   31  C   UNL     1     -12.970  13.910  71.905  1.00  0.00    -0.354 A  
HETATM   32  C   UNL     1     -13.418  12.671  72.296  1.00  0.00    -0.438 A  
HETATM   33 BR   UNL     1     -13.435  15.480  72.822  1.00  0.00    -0.681 Br 
HETATM   34  N   UNL     1     -13.104  11.525  71.655  1.00  0.00    -0.439 NA 
ENDBRANCH  27  28
ENDBRANCH  26  27
ENDBRANCH  25  26
ENDBRANCH  24  25
ENDBRANCH  13  24
ENDBRANCH   9  11
ENDBRANCH   6   9
ENDBRANCH   4   6
ENDBRANCH   3   4
ENDBRANCH   2   3
TORSDOF 11
ENDMDL
MODEL       15
REMARK 921   NORMALIZED FREE ENERGY PREDICTED BY IDOCK:   -6.37 KCAL/MOL
REMARK 922        TOTAL FREE ENERGY PREDICTED BY IDOCK:  -11.88 KCAL/MOL
REMARK 923 INTER-LIGAND FREE ENERGY PREDICTED BY IDOCK:  -10.53 KCAL/MOL
REMARK 924 INTRA-LIGAND FREE ENERGY PREDICTED BY IDOCK:   -1.35 KCAL/MOL
REMARK 927      BINDING AFFINITY PREDICTED BY RF-SCORE:    0.00 PKD
ROOT
HETATM    1  C   UNL     1     -14.076   8.410  71.814  1.00  0.00    -0.509 C  
HETATM    2  C   UNL     1     -12.986   7.382  71.556  1.00  0.00    -0.421 C  
ENDROOT
BRANCH   2   3
HETATM    3  C   UNL     1     -11.603   7.904  71.929  1.00  0.00    -0.292 C  
BRANCH   3   4
HETATM    4  N   UNL     1     -11.463   9.318  71.478  1.00  0.00    -0.358 N  
HETATM    5  H   UNL     1     -11.698  10.126  72.054  1.00  0.00     0.000 HD 
BRANCH   4   6
HETATM    6  S   UNL     1     -10.873   9.423  69.912  1.00  0.00    -0.232 S  
HETATM    7  O   UNL     1      -9.738  10.317  70.001  1.00  0.00    -0.160 OA 
HETATM    8  O   UNL     1     -10.748   8.095  69.374  1.00  0.00    -0.224 OA 
BRANCH   6   9
HETATM    9  N   UNL     1     -12.090  10.273  69.136  1.00  0.00    -0.493 N  
HETATM   10  H   UNL     1     -12.793   9.805  68.563  1.00  0.00     0.000 HD 
BRANCH   9  11
HETATM   11  C   UNL     1     -12.088  11.676  69.319  1.00  0.00    -0.259 A  
HETATM   12  C   UNL     1     -11.753  12.599  68.320  1.00  0.00    -0.389 A  
HETATM   13  C   UNL     1     -11.975  13.911  68.761  1.00  0.00    -0.358 A  
HETATM   14  N   UNL     1     -12.447  11.967  70.585  1.00  0.00    -0.290 NA 
HETATM   15  N   UNL     1     -12.373  14.263  70.005  1.00  0.00    -0.345 NA 
HETATM   16  C   UNL     1     -12.572  13.263  70.862  1.00  0.00    -0.306 A  
BRANCH  12  17
HETATM   17  C   UNL     1     -11.183  12.276  66.961  1.00  0.00    -0.367 A  
HETATM   18  C   UNL     1      -9.836  11.940  66.743  1.00  0.00    -0.214 A  
HETATM   19  C   UNL     1      -9.331  11.552  65.495  1.00  0.00    -0.203 A  
HETATM   20  C   UNL     1     -11.503  11.860  64.545  1.00  0.00    -0.363 A  
HETATM   21  C   UNL     1     -11.985  12.274  65.799  1.00  0.00    -0.362 A  
HETATM   22 BR   UNL     1      -9.525  10.865  62.745  1.00  0.00    -0.360 Br 
HETATM   23  C   UNL     1     -10.177  11.483  64.404  1.00  0.00    -0.300 A  
ENDBRANCH  12  17
BRANCH  13  24
HETATM   24  O   UNL     1     -11.785  14.934  67.854  1.00  0.00    -0.340 OA 
BRANCH  24  25
HETATM   25  C   UNL     1     -10.540  15.631  67.893  1.00  0.00    -0.278 C  
BRANCH  25  26
HETATM   26  C   UNL     1     -10.846  17.070  68.312  1.00  0.00    -0.341 C  
BRANCH  26  27
HETATM   27  O   UNL     1     -10.642  17.953  67.213  1.00  0.00    -0.373 OA 
BRANCH  27  28
HETATM   28  C   UNL     1      -9.473  18.679  67.318  1.00  0.00    -0.298 A  
HETATM   29  N   UNL     1      -8.951  18.947  68.529  1.00  0.00    -0.342 NA 
HETATM   30  C   UNL     1      -7.803  19.661  68.536  1.00  0.00    -0.323 A  
HETATM   31  C   UNL     1      -7.177  20.106  67.395  1.00  0.00    -0.276 A  
HETATM   32  C   UNL     1      -7.802  19.779  66.214  1.00  0.00    -0.328 A  
HETATM   33 BR   UNL     1      -5.580  21.090  67.445  1.00  0.00    -0.360 Br 
HETATM   34  N   UNL     1      -8.949  19.069  66.146  1.00  0.00    -0.467 NA 
ENDBRANCH  27  28
ENDBRANCH  26  27
ENDBRANCH  25  26
ENDBRANCH  24  25
ENDBRANCH  13  24
ENDBRANCH   9  11
ENDBRANCH   6   9
ENDBRANCH   4   6
ENDBRANCH   3   4
ENDBRANCH   2   3
TORSDOF 11
ENDMDL
MODEL       16
REMARK 921   NORMALIZED FREE ENERGY PREDICTED BY IDOCK:   -6.34 KCAL/MOL
REMARK 922        TOTAL FREE ENERGY PREDICTED BY IDOCK:  -11.83 KCAL/MOL
REMARK 923 INTER-LIGAND FREE ENERGY PREDICTED BY IDOCK:   -9.85 KCAL/MOL
REMARK 924 INTRA-LIGAND FREE ENERGY PREDICTED BY IDOCK:   -1.98 KCAL/MOL
REMARK 927      BINDING AFFINITY PREDICTED BY RF-SCORE:    0.00 PKD
ROOT
HETATM    1  C   UNL     1      -5.712  17.423  69.446  1.00  0.00    -0.210 C  
HETATM    2  C   UNL     1      -5.654  16.259  70.422  1.00  0.00    -0.141 C  
ENDROOT
BRANCH   2   3
HETATM    3  C   UNL     1      -5.327  14.942  69.729  1.00  0.00    -0.095 C  
BRANCH   3   4
HETATM    4  N   UNL     1      -6.441  13.975  69.940  1.00  0.00    -0.252 N  
HETATM    5  H   UNL     1      -6.502  13.341  70.737  1.00  0.00     0.000 HD 
BRANCH   4   6
HETATM    6  S   UNL     1      -7.582  14.050  68.713  1.00  0.00    -0.083 S  
HETATM    7  O   UNL     1      -8.540  15.040  69.156  1.00  0.00    -0.196 OA 
HETATM    8  O   UNL     1      -6.898  14.171  67.453  1.00  0.00    -0.213 OA 
BRANCH   6   9
HETATM    9  N   UNL     1      -8.337  12.561  68.846  1.00  0.00    -0.344 N  
HETATM   10  H   UNL     1      -8.205  11.961  69.661  1.00  0.00     0.000 HD 
BRANCH   9  11
HETATM   11  C   UNL     1      -9.170  12.183  67.766  1.00  0.00    -0.189 A  
HETATM   12  C   UNL     1     -10.522  12.531  67.657  1.00  0.00    -0.228 A  
HETATM   13  C   UNL     1     -11.040  12.128  66.418  1.00  0.00    -0.314 A  
HETATM   14  N   UNL     1      -8.463  11.447  66.887  1.00  0.00    -0.152 NA 
HETATM   15  N   UNL     1     -10.369  11.423  65.480  1.00  0.00    -0.256 NA 
HETATM   16  C   UNL     1      -9.110  11.103  65.775  1.00  0.00    -0.206 A  
BRANCH  12  17
HETATM   17  C   UNL     1     -11.360  13.200  68.718  1.00  0.00    -0.333 A  
HETATM   18  C   UNL     1     -11.855  12.536  69.853  1.00  0.00    -0.373 A  
HETATM   19  C   UNL     1     -12.555  13.181  70.881  1.00  0.00    -0.377 A  
HETATM   20  C   UNL     1     -12.371  15.241  69.681  1.00  0.00    -0.245 A  
HETATM   21  C   UNL     1     -11.696  14.570  68.647  1.00  0.00    -0.364 A  
HETATM   22 BR   UNL     1     -13.635  15.435  72.233  1.00  0.00    -0.660 Br 
HETATM   23  C   UNL     1     -12.783  14.543  70.805  1.00  0.00    -0.360 A  
ENDBRANCH  12  17
BRANCH  13  24
HETATM   24  O   UNL     1     -12.339  12.487  66.119  1.00  0.00    -0.596 OA 
BRANCH  24  25
HETATM   25  C   UNL     1     -12.587  13.067  64.838  1.00  0.00    -0.428 C  
BRANCH  25  26
HETATM   26  C   UNL     1     -12.399  14.577  64.986  1.00  0.00    -0.349 C  
BRANCH  26  27
HETATM   27  O   UNL     1     -11.128  14.964  64.471  1.00  0.00    -0.327 OA 
BRANCH  27  28
HETATM   28  C   UNL     1     -10.585  16.045  65.138  1.00  0.00    -0.370 A  
HETATM   29  N   UNL     1      -9.588  15.861  66.023  1.00  0.00    -0.326 NA 
HETATM   30  C   UNL     1      -9.117  16.975  66.626  1.00  0.00    -0.254 A  
HETATM   31  C   UNL     1      -9.603  18.238  66.378  1.00  0.00    -0.305 A  
HETATM   32  C   UNL     1     -10.626  18.306  65.461  1.00  0.00     0.046 A  
HETATM   33 BR   UNL     1      -8.918  19.762  67.231  1.00  0.00    -0.428 Br 
HETATM   34  N   UNL     1     -11.136  17.228  64.827  1.00  0.00    -0.920 NA 
ENDBRANCH  27  28
ENDBRANCH  26  27
ENDBRANCH  25  26
ENDBRANCH  24  25
ENDBRANCH  13  24
ENDBRANCH   9  11
ENDBRANCH   6   9
ENDBRANCH   4   6
ENDBRANCH   3   4
ENDBRANCH   2   3
TORSDOF 11
ENDMDL
MODEL       17
REMARK 921   NORMALIZED FREE ENERGY PREDICTED BY IDOCK:   -6.33 KCAL/MOL
REMARK 922        TOTAL FREE ENERGY PREDICTED BY IDOCK:  -11.81 KCAL/MOL
REMARK 923 INTER-LIGAND FREE ENERGY PREDICTED BY IDOCK:  -10.77 KCAL/MOL
REMARK 924 INTRA-LIGAND FREE ENERGY PREDICTED BY IDOCK:   -1.04 KCAL/MOL
REMARK 927      BINDING AFFINITY PREDICTED BY RF-SCORE:    0.00 PKD
ROOT
HETATM    1  C   UNL     1     -11.558   5.126  72.724  1.00  0.00    -0.241 C  
HETATM    2  C   UNL     1     -10.657   5.625  71.606  1.00  0.00    -0.301 C  
ENDROOT
BRANCH   2   3
HETATM    3  C   UNL     1      -9.406   6.314  72.140  1.00  0.00    -0.150 C  
BRANCH   3   4
HETATM    4  N   UNL     1      -8.836   7.202  71.088  1.00  0.00    -0.143 N  
HETATM    5  H   UNL     1      -8.436   6.865  70.212  1.00  0.00     0.000 HD 
BRANCH   4   6
HETATM    6  S   UNL     1      -8.928   8.822  71.514  1.00  0.00    -0.212 S  
HETATM    7  O   UNL     1      -8.869   8.830  72.960  1.00  0.00    -0.340 OA 
HETATM    8  O   UNL     1      -7.991   9.565  70.715  1.00  0.00    -0.251 OA 
BRANCH   6   9
HETATM    9  N   UNL     1     -10.506   9.203  71.099  1.00  0.00    -0.287 N  
HETATM   10  H   UNL     1     -11.256   9.219  71.790  1.00  0.00     0.000 HD 
BRANCH   9  11
HETATM   11  C   UNL     1     -10.739   9.501  69.735  1.00  0.00    -0.239 A  
HETATM   12  C   UNL     1     -11.295  10.702  69.278  1.00  0.00    -0.346 A  
HETATM   13  C   UNL     1     -11.276  10.756  67.877  1.00  0.00    -0.318 A  
HETATM   14  N   UNL     1     -10.353   8.460  68.972  1.00  0.00    -0.218 NA 
HETATM   15  N   UNL     1     -10.864   9.761  67.059  1.00  0.00    -0.160 NA 
HETATM   16  C   UNL     1     -10.437   8.650  67.657  1.00  0.00    -0.244 A  
BRANCH  12  17
HETATM   17  C   UNL     1     -11.890  11.793  70.132  1.00  0.00    -0.408 A  
HETATM   18  C   UNL     1     -12.725  11.549  71.236  1.00  0.00    -0.469 A  
HETATM   19  C   UNL     1     -13.201  12.560  72.082  1.00  0.00    -0.508 A  
HETATM   20  C   UNL     1     -12.073  14.184  70.738  1.00  0.00    -0.419 A  
HETATM   21  C   UNL     1     -11.628  13.159  69.885  1.00  0.00    -0.255 A  
HETATM   22 BR   UNL     1     -13.400  15.228  73.039  1.00  0.00    -0.616 Br 
HETATM   23  C   UNL     1     -12.845  13.875  71.846  1.00  0.00    -0.322 A  
ENDBRANCH  12  17
BRANCH  13  24
HETATM   24  O   UNL     1     -11.701  11.923  67.274  1.00  0.00    -0.518 OA 
BRANCH  24  25
HETATM   25  C   UNL     1     -11.329  12.139  65.913  1.00  0.00    -0.356 C  
BRANCH  25  26
HETATM   26  C   UNL     1     -10.343  13.308  65.899  1.00  0.00    -0.292 C  
BRANCH  26  27
HETATM   27  O   UNL     1     -10.919  14.425  65.227  1.00  0.00    -0.314 OA 
BRANCH  27  28
HETATM   28  C   UNL     1     -10.728  15.614  65.903  1.00  0.00    -0.329 A  
HETATM   29  N   UNL     1     -10.583  16.764  65.219  1.00  0.00    -0.648 NA 
HETATM   30  C   UNL     1     -10.403  17.878  65.964  1.00  0.00    -0.318 A  
HETATM   31  C   UNL     1     -10.364  17.876  67.338  1.00  0.00    -0.378 A  
HETATM   32  C   UNL     1     -10.518  16.645  67.931  1.00  0.00    -0.322 A  
HETATM   33 BR   UNL     1     -10.119  19.446  68.337  1.00  0.00    -0.544 Br 
HETATM   34  N   UNL     1     -10.700  15.499  67.240  1.00  0.00    -0.304 NA 
ENDBRANCH  27  28
ENDBRANCH  26  27
ENDBRANCH  25  26
ENDBRANCH  24  25
ENDBRANCH  13  24
ENDBRANCH   9  11
ENDBRANCH   6   9
ENDBRANCH   4   6
ENDBRANCH   3   4
ENDBRANCH   2   3
TORSDOF 11
ENDMDL
MODEL       18
REMARK 921   NORMALIZED FREE ENERGY PREDICTED BY IDOCK:   -6.32 KCAL/MOL
REMARK 922        TOTAL FREE ENERGY PREDICTED BY IDOCK:  -11.81 KCAL/MOL
REMARK 923 INTER-LIGAND FREE ENERGY PREDICTED BY IDOCK:  -10.08 KCAL/MOL
REMARK 924 INTRA-LIGAND FREE ENERGY PREDICTED BY IDOCK:   -1.73 KCAL/MOL
REMARK 927      BINDING AFFINITY PREDICTED BY RF-SCORE:    0.00 PKD
ROOT
HETATM    1  C   UNL     1     -13.577  13.285  72.127  1.00  0.00    -0.655 C  
HETATM    2  C   UNL     1     -13.213  14.586  72.824  1.00  0.00    -0.600 C  
ENDROOT
BRANCH   2   3
HETATM    3  C   UNL     1     -12.418  15.520  71.920  1.00  0.00    -0.400 C  
BRANCH   3   4
HETATM    4  N   UNL     1     -11.252  14.789  71.346  1.00  0.00    -0.532 N  
HETATM    5  H   UNL     1     -10.666  14.146  71.877  1.00  0.00     0.000 HD 
BRANCH   4   6
HETATM    6  S   UNL     1     -11.019  15.151  69.725  1.00  0.00    -0.291 S  
HETATM    7  O   UNL     1     -11.390  16.544  69.597  1.00  0.00    -0.246 OA 
HETATM    8  O   UNL     1      -9.722  14.675  69.327  1.00  0.00    -0.156 OA 
BRANCH   6   9
HETATM    9  N   UNL     1     -12.236  14.264  68.991  1.00  0.00    -0.533 N  
HETATM   10  H   UNL     1     -13.183  14.231  69.370  1.00  0.00     0.000 HD 
BRANCH   9  11
HETATM   11  C   UNL     1     -11.877  13.563  67.815  1.00  0.00    -0.362 A  
HETATM   12  C   UNL     1     -11.555  12.200  67.781  1.00  0.00    -0.410 A  
HETATM   13  C   UNL     1     -11.376  11.765  66.460  1.00  0.00    -0.305 A  
HETATM   14  N   UNL     1     -11.889  14.405  66.764  1.00  0.00    -0.410 NA 
HETATM   15  N   UNL     1     -11.416  12.554  65.363  1.00  0.00    -0.329 NA 
HETATM   16  C   UNL     1     -11.656  13.847  65.578  1.00  0.00    -0.327 A  
BRANCH  12  17
HETATM   17  C   UNL     1     -11.368  11.296  68.974  1.00  0.00    -0.344 A  
HETATM   18  C   UNL     1     -12.409  10.930  69.843  1.00  0.00    -0.354 A  
HETATM   19  C   UNL     1     -12.251  10.017  70.896  1.00  0.00    -0.441 A  
HETATM   20  C   UNL     1      -9.939   9.796  70.325  1.00  0.00    -0.309 A  
HETATM   21  C   UNL     1     -10.112  10.734  69.292  1.00  0.00    -0.200 A  
HETATM   22 BR   UNL     1     -10.824   8.125  72.463  1.00  0.00    -0.425 Br 
HETATM   23  C   UNL     1     -11.019   9.429  71.113  1.00  0.00    -0.360 A  
ENDBRANCH  12  17
BRANCH  13  24
HETATM   24  O   UNL     1     -11.151  10.419  66.253  1.00  0.00     0.060 OA 
BRANCH  24  25
HETATM   25  C   UNL     1      -9.932  10.043  65.609  1.00  0.00    -0.285 C  
BRANCH  25  26
HETATM   26  C   UNL     1      -9.528   8.682  66.177  1.00  0.00    -0.240 C  
BRANCH  26  27
HETATM   27  O   UNL     1     -10.649   8.059  66.798  1.00  0.00    -0.320 OA 
BRANCH  27  28
HETATM   28  C   UNL     1     -10.346   6.824  67.336  1.00  0.00    -0.223 A  
HETATM   29  N   UNL     1     -10.569   6.583  68.641  1.00  0.00    -0.220 NA 
HETATM   30  C   UNL     1     -10.244   5.346  69.080  1.00  0.00    -0.221 A  
HETATM   31  C   UNL     1      -9.715   4.367  68.271  1.00  0.00    -0.107 A  
HETATM   32  C   UNL     1      -9.525   4.725  66.958  1.00  0.00    -0.152 A  
HETATM   33 BR   UNL     1      -9.284   2.658  68.917  1.00  0.00    -0.223 Br 
HETATM   34  N   UNL     1      -9.830   5.945  66.464  1.00  0.00    -0.159 NA 
ENDBRANCH  27  28
ENDBRANCH  26  27
ENDBRANCH  25  26
ENDBRANCH  24  25
ENDBRANCH  13  24
ENDBRANCH   9  11
ENDBRANCH   6   9
ENDBRANCH   4   6
ENDBRANCH   3   4
ENDBRANCH   2   3
TORSDOF 11
ENDMDL
MODEL       19
REMARK 921   NORMALIZED FREE ENERGY PREDICTED BY IDOCK:   -6.30 KCAL/MOL
REMARK 922        TOTAL FREE ENERGY PREDICTED BY IDOCK:  -11.77 KCAL/MOL
REMARK 923 INTER-LIGAND FREE ENERGY PREDICTED BY IDOCK:  -10.82 KCAL/MOL
REMARK 924 INTRA-LIGAND FREE ENERGY PREDICTED BY IDOCK:   -0.94 KCAL/MOL
REMARK 927      BINDING AFFINITY PREDICTED BY RF-SCORE:    0.00 PKD
ROOT
HETATM    1  C   UNL     1      -8.138  12.847  67.543  1.00  0.00    -0.181 C  
HETATM    2  C   UNL     1      -7.940  11.387  67.166  1.00  0.00    -0.156 C  
ENDROOT
BRANCH   2   3
HETATM    3  C   UNL     1      -8.449  10.440  68.246  1.00  0.00    -0.123 C  
BRANCH   3   4
HETATM    4  N   UNL     1      -9.422  11.154  69.121  1.00  0.00    -0.407 N  
HETATM    5  H   UNL     1      -9.343  12.137  69.377  1.00  0.00     0.000 HD 
BRANCH   4   6
HETATM    6  S   UNL     1     -10.662  10.148  69.634  1.00  0.00    -0.281 S  
HETATM    7  O   UNL     1     -10.651   9.039  68.703  1.00  0.00    -0.212 OA 
HETATM    8  O   UNL     1     -10.536   9.945  71.052  1.00  0.00    -0.290 OA 
BRANCH   6   9
HETATM    9  N   UNL     1     -12.022  11.058  69.275  1.00  0.00    -0.362 N  
HETATM   10  H   UNL     1     -12.920  10.885  69.728  1.00  0.00     0.000 HD 
BRANCH   9  11
HETATM   11  C   UNL     1     -11.854  12.079  68.310  1.00  0.00    -0.287 A  
HETATM   12  C   UNL     1     -11.775  13.444  68.616  1.00  0.00    -0.384 A  
HETATM   13  C   UNL     1     -11.474  14.193  67.469  1.00  0.00    -0.340 A  
HETATM   14  N   UNL     1     -11.793  11.533  67.080  1.00  0.00    -0.530 NA 
HETATM   15  N   UNL     1     -11.361  13.697  66.217  1.00  0.00    -0.306 NA 
HETATM   16  C   UNL     1     -11.545  12.384  66.086  1.00  0.00    -0.396 A  
BRANCH  12  17
HETATM   17  C   UNL     1     -12.019  14.072  69.965  1.00  0.00    -0.404 A  
HETATM   18  C   UNL     1     -13.021  13.645  70.853  1.00  0.00    -0.256 A  
HETATM   19  C   UNL     1     -13.185  14.169  72.142  1.00  0.00    -0.510 A  
HETATM   20  C   UNL     1     -11.361  15.662  71.741  1.00  0.00    -0.436 A  
HETATM   21  C   UNL     1     -11.230  15.142  70.442  1.00  0.00    -0.310 A  
HETATM   22 BR   UNL     1     -12.483  15.798  74.362  1.00  0.00    -0.703 Br 
HETATM   23  C   UNL     1     -12.331  15.158  72.593  1.00  0.00    -0.378 A  
ENDBRANCH  12  17
BRANCH  13  24
HETATM   24  O   UNL     1     -11.265  15.548  67.626  1.00  0.00    -0.323 OA 
BRANCH  24  25
HETATM   25  C   UNL     1     -10.396  16.195  66.695  1.00  0.00    -0.296 C  
BRANCH  25  26
HETATM   26  C   UNL     1     -10.591  17.701  66.875  1.00  0.00    -0.235 C  
BRANCH  26  27
HETATM   27  O   UNL     1      -9.651  18.415  66.075  1.00  0.00    -0.493 OA 
BRANCH  27  28
HETATM   28  C   UNL     1      -8.654  19.009  66.822  1.00  0.00    -0.304 A  
HETATM   29  N   UNL     1      -8.055  20.130  66.379  1.00  0.00    -0.289 NA 
HETATM   30  C   UNL     1      -7.091  20.643  67.176  1.00  0.00    -0.331 A  
HETATM   31  C   UNL     1      -6.717  20.081  68.374  1.00  0.00    -0.301 A  
HETATM   32  C   UNL     1      -7.391  18.935  68.725  1.00  0.00    -0.322 A  
HETATM   33 BR   UNL     1      -5.377  20.828  69.456  1.00  0.00    -0.412 Br 
HETATM   34  N   UNL     1      -8.361  18.377  67.969  1.00  0.00    -0.265 NA 
ENDBRANCH  27  28
ENDBRANCH  26  27
ENDBRANCH  25  26
ENDBRANCH  24  25
ENDBRANCH  13  24
ENDBRANCH   9  11
ENDBRANCH   6   9
ENDBRANCH   4   6
ENDBRANCH   3   4
ENDBRANCH   2   3
TORSDOF 11
ENDMDL
MODEL       20
REMARK 921   NORMALIZED FREE ENERGY PREDICTED BY IDOCK:   -6.26 KCAL/MOL
REMARK 922        TOTAL FREE ENERGY PREDICTED BY IDOCK:  -11.70 KCAL/MOL
REMARK 923 INTER-LIGAND FREE ENERGY PREDICTED BY IDOCK:  -10.96 KCAL/MOL
REMARK 924 INTRA-LIGAND FREE ENERGY PREDICTED BY IDOCK:   -0.74 KCAL/MOL
REMARK 927      BINDING AFFINITY PREDICTED BY RF-SCORE:    0.00 PKD
ROOT
HETATM    1  C   UNL     1     -13.157   8.787  72.267  1.00  0.00    -0.458 C  
HETATM    2  C   UNL     1     -12.503   7.734  71.386  1.00  0.00    -0.342 C  
ENDROOT
BRANCH   2   3
HETATM    3  C   UNL     1     -11.020   8.009  71.166  1.00  0.00    -0.243 C  
BRANCH   3   4
HETATM    4  N   UNL     1     -10.793   9.478  71.061  1.00  0.00    -0.329 N  
HETATM    5  H   UNL     1     -10.734  10.104  71.864  1.00  0.00     0.000 HD 
BRANCH   4   6
HETATM    6  S   UNL     1     -10.645   9.980  69.467  1.00  0.00    -0.261 S  
HETATM    7  O   UNL     1      -9.481  10.841  69.455  1.00  0.00    -0.092 OA 
HETATM    8  O   UNL     1     -10.742   8.830  68.609  1.00  0.00    -0.175 OA 
BRANCH   6   9
HETATM    9  N   UNL     1     -11.979  10.977  69.289  1.00  0.00    -0.362 N  
HETATM   10  H   UNL     1     -12.818  10.860  69.858  1.00  0.00     0.000 HD 
BRANCH   9  11
HETATM   11  C   UNL     1     -11.876  11.989  68.306  1.00  0.00    -0.287 A  
HETATM   12  C   UNL     1     -11.841  13.360  68.590  1.00  0.00    -0.397 A  
HETATM   13  C   UNL     1     -11.600  14.103  67.426  1.00  0.00    -0.372 A  
HETATM   14  N   UNL     1     -11.827  11.428  67.082  1.00  0.00    -0.522 NA 
HETATM   15  N   UNL     1     -11.501  13.593  66.178  1.00  0.00    -0.317 NA 
HETATM   16  C   UNL     1     -11.638  12.273  66.071  1.00  0.00    -0.393 A  
BRANCH  12  17
HETATM   17  C   UNL     1     -12.074  13.999  69.937  1.00  0.00    -0.406 A  
HETATM   18  C   UNL     1     -13.117  13.630  70.803  1.00  0.00    -0.122 A  
HETATM   19  C   UNL     1     -13.275  14.161  72.091  1.00  0.00    -0.510 A  
HETATM   20  C   UNL     1     -11.357  15.543  71.731  1.00  0.00    -0.463 A  
HETATM   21  C   UNL     1     -11.232  15.019  70.432  1.00  0.00    -0.290 A  
HETATM   22 BR   UNL     1     -12.521  15.739  74.330  1.00  0.00    -0.761 Br 
HETATM   23  C   UNL     1     -12.372  15.096  72.562  1.00  0.00    -0.370 A  
ENDBRANCH  12  17
BRANCH  13  24
HETATM   24  O   UNL     1     -11.439  15.468  67.557  1.00  0.00    -0.297 OA 
BRANCH  24  25
HETATM   25  C   UNL     1     -10.194  16.030  67.144  1.00  0.00    -0.278 C  
BRANCH  25  26
HETATM   26  C   UNL     1     -10.518  17.239  66.266  1.00  0.00    -0.268 C  
BRANCH  26  27
HETATM   27  O   UNL     1     -10.617  18.413  67.067  1.00  0.00    -0.395 OA 
BRANCH  27  28
HETATM   28  C   UNL     1      -9.387  18.972  67.354  1.00  0.00    -0.303 A  
HETATM   29  N   UNL     1      -8.934  18.993  68.621  1.00  0.00    -0.363 NA 
HETATM   30  C   UNL     1      -7.720  19.558  68.807  1.00  0.00    -0.340 A  
HETATM   31  C   UNL     1      -6.964  20.089  67.788  1.00  0.00    -0.270 A  
HETATM   32  C   UNL     1      -7.527  20.018  66.536  1.00  0.00    -0.276 A  
HETATM   33 BR   UNL     1      -5.278  20.859  68.087  1.00  0.00    -0.346 Br 
HETATM   34  N   UNL     1      -8.736  19.466  66.290  1.00  0.00    -0.351 NA 
ENDBRANCH  27  28
ENDBRANCH  26  27
ENDBRANCH  25  26
ENDBRANCH  24  25
ENDBRANCH  13  24
ENDBRANCH   9  11
ENDBRANCH   6   9
ENDBRANCH   4   6
ENDBRANCH   3   4
ENDBRANCH   2   3
TORSDOF 11
ENDMDL
MODEL       21
REMARK 921   NORMALIZED FREE ENERGY PREDICTED BY IDOCK:   -6.25 KCAL/MOL
REMARK 922        TOTAL FREE ENERGY PREDICTED BY IDOCK:  -11.69 KCAL/MOL
REMARK 923 INTER-LIGAND FREE ENERGY PREDICTED BY IDOCK:   -9.38 KCAL/MOL
REMARK 924 INTRA-LIGAND FREE ENERGY PREDICTED BY IDOCK:   -2.32 KCAL/MOL
REMARK 927      BINDING AFFINITY PREDICTED BY RF-SCORE:    0.00 PKD
ROOT
HETATM    1  C   UNL     1     -12.026  12.842  63.514  1.00  0.00    -0.629 C  
HETATM    2  C   UNL     1     -12.498  12.761  64.956  1.00  0.00    -0.572 C  
ENDROOT
BRANCH   2   3
HETATM    3  C   UNL     1     -12.469  14.118  65.648  1.00  0.00    -0.469 C  
BRANCH   3   4
HETATM    4  N   UNL     1     -12.011  13.953  67.057  1.00  0.00    -0.414 N  
HETATM    5  H   UNL     1     -12.569  13.517  67.791  1.00  0.00     0.000 HD 
BRANCH   4   6
HETATM    6  S   UNL     1     -10.469  14.569  67.293  1.00  0.00    -0.268 S  
HETATM    7  O   UNL     1      -9.653  13.926  66.285  1.00  0.00    -0.283 OA 
HETATM    8  O   UNL     1     -10.553  16.002  67.395  1.00  0.00    -0.307 OA 
BRANCH   6   9
HETATM    9  N   UNL     1     -10.040  13.887  68.761  1.00  0.00    -0.348 N  
HETATM   10  H   UNL     1      -9.078  13.899  69.100  1.00  0.00     0.000 HD 
BRANCH   9  11
HETATM   11  C   UNL     1     -11.087  13.292  69.504  1.00  0.00    -0.023 A  
HETATM   12  C   UNL     1     -11.316  11.911  69.572  1.00  0.00    -0.306 A  
HETATM   13  C   UNL     1     -12.337  11.622  70.490  1.00  0.00    -0.321 A  
HETATM   14  N   UNL     1     -11.812  14.251  70.113  1.00  0.00    -0.295 NA 
HETATM   15  N   UNL     1     -13.070  12.539  71.160  1.00  0.00    -0.138 NA 
HETATM   16  C   UNL     1     -12.777  13.815  70.920  1.00  0.00    -0.323 A  
BRANCH  12  17
HETATM   17  C   UNL     1     -10.623  10.850  68.756  1.00  0.00    -0.231 A  
HETATM   18  C   UNL     1      -9.550  10.078  69.234  1.00  0.00    -0.227 A  
HETATM   19  C   UNL     1      -8.969   9.030  68.507  1.00  0.00    -0.133 A  
HETATM   20  C   UNL     1     -10.473   9.479  66.703  1.00  0.00    -0.241 A  
HETATM   21  C   UNL     1     -11.024  10.544  67.437  1.00  0.00    -0.352 A  
HETATM   22 BR   UNL     1      -8.744   7.242  66.310  1.00  0.00    -0.172 Br 
HETATM   23  C   UNL     1      -9.456   8.715  67.252  1.00  0.00    -0.156 A  
ENDBRANCH  12  17
BRANCH  13  24
HETATM   24  O   UNL     1     -12.613  10.294  70.743  1.00  0.00    -0.325 OA 
BRANCH  24  25
HETATM   25  C   UNL     1     -13.245   9.974  71.984  1.00  0.00    -0.443 C  
BRANCH  25  26
HETATM   26  C   UNL     1     -12.713   8.608  72.417  1.00  0.00    -0.362 C  
BRANCH  26  27
HETATM   27  O   UNL     1     -11.296   8.566  72.273  1.00  0.00    -0.350 OA 
BRANCH  27  28
HETATM   28  C   UNL     1     -10.868   7.520  71.481  1.00  0.00    -0.227 A  
HETATM   29  N   UNL     1     -11.614   7.114  70.436  1.00  0.00    -0.283 NA 
HETATM   30  C   UNL     1     -11.116   6.085  69.716  1.00  0.00    -0.406 A  
HETATM   31  C   UNL     1      -9.923   5.463  70.002  1.00  0.00    -0.233 A  
HETATM   32  C   UNL     1      -9.248   5.956  71.094  1.00  0.00    -0.150 A  
HETATM   33 BR   UNL     1      -9.262   4.040  68.972  1.00  0.00    -0.232 Br 
HETATM   34  N   UNL     1      -9.697   6.980  71.850  1.00  0.00    -0.158 NA 
ENDBRANCH  27  28
ENDBRANCH  26  27
ENDBRANCH  25  26
ENDBRANCH  24  25
ENDBRANCH  13  24
ENDBRANCH   9  11
ENDBRANCH   6   9
ENDBRANCH   4   6
ENDBRANCH   3   4
ENDBRANCH   2   3
TORSDOF 11
ENDMDL
MODEL       22
REMARK 921   NORMALIZED FREE ENERGY PREDICTED BY IDOCK:   -6.23 KCAL/MOL
REMARK 922        TOTAL FREE ENERGY PREDICTED BY IDOCK:  -11.65 KCAL/MOL
REMARK 923 INTER-LIGAND FREE ENERGY PREDICTED BY IDOCK:   -9.69 KCAL/MOL
REMARK 924 INTRA-LIGAND FREE ENERGY PREDICTED BY IDOCK:   -1.96 KCAL/MOL
REMARK 927      BINDING AFFINITY PREDICTED BY RF-SCORE:    0.00 PKD
ROOT
HETATM    1  C   UNL     1      -9.811  19.607  68.552  1.00  0.00    -0.519 C  
HETATM    2  C   UNL     1      -9.936  20.040  67.100  1.00  0.00    -0.580 C  
ENDROOT
BRANCH   2   3
HETATM    3  C   UNL     1     -10.311  18.881  66.184  1.00  0.00    -0.460 C  
BRANCH   3   4
HETATM    4  N   UNL     1     -10.618  17.675  67.003  1.00  0.00    -0.300 N  
HETATM    5  H   UNL     1     -11.217  17.683  67.829  1.00  0.00     0.000 HD 
BRANCH   4   6
HETATM    6  S   UNL     1      -9.862  16.301  66.408  1.00  0.00    -0.312 S  
HETATM    7  O   UNL     1     -10.934  15.491  65.868  1.00  0.00    -0.320 OA 
HETATM    8  O   UNL     1      -8.740  16.703  65.603  1.00  0.00    -0.428 OA 
BRANCH   6   9
HETATM    9  N   UNL     1      -9.354  15.544  67.813  1.00  0.00    -0.195 N  
HETATM   10  H   UNL     1      -8.366  15.464  68.054  1.00  0.00     0.000 HD 
BRANCH   9  11
HETATM   11  C   UNL     1     -10.372  15.024  68.647  1.00  0.00    -0.236 A  
HETATM   12  C   UNL     1     -10.738  13.672  68.690  1.00  0.00    -0.272 A  
HETATM   13  C   UNL     1     -11.678  13.444  69.705  1.00  0.00    -0.286 A  
HETATM   14  N   UNL     1     -10.921  16.021  69.368  1.00  0.00    -0.296 NA 
HETATM   15  N   UNL     1     -12.233  14.397  70.487  1.00  0.00    -0.318 NA 
HETATM   16  C   UNL     1     -11.833  15.648  70.262  1.00  0.00    -0.365 A  
BRANCH  12  17
HETATM   17  C   UNL     1     -10.253  12.586  67.763  1.00  0.00    -0.217 A  
HETATM   18  C   UNL     1     -10.993  12.111  66.667  1.00  0.00    -0.325 A  
HETATM   19  C   UNL     1     -10.502  11.168  65.754  1.00  0.00    -0.305 A  
HETATM   20  C   UNL     1      -8.469  11.048  67.008  1.00  0.00    -0.141 A  
HETATM   21  C   UNL     1      -8.991  11.974  67.928  1.00  0.00    -0.182 A  
HETATM   22 BR   UNL     1      -8.521   9.469  64.631  1.00  0.00    -0.197 Br 
HETATM   23  C   UNL     1      -9.225  10.662  65.912  1.00  0.00    -0.182 A  
ENDBRANCH  12  17
BRANCH  13  24
HETATM   24  O   UNL     1     -12.065  12.140  69.940  1.00  0.00    -0.298 OA 
BRANCH  24  25
HETATM   25  C   UNL     1     -12.574  11.823  71.236  1.00  0.00    -0.296 C  
BRANCH  25  26
HETATM   26  C   UNL     1     -12.740  10.305  71.292  1.00  0.00    -0.421 C  
BRANCH  26  27
HETATM   27  O   UNL     1     -11.473   9.680  71.477  1.00  0.00    -0.377 OA 
BRANCH  27  28
HETATM   28  C   UNL     1     -11.184   8.753  70.496  1.00  0.00    -0.247 A  
HETATM   29  N   UNL     1     -10.645   9.151  69.328  1.00  0.00    -0.225 NA 
HETATM   30  C   UNL     1     -10.394   8.174  68.428  1.00  0.00    -0.199 A  
HETATM   31  C   UNL     1     -10.658   6.844  68.655  1.00  0.00    -0.223 A  
HETATM   32  C   UNL     1     -11.212   6.553  69.879  1.00  0.00    -0.395 A  
HETATM   33 BR   UNL     1     -10.288   5.516  67.382  1.00  0.00    -0.287 Br 
HETATM   34  N   UNL     1     -11.486   7.486  70.817  1.00  0.00    -0.284 NA 
ENDBRANCH  27  28
ENDBRANCH  26  27
ENDBRANCH  25  26
ENDBRANCH  24  25
ENDBRANCH  13  24
ENDBRANCH   9  11
ENDBRANCH   6   9
ENDBRANCH   4   6
ENDBRANCH   3   4
ENDBRANCH   2   3
TORSDOF 11
ENDMDL
MODEL       23
REMARK 921   NORMALIZED FREE ENERGY PREDICTED BY IDOCK:   -6.20 KCAL/MOL
REMARK 922        TOTAL FREE ENERGY PREDICTED BY IDOCK:  -11.60 KCAL/MOL
REMARK 923 INTER-LIGAND FREE ENERGY PREDICTED BY IDOCK:   -9.70 KCAL/MOL
REMARK 924 INTRA-LIGAND FREE ENERGY PREDICTED BY IDOCK:   -1.90 KCAL/MOL
REMARK 927      BINDING AFFINITY PREDICTED BY RF-SCORE:    0.00 PKD
ROOT
HETATM    1  C   UNL     1     -12.170  12.179  63.460  1.00  0.00    -0.670 C  
HETATM    2  C   UNL     1     -12.607  12.674  64.830  1.00  0.00    -0.530 C  
ENDROOT
BRANCH   2   3
HETATM    3  C   UNL     1     -12.433  14.181  64.980  1.00  0.00    -0.419 C  
BRANCH   3   4
HETATM    4  N   UNL     1     -11.954  14.496  66.356  1.00  0.00    -0.373 N  
HETATM    5  H   UNL     1     -12.506  14.345  67.199  1.00  0.00     0.000 HD 
BRANCH   4   6
HETATM    6  S   UNL     1     -10.401  15.128  66.352  1.00  0.00    -0.298 S  
HETATM    7  O   UNL     1      -9.716  14.426  65.287  1.00  0.00    -0.243 OA 
HETATM    8  O   UNL     1     -10.486  16.564  66.378  1.00  0.00    -0.304 OA 
BRANCH   6   9
HETATM    9  N   UNL     1      -9.779  14.537  67.791  1.00  0.00    -0.213 N  
HETATM   10  H   UNL     1      -8.777  14.530  67.981  1.00  0.00     0.000 HD 
BRANCH   9  11
HETATM   11  C   UNL     1     -10.722  14.049  68.726  1.00  0.00    -0.259 A  
HETATM   12  C   UNL     1     -10.929  12.691  68.997  1.00  0.00    -0.240 A  
HETATM   13  C   UNL     1     -11.827  12.528  70.062  1.00  0.00    -0.289 A  
HETATM   14  N   UNL     1     -11.374  15.083  69.292  1.00  0.00    -0.278 NA 
HETATM   15  N   UNL     1     -12.480  13.528  70.696  1.00  0.00    -0.349 NA 
HETATM   16  C   UNL     1     -12.229  14.761  70.261  1.00  0.00    -0.338 A  
BRANCH  12  17
HETATM   17  C   UNL     1     -10.332  11.529  68.243  1.00  0.00    -0.211 A  
HETATM   18  C   UNL     1     -11.032  10.784  67.279  1.00  0.00    -0.359 A  
HETATM   19  C   UNL     1     -10.446   9.765  66.516  1.00  0.00    -0.212 A  
HETATM   20  C   UNL     1      -8.384  10.115  67.675  1.00  0.00    -0.114 A  
HETATM   21  C   UNL     1      -8.997  11.114  68.450  1.00  0.00    -0.165 A  
HETATM   22 BR   UNL     1      -8.291   8.155  65.602  1.00  0.00    -0.161 Br 
HETATM   23  C   UNL     1      -9.111   9.456  66.696  1.00  0.00    -0.149 A  
ENDBRANCH  12  17
BRANCH  13  24
HETATM   24  O   UNL     1     -12.059  11.245  70.515  1.00  0.00    -0.341 OA 
BRANCH  24  25
HETATM   25  C   UNL     1     -13.019  11.074  71.557  1.00  0.00    -0.448 C  
BRANCH  25  26
HETATM   26  C   UNL     1     -13.458   9.610  71.526  1.00  0.00    -0.352 C  
BRANCH  26  27
HETATM   27  O   UNL     1     -12.835   8.890  72.587  1.00  0.00    -0.393 OA 
BRANCH  27  28
HETATM   28  C   UNL     1     -12.012   7.877  72.137  1.00  0.00    -0.332 A  
HETATM   29  N   UNL     1     -11.038   7.396  72.931  1.00  0.00    -0.343 NA 
HETATM   30  C   UNL     1     -10.283   6.404  72.409  1.00  0.00    -0.186 A  
HETATM   31  C   UNL     1     -10.467   5.892  71.145  1.00  0.00    -0.233 A  
HETATM   32  C   UNL     1     -11.487   6.463  70.421  1.00  0.00    -0.393 A  
HETATM   33 BR   UNL     1      -9.401   4.510  70.458  1.00  0.00    -0.235 Br 
HETATM   34  N   UNL     1     -12.273   7.456  70.890  1.00  0.00    -0.271 NA 
ENDBRANCH  27  28
ENDBRANCH  26  27
ENDBRANCH  25  26
ENDBRANCH  24  25
ENDBRANCH  13  24
ENDBRANCH   9  11
ENDBRANCH   6   9
ENDBRANCH   4   6
ENDBRANCH   3   4
ENDBRANCH   2   3
TORSDOF 11
ENDMDL
MODEL       24
REMARK 921   NORMALIZED FREE ENERGY PREDICTED BY IDOCK:   -6.18 KCAL/MOL
REMARK 922        TOTAL FREE ENERGY PREDICTED BY IDOCK:  -11.58 KCAL/MOL
REMARK 923 INTER-LIGAND FREE ENERGY PREDICTED BY IDOCK:  -10.31 KCAL/MOL
REMARK 924 INTRA-LIGAND FREE ENERGY PREDICTED BY IDOCK:   -1.26 KCAL/MOL
REMARK 927      BINDING AFFINITY PREDICTED BY RF-SCORE:    0.00 PKD
ROOT
HETATM    1  C   UNL     1     -10.456   5.565  70.265  1.00  0.00    -0.365 C  
HETATM    2  C   UNL     1     -11.277   6.012  71.464  1.00  0.00    -0.326 C  
ENDROOT
BRANCH   2   3
HETATM    3  C   UNL     1     -12.290   7.090  71.098  1.00  0.00    -0.378 C  
BRANCH   3   4
HETATM    4  N   UNL     1     -11.718   7.981  70.049  1.00  0.00    -0.424 N  
HETATM    5  H   UNL     1     -11.545   7.691  69.087  1.00  0.00     0.000 HD 
BRANCH   4   6
HETATM    6  S   UNL     1     -11.390   9.517  70.638  1.00  0.00    -0.322 S  
HETATM    7  O   UNL     1     -12.036   9.564  71.933  1.00  0.00    -0.371 OA 
HETATM    8  O   UNL     1      -9.984   9.781  70.485  1.00  0.00    -0.265 OA 
BRANCH   6   9
HETATM    9  N   UNL     1     -12.298  10.484  69.616  1.00  0.00    -0.550 N  
HETATM   10  H   UNL     1     -13.061  10.106  69.053  1.00  0.00     0.000 HD 
BRANCH   9  11
HETATM   11  C   UNL     1     -11.947  11.854  69.576  1.00  0.00    -0.292 A  
HETATM   12  C   UNL     1     -11.266  12.461  68.512  1.00  0.00    -0.321 A  
HETATM   13  C   UNL     1     -11.183  13.848  68.701  1.00  0.00    -0.270 A  
HETATM   14  N   UNL     1     -12.360  12.461  70.706  1.00  0.00    -0.356 NA 
HETATM   15  N   UNL     1     -11.615  14.517  69.794  1.00  0.00    -0.280 NA 
HETATM   16  C   UNL     1     -12.170  13.778  70.753  1.00  0.00    -0.363 A  
BRANCH  12  17
HETATM   17  C   UNL     1     -10.647  11.756  67.331  1.00  0.00    -0.258 A  
HETATM   18  C   UNL     1     -11.274  11.641  66.078  1.00  0.00    -0.299 A  
HETATM   19  C   UNL     1     -10.658  11.067  64.957  1.00  0.00    -0.315 A  
HETATM   20  C   UNL     1      -8.720  10.614  66.283  1.00  0.00    -0.163 A  
HETATM   21  C   UNL     1      -9.365  11.168  67.402  1.00  0.00    -0.172 A  
HETATM   22 BR   UNL     1      -8.497   9.900  63.528  1.00  0.00    -0.204 Br 
HETATM   23  C   UNL     1      -9.367  10.582  65.058  1.00  0.00    -0.222 A  
ENDBRANCH  12  17
BRANCH  13  24
HETATM   24  O   UNL     1     -10.625  14.601  67.688  1.00  0.00    -0.252 OA 
BRANCH  24  25
HETATM   25  C   UNL     1     -11.495  15.074  66.659  1.00  0.00    -0.251 C  
BRANCH  25  26
HETATM   26  C   UNL     1     -10.611  15.502  65.488  1.00  0.00    -0.396 C  
BRANCH  26  27
HETATM   27  O   UNL     1     -10.932  16.834  65.094  1.00  0.00    -0.492 OA 
BRANCH  27  28
HETATM   28  C   UNL     1     -10.070  17.772  65.624  1.00  0.00     0.082 A  
HETATM   29  N   UNL     1     -10.505  19.020  65.880  1.00  0.00    -0.532 NA 
HETATM   30  C   UNL     1      -9.593  19.871  66.400  1.00  0.00    -0.431 A  
HETATM   31  C   UNL     1      -8.289  19.521  66.666  1.00  0.00    -0.318 A  
HETATM   32  C   UNL     1      -7.954  18.223  66.361  1.00  0.00    -0.261 A  
HETATM   33 BR   UNL     1      -7.054  20.730  67.395  1.00  0.00    -0.407 Br 
HETATM   34  N   UNL     1      -8.822  17.329  65.839  1.00  0.00    -0.541 NA 
ENDBRANCH  27  28
ENDBRANCH  26  27
ENDBRANCH  25  26
ENDBRANCH  24  25
ENDBRANCH  13  24
ENDBRANCH   9  11
ENDBRANCH   6   9
ENDBRANCH   4   6
ENDBRANCH   3   4
ENDBRANCH   2   3
TORSDOF 11
ENDMDL
MODEL       25
REMARK 921   NORMALIZED FREE ENERGY PREDICTED BY IDOCK:   -6.17 KCAL/MOL
REMARK 922        TOTAL FREE ENERGY PREDICTED BY IDOCK:  -11.55 KCAL/MOL
REMARK 923 INTER-LIGAND FREE ENERGY PREDICTED BY IDOCK:   -9.64 KCAL/MOL
REMARK 924 INTRA-LIGAND FREE ENERGY PREDICTED BY IDOCK:   -1.92 KCAL/MOL
REMARK 927      BINDING AFFINITY PREDICTED BY RF-SCORE:    0.00 PKD
ROOT
HETATM    1  C   UNL     1     -10.202  18.797  66.144  1.00  0.00    -0.462 C  
HETATM    2  C   UNL     1     -10.449  18.983  67.632  1.00  0.00    -0.523 C  
ENDROOT
BRANCH   2   3
HETATM    3  C   UNL     1     -10.124  17.726  68.431  1.00  0.00    -0.376 C  
BRANCH   3   4
HETATM    4  N   UNL     1     -11.260  16.766  68.337  1.00  0.00    -0.271 N  
HETATM    5  H   UNL     1     -12.029  16.856  67.673  1.00  0.00     0.000 HD 
BRANCH   4   6
HETATM    6  S   UNL     1     -11.125  15.520  69.451  1.00  0.00    -0.320 S  
HETATM    7  O   UNL     1      -9.818  14.948  69.213  1.00  0.00    -0.211 OA 
HETATM    8  O   UNL     1     -11.508  16.015  70.747  1.00  0.00    -0.373 OA 
BRANCH   6   9
HETATM    9  N   UNL     1     -12.243  14.413  68.877  1.00  0.00    -0.553 N  
HETATM   10  H   UNL     1     -13.129  14.245  69.355  1.00  0.00     0.000 HD 
BRANCH   9  11
HETATM   11  C   UNL     1     -11.890  13.726  67.691  1.00  0.00    -0.378 A  
HETATM   12  C   UNL     1     -11.554  12.367  67.642  1.00  0.00    -0.421 A  
HETATM   13  C   UNL     1     -11.386  11.945  66.315  1.00  0.00    -0.334 A  
HETATM   14  N   UNL     1     -11.924  14.577  66.647  1.00  0.00    -0.376 NA 
HETATM   15  N   UNL     1     -11.448  12.743  65.225  1.00  0.00    -0.313 NA 
HETATM   16  C   UNL     1     -11.699  14.030  65.454  1.00  0.00    -0.342 A  
BRANCH  12  17
HETATM   17  C   UNL     1     -11.343  11.455  68.825  1.00  0.00    -0.334 A  
HETATM   18  C   UNL     1     -12.381  11.019  69.666  1.00  0.00    -0.303 A  
HETATM   19  C   UNL     1     -12.195  10.100  70.708  1.00  0.00    -0.434 A  
HETATM   20  C   UNL     1      -9.863  10.013  70.184  1.00  0.00    -0.205 A  
HETATM   21  C   UNL     1     -10.065  10.957  69.162  1.00  0.00    -0.198 A  
HETATM   22 BR   UNL     1     -10.700   8.263  72.277  1.00  0.00    -0.417 Br 
HETATM   23  C   UNL     1     -10.937   9.576  70.942  1.00  0.00    -0.337 A  
ENDBRANCH  12  17
BRANCH  13  24
HETATM   24  O   UNL     1     -11.149  10.603  66.094  1.00  0.00     0.002 OA 
BRANCH  24  25
HETATM   25  C   UNL     1      -9.909  10.242  65.485  1.00  0.00    -0.282 C  
BRANCH  25  26
HETATM   26  C   UNL     1      -9.525   8.867  66.033  1.00  0.00    -0.252 C  
BRANCH  26  27
HETATM   27  O   UNL     1     -10.660   8.243  66.626  1.00  0.00    -0.268 OA 
BRANCH  27  28
HETATM   28  C   UNL     1     -10.327   7.411  67.676  1.00  0.00    -0.231 A  
HETATM   29  N   UNL     1     -11.264   6.625  68.239  1.00  0.00    -0.188 NA 
HETATM   30  C   UNL     1     -10.847   5.843  69.259  1.00  0.00    -0.344 A  
HETATM   31  C   UNL     1      -9.553   5.824  69.724  1.00  0.00    -0.157 A  
HETATM   32  C   UNL     1      -8.683   6.671  69.079  1.00  0.00    -0.129 A  
HETATM   33 BR   UNL     1      -9.012   4.718  71.140  1.00  0.00    -0.177 Br 
HETATM   34  N   UNL     1      -9.042   7.475  68.055  1.00  0.00    -0.132 NA 
ENDBRANCH  27  28
ENDBRANCH  26  27
ENDBRANCH  25  26
ENDBRANCH  24  25
ENDBRANCH  13  24
ENDBRANCH   9  11
ENDBRANCH   6   9
ENDBRANCH   4   6
ENDBRANCH   3   4
ENDBRANCH   2   3
TORSDOF 11
ENDMDL
MODEL       26
REMARK 921   NORMALIZED FREE ENERGY PREDICTED BY IDOCK:   -6.14 KCAL/MOL
REMARK 922        TOTAL FREE ENERGY PREDICTED BY IDOCK:  -11.51 KCAL/MOL
REMARK 923 INTER-LIGAND FREE ENERGY PREDICTED BY IDOCK:   -9.17 KCAL/MOL
REMARK 924 INTRA-LIGAND FREE ENERGY PREDICTED BY IDOCK:   -2.34 KCAL/MOL
REMARK 927      BINDING AFFINITY PREDICTED BY RF-SCORE:    0.00 PKD
ROOT
HETATM    1  C   UNL     1     -10.677   5.811  66.923  1.00  0.00    -0.381 C  
HETATM    2  C   UNL     1     -10.047   6.141  68.267  1.00  0.00    -0.182 C  
ENDROOT
BRANCH   2   3
HETATM    3  C   UNL     1     -11.093   6.453  69.331  1.00  0.00    -0.387 C  
BRANCH   3   4
HETATM    4  N   UNL     1     -10.440   6.521  70.669  1.00  0.00    -0.208 N  
HETATM    5  H   UNL     1      -9.598   6.004  70.920  1.00  0.00     0.000 HD 
BRANCH   4   6
HETATM    6  S   UNL     1     -11.256   7.547  71.715  1.00  0.00    -0.253 S  
HETATM    7  O   UNL     1     -12.069   6.674  72.534  1.00  0.00    -0.143 OA 
HETATM    8  O   UNL     1     -10.311   8.463  72.295  1.00  0.00    -0.287 OA 
BRANCH   6   9
HETATM    9  N   UNL     1     -12.304   8.342  70.679  1.00  0.00    -0.479 N  
HETATM   10  H   UNL     1     -12.938   7.835  70.060  1.00  0.00     0.000 HD 
BRANCH   9  11
HETATM   11  C   UNL     1     -12.261   9.756  70.708  1.00  0.00    -0.256 A  
HETATM   12  C   UNL     1     -11.527  10.539  69.808  1.00  0.00    -0.365 A  
HETATM   13  C   UNL     1     -11.790  11.902  70.006  1.00  0.00    -0.328 A  
HETATM   14  N   UNL     1     -13.019  10.211  71.725  1.00  0.00    -0.434 NA 
HETATM   15  N   UNL     1     -12.572  12.415  70.982  1.00  0.00    -0.325 NA 
HETATM   16  C   UNL     1     -13.136  11.534  71.806  1.00  0.00    -0.398 A  
BRANCH  12  17
HETATM   17  C   UNL     1     -10.541  10.034  68.784  1.00  0.00    -0.241 A  
HETATM   18  C   UNL     1     -10.871   9.788  67.441  1.00  0.00    -0.265 A  
HETATM   19  C   UNL     1      -9.932   9.408  66.472  1.00  0.00    -0.339 A  
HETATM   20  C   UNL     1      -8.227   9.434  68.148  1.00  0.00    -0.118 A  
HETATM   21  C   UNL     1      -9.189   9.788  69.111  1.00  0.00    -0.177 A  
HETATM   22 BR   UNL     1      -7.319   8.849  65.507  1.00  0.00    -0.086 Br 
HETATM   23  C   UNL     1      -8.604   9.262  66.826  1.00  0.00    -0.127 A  
ENDBRANCH  12  17
BRANCH  13  24
HETATM   24  O   UNL     1     -11.216  12.800  69.129  1.00  0.00    -0.256 OA 
BRANCH  24  25
HETATM   25  C   UNL     1     -12.031  13.307  68.072  1.00  0.00    -0.313 C  
BRANCH  25  26
HETATM   26  C   UNL     1     -11.099  13.629  66.903  1.00  0.00    -0.304 C  
BRANCH  26  27
HETATM   27  O   UNL     1     -11.387  14.927  66.391  1.00  0.00    -0.342 OA 
BRANCH  27  28
HETATM   28  C   UNL     1     -10.513  15.891  66.852  1.00  0.00    -0.309 A  
HETATM   29  N   UNL     1      -9.286  16.005  66.311  1.00  0.00    -0.304 NA 
HETATM   30  C   UNL     1      -8.499  16.978  66.823  1.00  0.00    -0.234 A  
HETATM   31  C   UNL     1      -8.894  17.820  67.837  1.00  0.00    -0.251 A  
HETATM   32  C   UNL     1     -10.164  17.610  68.317  1.00  0.00    -0.374 A  
HETATM   33 BR   UNL     1      -7.774  19.164  68.516  1.00  0.00    -0.386 Br 
HETATM   34  N   UNL     1     -10.994  16.654  67.846  1.00  0.00    -0.318 NA 
ENDBRANCH  27  28
ENDBRANCH  26  27
ENDBRANCH  25  26
ENDBRANCH  24  25
ENDBRANCH  13  24
ENDBRANCH   9  11
ENDBRANCH   6   9
ENDBRANCH   4   6
ENDBRANCH   3   4
ENDBRANCH   2   3
TORSDOF 11
ENDMDL
MODEL       27
REMARK 921   NORMALIZED FREE ENERGY PREDICTED BY IDOCK:   -6.10 KCAL/MOL
REMARK 922        TOTAL FREE ENERGY PREDICTED BY IDOCK:  -11.44 KCAL/MOL
REMARK 923 INTER-LIGAND FREE ENERGY PREDICTED BY IDOCK:   -9.87 KCAL/MOL
REMARK 924 INTRA-LIGAND FREE ENERGY PREDICTED BY IDOCK:   -1.56 KCAL/MOL
REMARK 927      BINDING AFFINITY PREDICTED BY RF-SCORE:    0.00 PKD
ROOT
HETATM    1  C   UNL     1     -10.465  19.895  65.905  1.00  0.00    -0.567 C  
HETATM    2  C   UNL     1      -9.800  20.101  67.256  1.00  0.00    -0.580 C  
ENDROOT
BRANCH   2   3
HETATM    3  C   UNL     1      -9.714  18.807  68.058  1.00  0.00    -0.325 C  
BRANCH   3   4
HETATM    4  N   UNL     1     -10.800  17.880  67.631  1.00  0.00    -0.320 N  
HETATM    5  H   UNL     1     -11.794  18.094  67.703  1.00  0.00     0.000 HD 
BRANCH   4   6
HETATM    6  S   UNL     1     -10.193  16.441  67.018  1.00  0.00    -0.285 S  
HETATM    7  O   UNL     1     -11.355  15.717  66.551  1.00  0.00    -0.128 OA 
HETATM    8  O   UNL     1      -9.088  16.739  66.147  1.00  0.00    -0.343 OA 
BRANCH   6   9
HETATM    9  N   UNL     1      -9.671  15.663  68.406  1.00  0.00    -0.200 N  
HETATM   10  H   UNL     1      -8.680  15.585  68.640  1.00  0.00     0.000 HD 
BRANCH   9  11
HETATM   11  C   UNL     1     -10.680  15.119  69.236  1.00  0.00    -0.250 A  
HETATM   12  C   UNL     1     -11.087  13.779  69.203  1.00  0.00    -0.282 A  
HETATM   13  C   UNL     1     -12.003  13.513  70.230  1.00  0.00    -0.316 A  
HETATM   14  N   UNL     1     -11.175  16.082  70.037  1.00  0.00    -0.340 NA 
HETATM   15  N   UNL     1     -12.505  14.428  71.089  1.00  0.00    -0.335 NA 
HETATM   16  C   UNL     1     -12.072  15.678  70.933  1.00  0.00    -0.407 A  
BRANCH  12  17
HETATM   17  C   UNL     1     -10.665  12.742  68.192  1.00  0.00    -0.243 A  
HETATM   18  C   UNL     1     -11.419  12.414  67.052  1.00  0.00    -0.423 A  
HETATM   19  C   UNL     1     -10.980  11.518  66.068  1.00  0.00    -0.316 A  
HETATM   20  C   UNL     1      -8.981  11.149  67.328  1.00  0.00    -0.147 A  
HETATM   21  C   UNL     1      -9.451  12.030  68.318  1.00  0.00    -0.199 A  
HETATM   22 BR   UNL     1      -9.105   9.781  64.827  1.00  0.00    -0.305 Br 
HETATM   23  C   UNL     1      -9.744  10.911  66.196  1.00  0.00    -0.210 A  
ENDBRANCH  12  17
BRANCH  13  24
HETATM   24  O   UNL     1     -12.425  12.209  70.391  1.00  0.00    -0.240 OA 
BRANCH  24  25
HETATM   25  C   UNL     1     -12.927  11.829  71.673  1.00  0.00    -0.362 C  
BRANCH  25  26
HETATM   26  C   UNL     1     -12.849  10.304  71.750  1.00  0.00    -0.460 C  
BRANCH  26  27
HETATM   27  O   UNL     1     -11.698   9.837  71.052  1.00  0.00    -0.311 OA 
BRANCH  27  28
HETATM   28  C   UNL     1     -10.883   9.042  71.833  1.00  0.00    -0.343 A  
HETATM   29  N   UNL     1      -9.545   9.123  71.715  1.00  0.00    -0.305 NA 
HETATM   30  C   UNL     1      -8.827   8.309  72.521  1.00  0.00    -0.229 A  
HETATM   31  C   UNL     1      -9.394   7.436  73.420  1.00  0.00    -0.212 A  
HETATM   32  C   UNL     1     -10.769   7.433  73.452  1.00  0.00    -0.357 A  
HETATM   33 BR   UNL     1      -8.363   6.327  74.527  1.00  0.00    -0.139 Br 
HETATM   34  N   UNL     1     -11.537   8.222  72.671  1.00  0.00    -0.392 NA 
ENDBRANCH  27  28
ENDBRANCH  26  27
ENDBRANCH  25  26
ENDBRANCH  24  25
ENDBRANCH  13  24
ENDBRANCH   9  11
ENDBRANCH   6   9
ENDBRANCH   4   6
ENDBRANCH   3   4
ENDBRANCH   2   3
TORSDOF 11
ENDMDL
MODEL       28
REMARK 921   NORMALIZED FREE ENERGY PREDICTED BY IDOCK:   -6.08 KCAL/MOL
REMARK 922        TOTAL FREE ENERGY PREDICTED BY IDOCK:  -11.41 KCAL/MOL
REMARK 923 INTER-LIGAND FREE ENERGY PREDICTED BY IDOCK:   -9.34 KCAL/MOL
REMARK 924 INTRA-LIGAND FREE ENERGY PREDICTED BY IDOCK:   -2.07 KCAL/MOL
REMARK 927      BINDING AFFINITY PREDICTED BY RF-SCORE:    0.00 PKD
ROOT
HETATM    1  C   UNL     1      -9.208  16.787  66.970  1.00  0.00    -0.238 C  
HETATM    2  C   UNL     1      -9.217  15.561  66.071  1.00  0.00    -0.361 C  
ENDROOT
BRANCH   2   3
HETATM    3  C   UNL     1     -10.480  15.479  65.222  1.00  0.00    -0.411 C  
BRANCH   3   4
HETATM    4  N   UNL     1     -10.636  14.097  64.687  1.00  0.00    -0.552 N  
HETATM    5  H   UNL     1      -9.856  13.502  64.410  1.00  0.00     0.000 HD 
BRANCH   4   6
HETATM    6  S   UNL     1     -12.246  13.637  64.592  1.00  0.00    -0.400 S  
HETATM    7  O   UNL     1     -12.970  14.669  65.303  1.00  0.00    -0.391 OA 
HETATM    8  O   UNL     1     -12.553  13.302  63.227  1.00  0.00    -0.711 OA 
BRANCH   6   9
HETATM    9  N   UNL     1     -12.278  12.274  65.566  1.00  0.00    -0.297 N  
HETATM   10  H   UNL     1     -13.151  11.807  65.809  1.00  0.00     0.000 HD 
BRANCH   9  11
HETATM   11  C   UNL     1     -11.025  11.809  66.032  1.00  0.00    -0.306 A  
HETATM   12  C   UNL     1     -10.599  11.900  67.363  1.00  0.00    -0.257 A  
HETATM   13  C   UNL     1      -9.378  11.234  67.540  1.00  0.00    -0.162 A  
HETATM   14  N   UNL     1     -10.327  11.284  65.006  1.00  0.00    -0.285 NA 
HETATM   15  N   UNL     1      -8.652  10.654  66.558  1.00  0.00    -0.138 NA 
HETATM   16  C   UNL     1      -9.163  10.726  65.330  1.00  0.00    -0.205 A  
BRANCH  12  17
HETATM   17  C   UNL     1     -11.297  12.642  68.476  1.00  0.00    -0.333 A  
HETATM   18  C   UNL     1     -11.857  12.011  69.600  1.00  0.00    -0.401 A  
HETATM   19  C   UNL     1     -12.423  12.710  70.675  1.00  0.00    -0.323 A  
HETATM   20  C   UNL     1     -11.960  14.769  69.550  1.00  0.00    -0.351 A  
HETATM   21  C   UNL     1     -11.421  14.049  68.469  1.00  0.00    -0.336 A  
HETATM   22 BR   UNL     1     -13.112  15.041  72.147  1.00  0.00    -0.490 Br 
HETATM   23  C   UNL     1     -12.443  14.093  70.658  1.00  0.00    -0.362 A  
ENDBRANCH  12  17
BRANCH  13  24
HETATM   24  O   UNL     1      -8.873  11.149  68.822  1.00  0.00    -0.162 OA 
BRANCH  24  25
HETATM   25  C   UNL     1      -8.267   9.918  69.215  1.00  0.00    -0.138 C  
BRANCH  25  26
HETATM   26  C   UNL     1      -9.266   9.197  70.122  1.00  0.00    -0.206 C  
BRANCH  26  27
HETATM   27  O   UNL     1     -10.420   8.820  69.376  1.00  0.00    -0.218 OA 
BRANCH  27  28
HETATM   28  C   UNL     1     -10.219   7.688  68.612  1.00  0.00    -0.199 A  
HETATM   29  N   UNL     1     -10.775   7.590  67.390  1.00  0.00    -0.279 NA 
HETATM   30  C   UNL     1     -10.522   6.448  66.713  1.00  0.00    -0.234 A  
HETATM   31  C   UNL     1      -9.749   5.425  67.210  1.00  0.00    -0.144 A  
HETATM   32  C   UNL     1      -9.236   5.630  68.469  1.00  0.00    -0.121 A  
HETATM   33 BR   UNL     1      -9.416   3.856  66.235  1.00  0.00    -0.192 Br 
HETATM   34  N   UNL     1      -9.455   6.750  69.192  1.00  0.00    -0.141 NA 
ENDBRANCH  27  28
ENDBRANCH  26  27
ENDBRANCH  25  26
ENDBRANCH  24  25
ENDBRANCH  13  24
ENDBRANCH   9  11
ENDBRANCH   6   9
ENDBRANCH   4   6
ENDBRANCH   3   4
ENDBRANCH   2   3
TORSDOF 11
ENDMDL
MODEL       29
REMARK 921   NORMALIZED FREE ENERGY PREDICTED BY IDOCK:   -6.08 KCAL/MOL
REMARK 922        TOTAL FREE ENERGY PREDICTED BY IDOCK:  -11.40 KCAL/MOL
REMARK 923 INTER-LIGAND FREE ENERGY PREDICTED BY IDOCK:   -8.73 KCAL/MOL
REMARK 924 INTRA-LIGAND FREE ENERGY PREDICTED BY IDOCK:   -2.68 KCAL/MOL
REMARK 927      BINDING AFFINITY PREDICTED BY RF-SCORE:    0.00 PKD
ROOT
HETATM    1  C   UNL     1      -6.896  17.736  68.571  1.00  0.00    -0.233 C  
HETATM    2  C   UNL     1      -7.221  16.311  68.990  1.00  0.00    -0.204 C  
ENDROOT
BRANCH   2   3
HETATM    3  C   UNL     1      -6.752  15.289  67.961  1.00  0.00    -0.144 C  
BRANCH   3   4
HETATM    4  N   UNL     1      -6.320  14.042  68.655  1.00  0.00    -0.083 N  
HETATM    5  H   UNL     1      -5.515  13.987  69.279  1.00  0.00     0.000 HD 
BRANCH   4   6
HETATM    6  S   UNL     1      -7.312  12.741  68.287  1.00  0.00    -0.128 S  
HETATM    7  O   UNL     1      -7.521  12.825  66.857  1.00  0.00     0.003 OA 
HETATM    8  O   UNL     1      -6.773  11.559  68.904  1.00  0.00    -0.071 OA 
BRANCH   6   9
HETATM    9  N   UNL     1      -8.757  13.189  69.007  1.00  0.00    -0.252 N  
HETATM   10  H   UNL     1      -8.782  13.719  69.879  1.00  0.00     0.000 HD 
BRANCH   9  11
HETATM   11  C   UNL     1      -9.939  12.792  68.339  1.00  0.00    -0.210 A  
HETATM   12  C   UNL     1     -10.669  13.619  67.475  1.00  0.00    -0.266 A  
HETATM   13  C   UNL     1     -11.709  12.904  66.864  1.00  0.00    -0.382 A  
HETATM   14  N   UNL     1     -10.240  11.521  68.669  1.00  0.00    -0.209 NA 
HETATM   15  N   UNL     1     -12.034  11.617  67.124  1.00  0.00    -0.574 NA 
HETATM   16  C   UNL     1     -11.285  10.995  68.034  1.00  0.00    -0.309 A  
BRANCH  12  17
HETATM   17  C   UNL     1     -10.438  15.091  67.241  1.00  0.00    -0.265 A  
HETATM   18  C   UNL     1      -9.815  15.607  66.092  1.00  0.00    -0.340 A  
HETATM   19  C   UNL     1      -9.685  16.979  65.835  1.00  0.00    -0.170 A  
HETATM   20  C   UNL     1     -10.759  17.447  67.919  1.00  0.00    -0.351 A  
HETATM   21  C   UNL     1     -10.855  16.068  68.172  1.00  0.00    -0.322 A  
HETATM   22 BR   UNL     1     -10.105  19.741  66.352  1.00  0.00    -0.641 Br 
HETATM   23  C   UNL     1     -10.188  17.896  66.739  1.00  0.00    -0.360 A  
ENDBRANCH  12  17
BRANCH  13  24
HETATM   24  O   UNL     1     -12.460  13.556  65.908  1.00  0.00    -0.444 OA 
BRANCH  24  25
HETATM   25  C   UNL     1     -12.784  12.839  64.716  1.00  0.00    -0.393 C  
BRANCH  25  26
HETATM   26  C   UNL     1     -11.511  12.778  63.871  1.00  0.00    -0.444 C  
BRANCH  26  27
HETATM   27  O   UNL     1     -11.344  11.470  63.333  1.00  0.00    -0.374 OA 
BRANCH  27  28
HETATM   28  C   UNL     1     -10.059  10.988  63.484  1.00  0.00    -0.373 A  
HETATM   29  N   UNL     1      -9.185  11.062  62.463  1.00  0.00    -0.319 NA 
HETATM   30  C   UNL     1      -7.950  10.568  62.702  1.00  0.00    -0.154 A  
HETATM   31  C   UNL     1      -7.571  10.015  63.903  1.00  0.00    -0.138 A  
HETATM   32  C   UNL     1      -8.545   9.987  64.872  1.00  0.00    -0.173 A  
HETATM   33 BR   UNL     1      -5.843   9.346  64.198  1.00  0.00    -0.080 Br 
HETATM   34  N   UNL     1      -9.796  10.464  64.691  1.00  0.00    -0.322 NA 
ENDBRANCH  27  28
ENDBRANCH  26  27
ENDBRANCH  25  26
ENDBRANCH  24  25
ENDBRANCH  13  24
ENDBRANCH   9  11
ENDBRANCH   6   9
ENDBRANCH   4   6
ENDBRANCH   3   4
ENDBRANCH   2   3
TORSDOF 11
ENDMDL
MODEL       30
REMARK 921   NORMALIZED FREE ENERGY PREDICTED BY IDOCK:   -6.05 KCAL/MOL
REMARK 922        TOTAL FREE ENERGY PREDICTED BY IDOCK:  -11.36 KCAL/MOL
REMARK 923 INTER-LIGAND FREE ENERGY PREDICTED BY IDOCK:   -9.85 KCAL/MOL
REMARK 924 INTRA-LIGAND FREE ENERGY PREDICTED BY IDOCK:   -1.51 KCAL/MOL
REMARK 927      BINDING AFFINITY PREDICTED BY RF-SCORE:    0.00 PKD
ROOT
HETATM    1  C   UNL     1     -10.335  19.902  66.329  1.00  0.00    -0.608 C  
HETATM    2  C   UNL     1      -9.404  19.744  67.521  1.00  0.00    -0.443 C  
ENDROOT
BRANCH   2   3
HETATM    3  C   UNL     1      -9.360  18.309  68.030  1.00  0.00    -0.284 C  
BRANCH   3   4
HETATM    4  N   UNL     1     -10.465  17.523  67.411  1.00  0.00    -0.350 N  
HETATM    5  H   UNL     1     -11.453  17.749  67.516  1.00  0.00     0.000 HD 
BRANCH   4   6
HETATM    6  S   UNL     1      -9.889  16.222  66.522  1.00  0.00    -0.289 S  
HETATM    7  O   UNL     1     -11.064  15.647  65.903  1.00  0.00    -0.272 OA 
HETATM    8  O   UNL     1      -8.761  16.658  65.743  1.00  0.00    -0.482 OA 
BRANCH   6   9
HETATM    9  N   UNL     1      -9.414  15.159  67.725  1.00  0.00    -0.194 N  
HETATM   10  H   UNL     1      -8.430  14.981  67.929  1.00  0.00     0.000 HD 
BRANCH   9  11
HETATM   11  C   UNL     1     -10.453  14.520  68.442  1.00  0.00    -0.246 A  
HETATM   12  C   UNL     1     -10.938  13.239  68.149  1.00  0.00    -0.278 A  
HETATM   13  C   UNL     1     -11.869  12.827  69.114  1.00  0.00    -0.301 A  
HETATM   14  N   UNL     1     -10.891  15.332  69.424  1.00  0.00    -0.248 NA 
HETATM   15  N   UNL     1     -12.316  13.581  70.143  1.00  0.00    -0.304 NA 
HETATM   16  C   UNL     1     -11.811  14.811  70.233  1.00  0.00    -0.302 A  
BRANCH  12  17
HETATM   17  C   UNL     1     -10.576  12.400  66.949  1.00  0.00    -0.251 A  
HETATM   18  C   UNL     1     -11.352  12.342  65.778  1.00  0.00    -0.400 A  
HETATM   19  C   UNL     1     -10.966  11.635  64.631  1.00  0.00    -0.363 A  
HETATM   20  C   UNL     1      -8.985  10.924  65.765  1.00  0.00    -0.208 A  
HETATM   21  C   UNL     1      -9.402  11.616  66.914  1.00  0.00    -0.195 A  
HETATM   22 BR   UNL     1      -9.193  10.082  63.045  1.00  0.00    -0.287 Br 
HETATM   23  C   UNL     1      -9.764  10.952  64.619  1.00  0.00    -0.280 A  
ENDBRANCH  12  17
BRANCH  13  24
HETATM   24  O   UNL     1     -12.365  11.543  69.019  1.00  0.00    -0.360 OA 
BRANCH  24  25
HETATM   25  C   UNL     1     -12.404  10.758  70.211  1.00  0.00    -0.341 C  
BRANCH  25  26
HETATM   26  C   UNL     1     -11.204   9.812  70.162  1.00  0.00    -0.272 C  
BRANCH  26  27
HETATM   27  O   UNL     1     -10.660   9.646  71.469  1.00  0.00    -0.266 OA 
BRANCH  27  28
HETATM   28  C   UNL     1     -10.778   8.353  71.938  1.00  0.00    -0.303 A  
HETATM   29  N   UNL     1     -11.417   7.423  71.205  1.00  0.00    -0.271 NA 
HETATM   30  C   UNL     1     -11.483   6.185  71.742  1.00  0.00    -0.285 A  
HETATM   31  C   UNL     1     -10.940   5.856  72.963  1.00  0.00    -0.268 A  
HETATM   32  C   UNL     1     -10.315   6.885  73.627  1.00  0.00    -0.365 A  
HETATM   33 BR   UNL     1     -11.046   4.122  73.673  1.00  0.00    -0.307 Br 
HETATM   34  N   UNL     1     -10.220   8.141  73.140  1.00  0.00    -0.222 NA 
ENDBRANCH  27  28
ENDBRANCH  26  27
ENDBRANCH  25  26
ENDBRANCH  24  25
ENDBRANCH  13  24
ENDBRANCH   9  11
ENDBRANCH   6   9
ENDBRANCH   4   6
ENDBRANCH   3   4
ENDBRANCH   2   3
TORSDOF 11
ENDMDL
MODEL       31
REMARK 921   NORMALIZED FREE ENERGY PREDICTED BY IDOCK:   -6.05 KCAL/MOL
REMARK 922        TOTAL FREE ENERGY PREDICTED BY IDOCK:  -11.36 KCAL/MOL
REMARK 923 INTER-LIGAND FREE ENERGY PREDICTED BY IDOCK:   -8.87 KCAL/MOL
REMARK 924 INTRA-LIGAND FREE ENERGY PREDICTED BY IDOCK:   -2.48 KCAL/MOL
REMARK 927      BINDING AFFINITY PREDICTED BY RF-SCORE:    0.00 PKD
ROOT
HETATM    1  C   UNL     1     -12.214  13.956  64.027  1.00  0.00    -0.413 C  
HETATM    2  C   UNL     1     -12.288  12.445  63.876  1.00  0.00    -0.602 C  
ENDROOT
BRANCH   2   3
HETATM    3  C   UNL     1     -10.949  11.841  63.471  1.00  0.00    -0.424 C  
BRANCH   3   4
HETATM    4  N   UNL     1      -9.904  12.229  64.460  1.00  0.00    -0.478 N  
HETATM    5  H   UNL     1      -9.576  13.185  64.597  1.00  0.00     0.000 HD 
BRANCH   4   6
HETATM    6  S   UNL     1      -9.331  10.909  65.322  1.00  0.00    -0.221 S  
HETATM    7  O   UNL     1     -10.494  10.077  65.544  1.00  0.00    -0.167 OA 
HETATM    8  O   UNL     1      -8.155  10.404  64.666  1.00  0.00    -0.165 OA 
BRANCH   6   9
HETATM    9  N   UNL     1      -8.946  11.596  66.800  1.00  0.00    -0.183 N  
HETATM   10  H   UNL     1      -7.981  11.783  67.072  1.00  0.00     0.000 HD 
BRANCH   9  11
HETATM   11  C   UNL     1     -10.035  11.903  67.650  1.00  0.00    -0.189 A  
HETATM   12  C   UNL     1     -10.382  11.157  68.784  1.00  0.00    -0.222 A  
HETATM   13  C   UNL     1     -11.416  11.783  69.493  1.00  0.00    -0.295 A  
HETATM   14  N   UNL     1     -10.670  13.001  67.194  1.00  0.00    -0.253 NA 
HETATM   15  N   UNL     1     -12.063  12.906  69.107  1.00  0.00    -0.231 NA 
HETATM   16  C   UNL     1     -11.663  13.449  67.959  1.00  0.00    -0.356 A  
BRANCH  12  17
HETATM   17  C   UNL     1      -9.788   9.834  69.197  1.00  0.00    -0.192 A  
HETATM   18  C   UNL     1      -8.709   9.710  70.089  1.00  0.00    -0.263 A  
HETATM   19  C   UNL     1      -8.220   8.477  70.543  1.00  0.00    -0.116 A  
HETATM   20  C   UNL     1      -9.840   7.361  69.183  1.00  0.00    -0.168 A  
HETATM   21  C   UNL     1     -10.298   8.606  68.719  1.00  0.00    -0.228 A  
HETATM   22 BR   UNL     1      -8.223   5.647  70.793  1.00  0.00    -0.120 Br 
HETATM   23  C   UNL     1      -8.811   7.305  70.109  1.00  0.00    -0.145 A  
ENDBRANCH  12  17
BRANCH  13  24
HETATM   24  O   UNL     1     -11.804  11.220  70.692  1.00  0.00    -0.340 OA 
BRANCH  24  25
HETATM   25  C   UNL     1     -13.031  10.490  70.714  1.00  0.00    -0.330 C  
BRANCH  25  26
HETATM   26  C   UNL     1     -12.943   9.503  71.879  1.00  0.00    -0.425 C  
BRANCH  26  27
HETATM   27  O   UNL     1     -11.582   9.167  72.134  1.00  0.00    -0.342 OA 
BRANCH  27  28
HETATM   28  C   UNL     1     -11.415   7.845  72.492  1.00  0.00    -0.398 A  
HETATM   29  N   UNL     1     -12.150   6.886  71.899  1.00  0.00    -0.325 NA 
HETATM   30  C   UNL     1     -11.917   5.620  72.312  1.00  0.00     0.004 A  
HETATM   31  C   UNL     1     -10.994   5.292  73.277  1.00  0.00    -0.313 A  
HETATM   32  C   UNL     1     -10.305   6.351  73.818  1.00  0.00    -0.311 A  
HETATM   33 BR   UNL     1     -10.695   3.520  73.818  1.00  0.00    -0.320 Br 
HETATM   34  N   UNL     1     -10.495   7.635  73.447  1.00  0.00    -0.345 NA 
ENDBRANCH  27  28
ENDBRANCH  26  27
ENDBRANCH  25  26
ENDBRANCH  24  25
ENDBRANCH  13  24
ENDBRANCH   9  11
ENDBRANCH   6   9
ENDBRANCH   4   6
ENDBRANCH   3   4
ENDBRANCH   2   3
TORSDOF 11
ENDMDL
MODEL       32
REMARK 921   NORMALIZED FREE ENERGY PREDICTED BY IDOCK:   -6.03 KCAL/MOL
REMARK 922        TOTAL FREE ENERGY PREDICTED BY IDOCK:  -11.33 KCAL/MOL
REMARK 923 INTER-LIGAND FREE ENERGY PREDICTED BY IDOCK:   -9.11 KCAL/MOL
REMARK 924 INTRA-LIGAND FREE ENERGY PREDICTED BY IDOCK:   -2.21 KCAL/MOL
REMARK 927      BINDING AFFINITY PREDICTED BY RF-SCORE:    0.00 PKD
ROOT
HETATM    1  C   UNL     1      -8.648  16.167  66.276  1.00  0.00    -0.373 C  
HETATM    2  C   UNL     1     -10.057  16.624  65.935  1.00  0.00    -0.341 C  
ENDROOT
BRANCH   2   3
HETATM    3  C   UNL     1     -10.749  15.678  64.961  1.00  0.00    -0.436 C  
BRANCH   3   4
HETATM    4  N   UNL     1     -11.653  14.760  65.711  1.00  0.00    -0.327 N  
HETATM    5  H   UNL     1     -12.529  15.051  66.144  1.00  0.00     0.000 HD 
BRANCH   4   6
HETATM    6  S   UNL     1     -11.059  13.192  65.759  1.00  0.00    -0.276 S  
HETATM    7  O   UNL     1     -12.228  12.356  65.925  1.00  0.00    -0.629 OA 
HETATM    8  O   UNL     1     -10.148  13.009  64.661  1.00  0.00    -0.305 OA 
BRANCH   6   9
HETATM    9  N   UNL     1     -10.245  13.171  67.223  1.00  0.00    -0.241 N  
HETATM   10  H   UNL     1      -9.231  13.270  67.277  1.00  0.00     0.000 HD 
BRANCH   9  11
HETATM   11  C   UNL     1     -11.044  13.009  68.380  1.00  0.00    -0.262 A  
HETATM   12  C   UNL     1     -11.141  11.815  69.107  1.00  0.00    -0.294 A  
HETATM   13  C   UNL     1     -11.898  12.004  70.272  1.00  0.00    -0.270 A  
HETATM   14  N   UNL     1     -11.682  14.163  68.655  1.00  0.00    -0.329 NA 
HETATM   15  N   UNL     1     -12.528  13.148  70.621  1.00  0.00    -0.321 NA 
HETATM   16  C   UNL     1     -12.399  14.170  69.777  1.00  0.00    -0.299 A  
BRANCH  12  17
HETATM   17  C   UNL     1     -10.572  10.477  68.706  1.00  0.00    -0.233 A  
HETATM   18  C   UNL     1     -11.052   9.720  67.625  1.00  0.00    -0.118 A  
HETATM   19  C   UNL     1     -10.462   8.522  67.199  1.00  0.00    -0.370 A  
HETATM   20  C   UNL     1      -8.863   8.709  68.967  1.00  0.00    -0.138 A  
HETATM   21  C   UNL     1      -9.486   9.894  69.396  1.00  0.00    -0.226 A  
HETATM   22 BR   UNL     1      -8.488   6.479  67.226  1.00  0.00    -0.112 Br 
HETATM   23  C   UNL     1      -9.346   8.037  67.856  1.00  0.00    -0.138 A  
ENDBRANCH  12  17
BRANCH  13  24
HETATM   24  O   UNL     1     -12.003  10.942  71.147  1.00  0.00    -0.314 OA 
BRANCH  24  25
HETATM   25  C   UNL     1     -13.313  10.460  71.450  1.00  0.00    -0.280 C  
BRANCH  25  26
HETATM   26  C   UNL     1     -13.182   8.967  71.749  1.00  0.00    -0.378 C  
BRANCH  26  27
HETATM   27  O   UNL     1     -11.886   8.683  72.269  1.00  0.00    -0.367 OA 
BRANCH  27  28
HETATM   28  C   UNL     1     -11.330   7.541  71.728  1.00  0.00    -0.254 A  
HETATM   29  N   UNL     1     -11.762   7.076  70.541  1.00  0.00    -0.326 NA 
HETATM   30  C   UNL     1     -11.158   5.954  70.089  1.00  0.00    -0.325 A  
HETATM   31  C   UNL     1     -10.160   5.299  70.771  1.00  0.00    -0.224 A  
HETATM   32  C   UNL     1      -9.802   5.860  71.975  1.00  0.00    -0.157 A  
HETATM   33 BR   UNL     1      -9.342   3.747  70.106  1.00  0.00    -0.258 Br 
HETATM   34  N   UNL     1     -10.370   6.978  72.477  1.00  0.00    -0.197 NA 
ENDBRANCH  27  28
ENDBRANCH  26  27
ENDBRANCH  25  26
ENDBRANCH  24  25
ENDBRANCH  13  24
ENDBRANCH   9  11
ENDBRANCH   6   9
ENDBRANCH   4   6
ENDBRANCH   3   4
ENDBRANCH   2   3
TORSDOF 11
ENDMDL
MODEL       33
REMARK 921   NORMALIZED FREE ENERGY PREDICTED BY IDOCK:   -5.99 KCAL/MOL
REMARK 922        TOTAL FREE ENERGY PREDICTED BY IDOCK:  -11.26 KCAL/MOL
REMARK 923 INTER-LIGAND FREE ENERGY PREDICTED BY IDOCK:   -9.42 KCAL/MOL
REMARK 924 INTRA-LIGAND FREE ENERGY PREDICTED BY IDOCK:   -1.84 KCAL/MOL
REMARK 927      BINDING AFFINITY PREDICTED BY RF-SCORE:    0.00 PKD
ROOT
HETATM    1  C   UNL     1      -6.181  20.035  68.783  1.00  0.00    -0.322 C  
HETATM    2  C   UNL     1      -7.119  18.842  68.883  1.00  0.00    -0.333 C  
ENDROOT
BRANCH   2   3
HETATM    3  C   UNL     1      -6.457  17.645  69.557  1.00  0.00    -0.193 C  
BRANCH   3   4
HETATM    4  N   UNL     1      -6.387  16.506  68.599  1.00  0.00    -0.135 N  
HETATM    5  H   UNL     1      -5.938  16.556  67.685  1.00  0.00     0.000 HD 
BRANCH   4   6
HETATM    6  S   UNL     1      -7.137  15.131  69.201  1.00  0.00    -0.169 S  
HETATM    7  O   UNL     1      -7.026  14.153  68.140  1.00  0.00    -0.098 OA 
HETATM    8  O   UNL     1      -6.634  14.872  70.523  1.00  0.00    -0.099 OA 
BRANCH   6   9
HETATM    9  N   UNL     1      -8.743  15.602  69.250  1.00  0.00    -0.256 N  
HETATM   10  H   UNL     1      -9.184  15.923  70.113  1.00  0.00     0.000 HD 
BRANCH   9  11
HETATM   11  C   UNL     1      -9.455  15.530  68.030  1.00  0.00    -0.194 A  
HETATM   12  C   UNL     1     -10.536  14.670  67.800  1.00  0.00    -0.251 A  
HETATM   13  C   UNL     1     -11.116  14.924  66.548  1.00  0.00    -0.341 A  
HETATM   14  N   UNL     1      -8.926  16.399  67.146  1.00  0.00    -0.197 NA 
HETATM   15  N   UNL     1     -10.656  15.810  65.637  1.00  0.00    -0.358 NA 
HETATM   16  C   UNL     1      -9.566  16.494  65.982  1.00  0.00    -0.290 A  
BRANCH  12  17
HETATM   17  C   UNL     1     -11.017  13.575  68.719  1.00  0.00    -0.291 A  
HETATM   18  C   UNL     1     -11.856  13.799  69.824  1.00  0.00    -0.394 A  
HETATM   19  C   UNL     1     -12.375  12.769  70.620  1.00  0.00    -0.381 A  
HETATM   20  C   UNL     1     -11.195  11.174  69.285  1.00  0.00    -0.331 A  
HETATM   21  C   UNL     1     -10.662  12.223  68.515  1.00  0.00    -0.261 A  
HETATM   22 BR   UNL     1     -12.841  10.058  71.332  1.00  0.00    -0.555 Br 
HETATM   23  C   UNL     1     -12.065  11.453  70.326  1.00  0.00    -0.374 A  
ENDBRANCH  12  17
BRANCH  13  24
HETATM   24  O   UNL     1     -12.257  14.223  66.216  1.00  0.00    -0.436 OA 
BRANCH  24  25
HETATM   25  C   UNL     1     -12.630  14.180  64.838  1.00  0.00    -0.342 C  
BRANCH  25  26
HETATM   26  C   UNL     1     -12.467  12.732  64.376  1.00  0.00    -0.399 C  
BRANCH  26  27
HETATM   27  O   UNL     1     -11.387  12.633  63.451  1.00  0.00    -0.482 OA 
BRANCH  27  28
HETATM   28  C   UNL     1     -10.513  11.609  63.755  1.00  0.00    -0.402 A  
HETATM   29  N   UNL     1      -9.611  11.197  62.844  1.00  0.00    -0.349 NA 
HETATM   30  C   UNL     1      -8.795  10.191  63.230  1.00  0.00    -0.231 A  
HETATM   31  C   UNL     1      -8.852   9.598  64.470  1.00  0.00    -0.223 A  
HETATM   32  C   UNL     1      -9.814  10.094  65.317  1.00  0.00    -0.319 A  
HETATM   33 BR   UNL     1      -7.696   8.207  64.970  1.00  0.00    -0.121 Br 
HETATM   34  N   UNL     1     -10.657  11.096  64.987  1.00  0.00    -0.293 NA 
ENDBRANCH  27  28
ENDBRANCH  26  27
ENDBRANCH  25  26
ENDBRANCH  24  25
ENDBRANCH  13  24
ENDBRANCH   9  11
ENDBRANCH   6   9
ENDBRANCH   4   6
ENDBRANCH   3   4
ENDBRANCH   2   3
TORSDOF 11
ENDMDL
MODEL       34
REMARK 921   NORMALIZED FREE ENERGY PREDICTED BY IDOCK:   -5.98 KCAL/MOL
REMARK 922        TOTAL FREE ENERGY PREDICTED BY IDOCK:  -11.24 KCAL/MOL
REMARK 923 INTER-LIGAND FREE ENERGY PREDICTED BY IDOCK:   -9.29 KCAL/MOL
REMARK 924 INTRA-LIGAND FREE ENERGY PREDICTED BY IDOCK:   -1.96 KCAL/MOL
REMARK 927      BINDING AFFINITY PREDICTED BY RF-SCORE:    0.00 PKD
ROOT
HETATM    1  C   UNL     1     -13.671   8.856  72.381  1.00  0.00    -0.512 C  
HETATM    2  C   UNL     1     -13.532   9.959  71.344  1.00  0.00    -0.379 C  
ENDROOT
BRANCH   2   3
HETATM    3  C   UNL     1     -12.075  10.263  71.019  1.00  0.00    -0.386 C  
BRANCH   3   4
HETATM    4  N   UNL     1     -11.564   9.272  70.029  1.00  0.00    -0.455 N  
HETATM    5  H   UNL     1     -11.875   9.224  69.059  1.00  0.00     0.000 HD 
BRANCH   4   6
HETATM    6  S   UNL     1     -10.419   8.247  70.700  1.00  0.00    -0.207 S  
HETATM    7  O   UNL     1      -9.989   8.910  71.912  1.00  0.00    -0.322 OA 
HETATM    8  O   UNL     1     -10.949   6.910  70.717  1.00  0.00    -0.239 OA 
BRANCH   6   9
HETATM    9  N   UNL     1      -9.153   8.377  69.610  1.00  0.00    -0.152 N  
HETATM   10  H   UNL     1      -8.315   7.800  69.688  1.00  0.00     0.000 HD 
BRANCH   9  11
HETATM   11  C   UNL     1      -9.312   9.331  68.578  1.00  0.00    -0.142 A  
HETATM   12  C   UNL     1      -9.564   9.005  67.239  1.00  0.00    -0.206 A  
HETATM   13  C   UNL     1      -9.805  10.162  66.483  1.00  0.00    -0.212 A  
HETATM   14  N   UNL     1      -9.176  10.572  69.084  1.00  0.00    -0.185 NA 
HETATM   15  N   UNL     1      -9.724  11.430  66.944  1.00  0.00    -0.190 NA 
HETATM   16  C   UNL     1      -9.394  11.568  68.228  1.00  0.00    -0.190 A  
BRANCH  12  17
HETATM   17  C   UNL     1      -9.540   7.623  66.636  1.00  0.00    -0.271 A  
HETATM   18  C   UNL     1      -8.483   7.135  65.850  1.00  0.00    -0.151 A  
HETATM   19  C   UNL     1      -8.422   5.820  65.369  1.00  0.00    -0.151 A  
HETATM   20  C   UNL     1     -10.537   5.373  66.392  1.00  0.00    -0.322 A  
HETATM   21  C   UNL     1     -10.593   6.703  66.841  1.00  0.00    -0.376 A  
HETATM   22 BR   UNL     1      -9.314   3.134  65.111  1.00  0.00    -0.118 Br 
HETATM   23  C   UNL     1      -9.439   4.932  65.670  1.00  0.00    -0.159 A  
ENDBRANCH  12  17
BRANCH  13  24
HETATM   24  O   UNL     1     -10.168  10.000  65.162  1.00  0.00    -0.288 OA 
BRANCH  24  25
HETATM   25  C   UNL     1      -9.892  11.075  64.263  1.00  0.00    -0.303 C  
BRANCH  25  26
HETATM   26  C   UNL     1     -11.230  11.519  63.672  1.00  0.00    -0.362 C  
BRANCH  26  27
HETATM   27  O   UNL     1     -11.275  12.940  63.575  1.00  0.00    -0.424 OA 
BRANCH  27  28
HETATM   28  C   UNL     1     -11.364  13.558  64.806  1.00  0.00    -0.347 A  
HETATM   29  N   UNL     1     -12.322  13.192  65.678  1.00  0.00    -0.462 NA 
HETATM   30  C   UNL     1     -12.332  13.850  66.859  1.00  0.00    -0.292 A  
HETATM   31  C   UNL     1     -11.435  14.839  67.186  1.00  0.00    -0.364 A  
HETATM   32  C   UNL     1     -10.504  15.135  66.219  1.00  0.00    -0.307 A  
HETATM   33 BR   UNL     1     -11.478  15.725  68.840  1.00  0.00    -0.396 Br 
HETATM   34  N   UNL     1     -10.445  14.512  65.022  1.00  0.00    -0.418 NA 
ENDBRANCH  27  28
ENDBRANCH  26  27
ENDBRANCH  25  26
ENDBRANCH  24  25
ENDBRANCH  13  24
ENDBRANCH   9  11
ENDBRANCH   6   9
ENDBRANCH   4   6
ENDBRANCH   3   4
ENDBRANCH   2   3
TORSDOF 11
ENDMDL
MODEL       35
REMARK 921   NORMALIZED FREE ENERGY PREDICTED BY IDOCK:   -5.93 KCAL/MOL
REMARK 922        TOTAL FREE ENERGY PREDICTED BY IDOCK:  -11.16 KCAL/MOL
REMARK 923 INTER-LIGAND FREE ENERGY PREDICTED BY IDOCK:   -9.34 KCAL/MOL
REMARK 924 INTRA-LIGAND FREE ENERGY PREDICTED BY IDOCK:   -1.83 KCAL/MOL
REMARK 927      BINDING AFFINITY PREDICTED BY RF-SCORE:    0.00 PKD
ROOT
HETATM    1  C   UNL     1      -9.724   5.585  66.720  1.00  0.00    -0.168 C  
HETATM    2  C   UNL     1     -10.947   6.265  67.314  1.00  0.00    -0.455 C  
ENDROOT
BRANCH   2   3
HETATM    3  C   UNL     1     -10.999   6.133  68.832  1.00  0.00    -0.356 C  
BRANCH   3   4
HETATM    4  N   UNL     1     -10.943   7.487  69.454  1.00  0.00    -0.421 N  
HETATM    5  H   UNL     1     -11.694   8.173  69.393  1.00  0.00     0.000 HD 
BRANCH   4   6
HETATM    6  S   UNL     1      -9.499   7.746  70.267  1.00  0.00    -0.159 S  
HETATM    7  O   UNL     1      -9.881   7.938  71.650  1.00  0.00    -0.160 OA 
HETATM    8  O   UNL     1      -8.560   6.729  69.877  1.00  0.00    -0.138 OA 
BRANCH   6   9
HETATM    9  N   UNL     1      -9.036   9.247  69.687  1.00  0.00    -0.149 N  
HETATM   10  H   UNL     1      -8.061   9.549  69.692  1.00  0.00     0.000 HD 
BRANCH   9  11
HETATM   11  C   UNL     1     -10.071  10.072  69.189  1.00  0.00    -0.208 A  
HETATM   12  C   UNL     1     -10.209  10.435  67.843  1.00  0.00    -0.211 A  
HETATM   13  C   UNL     1     -11.402  11.143  67.638  1.00  0.00    -0.284 A  
HETATM   14  N   UNL     1     -10.878  10.447  70.201  1.00  0.00    -0.288 NA 
HETATM   15  N   UNL     1     -12.270  11.512  68.607  1.00  0.00    -0.461 NA 
HETATM   16  C   UNL     1     -11.949  11.156  69.849  1.00  0.00    -0.363 A  
BRANCH  12  17
HETATM   17  C   UNL     1      -9.215  10.167  66.740  1.00  0.00    -0.174 A  
HETATM   18  C   UNL     1      -8.025  10.894  66.571  1.00  0.00    -0.152 A  
HETATM   19  C   UNL     1      -7.061  10.583  65.602  1.00  0.00    -0.119 A  
HETATM   20  C   UNL     1      -8.445   8.790  64.836  1.00  0.00    -0.189 A  
HETATM   21  C   UNL     1      -9.412   9.135  65.795  1.00  0.00    -0.322 A  
HETATM   22 BR   UNL     1      -5.924   9.023  63.518  1.00  0.00    -0.088 Br 
HETATM   23  C   UNL     1      -7.263   9.508  64.756  1.00  0.00    -0.112 A  
ENDBRANCH  12  17
BRANCH  13  24
HETATM   24  O   UNL     1     -11.730  11.485  66.342  1.00  0.00    -0.422 OA 
BRANCH  24  25
HETATM   25  C   UNL     1     -12.050  12.852  66.079  1.00  0.00    -0.422 C  
BRANCH  25  26
HETATM   26  C   UNL     1     -10.727  13.614  66.000  1.00  0.00    -0.280 C  
BRANCH  26  27
HETATM   27  O   UNL     1     -10.886  14.790  65.212  1.00  0.00    -0.333 OA 
BRANCH  27  28
HETATM   28  C   UNL     1     -10.722  15.951  65.941  1.00  0.00    -0.296 A  
HETATM   29  N   UNL     1     -10.675  15.903  67.285  1.00  0.00    -0.315 NA 
HETATM   30  C   UNL     1     -10.510  17.087  67.916  1.00  0.00    -0.354 A  
HETATM   31  C   UNL     1     -10.392  18.289  67.258  1.00  0.00    -0.390 A  
HETATM   32  C   UNL     1     -10.459  18.220  65.886  1.00  0.00    -0.307 A  
HETATM   33 BR   UNL     1     -10.156  19.913  68.169  1.00  0.00    -0.554 Br 
HETATM   34  N   UNL     1     -10.624  17.067  65.203  1.00  0.00    -0.687 NA 
ENDBRANCH  27  28
ENDBRANCH  26  27
ENDBRANCH  25  26
ENDBRANCH  24  25
ENDBRANCH  13  24
ENDBRANCH   9  11
ENDBRANCH   6   9
ENDBRANCH   4   6
ENDBRANCH   3   4
ENDBRANCH   2   3
TORSDOF 11
ENDMDL
MODEL       36
REMARK 921   NORMALIZED FREE ENERGY PREDICTED BY IDOCK:   -5.91 KCAL/MOL
REMARK 922        TOTAL FREE ENERGY PREDICTED BY IDOCK:  -11.12 KCAL/MOL
REMARK 923 INTER-LIGAND FREE ENERGY PREDICTED BY IDOCK:   -9.61 KCAL/MOL
REMARK 924 INTRA-LIGAND FREE ENERGY PREDICTED BY IDOCK:   -1.51 KCAL/MOL
REMARK 927      BINDING AFFINITY PREDICTED BY RF-SCORE:    0.00 PKD
ROOT
HETATM    1  C   UNL     1     -10.239   3.029  72.862  1.00  0.00    -0.235 C  
HETATM    2  C   UNL     1     -11.047   4.155  73.487  1.00  0.00    -0.359 C  
ENDROOT
BRANCH   2   3
HETATM    3  C   UNL     1     -11.104   5.387  72.592  1.00  0.00    -0.278 C  
BRANCH   3   4
HETATM    4  N   UNL     1     -12.480   5.960  72.615  1.00  0.00    -0.487 N  
HETATM    5  H   UNL     1     -13.215   5.651  73.250  1.00  0.00     0.000 HD 
BRANCH   4   6
HETATM    6  S   UNL     1     -12.676   7.172  71.473  1.00  0.00    -0.384 S  
HETATM    7  O   UNL     1     -12.054   6.656  70.272  1.00  0.00    -0.350 OA 
HETATM    8  O   UNL     1     -14.048   7.604  71.488  1.00  0.00    -0.414 OA 
BRANCH   6   9
HETATM    9  N   UNL     1     -11.663   8.371  72.058  1.00  0.00    -0.326 N  
HETATM   10  H   UNL     1     -10.977   8.186  72.791  1.00  0.00     0.000 HD 
BRANCH   9  11
HETATM   11  C   UNL     1     -11.811   9.653  71.478  1.00  0.00    -0.407 A  
HETATM   12  C   UNL     1     -11.078  10.106  70.374  1.00  0.00    -0.393 A  
HETATM   13  C   UNL     1     -11.542  11.360  69.950  1.00  0.00    -0.323 A  
HETATM   14  N   UNL     1     -12.745  10.350  72.154  1.00  0.00    -0.265 NA 
HETATM   15  N   UNL     1     -12.503  12.087  70.562  1.00  0.00    -0.254 NA 
HETATM   16  C   UNL     1     -13.045  11.545  71.651  1.00  0.00    -0.373 A  
BRANCH  12  17
HETATM   17  C   UNL     1      -9.912   9.402  69.726  1.00  0.00    -0.217 A  
HETATM   18  C   UNL     1      -8.621   9.365  70.280  1.00  0.00    -0.249 A  
HETATM   19  C   UNL     1      -7.563   8.633  69.723  1.00  0.00    -0.079 A  
HETATM   20  C   UNL     1      -9.007   7.942  67.947  1.00  0.00    -0.129 A  
HETATM   21  C   UNL     1     -10.047   8.705  68.505  1.00  0.00    -0.211 A  
HETATM   22 BR   UNL     1      -6.379   6.830  67.874  1.00  0.00    -0.050 Br 
HETATM   23  C   UNL     1      -7.771   7.897  68.571  1.00  0.00    -0.114 A  
ENDBRANCH  12  17
BRANCH  13  24
HETATM   24  O   UNL     1     -10.984  11.897  68.807  1.00  0.00    -0.213 OA 
BRANCH  24  25
HETATM   25  C   UNL     1     -11.799  12.762  68.016  1.00  0.00    -0.336 C  
BRANCH  25  26
HETATM   26  C   UNL     1     -11.048  14.087  67.884  1.00  0.00    -0.255 C  
BRANCH  26  27
HETATM   27  O   UNL     1     -11.882  15.166  68.296  1.00  0.00    -0.331 OA 
BRANCH  27  28
HETATM   28  C   UNL     1     -11.973  15.279  69.669  1.00  0.00    -0.338 A  
HETATM   29  N   UNL     1     -10.858  15.267  70.423  1.00  0.00    -0.285 NA 
HETATM   30  C   UNL     1     -11.042  15.386  71.756  1.00  0.00    -0.181 A  
HETATM   31  C   UNL     1     -12.279  15.513  72.345  1.00  0.00    -0.414 A  
HETATM   32  C   UNL     1     -13.347  15.507  71.480  1.00  0.00    -0.509 A  
HETATM   33 BR   UNL     1     -12.493  15.682  74.202  1.00  0.00    -0.804 Br 
HETATM   34  N   UNL     1     -13.224  15.391  70.140  1.00  0.00    -0.041 NA 
ENDBRANCH  27  28
ENDBRANCH  26  27
ENDBRANCH  25  26
ENDBRANCH  24  25
ENDBRANCH  13  24
ENDBRANCH   9  11
ENDBRANCH   6   9
ENDBRANCH   4   6
ENDBRANCH   3   4
ENDBRANCH   2   3
TORSDOF 11
ENDMDL
MODEL       37
REMARK 921   NORMALIZED FREE ENERGY PREDICTED BY IDOCK:   -5.88 KCAL/MOL
REMARK 922        TOTAL FREE ENERGY PREDICTED BY IDOCK:  -11.07 KCAL/MOL
REMARK 923 INTER-LIGAND FREE ENERGY PREDICTED BY IDOCK:   -9.10 KCAL/MOL
REMARK 924 INTRA-LIGAND FREE ENERGY PREDICTED BY IDOCK:   -1.98 KCAL/MOL
REMARK 927      BINDING AFFINITY PREDICTED BY RF-SCORE:    0.00 PKD
ROOT
HETATM    1  C   UNL     1     -10.295  17.278  66.978  1.00  0.00    -0.318 C  
HETATM    2  C   UNL     1      -9.765  16.234  66.009  1.00  0.00    -0.370 C  
ENDROOT
BRANCH   2   3
HETATM    3  C   UNL     1     -10.868  15.644  65.138  1.00  0.00    -0.431 C  
BRANCH   3   4
HETATM    4  N   UNL     1     -10.677  14.171  65.015  1.00  0.00    -0.390 N  
HETATM    5  H   UNL     1      -9.776  13.704  65.112  1.00  0.00     0.000 HD 
BRANCH   4   6
HETATM    6  S   UNL     1     -12.118  13.374  64.699  1.00  0.00    -0.423 S  
HETATM    7  O   UNL     1     -13.149  14.252  65.211  1.00  0.00    -0.707 OA 
HETATM    8  O   UNL     1     -12.113  12.934  63.330  1.00  0.00    -0.534 OA 
BRANCH   6   9
HETATM    9  N   UNL     1     -12.035  12.072  65.750  1.00  0.00    -0.201 N  
HETATM   10  H   UNL     1     -12.873  11.585  66.070  1.00  0.00     0.000 HD 
BRANCH   9  11
HETATM   11  C   UNL     1     -10.740  11.687  66.168  1.00  0.00    -0.278 A  
HETATM   12  C   UNL     1     -10.233  11.900  67.456  1.00  0.00    -0.212 A  
HETATM   13  C   UNL     1      -8.979  11.290  67.605  1.00  0.00    -0.142 A  
HETATM   14  N   UNL     1     -10.089  11.102  65.143  1.00  0.00    -0.264 NA 
HETATM   15  N   UNL     1      -8.296  10.655  66.626  1.00  0.00    -0.131 NA 
HETATM   16  C   UNL     1      -8.886  10.610  65.433  1.00  0.00    -0.189 A  
BRANCH  12  17
HETATM   17  C   UNL     1     -10.886  12.709  68.549  1.00  0.00    -0.279 A  
HETATM   18  C   UNL     1     -10.687  14.089  68.721  1.00  0.00    -0.272 A  
HETATM   19  C   UNL     1     -11.366  14.853  69.680  1.00  0.00    -0.311 A  
HETATM   20  C   UNL     1     -12.483  12.877  70.430  1.00  0.00    -0.247 A  
HETATM   21  C   UNL     1     -11.772  12.123  69.481  1.00  0.00    -0.402 A  
HETATM   22 BR   UNL     1     -13.278  15.287  71.736  1.00  0.00    -0.566 Br 
HETATM   23  C   UNL     1     -12.288  14.246  70.512  1.00  0.00    -0.360 A  
ENDBRANCH  12  17
BRANCH  13  24
HETATM   24  O   UNL     1      -8.392  11.327  68.853  1.00  0.00    -0.143 OA 
BRANCH  24  25
HETATM   25  C   UNL     1      -8.103  10.080  69.486  1.00  0.00    -0.161 C  
BRANCH  25  26
HETATM   26  C   UNL     1      -9.380   9.634  70.199  1.00  0.00    -0.251 C  
BRANCH  26  27
HETATM   27  O   UNL     1      -9.996   8.571  69.477  1.00  0.00    -0.185 OA 
BRANCH  27  28
HETATM   28  C   UNL     1      -9.980   7.375  70.166  1.00  0.00    -0.184 A  
HETATM   29  N   UNL     1     -10.710   7.231  71.288  1.00  0.00    -0.225 NA 
HETATM   30  C   UNL     1     -10.635   6.026  71.895  1.00  0.00    -0.226 A  
HETATM   31  C   UNL     1      -9.869   4.985  71.426  1.00  0.00    -0.182 A  
HETATM   32  C   UNL     1      -9.160   5.245  70.277  1.00  0.00    -0.134 A  
HETATM   33 BR   UNL     1      -9.796   3.323  72.294  1.00  0.00    -0.237 Br 
HETATM   34  N   UNL     1      -9.196   6.429  69.628  1.00  0.00    -0.142 NA 
ENDBRANCH  27  28
ENDBRANCH  26  27
ENDBRANCH  25  26
ENDBRANCH  24  25
ENDBRANCH  13  24
ENDBRANCH   9  11
ENDBRANCH   6   9
ENDBRANCH   4   6
ENDBRANCH   3   4
ENDBRANCH   2   3
TORSDOF 11
ENDMDL
MODEL       38
REMARK 921   NORMALIZED FREE ENERGY PREDICTED BY IDOCK:   -5.88 KCAL/MOL
REMARK 922        TOTAL FREE ENERGY PREDICTED BY IDOCK:  -11.07 KCAL/MOL
REMARK 923 INTER-LIGAND FREE ENERGY PREDICTED BY IDOCK:   -9.38 KCAL/MOL
REMARK 924 INTRA-LIGAND FREE ENERGY PREDICTED BY IDOCK:   -1.69 KCAL/MOL
REMARK 927      BINDING AFFINITY PREDICTED BY RF-SCORE:    0.00 PKD
ROOT
HETATM    1  C   UNL     1     -14.171   8.598  71.716  1.00  0.00    -0.490 C  
HETATM    2  C   UNL     1     -13.641   7.185  71.535  1.00  0.00    -0.408 C  
ENDROOT
BRANCH   2   3
HETATM    3  C   UNL     1     -12.122   7.151  71.418  1.00  0.00    -0.344 C  
BRANCH   3   4
HETATM    4  N   UNL     1     -11.651   8.345  70.660  1.00  0.00    -0.410 N  
HETATM    5  H   UNL     1     -12.088   9.264  70.717  1.00  0.00     0.000 HD 
BRANCH   4   6
HETATM    6  S   UNL     1     -10.318   7.998  69.704  1.00  0.00    -0.222 S  
HETATM    7  O   UNL     1      -9.441   7.222  70.555  1.00  0.00    -0.165 OA 
HETATM    8  O   UNL     1     -10.776   7.498  68.435  1.00  0.00    -0.164 OA 
BRANCH   6   9
HETATM    9  N   UNL     1      -9.607   9.505  69.535  1.00  0.00    -0.177 N  
HETATM   10  H   UNL     1      -8.653   9.689  69.848  1.00  0.00     0.000 HD 
BRANCH   9  11
HETATM   11  C   UNL     1     -10.403  10.508  68.934  1.00  0.00    -0.208 A  
HETATM   12  C   UNL     1     -10.308  10.886  67.588  1.00  0.00    -0.232 A  
HETATM   13  C   UNL     1     -11.314  11.805  67.258  1.00  0.00    -0.315 A  
HETATM   14  N   UNL     1     -11.242  11.030  69.850  1.00  0.00    -0.270 NA 
HETATM   15  N   UNL     1     -12.209  12.333  68.123  1.00  0.00    -0.265 NA 
HETATM   16  C   UNL     1     -12.112  11.926  69.388  1.00  0.00    -0.216 A  
BRANCH  12  17
HETATM   17  C   UNL     1      -9.256  10.434  66.606  1.00  0.00    -0.178 A  
HETATM   18  C   UNL     1      -7.981  11.016  66.508  1.00  0.00    -0.158 A  
HETATM   19  C   UNL     1      -6.976  10.534  65.659  1.00  0.00    -0.113 A  
HETATM   20  C   UNL     1      -8.478   8.847  64.876  1.00  0.00    -0.195 A  
HETATM   21  C   UNL     1      -9.482   9.362  65.714  1.00  0.00    -0.325 A  
HETATM   22 BR   UNL     1      -5.839   8.713  63.797  1.00  0.00    -0.072 Br 
HETATM   23  C   UNL     1      -7.220   9.428  64.867  1.00  0.00    -0.106 A  
ENDBRANCH  12  17
BRANCH  13  24
HETATM   24  O   UNL     1     -11.415  12.199  65.939  1.00  0.00    -0.345 OA 
BRANCH  24  25
HETATM   25  C   UNL     1     -12.515  13.035  65.579  1.00  0.00    -0.438 C  
BRANCH  25  26
HETATM   26  C   UNL     1     -11.971  14.114  64.644  1.00  0.00    -0.445 C  
BRANCH  26  27
HETATM   27  O   UNL     1     -10.618  14.414  64.978  1.00  0.00    -0.381 OA 
BRANCH  27  28
HETATM   28  C   UNL     1     -10.493  15.569  65.723  1.00  0.00    -0.361 A  
HETATM   29  N   UNL     1     -10.318  15.497  67.056  1.00  0.00    -0.273 NA 
HETATM   30  C   UNL     1     -10.202  16.678  67.703  1.00  0.00    -0.285 A  
HETATM   31  C   UNL     1     -10.256  17.899  67.073  1.00  0.00    -0.358 A  
HETATM   32  C   UNL     1     -10.444  17.853  65.712  1.00  0.00    -0.196 A  
HETATM   33 BR   UNL     1     -10.085  19.518  68.007  1.00  0.00    -0.560 Br 
HETATM   34  N   UNL     1     -10.566  16.704  65.012  1.00  0.00    -0.703 NA 
ENDBRANCH  27  28
ENDBRANCH  26  27
ENDBRANCH  25  26
ENDBRANCH  24  25
ENDBRANCH  13  24
ENDBRANCH   9  11
ENDBRANCH   6   9
ENDBRANCH   4   6
ENDBRANCH   3   4
ENDBRANCH   2   3
TORSDOF 11
ENDMDL
MODEL       39
REMARK 921   NORMALIZED FREE ENERGY PREDICTED BY IDOCK:   -5.86 KCAL/MOL
REMARK 922        TOTAL FREE ENERGY PREDICTED BY IDOCK:  -11.05 KCAL/MOL
REMARK 923 INTER-LIGAND FREE ENERGY PREDICTED BY IDOCK:   -9.50 KCAL/MOL
REMARK 924 INTRA-LIGAND FREE ENERGY PREDICTED BY IDOCK:   -1.54 KCAL/MOL
REMARK 927      BINDING AFFINITY PREDICTED BY RF-SCORE:    0.00 PKD
ROOT
HETATM    1  C   UNL     1     -10.105   7.605  73.307  1.00  0.00    -0.393 C  
HETATM    2  C   UNL     1     -11.500   7.651  72.704  1.00  0.00    -0.403 C  
ENDROOT
BRANCH   2   3
HETATM    3  C   UNL     1     -11.736   6.517  71.714  1.00  0.00    -0.324 C  
BRANCH   3   4
HETATM    4  N   UNL     1     -11.865   7.073  70.337  1.00  0.00    -0.538 N  
HETATM    5  H   UNL     1     -12.708   7.523  69.980  1.00  0.00     0.000 HD 
BRANCH   4   6
HETATM    6  S   UNL     1     -10.460   6.870  69.443  1.00  0.00    -0.227 S  
HETATM    7  O   UNL     1      -9.652   5.956  70.222  1.00  0.00    -0.158 OA 
HETATM    8  O   UNL     1     -10.817   6.588  68.078  1.00  0.00    -0.252 OA 
BRANCH   6   9
HETATM    9  N   UNL     1      -9.740   8.376  69.577  1.00  0.00    -0.174 N  
HETATM   10  H   UNL     1      -8.796   8.491  69.945  1.00  0.00     0.000 HD 
BRANCH   9  11
HETATM   11  C   UNL     1     -10.516   9.480  69.150  1.00  0.00    -0.210 A  
HETATM   12  C   UNL     1     -10.425  10.061  67.879  1.00  0.00    -0.276 A  
HETATM   13  C   UNL     1     -11.410  11.044  67.710  1.00  0.00    -0.292 A  
HETATM   14  N   UNL     1     -11.331   9.874  70.149  1.00  0.00    -0.266 NA 
HETATM   15  N   UNL     1     -12.281  11.453  68.660  1.00  0.00    -0.510 NA 
HETATM   16  C   UNL     1     -12.181  10.851  69.844  1.00  0.00    -0.336 A  
BRANCH  12  17
HETATM   17  C   UNL     1      -9.396   9.741  66.823  1.00  0.00    -0.190 A  
HETATM   18  C   UNL     1      -9.588   8.781  65.816  1.00  0.00    -0.190 A  
HETATM   19  C   UNL     1      -8.668   8.552  64.783  1.00  0.00    -0.055 A  
HETATM   20  C   UNL     1      -7.232  10.216  65.724  1.00  0.00    -0.128 A  
HETATM   21  C   UNL     1      -8.154  10.412  66.767  1.00  0.00    -0.120 A  
HETATM   22 BR   UNL     1      -6.311   9.062  63.281  1.00  0.00    -0.090 Br 
HETATM   23  C   UNL     1      -7.504   9.296  64.724  1.00  0.00    -0.104 A  
ENDBRANCH  12  17
BRANCH  13  24
HETATM   24  O   UNL     1     -11.513  11.642  66.470  1.00  0.00    -0.411 OA 
BRANCH  24  25
HETATM   25  C   UNL     1     -11.804  13.039  66.430  1.00  0.00    -0.405 C  
BRANCH  25  26
HETATM   26  C   UNL     1     -10.528  13.749  65.977  1.00  0.00    -0.297 C  
BRANCH  26  27
HETATM   27  O   UNL     1     -10.857  14.940  65.267  1.00  0.00    -0.334 OA 
BRANCH  27  28
HETATM   28  C   UNL     1     -10.664  16.082  66.018  1.00  0.00    -0.267 A  
HETATM   29  N   UNL     1     -10.622  16.009  67.361  1.00  0.00    -0.313 NA 
HETATM   30  C   UNL     1     -10.427  17.177  68.013  1.00  0.00    -0.369 A  
HETATM   31  C   UNL     1     -10.278  18.387  67.377  1.00  0.00    -0.372 A  
HETATM   32  C   UNL     1     -10.343  18.345  66.005  1.00  0.00    -0.375 A  
HETATM   33 BR   UNL     1     -10.002  19.987  68.319  1.00  0.00    -0.462 Br 
HETATM   34  N   UNL     1     -10.536  17.209  65.300  1.00  0.00    -0.662 NA 
ENDBRANCH  27  28
ENDBRANCH  26  27
ENDBRANCH  25  26
ENDBRANCH  24  25
ENDBRANCH  13  24
ENDBRANCH   9  11
ENDBRANCH   6   9
ENDBRANCH   4   6
ENDBRANCH   3   4
ENDBRANCH   2   3
TORSDOF 11
ENDMDL
MODEL       40
REMARK 921   NORMALIZED FREE ENERGY PREDICTED BY IDOCK:   -5.82 KCAL/MOL
REMARK 922        TOTAL FREE ENERGY PREDICTED BY IDOCK:  -10.99 KCAL/MOL
REMARK 923 INTER-LIGAND FREE ENERGY PREDICTED BY IDOCK:   -9.30 KCAL/MOL
REMARK 924 INTRA-LIGAND FREE ENERGY PREDICTED BY IDOCK:   -1.68 KCAL/MOL
REMARK 927      BINDING AFFINITY PREDICTED BY RF-SCORE:    0.00 PKD
ROOT
HETATM    1  C   UNL     1     -10.425   3.290  73.159  1.00  0.00    -0.254 C  
HETATM    2  C   UNL     1     -11.031   4.523  73.810  1.00  0.00    -0.361 C  
ENDROOT
BRANCH   2   3
HETATM    3  C   UNL     1     -10.591   5.811  73.124  1.00  0.00    -0.244 C  
BRANCH   3   4
HETATM    4  N   UNL     1     -11.512   6.116  71.993  1.00  0.00    -0.305 N  
HETATM    5  H   UNL     1     -12.526   6.174  72.084  1.00  0.00     0.000 HD 
BRANCH   4   6
HETATM    6  S   UNL     1     -10.685   6.353  70.553  1.00  0.00    -0.278 S  
HETATM    7  O   UNL     1      -9.606   5.390  70.582  1.00  0.00    -0.159 OA 
HETATM    8  O   UNL     1     -11.635   6.392  69.474  1.00  0.00    -0.404 OA 
BRANCH   6   9
HETATM    9  N   UNL     1      -9.988   7.857  70.794  1.00  0.00    -0.184 N  
HETATM   10  H   UNL     1      -8.998   7.963  71.018  1.00  0.00     0.000 HD 
BRANCH   9  11
HETATM   11  C   UNL     1     -10.850   8.973  70.670  1.00  0.00    -0.243 A  
HETATM   12  C   UNL     1     -10.931   9.780  69.527  1.00  0.00    -0.256 A  
HETATM   13  C   UNL     1     -11.965  10.718  69.654  1.00  0.00    -0.313 A  
HETATM   14  N   UNL     1     -11.555   9.129  71.807  1.00  0.00    -0.371 NA 
HETATM   15  N   UNL     1     -12.733  10.894  70.753  1.00  0.00    -0.349 NA 
HETATM   16  C   UNL     1     -12.472  10.094  71.785  1.00  0.00    -0.360 A  
BRANCH  12  17
HETATM   17  C   UNL     1     -10.022   9.718  68.325  1.00  0.00    -0.175 A  
HETATM   18  C   UNL     1     -10.187   8.803  67.271  1.00  0.00    -0.332 A  
HETATM   19  C   UNL     1      -9.398   8.810  66.113  1.00  0.00    -0.297 A  
HETATM   20  C   UNL     1      -8.150  10.646  67.002  1.00  0.00    -0.120 A  
HETATM   21  C   UNL     1      -8.934  10.605  68.167  1.00  0.00    -0.141 A  
HETATM   22 BR   UNL     1      -7.400   9.833  64.371  1.00  0.00    -0.136 Br 
HETATM   23  C   UNL     1      -8.399   9.755  65.970  1.00  0.00    -0.120 A  
ENDBRANCH  12  17
BRANCH  13  24
HETATM   24  O   UNL     1     -12.237  11.523  68.567  1.00  0.00    -0.524 OA 
BRANCH  24  25
HETATM   25  C   UNL     1     -11.890  12.905  68.664  1.00  0.00    -0.312 C  
BRANCH  25  26
HETATM   26  C   UNL     1     -11.903  13.470  67.243  1.00  0.00    -0.385 C  
BRANCH  26  27
HETATM   27  O   UNL     1     -10.594  13.896  66.874  1.00  0.00    -0.277 OA 
BRANCH  27  28
HETATM   28  C   UNL     1     -10.477  15.270  66.805  1.00  0.00    -0.293 A  
HETATM   29  N   UNL     1     -10.238  15.985  67.920  1.00  0.00    -0.252 NA 
HETATM   30  C   UNL     1     -10.137  17.322  67.756  1.00  0.00    -0.311 A  
HETATM   31  C   UNL     1     -10.264  17.952  66.540  1.00  0.00    -0.379 A  
HETATM   32  C   UNL     1     -10.512  17.125  65.471  1.00  0.00    -0.144 A  
HETATM   33 BR   UNL     1     -10.110  19.813  66.354  1.00  0.00    -0.641 Br 
HETATM   34  N   UNL     1     -10.625  15.783  65.574  1.00  0.00    -0.384 NA 
ENDBRANCH  27  28
ENDBRANCH  26  27
ENDBRANCH  25  26
ENDBRANCH  24  25
ENDBRANCH  13  24
ENDBRANCH   9  11
ENDBRANCH   6   9
ENDBRANCH   4   6
ENDBRANCH   3   4
ENDBRANCH   2   3
TORSDOF 11
ENDMDL
MODEL       41
REMARK 921   NORMALIZED FREE ENERGY PREDICTED BY IDOCK:   -5.82 KCAL/MOL
REMARK 922        TOTAL FREE ENERGY PREDICTED BY IDOCK:  -10.98 KCAL/MOL
REMARK 923 INTER-LIGAND FREE ENERGY PREDICTED BY IDOCK:  -10.20 KCAL/MOL
REMARK 924 INTRA-LIGAND FREE ENERGY PREDICTED BY IDOCK:   -0.78 KCAL/MOL
REMARK 927      BINDING AFFINITY PREDICTED BY RF-SCORE:    0.00 PKD
ROOT
HETATM    1  C   UNL     1      -5.172  10.264  68.306  1.00  0.00    -0.035 C  
HETATM    2  C   UNL     1      -6.657   9.943  68.358  1.00  0.00    -0.055 C  
ENDROOT
BRANCH   2   3
HETATM    3  C   UNL     1      -7.047   9.233  69.648  1.00  0.00    -0.061 C  
BRANCH   3   4
HETATM    4  N   UNL     1      -8.264   9.871  70.224  1.00  0.00    -0.293 N  
HETATM    5  H   UNL     1      -8.484  10.863  70.134  1.00  0.00     0.000 HD 
BRANCH   4   6
HETATM    6  S   UNL     1      -9.230   8.766  71.035  1.00  0.00    -0.244 S  
HETATM    7  O   UNL     1      -8.822   7.473  70.530  1.00  0.00    -0.145 OA 
HETATM    8  O   UNL     1      -9.202   9.071  72.441  1.00  0.00    -0.307 OA 
BRANCH   6   9
HETATM    9  N   UNL     1     -10.742   9.078  70.384  1.00  0.00    -0.217 N  
HETATM   10  H   UNL     1     -11.601   8.892  70.902  1.00  0.00     0.000 HD 
BRANCH   9  11
HETATM   11  C   UNL     1     -10.760   9.614  69.074  1.00  0.00    -0.211 A  
HETATM   12  C   UNL     1     -11.114  10.935  68.770  1.00  0.00    -0.310 A  
HETATM   13  C   UNL     1     -10.906  11.204  67.410  1.00  0.00    -0.266 A  
HETATM   14  N   UNL     1     -10.396   8.663  68.191  1.00  0.00    -0.219 NA 
HETATM   15  N   UNL     1     -10.504  10.304  66.485  1.00  0.00    -0.203 NA 
HETATM   16  C   UNL     1     -10.285   9.066  66.927  1.00  0.00    -0.269 A  
BRANCH  12  17
HETATM   17  C   UNL     1     -11.690  11.947  69.728  1.00  0.00    -0.403 A  
HETATM   18  C   UNL     1     -11.541  13.336  69.574  1.00  0.00    -0.349 A  
HETATM   19  C   UNL     1     -12.155  14.276  70.414  1.00  0.00    -0.409 A  
HETATM   20  C   UNL     1     -13.093  12.486  71.692  1.00  0.00    -0.414 A  
HETATM   21  C   UNL     1     -12.447  11.559  70.856  1.00  0.00    -0.464 A  
HETATM   22 BR   UNL     1     -13.866  15.104  72.526  1.00  0.00    -0.602 Br 
HETATM   23  C   UNL     1     -12.957  13.844  71.454  1.00  0.00    -0.355 A  
ENDBRANCH  12  17
BRANCH  13  24
HETATM   24  O   UNL     1     -11.116  12.496  66.973  1.00  0.00    -0.257 OA 
BRANCH  24  25
HETATM   25  C   UNL     1     -11.853  12.675  65.763  1.00  0.00    -0.444 C  
BRANCH  25  26
HETATM   26  C   UNL     1     -12.227  14.155  65.682  1.00  0.00    -0.435 C  
BRANCH  26  27
HETATM   27  O   UNL     1     -11.135  14.908  65.163  1.00  0.00    -0.350 OA 
BRANCH  27  28
HETATM   28  C   UNL     1     -10.866  16.043  65.903  1.00  0.00    -0.207 A  
HETATM   29  N   UNL     1     -10.590  17.204  65.282  1.00  0.00    -0.662 NA 
HETATM   30  C   UNL     1     -10.342  18.262  66.086  1.00  0.00    -0.398 A  
HETATM   31  C   UNL     1     -10.361  18.194  67.460  1.00  0.00    -0.392 A  
HETATM   32  C   UNL     1     -10.648  16.957  67.986  1.00  0.00    -0.367 A  
HETATM   33 BR   UNL     1     -10.017  19.688  68.542  1.00  0.00    -0.545 Br 
HETATM   34  N   UNL     1     -10.904  15.865  67.233  1.00  0.00    -0.309 NA 
ENDBRANCH  27  28
ENDBRANCH  26  27
ENDBRANCH  25  26
ENDBRANCH  24  25
ENDBRANCH  13  24
ENDBRANCH   9  11
ENDBRANCH   6   9
ENDBRANCH   4   6
ENDBRANCH   3   4
ENDBRANCH   2   3
TORSDOF 11
ENDMDL
MODEL       42
REMARK 921   NORMALIZED FREE ENERGY PREDICTED BY IDOCK:   -5.80 KCAL/MOL
REMARK 922        TOTAL FREE ENERGY PREDICTED BY IDOCK:  -10.95 KCAL/MOL
REMARK 923 INTER-LIGAND FREE ENERGY PREDICTED BY IDOCK:   -9.49 KCAL/MOL
REMARK 924 INTRA-LIGAND FREE ENERGY PREDICTED BY IDOCK:   -1.45 KCAL/MOL
REMARK 927      BINDING AFFINITY PREDICTED BY RF-SCORE:    0.00 PKD
ROOT
HETATM    1  C   UNL     1     -10.859   8.618  72.221  1.00  0.00    -0.392 C  
HETATM    2  C   UNL     1      -9.853   9.000  71.148  1.00  0.00    -0.371 C  
ENDROOT
BRANCH   2   3
HETATM    3  C   UNL     1     -10.000   8.148  69.892  1.00  0.00    -0.190 C  
BRANCH   3   4
HETATM    4  N   UNL     1      -8.850   8.399  68.978  1.00  0.00    -0.145 N  
HETATM    5  H   UNL     1      -7.878   8.439  69.284  1.00  0.00     0.000 HD 
BRANCH   4   6
HETATM    6  S   UNL     1      -9.343   8.608  67.389  1.00  0.00    -0.147 S  
HETATM    7  O   UNL     1      -8.329   7.949  66.595  1.00  0.00    -0.118 OA 
HETATM    8  O   UNL     1     -10.733   8.253  67.286  1.00  0.00    -0.289 OA 
BRANCH   6   9
HETATM    9  N   UNL     1      -9.126  10.254  67.170  1.00  0.00    -0.142 N  
HETATM   10  H   UNL     1      -8.434  10.782  67.702  1.00  0.00     0.000 HD 
BRANCH   9  11
HETATM   11  C   UNL     1      -9.958  10.872  66.206  1.00  0.00    -0.227 A  
HETATM   12  C   UNL     1     -10.949  11.814  66.510  1.00  0.00    -0.342 A  
HETATM   13  C   UNL     1     -11.509  12.342  65.338  1.00  0.00    -0.358 A  
HETATM   14  N   UNL     1      -9.649  10.409  64.979  1.00  0.00    -0.254 NA 
HETATM   15  N   UNL     1     -11.211  11.947  64.080  1.00  0.00    -0.353 NA 
HETATM   16  C   UNL     1     -10.301  10.981  63.969  1.00  0.00    -0.371 A  
BRANCH  12  17
HETATM   17  C   UNL     1     -11.418  12.202  67.890  1.00  0.00    -0.392 A  
HETATM   18  C   UNL     1     -11.612  13.532  68.300  1.00  0.00    -0.381 A  
HETATM   19  C   UNL     1     -12.135  13.885  69.552  1.00  0.00    -0.393 A  
HETATM   20  C   UNL     1     -12.266  11.568  70.125  1.00  0.00    -0.387 A  
HETATM   21  C   UNL     1     -11.714  11.235  68.876  1.00  0.00    -0.409 A  
HETATM   22 BR   UNL     1     -13.288  13.362  72.095  1.00  0.00    -0.628 Br 
HETATM   23  C   UNL     1     -12.490  12.896  70.450  1.00  0.00    -0.173 A  
ENDBRANCH  12  17
BRANCH  13  24
HETATM   24  O   UNL     1     -12.434  13.358  65.471  1.00  0.00    -0.453 OA 
BRANCH  24  25
HETATM   25  C   UNL     1     -12.362  14.444  64.547  1.00  0.00    -0.418 C  
BRANCH  25  26
HETATM   26  C   UNL     1     -11.000  15.109  64.743  1.00  0.00    -0.377 C  
BRANCH  26  27
HETATM   27  O   UNL     1     -11.097  16.146  65.715  1.00  0.00    -0.150 OA 
BRANCH  27  28
HETATM   28  C   UNL     1     -10.036  16.155  66.599  1.00  0.00    -0.276 A  
HETATM   29  N   UNL     1     -10.019  17.026  67.625  1.00  0.00    -0.272 NA 
HETATM   30  C   UNL     1      -8.942  16.961  68.440  1.00  0.00    -0.244 A  
HETATM   31  C   UNL     1      -7.907  16.072  68.263  1.00  0.00    -0.144 A  
HETATM   32  C   UNL     1      -8.028  15.234  67.180  1.00  0.00    -0.218 A  
HETATM   33 BR   UNL     1      -6.432  16.008  69.422  1.00  0.00    -0.184 Br 
HETATM   34  N   UNL     1      -9.079  15.253  66.332  1.00  0.00    -0.298 NA 
ENDBRANCH  27  28
ENDBRANCH  26  27
ENDBRANCH  25  26
ENDBRANCH  24  25
ENDBRANCH  13  24
ENDBRANCH   9  11
ENDBRANCH   6   9
ENDBRANCH   4   6
ENDBRANCH   3   4
ENDBRANCH   2   3
TORSDOF 11
ENDMDL
MODEL       43
REMARK 921   NORMALIZED FREE ENERGY PREDICTED BY IDOCK:   -5.76 KCAL/MOL
REMARK 922        TOTAL FREE ENERGY PREDICTED BY IDOCK:  -10.88 KCAL/MOL
REMARK 923 INTER-LIGAND FREE ENERGY PREDICTED BY IDOCK:   -8.55 KCAL/MOL
REMARK 924 INTRA-LIGAND FREE ENERGY PREDICTED BY IDOCK:   -2.33 KCAL/MOL
REMARK 927      BINDING AFFINITY PREDICTED BY RF-SCORE:    0.00 PKD
ROOT
HETATM    1  C   UNL     1     -12.197  12.395  63.614  1.00  0.00    -0.653 C  
HETATM    2  C   UNL     1     -12.130  13.727  64.343  1.00  0.00    -0.474 C  
ENDROOT
BRANCH   2   3
HETATM    3  C   UNL     1     -12.432  13.585  65.831  1.00  0.00    -0.429 C  
BRANCH   3   4
HETATM    4  N   UNL     1     -11.167  13.698  66.611  1.00  0.00    -0.306 N  
HETATM    5  H   UNL     1     -10.384  14.293  66.344  1.00  0.00     0.000 HD 
BRANCH   4   6
HETATM    6  S   UNL     1     -11.185  12.731  67.982  1.00  0.00    -0.292 S  
HETATM    7  O   UNL     1     -11.223  13.659  69.092  1.00  0.00    -0.256 OA 
HETATM    8  O   UNL     1     -12.186  11.711  67.815  1.00  0.00    -0.560 OA 
BRANCH   6   9
HETATM    9  N   UNL     1      -9.646  12.070  67.964  1.00  0.00    -0.193 N  
HETATM   10  H   UNL     1      -8.893  12.445  68.541  1.00  0.00     0.000 HD 
BRANCH   9  11
HETATM   11  C   UNL     1      -9.450  10.965  67.103  1.00  0.00    -0.160 A  
HETATM   12  C   UNL     1      -9.310   9.642  67.542  1.00  0.00    -0.149 A  
HETATM   13  C   UNL     1      -9.265   8.759  66.454  1.00  0.00    -0.189 A  
HETATM   14  N   UNL     1      -9.414  11.387  65.824  1.00  0.00    -0.229 NA 
HETATM   15  N   UNL     1      -9.267   9.121  65.151  1.00  0.00    -0.196 NA 
HETATM   16  C   UNL     1      -9.324  10.429  64.905  1.00  0.00    -0.243 A  
BRANCH  12  17
HETATM   17  C   UNL     1      -9.172   9.186  68.974  1.00  0.00    -0.143 A  
HETATM   18  C   UNL     1      -8.114   8.386  69.437  1.00  0.00    -0.114 A  
HETATM   19  C   UNL     1      -7.939   8.041  70.784  1.00  0.00    -0.099 A  
HETATM   20  C   UNL     1      -9.934   9.244  71.326  1.00  0.00    -0.341 A  
HETATM   21  C   UNL     1     -10.107   9.555  69.966  1.00  0.00    -0.279 A  
HETATM   22 BR   UNL     1      -8.551   8.123  73.557  1.00  0.00    -0.279 Br 
HETATM   23  C   UNL     1      -8.837   8.500  71.730  1.00  0.00    -0.211 A  
ENDBRANCH  12  17
BRANCH  13  24
HETATM   24  O   UNL     1      -9.228   7.407  66.726  1.00  0.00    -0.142 OA 
BRANCH  24  25
HETATM   25  C   UNL     1     -10.450   6.675  66.618  1.00  0.00    -0.152 C  
BRANCH  25  26
HETATM   26  C   UNL     1     -10.577   5.827  67.884  1.00  0.00    -0.231 C  
BRANCH  26  27
HETATM   27  O   UNL     1     -11.456   6.458  68.810  1.00  0.00    -0.283 OA 
BRANCH  27  28
HETATM   28  C   UNL     1     -11.240   6.058  70.113  1.00  0.00    -0.342 A  
HETATM   29  N   UNL     1     -12.049   6.494  71.097  1.00  0.00    -0.321 NA 
HETATM   30  C   UNL     1     -11.763   6.050  72.341  1.00  0.00    -0.271 A  
HETATM   31  C   UNL     1     -10.717   5.203  72.624  1.00  0.00    -0.237 A  
HETATM   32  C   UNL     1      -9.954   4.826  71.544  1.00  0.00    -0.194 A  
HETATM   33 BR   UNL     1     -10.356   4.602  74.365  1.00  0.00    -0.330 Br 
HETATM   34  N   UNL     1     -10.191   5.239  70.280  1.00  0.00    -0.256 NA 
ENDBRANCH  27  28
ENDBRANCH  26  27
ENDBRANCH  25  26
ENDBRANCH  24  25
ENDBRANCH  13  24
ENDBRANCH   9  11
ENDBRANCH   6   9
ENDBRANCH   4   6
ENDBRANCH   3   4
ENDBRANCH   2   3
TORSDOF 11
ENDMDL
MODEL       44
REMARK 921   NORMALIZED FREE ENERGY PREDICTED BY IDOCK:   -5.75 KCAL/MOL
REMARK 922        TOTAL FREE ENERGY PREDICTED BY IDOCK:  -10.87 KCAL/MOL
REMARK 923 INTER-LIGAND FREE ENERGY PREDICTED BY IDOCK:   -8.91 KCAL/MOL
REMARK 924 INTRA-LIGAND FREE ENERGY PREDICTED BY IDOCK:   -1.96 KCAL/MOL
REMARK 927      BINDING AFFINITY PREDICTED BY RF-SCORE:    0.00 PKD
ROOT
HETATM    1  C   UNL     1     -12.305  11.104  70.795  1.00  0.00    -0.504 C  
HETATM    2  C   UNL     1     -13.159  11.763  71.867  1.00  0.00    -0.482 C  
ENDROOT
BRANCH   2   3
HETATM    3  C   UNL     1     -13.094  13.284  71.800  1.00  0.00    -0.379 C  
BRANCH   3   4
HETATM    4  N   UNL     1     -12.130  13.698  70.741  1.00  0.00    -0.466 N  
HETATM    5  H   UNL     1     -11.473  13.063  70.289  1.00  0.00     0.000 HD 
BRANCH   4   6
HETATM    6  S   UNL     1     -12.253  15.332  70.384  1.00  0.00    -0.388 S  
HETATM    7  O   UNL     1     -13.599  15.697  70.769  1.00  0.00    -0.524 OA 
HETATM    8  O   UNL     1     -11.104  16.011  70.920  1.00  0.00    -0.339 OA 
BRANCH   6   9
HETATM    9  N   UNL     1     -12.220  15.327  68.709  1.00  0.00    -0.597 N  
HETATM   10  H   UNL     1     -12.721  16.025  68.158  1.00  0.00     0.000 HD 
BRANCH   9  11
HETATM   11  C   UNL     1     -11.459  14.301  68.101  1.00  0.00    -0.308 A  
HETATM   12  C   UNL     1     -10.101  14.417  67.777  1.00  0.00    -0.226 A  
HETATM   13  C   UNL     1      -9.595  13.194  67.313  1.00  0.00    -0.233 A  
HETATM   14  N   UNL     1     -12.240  13.224  67.887  1.00  0.00    -0.200 NA 
HETATM   15  N   UNL     1     -10.320  12.070  67.117  1.00  0.00    -0.212 NA 
HETATM   16  C   UNL     1     -11.619  12.152  67.400  1.00  0.00    -0.340 A  
BRANCH  12  17
HETATM   17  C   UNL     1      -9.269  15.673  67.851  1.00  0.00    -0.190 A  
HETATM   18  C   UNL     1      -9.400  16.746  66.954  1.00  0.00    -0.250 A  
HETATM   19  C   UNL     1      -8.691  17.949  67.080  1.00  0.00    -0.248 A  
HETATM   20  C   UNL     1      -7.596  17.072  69.016  1.00  0.00    -0.194 A  
HETATM   21  C   UNL     1      -8.296  15.863  68.856  1.00  0.00    -0.226 A  
HETATM   22 BR   UNL     1      -6.931  19.770  68.367  1.00  0.00    -0.346 Br 
HETATM   23  C   UNL     1      -7.812  18.118  68.134  1.00  0.00    -0.280 A  
ENDBRANCH  12  17
BRANCH  13  24
HETATM   24  O   UNL     1      -8.243  13.120  67.045  1.00  0.00    -0.149 OA 
BRANCH  24  25
HETATM   25  C   UNL     1      -7.627  11.833  67.100  1.00  0.00    -0.155 C  
BRANCH  25  26
HETATM   26  C   UNL     1      -7.365  11.524  68.574  1.00  0.00    -0.104 C  
BRANCH  26  27
HETATM   27  O   UNL     1      -7.123  10.131  68.747  1.00  0.00    -0.071 OA 
BRANCH  27  28
HETATM   28  C   UNL     1      -8.201   9.464  69.296  1.00  0.00    -0.111 A  
HETATM   29  N   UNL     1      -9.043   8.774  68.504  1.00  0.00    -0.138 NA 
HETATM   30  C   UNL     1     -10.067   8.152  69.128  1.00  0.00    -0.202 A  
HETATM   31  C   UNL     1     -10.271   8.198  70.488  1.00  0.00    -0.198 A  
HETATM   32  C   UNL     1      -9.353   8.936  71.197  1.00  0.00    -0.257 A  
HETATM   33 BR   UNL     1     -11.703   7.314  71.318  1.00  0.00    -0.347 Br 
HETATM   34  N   UNL     1      -8.311   9.579  70.628  1.00  0.00    -0.244 NA 
ENDBRANCH  27  28
ENDBRANCH  26  27
ENDBRANCH  25  26
ENDBRANCH  24  25
ENDBRANCH  13  24
ENDBRANCH   9  11
ENDBRANCH   6   9
ENDBRANCH   4   6
ENDBRANCH   3   4
ENDBRANCH   2   3
TORSDOF 11
ENDMDL
MODEL       45
REMARK 921   NORMALIZED FREE ENERGY PREDICTED BY IDOCK:   -5.73 KCAL/MOL
REMARK 922        TOTAL FREE ENERGY PREDICTED BY IDOCK:  -10.83 KCAL/MOL
REMARK 923 INTER-LIGAND FREE ENERGY PREDICTED BY IDOCK:   -8.24 KCAL/MOL
REMARK 924 INTRA-LIGAND FREE ENERGY PREDICTED BY IDOCK:   -2.58 KCAL/MOL
REMARK 927      BINDING AFFINITY PREDICTED BY RF-SCORE:    0.00 PKD
ROOT
HETATM    1  C   UNL     1     -10.093  11.568  63.245  1.00  0.00    -0.439 C  
HETATM    2  C   UNL     1      -9.263  10.504  62.545  1.00  0.00    -0.321 C  
ENDROOT
BRANCH   2   3
HETATM    3  C   UNL     1      -8.071  10.060  63.384  1.00  0.00    -0.158 C  
BRANCH   3   4
HETATM    4  N   UNL     1      -8.083  10.777  64.691  1.00  0.00    -0.365 N  
HETATM    5  H   UNL     1      -8.092  11.793  64.783  1.00  0.00     0.000 HD 
BRANCH   4   6
HETATM    6  S   UNL     1      -8.079   9.717  65.991  1.00  0.00    -0.116 S  
HETATM    7  O   UNL     1      -7.410   8.531  65.501  1.00  0.00    -0.081 OA 
HETATM    8  O   UNL     1      -7.616  10.419  67.158  1.00  0.00    -0.094 OA 
BRANCH   6   9
HETATM    9  N   UNL     1      -9.702   9.327  66.128  1.00  0.00    -0.260 N  
HETATM   10  H   UNL     1     -10.227   8.923  65.352  1.00  0.00     0.000 HD 
BRANCH   9  11
HETATM   11  C   UNL     1     -10.304   9.589  67.382  1.00  0.00    -0.258 A  
HETATM   12  C   UNL     1     -10.969  10.780  67.701  1.00  0.00    -0.365 A  
HETATM   13  C   UNL     1     -11.574  10.688  68.963  1.00  0.00    -0.261 A  
HETATM   14  N   UNL     1     -10.129   8.531  68.198  1.00  0.00    -0.193 NA 
HETATM   15  N   UNL     1     -11.468   9.639  69.808  1.00  0.00    -0.121 NA 
HETATM   16  C   UNL     1     -10.730   8.614  69.383  1.00  0.00    -0.158 A  
BRANCH  12  17
HETATM   17  C   UNL     1     -11.015  12.030  66.859  1.00  0.00    -0.328 A  
HETATM   18  C   UNL     1     -12.119  12.399  66.073  1.00  0.00    -0.327 A  
HETATM   19  C   UNL     1     -12.194  13.606  65.365  1.00  0.00    -0.474 A  
HETATM   20  C   UNL     1     -10.002  14.168  66.136  1.00  0.00    -0.328 A  
HETATM   21  C   UNL     1      -9.934  12.940  66.817  1.00  0.00    -0.243 A  
HETATM   22 BR   UNL     1     -11.279  16.172  64.557  1.00  0.00    -0.060 Br 
HETATM   23  C   UNL     1     -11.143  14.502  65.426  1.00  0.00    -0.345 A  
ENDBRANCH  12  17
BRANCH  13  24
HETATM   24  O   UNL     1     -12.352  11.749  69.379  1.00  0.00    -0.189 OA 
BRANCH  24  25
HETATM   25  C   UNL     1     -11.786  12.654  70.327  1.00  0.00    -0.214 C  
BRANCH  25  26
HETATM   26  C   UNL     1     -11.953  14.063  69.756  1.00  0.00    -0.334 C  
BRANCH  26  27
HETATM   27  O   UNL     1     -11.066  14.965  70.411  1.00  0.00    -0.237 OA 
BRANCH  27  28
HETATM   28  C   UNL     1     -10.364  15.762  69.529  1.00  0.00    -0.272 A  
HETATM   29  N   UNL     1     -11.012  16.677  68.784  1.00  0.00    -0.328 NA 
HETATM   30  C   UNL     1     -10.244  17.413  67.950  1.00  0.00    -0.348 A  
HETATM   31  C   UNL     1      -8.881  17.266  67.842  1.00  0.00    -0.235 A  
HETATM   32  C   UNL     1      -8.327  16.299  68.646  1.00  0.00    -0.220 A  
HETATM   33 BR   UNL     1      -7.849  18.314  66.676  1.00  0.00    -0.289 Br 
HETATM   34  N   UNL     1      -9.043  15.533  69.497  1.00  0.00    -0.281 NA 
ENDBRANCH  27  28
ENDBRANCH  26  27
ENDBRANCH  25  26
ENDBRANCH  24  25
ENDBRANCH  13  24
ENDBRANCH   9  11
ENDBRANCH   6   9
ENDBRANCH   4   6
ENDBRANCH   3   4
ENDBRANCH   2   3
TORSDOF 11
ENDMDL
MODEL       46
REMARK 921   NORMALIZED FREE ENERGY PREDICTED BY IDOCK:   -5.72 KCAL/MOL
REMARK 922        TOTAL FREE ENERGY PREDICTED BY IDOCK:  -10.82 KCAL/MOL
REMARK 923 INTER-LIGAND FREE ENERGY PREDICTED BY IDOCK:   -9.60 KCAL/MOL
REMARK 924 INTRA-LIGAND FREE ENERGY PREDICTED BY IDOCK:   -1.23 KCAL/MOL
REMARK 927      BINDING AFFINITY PREDICTED BY RF-SCORE:    0.00 PKD
ROOT
HETATM    1  C   UNL     1     -10.240   5.758  72.803  1.00  0.00    -0.211 C  
HETATM    2  C   UNL     1     -10.649   7.041  73.509  1.00  0.00    -0.405 C  
ENDROOT
BRANCH   2   3
HETATM    3  C   UNL     1     -11.532   7.923  72.634  1.00  0.00    -0.395 C  
BRANCH   3   4
HETATM    4  N   UNL     1     -10.702   8.974  71.981  1.00  0.00    -0.332 N  
HETATM    5  H   UNL     1      -9.843   9.352  72.381  1.00  0.00     0.000 HD 
BRANCH   4   6
HETATM    6  S   UNL     1     -11.345   9.461  70.511  1.00  0.00    -0.271 S  
HETATM    7  O   UNL     1     -11.091   8.358  69.609  1.00  0.00    -0.149 OA 
HETATM    8  O   UNL     1     -12.675   9.964  70.732  1.00  0.00    -0.292 OA 
BRANCH   6   9
HETATM    9  N   UNL     1     -10.303  10.694  70.064  1.00  0.00    -0.436 N  
HETATM   10  H   UNL     1      -9.337  10.726  70.390  1.00  0.00     0.000 HD 
BRANCH   9  11
HETATM   11  C   UNL     1     -10.838  11.687  69.210  1.00  0.00    -0.152 A  
HETATM   12  C   UNL     1     -10.744  11.655  67.813  1.00  0.00    -0.244 A  
HETATM   13  C   UNL     1     -11.484  12.700  67.241  1.00  0.00    -0.342 A  
HETATM   14  N   UNL     1     -11.431  12.646  69.947  1.00  0.00    -0.152 NA 
HETATM   15  N   UNL     1     -12.133  13.667  67.927  1.00  0.00    -0.337 NA 
HETATM   16  C   UNL     1     -12.056  13.597  69.255  1.00  0.00    -0.314 A  
BRANCH  12  17
HETATM   17  C   UNL     1      -9.932  10.682  66.994  1.00  0.00    -0.243 A  
HETATM   18  C   UNL     1     -10.331   9.359  66.738  1.00  0.00    -0.303 A  
HETATM   19  C   UNL     1      -9.620   8.487  65.901  1.00  0.00    -0.164 A  
HETATM   20  C   UNL     1      -7.989  10.198  65.543  1.00  0.00    -0.146 A  
HETATM   21  C   UNL     1      -8.701  11.049  66.407  1.00  0.00    -0.174 A  
HETATM   22 BR   UNL     1      -7.558   7.789  64.076  1.00  0.00    -0.119 Br 
HETATM   23  C   UNL     1      -8.465   8.924  65.281  1.00  0.00    -0.169 A  
ENDBRANCH  12  17
BRANCH  13  24
HETATM   24  O   UNL     1     -11.571  12.745  65.864  1.00  0.00    -0.340 OA 
BRANCH  24  25
HETATM   25  C   UNL     1     -12.621  13.527  65.293  1.00  0.00    -0.468 C  
BRANCH  25  26
HETATM   26  C   UNL     1     -11.966  14.530  64.343  1.00  0.00    -0.449 C  
BRANCH  26  27
HETATM   27  O   UNL     1     -10.609  14.746  64.720  1.00  0.00    -0.413 OA 
BRANCH  27  28
HETATM   28  C   UNL     1     -10.424  15.933  65.400  1.00  0.00    -0.405 A  
HETATM   29  N   UNL     1     -10.912  17.082  64.898  1.00  0.00    -0.769 NA 
HETATM   30  C   UNL     1     -10.685  18.195  65.632  1.00  0.00    -0.032 A  
HETATM   31  C   UNL     1      -9.999  18.192  66.824  1.00  0.00    -0.351 A  
HETATM   32  C   UNL     1      -9.541  16.964  67.238  1.00  0.00    -0.246 A  
HETATM   33 BR   UNL     1      -9.710  19.758  67.818  1.00  0.00    -0.524 Br 
HETATM   34  N   UNL     1      -9.737  15.820  66.547  1.00  0.00    -0.249 NA 
ENDBRANCH  27  28
ENDBRANCH  26  27
ENDBRANCH  25  26
ENDBRANCH  24  25
ENDBRANCH  13  24
ENDBRANCH   9  11
ENDBRANCH   6   9
ENDBRANCH   4   6
ENDBRANCH   3   4
ENDBRANCH   2   3
TORSDOF 11
ENDMDL
MODEL       47
REMARK 921   NORMALIZED FREE ENERGY PREDICTED BY IDOCK:   -5.72 KCAL/MOL
REMARK 922        TOTAL FREE ENERGY PREDICTED BY IDOCK:  -10.82 KCAL/MOL
REMARK 923 INTER-LIGAND FREE ENERGY PREDICTED BY IDOCK:   -9.16 KCAL/MOL
REMARK 924 INTRA-LIGAND FREE ENERGY PREDICTED BY IDOCK:   -1.66 KCAL/MOL
REMARK 927      BINDING AFFINITY PREDICTED BY RF-SCORE:    0.00 PKD
ROOT
HETATM    1  C   UNL     1      -9.015   6.048  73.445  1.00  0.00    -0.129 C  
HETATM    2  C   UNL     1     -10.477   6.200  73.832  1.00  0.00    -0.287 C  
ENDROOT
BRANCH   2   3
HETATM    3  C   UNL     1     -11.402   5.420  72.905  1.00  0.00    -0.303 C  
BRANCH   3   4
HETATM    4  N   UNL     1     -10.881   5.481  71.510  1.00  0.00    -0.227 N  
HETATM    5  H   UNL     1     -10.153   4.867  71.145  1.00  0.00     0.000 HD 
BRANCH   4   6
HETATM    6  S   UNL     1     -11.632   6.681  70.610  1.00  0.00    -0.387 S  
HETATM    7  O   UNL     1     -11.359   6.337  69.230  1.00  0.00    -0.410 OA 
HETATM    8  O   UNL     1     -12.976   6.849  71.094  1.00  0.00    -0.336 OA 
BRANCH   6   9
HETATM    9  N   UNL     1     -10.693   8.022  70.962  1.00  0.00    -0.218 N  
HETATM   10  H   UNL     1      -9.717   7.937  71.247  1.00  0.00     0.000 HD 
BRANCH   9  11
HETATM   11  C   UNL     1     -11.330   9.280  70.843  1.00  0.00    -0.308 A  
HETATM   12  C   UNL     1     -11.167  10.143  69.752  1.00  0.00    -0.325 A  
HETATM   13  C   UNL     1     -12.028  11.246  69.858  1.00  0.00    -0.365 A  
HETATM   14  N   UNL     1     -12.093   9.506  71.930  1.00  0.00    -0.365 NA 
HETATM   15  N   UNL     1     -12.845  11.504  70.904  1.00  0.00    -0.255 NA 
HETATM   16  C   UNL     1     -12.820  10.621  71.900  1.00  0.00    -0.382 A  
BRANCH  12  17
HETATM   17  C   UNL     1     -10.183   9.978  68.621  1.00  0.00    -0.198 A  
HETATM   18  C   UNL     1      -8.860  10.449  68.667  1.00  0.00    -0.142 A  
HETATM   19  C   UNL     1      -7.921  10.213  67.653  1.00  0.00    -0.102 A  
HETATM   20  C   UNL     1      -9.593   9.039  66.411  1.00  0.00    -0.309 A  
HETATM   21  C   UNL     1     -10.527   9.310  67.425  1.00  0.00    -0.340 A  
HETATM   22 BR   UNL     1      -7.000   9.072  65.220  1.00  0.00    -0.084 Br 
HETATM   23  C   UNL     1      -8.286   9.479  66.540  1.00  0.00    -0.119 A  
ENDBRANCH  12  17
BRANCH  13  24
HETATM   24  O   UNL     1     -12.057  12.140  68.807  1.00  0.00    -0.274 OA 
BRANCH  24  25
HETATM   25  C   UNL     1     -12.069  13.532  69.122  1.00  0.00    -0.288 C  
BRANCH  25  26
HETATM   26  C   UNL     1     -11.459  14.267  67.928  1.00  0.00    -0.315 C  
BRANCH  26  27
HETATM   27  O   UNL     1     -12.268  14.073  66.770  1.00  0.00    -0.439 OA 
BRANCH  27  28
HETATM   28  C   UNL     1     -11.644  13.312  65.802  1.00  0.00    -0.337 A  
HETATM   29  N   UNL     1     -12.357  12.800  64.781  1.00  0.00    -0.459 NA 
HETATM   30  C   UNL     1     -11.663  12.071  63.880  1.00  0.00    -0.446 A  
HETATM   31  C   UNL     1     -10.310  11.842  63.966  1.00  0.00    -0.364 A  
HETATM   32  C   UNL     1      -9.684  12.408  65.052  1.00  0.00    -0.021 A  
HETATM   33 BR   UNL     1      -9.380  10.828  62.689  1.00  0.00    -0.344 Br 
HETATM   34  N   UNL     1     -10.325  13.145  65.984  1.00  0.00    -0.282 NA 
ENDBRANCH  27  28
ENDBRANCH  26  27
ENDBRANCH  25  26
ENDBRANCH  24  25
ENDBRANCH  13  24
ENDBRANCH   9  11
ENDBRANCH   6   9
ENDBRANCH   4   6
ENDBRANCH   3   4
ENDBRANCH   2   3
TORSDOF 11
ENDMDL
MODEL       48
REMARK 921   NORMALIZED FREE ENERGY PREDICTED BY IDOCK:   -5.71 KCAL/MOL
REMARK 922        TOTAL FREE ENERGY PREDICTED BY IDOCK:  -10.80 KCAL/MOL
REMARK 923 INTER-LIGAND FREE ENERGY PREDICTED BY IDOCK:   -9.28 KCAL/MOL
REMARK 924 INTRA-LIGAND FREE ENERGY PREDICTED BY IDOCK:   -1.53 KCAL/MOL
REMARK 927      BINDING AFFINITY PREDICTED BY RF-SCORE:    0.00 PKD
ROOT
HETATM    1  C   UNL     1      -5.776  16.739  68.598  1.00  0.00    -0.124 C  
HETATM    2  C   UNL     1      -6.704  16.158  69.653  1.00  0.00    -0.165 C  
ENDROOT
BRANCH   2   3
HETATM    3  C   UNL     1      -7.811  15.308  69.040  1.00  0.00    -0.184 C  
BRANCH   3   4
HETATM    4  N   UNL     1      -9.139  15.821  69.481  1.00  0.00    -0.253 N  
HETATM    5  H   UNL     1      -9.584  15.567  70.362  1.00  0.00     0.000 HD 
BRANCH   4   6
HETATM    6  S   UNL     1      -9.814  16.866  68.356  1.00  0.00    -0.280 S  
HETATM    7  O   UNL     1      -9.805  18.162  69.000  1.00  0.00    -0.329 OA 
HETATM    8  O   UNL     1      -9.179  16.649  67.084  1.00  0.00    -0.216 OA 
BRANCH   6   9
HETATM    9  N   UNL     1     -11.411  16.360  68.324  1.00  0.00    -0.313 N  
HETATM   10  H   UNL     1     -12.097  16.782  67.697  1.00  0.00     0.000 HD 
BRANCH   9  11
HETATM   11  C   UNL     1     -11.754  15.315  69.214  1.00  0.00    -0.338 A  
HETATM   12  C   UNL     1     -11.624  13.953  68.915  1.00  0.00    -0.353 A  
HETATM   13  C   UNL     1     -11.915  13.167  70.039  1.00  0.00    -0.321 A  
HETATM   14  N   UNL     1     -12.222  15.836  70.365  1.00  0.00    -0.387 NA 
HETATM   15  N   UNL     1     -12.349  13.635  71.231  1.00  0.00    -0.325 NA 
HETATM   16  C   UNL     1     -12.496  14.955  71.324  1.00  0.00    -0.329 A  
BRANCH  12  17
HETATM   17  C   UNL     1     -11.270  13.363  67.572  1.00  0.00    -0.309 A  
HETATM   18  C   UNL     1      -9.990  12.888  67.244  1.00  0.00    -0.224 A  
HETATM   19  C   UNL     1      -9.688  12.257  66.029  1.00  0.00    -0.254 A  
HETATM   20  C   UNL     1     -11.951  12.579  65.327  1.00  0.00    -0.490 A  
HETATM   21  C   UNL     1     -12.227  13.233  66.541  1.00  0.00    -0.389 A  
HETATM   22 BR   UNL     1     -10.307  11.141  63.490  1.00  0.00    -0.424 Br 
HETATM   23  C   UNL     1     -10.683  12.077  65.085  1.00  0.00    -0.288 A  
ENDBRANCH  12  17
BRANCH  13  24
HETATM   24  O   UNL     1     -11.735  11.803  69.932  1.00  0.00    -0.310 OA 
BRANCH  24  25
HETATM   25  C   UNL     1     -12.230  10.984  70.992  1.00  0.00    -0.351 C  
BRANCH  25  26
HETATM   26  C   UNL     1     -11.395   9.703  70.995  1.00  0.00    -0.374 C  
BRANCH  26  27
HETATM   27  O   UNL     1     -12.235   8.571  70.786  1.00  0.00    -0.172 OA 
BRANCH  27  28
HETATM   28  C   UNL     1     -11.578   7.373  70.979  1.00  0.00    -0.288 A  
HETATM   29  N   UNL     1     -11.418   6.517  69.953  1.00  0.00    -0.408 NA 
HETATM   30  C   UNL     1     -10.760   5.370  70.233  1.00  0.00    -0.216 A  
HETATM   31  C   UNL     1     -10.271   5.060  71.481  1.00  0.00    -0.204 A  
HETATM   32  C   UNL     1     -10.496   6.004  72.455  1.00  0.00    -0.201 A  
HETATM   33 BR   UNL     1      -9.357   3.458  71.829  1.00  0.00    -0.213 Br 
HETATM   34  N   UNL     1     -11.147   7.166  72.233  1.00  0.00    -0.244 NA 
ENDBRANCH  27  28
ENDBRANCH  26  27
ENDBRANCH  25  26
ENDBRANCH  24  25
ENDBRANCH  13  24
ENDBRANCH   9  11
ENDBRANCH   6   9
ENDBRANCH   4   6
ENDBRANCH   3   4
ENDBRANCH   2   3
TORSDOF 11
ENDMDL
MODEL       49
REMARK 921   NORMALIZED FREE ENERGY PREDICTED BY IDOCK:   -5.71 KCAL/MOL
REMARK 922        TOTAL FREE ENERGY PREDICTED BY IDOCK:  -10.80 KCAL/MOL
REMARK 923 INTER-LIGAND FREE ENERGY PREDICTED BY IDOCK:   -9.29 KCAL/MOL
REMARK 924 INTRA-LIGAND FREE ENERGY PREDICTED BY IDOCK:   -1.51 KCAL/MOL
REMARK 927      BINDING AFFINITY PREDICTED BY RF-SCORE:    0.00 PKD
ROOT
HETATM    1  C   UNL     1      -7.678   8.570  71.829  1.00  0.00    -0.154 C  
HETATM    2  C   UNL     1      -9.178   8.649  71.591  1.00  0.00    -0.326 C  
ENDROOT
BRANCH   2   3
HETATM    3  C   UNL     1      -9.523   8.710  70.108  1.00  0.00    -0.164 C  
BRANCH   3   4
HETATM    4  N   UNL     1      -8.306   9.069  69.325  1.00  0.00    -0.120 N  
HETATM    5  H   UNL     1      -7.456   9.451  69.737  1.00  0.00     0.000 HD 
BRANCH   4   6
HETATM    6  S   UNL     1      -8.503   8.772  67.686  1.00  0.00    -0.125 S  
HETATM    7  O   UNL     1      -7.306   8.060  67.291  1.00  0.00    -0.085 OA 
HETATM    8  O   UNL     1      -9.815   8.224  67.469  1.00  0.00    -0.156 OA 
BRANCH   6   9
HETATM    9  N   UNL     1      -8.379  10.310  67.034  1.00  0.00    -0.125 N  
HETATM   10  H   UNL     1      -7.718  10.998  67.397  1.00  0.00     0.000 HD 
BRANCH   9  11
HETATM   11  C   UNL     1      -9.243  10.603  65.952  1.00  0.00    -0.182 A  
HETATM   12  C   UNL     1     -10.429  11.339  66.070  1.00  0.00    -0.310 A  
HETATM   13  C   UNL     1     -10.993  11.577  64.808  1.00  0.00    -0.273 A  
HETATM   14  N   UNL     1      -8.750  10.062  64.821  1.00  0.00    -0.171 NA 
HETATM   15  N   UNL     1     -10.522  11.096  63.636  1.00  0.00    -0.377 NA 
HETATM   16  C   UNL     1      -9.425  10.343  63.708  1.00  0.00    -0.305 A  
BRANCH  12  17
HETATM   17  C   UNL     1     -11.074  11.793  67.355  1.00  0.00    -0.338 A  
HETATM   18  C   UNL     1     -11.666  10.916  68.280  1.00  0.00    -0.259 A  
HETATM   19  C   UNL     1     -12.182  11.330  69.516  1.00  0.00    -0.325 A  
HETATM   20  C   UNL     1     -11.600  13.586  68.975  1.00  0.00    -0.356 A  
HETATM   21  C   UNL     1     -11.112  13.154  67.730  1.00  0.00    -0.287 A  
HETATM   22 BR   UNL     1     -12.719  13.214  71.574  1.00  0.00    -0.295 Br 
HETATM   23  C   UNL     1     -12.118  12.665  69.872  1.00  0.00    -0.252 A  
ENDBRANCH  12  17
BRANCH  13  24
HETATM   24  O   UNL     1     -12.117  12.376  64.749  1.00  0.00    -0.406 OA 
BRANCH  24  25
HETATM   25  C   UNL     1     -12.212  13.306  63.669  1.00  0.00    -0.451 C  
BRANCH  25  26
HETATM   26  C   UNL     1     -12.110  14.706  64.274  1.00  0.00    -0.415 C  
BRANCH  26  27
HETATM   27  O   UNL     1     -10.777  14.954  64.711  1.00  0.00    -0.404 OA 
BRANCH  27  28
HETATM   28  C   UNL     1     -10.641  16.166  65.358  1.00  0.00    -0.380 A  
HETATM   29  N   UNL     1     -11.045  17.301  64.758  1.00  0.00    -0.920 NA 
HETATM   30  C   UNL     1     -10.876  18.440  65.466  1.00  0.00     0.180 A  
HETATM   31  C   UNL     1     -10.328  18.477  66.727  1.00  0.00    -0.401 A  
HETATM   32  C   UNL     1      -9.946  17.260  67.240  1.00  0.00    -0.283 A  
HETATM   33 BR   UNL     1     -10.116  20.078  67.682  1.00  0.00    -0.554 Br 
HETATM   34  N   UNL     1     -10.090  16.091  66.579  1.00  0.00    -0.273 NA 
ENDBRANCH  27  28
ENDBRANCH  26  27
ENDBRANCH  25  26
ENDBRANCH  24  25
ENDBRANCH  13  24
ENDBRANCH   9  11
ENDBRANCH   6   9
ENDBRANCH   4   6
ENDBRANCH   3   4
ENDBRANCH   2   3
TORSDOF 11
ENDMDL
MODEL       50
REMARK 921   NORMALIZED FREE ENERGY PREDICTED BY IDOCK:   -5.70 KCAL/MOL
REMARK 922        TOTAL FREE ENERGY PREDICTED BY IDOCK:  -10.78 KCAL/MOL
REMARK 923 INTER-LIGAND FREE ENERGY PREDICTED BY IDOCK:   -8.80 KCAL/MOL
REMARK 924 INTRA-LIGAND FREE ENERGY PREDICTED BY IDOCK:   -1.97 KCAL/MOL
REMARK 927      BINDING AFFINITY PREDICTED BY RF-SCORE:    0.00 PKD
ROOT
HETATM    1  C   UNL     1     -13.868   9.548  72.238  1.00  0.00    -0.374 C  
HETATM    2  C   UNL     1     -14.267   8.352  71.389  1.00  0.00    -0.406 C  
ENDROOT
BRANCH   2   3
HETATM    3  C   UNL     1     -13.353   7.154  71.616  1.00  0.00    -0.331 C  
BRANCH   3   4
HETATM    4  N   UNL     1     -12.368   7.056  70.501  1.00  0.00    -0.614 N  
HETATM    5  H   UNL     1     -12.535   7.414  69.561  1.00  0.00     0.000 HD 
BRANCH   4   6
HETATM    6  S   UNL     1     -10.955   6.288  70.975  1.00  0.00    -0.296 S  
HETATM    7  O   UNL     1     -11.037   6.215  72.419  1.00  0.00    -0.246 OA 
HETATM    8  O   UNL     1     -10.775   5.111  70.169  1.00  0.00    -0.239 OA 
BRANCH   6   9
HETATM    9  N   UNL     1      -9.794   7.442  70.621  1.00  0.00    -0.180 N  
HETATM   10  H   UNL     1      -8.818   7.327  70.897  1.00  0.00     0.000 HD 
BRANCH   9  11
HETATM   11  C   UNL     1     -10.242   8.585  69.918  1.00  0.00    -0.204 A  
HETATM   12  C   UNL     1     -10.315   8.670  68.521  1.00  0.00    -0.228 A  
HETATM   13  C   UNL     1     -10.922   9.872  68.128  1.00  0.00    -0.207 A  
HETATM   14  N   UNL     1     -10.572   9.555  70.793  1.00  0.00    -0.295 NA 
HETATM   15  N   UNL     1     -11.311  10.863  68.961  1.00  0.00    -0.257 NA 
HETATM   16  C   UNL     1     -11.097  10.656  70.260  1.00  0.00    -0.233 A  
BRANCH  12  17
HETATM   17  C   UNL     1      -9.784   7.659  67.536  1.00  0.00    -0.197 A  
HETATM   18  C   UNL     1      -8.489   7.710  66.992  1.00  0.00    -0.125 A  
HETATM   19  C   UNL     1      -7.968   6.719  66.149  1.00  0.00    -0.110 A  
HETATM   20  C   UNL     1     -10.047   5.546  66.279  1.00  0.00    -0.185 A  
HETATM   21  C   UNL     1     -10.562   6.564  67.101  1.00  0.00    -0.398 A  
HETATM   22 BR   UNL     1      -8.010   4.236  64.769  1.00  0.00    -0.091 Br 
HETATM   23  C   UNL     1      -8.742   5.622  65.820  1.00  0.00    -0.150 A  
ENDBRANCH  12  17
BRANCH  13  24
HETATM   24  O   UNL     1     -11.157  10.060  66.781  1.00  0.00    -0.037 OA 
BRANCH  24  25
HETATM   25  C   UNL     1     -10.363  11.033  66.101  1.00  0.00    -0.251 C  
BRANCH  25  26
HETATM   26  C   UNL     1     -11.314  11.860  65.235  1.00  0.00    -0.275 C  
BRANCH  26  27
HETATM   27  O   UNL     1     -12.274  12.520  66.056  1.00  0.00    -0.605 OA 
BRANCH  27  28
HETATM   28  C   UNL     1     -11.837  13.747  66.512  1.00  0.00    -0.407 A  
HETATM   29  N   UNL     1     -11.282  14.627  65.657  1.00  0.00    -0.335 NA 
HETATM   30  C   UNL     1     -10.885  15.803  66.191  1.00  0.00    -0.240 A  
HETATM   31  C   UNL     1     -11.022  16.119  67.523  1.00  0.00    -0.238 A  
HETATM   32  C   UNL     1     -11.596  15.144  68.304  1.00  0.00    -0.339 A  
HETATM   33 BR   UNL     1     -10.464  17.767  68.226  1.00  0.00    -0.338 Br 
HETATM   34  N   UNL     1     -12.011  13.950  67.827  1.00  0.00    -0.371 NA 
ENDBRANCH  27  28
ENDBRANCH  26  27
ENDBRANCH  25  26
ENDBRANCH  24  25
ENDBRANCH  13  24
ENDBRANCH   9  11
ENDBRANCH   6   9
ENDBRANCH   4   6
ENDBRANCH   3   4
ENDBRANCH   2   3
TORSDOF 11
ENDMDL
MODEL       51
REMARK 921   NORMALIZED FREE ENERGY PREDICTED BY IDOCK:   -5.70 KCAL/MOL
REMARK 922        TOTAL FREE ENERGY PREDICTED BY IDOCK:  -10.77 KCAL/MOL
REMARK 923 INTER-LIGAND FREE ENERGY PREDICTED BY IDOCK:   -9.22 KCAL/MOL
REMARK 924 INTRA-LIGAND FREE ENERGY PREDICTED BY IDOCK:   -1.55 KCAL/MOL
REMARK 927      BINDING AFFINITY PREDICTED BY RF-SCORE:    0.00 PKD
ROOT
HETATM    1  C   UNL     1     -14.160   8.834  72.221  1.00  0.00    -0.511 C  
HETATM    2  C   UNL     1     -14.056   7.471  71.555  1.00  0.00    -0.550 C  
ENDROOT
BRANCH   2   3
HETATM    3  C   UNL     1     -12.615   6.983  71.467  1.00  0.00    -0.385 C  
BRANCH   3   4
HETATM    4  N   UNL     1     -11.986   7.498  70.218  1.00  0.00    -0.501 N  
HETATM    5  H   UNL     1     -12.492   8.004  69.491  1.00  0.00     0.000 HD 
BRANCH   4   6
HETATM    6  S   UNL     1     -10.348   7.147  70.147  1.00  0.00    -0.211 S  
HETATM    7  O   UNL     1     -10.055   6.483  71.400  1.00  0.00    -0.190 OA 
HETATM    8  O   UNL     1     -10.061   6.529  68.880  1.00  0.00    -0.153 OA 
BRANCH   6   9
HETATM    9  N   UNL     1      -9.659   8.670  70.242  1.00  0.00    -0.166 N  
HETATM   10  H   UNL     1      -8.708   8.811  70.586  1.00  0.00     0.000 HD 
BRANCH   9  11
HETATM   11  C   UNL     1     -10.469   9.750  69.819  1.00  0.00    -0.250 A  
HETATM   12  C   UNL     1     -10.489  10.253  68.511  1.00  0.00    -0.217 A  
HETATM   13  C   UNL     1     -11.485  11.229  68.369  1.00  0.00    -0.307 A  
HETATM   14  N   UNL     1     -11.194  10.207  70.859  1.00  0.00    -0.341 NA 
HETATM   15  N   UNL     1     -12.270  11.698  69.365  1.00  0.00    -0.235 NA 
HETATM   16  C   UNL     1     -12.068  11.169  70.570  1.00  0.00    -0.381 A  
BRANCH  12  17
HETATM   17  C   UNL     1      -9.556   9.865  67.391  1.00  0.00    -0.185 A  
HETATM   18  C   UNL     1      -9.773   8.765  66.544  1.00  0.00    -0.328 A  
HETATM   19  C   UNL     1      -8.953   8.462  65.448  1.00  0.00    -0.103 A  
HETATM   20  C   UNL     1      -7.570  10.335  65.994  1.00  0.00    -0.128 A  
HETATM   21  C   UNL     1      -8.388  10.606  67.105  1.00  0.00    -0.125 A  
HETATM   22 BR   UNL     1      -6.822   8.927  63.627  1.00  0.00    -0.088 Br 
HETATM   23  C   UNL     1      -7.869   9.270  65.159  1.00  0.00    -0.110 A  
ENDBRANCH  12  17
BRANCH  13  24
HETATM   24  O   UNL     1     -11.697  11.751  67.109  1.00  0.00    -0.547 OA 
BRANCH  24  25
HETATM   25  C   UNL     1     -11.088  13.005  66.801  1.00  0.00    -0.286 C  
BRANCH  25  26
HETATM   26  C   UNL     1     -12.018  14.096  67.334  1.00  0.00    -0.404 C  
BRANCH  26  27
HETATM   27  O   UNL     1     -11.258  15.116  67.976  1.00  0.00    -0.298 OA 
BRANCH  27  28
HETATM   28  C   UNL     1     -11.562  15.247  69.316  1.00  0.00    -0.332 A  
HETATM   29  N   UNL     1     -10.586  15.496  70.209  1.00  0.00    -0.317 NA 
HETATM   30  C   UNL     1     -10.976  15.612  71.498  1.00  0.00    -0.027 A  
HETATM   31  C   UNL     1     -12.282  15.488  71.911  1.00  0.00    -0.401 A  
HETATM   32  C   UNL     1     -13.194  15.228  70.915  1.00  0.00    -0.450 A  
HETATM   33 BR   UNL     1     -12.785  15.661  73.711  1.00  0.00    -0.766 Br 
HETATM   34  N   UNL     1     -12.863  15.102  69.612  1.00  0.00     0.071 NA 
ENDBRANCH  27  28
ENDBRANCH  26  27
ENDBRANCH  25  26
ENDBRANCH  24  25
ENDBRANCH  13  24
ENDBRANCH   9  11
ENDBRANCH   6   9
ENDBRANCH   4   6
ENDBRANCH   3   4
ENDBRANCH   2   3
TORSDOF 11
ENDMDL
MODEL       52
REMARK 921   NORMALIZED FREE ENERGY PREDICTED BY IDOCK:   -5.64 KCAL/MOL
REMARK 922        TOTAL FREE ENERGY PREDICTED BY IDOCK:  -10.69 KCAL/MOL
REMARK 923 INTER-LIGAND FREE ENERGY PREDICTED BY IDOCK:   -9.19 KCAL/MOL
REMARK 924 INTRA-LIGAND FREE ENERGY PREDICTED BY IDOCK:   -1.50 KCAL/MOL
REMARK 927      BINDING AFFINITY PREDICTED BY RF-SCORE:    0.00 PKD
ROOT
HETATM    1  C   UNL     1      -7.066  18.930  68.912  1.00  0.00    -0.354 C  
HETATM    2  C   UNL     1      -6.677  17.480  69.152  1.00  0.00    -0.243 C  
ENDROOT
BRANCH   2   3
HETATM    3  C   UNL     1      -7.872  16.540  69.056  1.00  0.00    -0.226 C  
BRANCH   3   4
HETATM    4  N   UNL     1      -8.871  17.096  68.100  1.00  0.00    -0.230 N  
HETATM    5  H   UNL     1      -9.389  17.961  68.255  1.00  0.00     0.000 HD 
BRANCH   4   6
HETATM    6  S   UNL     1      -9.045  16.131  66.739  1.00  0.00    -0.253 S  
HETATM    7  O   UNL     1      -8.716  16.996  65.625  1.00  0.00    -0.468 OA 
HETATM    8  O   UNL     1      -8.353  14.889  66.961  1.00  0.00    -0.207 OA 
BRANCH   6   9
HETATM    9  N   UNL     1     -10.702  15.894  66.687  1.00  0.00    -0.303 N  
HETATM   10  H   UNL     1     -11.274  16.256  65.923  1.00  0.00     0.000 HD 
BRANCH   9  11
HETATM   11  C   UNL     1     -11.264  15.165  67.761  1.00  0.00    -0.323 A  
HETATM   12  C   UNL     1     -11.293  13.766  67.831  1.00  0.00    -0.328 A  
HETATM   13  C   UNL     1     -11.789  13.341  69.072  1.00  0.00    -0.321 A  
HETATM   14  N   UNL     1     -11.760  16.019  68.678  1.00  0.00    -0.350 NA 
HETATM   15  N   UNL     1     -12.263  14.151  70.046  1.00  0.00    -0.341 NA 
HETATM   16  C   UNL     1     -12.237  15.458  69.786  1.00  0.00    -0.306 A  
BRANCH  12  17
HETATM   17  C   UNL     1     -10.902  12.809  66.733  1.00  0.00    -0.289 A  
HETATM   18  C   UNL     1     -11.743  12.472  65.659  1.00  0.00    -0.473 A  
HETATM   19  C   UNL     1     -11.343  11.655  64.593  1.00  0.00    -0.284 A  
HETATM   20  C   UNL     1      -9.205  11.389  65.630  1.00  0.00    -0.209 A  
HETATM   21  C   UNL     1      -9.634  12.188  66.704  1.00  0.00    -0.226 A  
HETATM   22 BR   UNL     1      -9.483  10.122  63.087  1.00  0.00    -0.210 Br 
HETATM   23  C   UNL     1     -10.059  11.140  64.568  1.00  0.00    -0.308 A  
ENDBRANCH  12  17
BRANCH  13  24
HETATM   24  O   UNL     1     -11.788  11.986  69.333  1.00  0.00    -0.306 OA 
BRANCH  24  25
HETATM   25  C   UNL     1     -12.022  11.571  70.679  1.00  0.00    -0.292 C  
BRANCH  25  26
HETATM   26  C   UNL     1     -11.694  10.079  70.751  1.00  0.00    -0.350 C  
BRANCH  26  27
HETATM   27  O   UNL     1     -10.447   9.822  70.112  1.00  0.00    -0.247 OA 
BRANCH  27  28
HETATM   28  C   UNL     1     -10.485   8.715  69.288  1.00  0.00    -0.217 A  
HETATM   29  N   UNL     1     -10.802   7.508  69.793  1.00  0.00    -0.245 NA 
HETATM   30  C   UNL     1     -10.817   6.483  68.912  1.00  0.00    -0.301 A  
HETATM   31  C   UNL     1     -10.529   6.624  67.575  1.00  0.00    -0.239 A  
HETATM   32  C   UNL     1     -10.213   7.899  67.171  1.00  0.00    -0.290 A  
HETATM   33 BR   UNL     1     -10.567   5.175  66.383  1.00  0.00    -0.254 Br 
HETATM   34  N   UNL     1     -10.182   8.962  68.004  1.00  0.00    -0.203 NA 
ENDBRANCH  27  28
ENDBRANCH  26  27
ENDBRANCH  25  26
ENDBRANCH  24  25
ENDBRANCH  13  24
ENDBRANCH   9  11
ENDBRANCH   6   9
ENDBRANCH   4   6
ENDBRANCH   3   4
ENDBRANCH   2   3
TORSDOF 11
ENDMDL
MODEL       53
REMARK 921   NORMALIZED FREE ENERGY PREDICTED BY IDOCK:   -5.64 KCAL/MOL
REMARK 922        TOTAL FREE ENERGY PREDICTED BY IDOCK:  -10.68 KCAL/MOL
REMARK 923 INTER-LIGAND FREE ENERGY PREDICTED BY IDOCK:   -9.16 KCAL/MOL
REMARK 924 INTRA-LIGAND FREE ENERGY PREDICTED BY IDOCK:   -1.52 KCAL/MOL
REMARK 927      BINDING AFFINITY PREDICTED BY RF-SCORE:    0.00 PKD
ROOT
HETATM    1  C   UNL     1      -8.205   9.071  70.952  1.00  0.00    -0.222 C  
HETATM    2  C   UNL     1      -6.728   9.421  70.855  1.00  0.00    -0.097 C  
ENDROOT
BRANCH   2   3
HETATM    3  C   UNL     1      -6.495  10.730  70.110  1.00  0.00    -0.155 C  
BRANCH   3   4
HETATM    4  N   UNL     1      -7.684  11.047  69.269  1.00  0.00    -0.294 N  
HETATM    5  H   UNL     1      -8.518  10.462  69.218  1.00  0.00     0.000 HD 
BRANCH   4   6
HETATM    6  S   UNL     1      -7.488  12.477  68.416  1.00  0.00    -0.130 S  
HETATM    7  O   UNL     1      -6.313  13.096  68.992  1.00  0.00    -0.087 OA 
HETATM    8  O   UNL     1      -7.580  12.193  67.009  1.00  0.00    -0.148 OA 
BRANCH   6   9
HETATM    9  N   UNL     1      -8.803  13.376  68.934  1.00  0.00    -0.370 N  
HETATM   10  H   UNL     1      -8.718  14.081  69.667  1.00  0.00     0.000 HD 
BRANCH   9  11
HETATM   11  C   UNL     1     -10.037  13.103  68.298  1.00  0.00    -0.247 A  
HETATM   12  C   UNL     1     -10.715  14.012  67.476  1.00  0.00    -0.271 A  
HETATM   13  C   UNL     1     -11.835  13.409  66.885  1.00  0.00    -0.403 A  
HETATM   14  N   UNL     1     -10.443  11.858  68.613  1.00  0.00    -0.216 NA 
HETATM   15  N   UNL     1     -12.268  12.152  67.131  1.00  0.00    -0.401 NA 
HETATM   16  C   UNL     1     -11.552  11.444  68.003  1.00  0.00    -0.286 A  
BRANCH  12  17
HETATM   17  C   UNL     1     -10.358  15.462  67.262  1.00  0.00    -0.271 A  
HETATM   18  C   UNL     1     -10.977  16.524  67.942  1.00  0.00    -0.288 A  
HETATM   19  C   UNL     1     -10.580  17.862  67.810  1.00  0.00    -0.399 A  
HETATM   20  C   UNL     1      -8.914  17.186  66.234  1.00  0.00    -0.262 A  
HETATM   21  C   UNL     1      -9.345  15.854  66.359  1.00  0.00    -0.329 A  
HETATM   22 BR   UNL     1      -8.920  19.968  66.870  1.00  0.00    -0.463 Br 
HETATM   23  C   UNL     1      -9.525  18.183  66.976  1.00  0.00    -0.274 A  
ENDBRANCH  12  17
BRANCH  13  24
HETATM   24  O   UNL     1     -12.553  14.148  65.968  1.00  0.00    -0.478 OA 
BRANCH  24  25
HETATM   25  C   UNL     1     -12.072  14.184  64.624  1.00  0.00    -0.452 C  
BRANCH  25  26
HETATM   26  C   UNL     1     -12.160  12.759  64.079  1.00  0.00    -0.457 C  
BRANCH  26  27
HETATM   27  O   UNL     1     -11.102  12.522  63.154  1.00  0.00    -0.366 OA 
BRANCH  27  28
HETATM   28  C   UNL     1     -10.341  11.418  63.481  1.00  0.00    -0.423 A  
HETATM   29  N   UNL     1     -10.368  10.926  64.734  1.00  0.00    -0.324 NA 
HETATM   30  C   UNL     1      -9.593   9.842  64.962  1.00  0.00    -0.297 A  
HETATM   31  C   UNL     1      -8.810   9.250  63.998  1.00  0.00    -0.133 A  
HETATM   32  C   UNL     1      -8.857   9.839  62.757  1.00  0.00    -0.247 A  
HETATM   33 BR   UNL     1      -7.753   7.741  64.354  1.00  0.00    -0.128 Br 
HETATM   34  N   UNL     1      -9.611  10.922  62.471  1.00  0.00    -0.239 NA 
ENDBRANCH  27  28
ENDBRANCH  26  27
ENDBRANCH  25  26
ENDBRANCH  24  25
ENDBRANCH  13  24
ENDBRANCH   9  11
ENDBRANCH   6   9
ENDBRANCH   4   6
ENDBRANCH   3   4
ENDBRANCH   2   3
TORSDOF 11
ENDMDL
MODEL       54
REMARK 921   NORMALIZED FREE ENERGY PREDICTED BY IDOCK:   -5.59 KCAL/MOL
REMARK 922        TOTAL FREE ENERGY PREDICTED BY IDOCK:  -10.60 KCAL/MOL
REMARK 923 INTER-LIGAND FREE ENERGY PREDICTED BY IDOCK:   -9.26 KCAL/MOL
REMARK 924 INTRA-LIGAND FREE ENERGY PREDICTED BY IDOCK:   -1.34 KCAL/MOL
REMARK 927      BINDING AFFINITY PREDICTED BY RF-SCORE:    0.00 PKD
ROOT
HETATM    1  C   UNL     1      -9.809  20.618  67.213  1.00  0.00    -0.529 C  
HETATM    2  C   UNL     1     -10.726  19.449  66.890  1.00  0.00    -0.570 C  
ENDROOT
BRANCH   2   3
HETATM    3  C   UNL     1      -9.958  18.247  66.352  1.00  0.00    -0.380 C  
BRANCH   3   4
HETATM    4  N   UNL     1     -10.214  17.062  67.218  1.00  0.00    -0.303 N  
HETATM    5  H   UNL     1     -10.419  17.118  68.216  1.00  0.00     0.000 HD 
BRANCH   4   6
HETATM    6  S   UNL     1     -10.124  15.624  66.359  1.00  0.00    -0.307 S  
HETATM    7  O   UNL     1     -10.185  16.017  64.968  1.00  0.00    -0.513 OA 
HETATM    8  O   UNL     1      -9.031  14.844  66.876  1.00  0.00    -0.223 OA 
BRANCH   6   9
HETATM    9  N   UNL     1     -11.595  14.909  66.719  1.00  0.00    -0.315 N  
HETATM   10  H   UNL     1     -12.471  15.431  66.679  1.00  0.00     0.000 HD 
BRANCH   9  11
HETATM   11  C   UNL     1     -11.555  13.542  67.080  1.00  0.00    -0.357 A  
HETATM   12  C   UNL     1     -11.843  13.059  68.363  1.00  0.00    -0.370 A  
HETATM   13  C   UNL     1     -11.851  11.657  68.376  1.00  0.00    -0.278 A  
HETATM   14  N   UNL     1     -11.195  12.802  66.013  1.00  0.00    -0.288 NA 
HETATM   15  N   UNL     1     -11.538  10.862  67.329  1.00  0.00    -0.434 NA 
HETATM   16  C   UNL     1     -11.208  11.483  66.198  1.00  0.00    -0.202 A  
BRANCH  12  17
HETATM   17  C   UNL     1     -12.072  13.892  69.600  1.00  0.00    -0.404 A  
HETATM   18  C   UNL     1     -13.262  13.865  70.347  1.00  0.00     0.187 A  
HETATM   19  C   UNL     1     -13.437  14.570  71.545  1.00  0.00    -0.449 A  
HETATM   20  C   UNL     1     -11.226  15.451  71.322  1.00  0.00    -0.407 A  
HETATM   21  C   UNL     1     -11.080  14.759  70.108  1.00  0.00    -0.208 A  
HETATM   22 BR   UNL     1     -12.596  16.208  73.709  1.00  0.00    -0.700 Br 
HETATM   23  C   UNL     1     -12.402  15.338  72.045  1.00  0.00    -0.365 A  
ENDBRANCH  12  17
BRANCH  13  24
HETATM   24  O   UNL     1     -12.217  11.029  69.550  1.00  0.00    -0.336 OA 
BRANCH  24  25
HETATM   25  C   UNL     1     -11.176  10.640  70.446  1.00  0.00    -0.252 C  
BRANCH  25  26
HETATM   26  C   UNL     1     -10.999   9.129  70.298  1.00  0.00    -0.245 C  
BRANCH  26  27
HETATM   27  O   UNL     1      -9.614   8.803  70.223  1.00  0.00    -0.165 OA 
BRANCH  27  28
HETATM   28  C   UNL     1      -9.142   8.764  68.926  1.00  0.00    -0.141 A  
HETATM   29  N   UNL     1      -8.419   9.790  68.439  1.00  0.00    -0.113 NA 
HETATM   30  C   UNL     1      -7.997   9.665  67.161  1.00  0.00    -0.106 A  
HETATM   31  C   UNL     1      -8.270   8.571  66.374  1.00  0.00    -0.108 A  
HETATM   32  C   UNL     1      -9.020   7.586  66.973  1.00  0.00    -0.130 A  
HETATM   33 BR   UNL     1      -7.660   8.431  64.605  1.00  0.00    -0.111 Br 
HETATM   34  N   UNL     1      -9.469   7.656  68.244  1.00  0.00    -0.145 NA 
ENDBRANCH  27  28
ENDBRANCH  26  27
ENDBRANCH  25  26
ENDBRANCH  24  25
ENDBRANCH  13  24
ENDBRANCH   9  11
ENDBRANCH   6   9
ENDBRANCH   4   6
ENDBRANCH   3   4
ENDBRANCH   2   3
TORSDOF 11
ENDMDL
MODEL       55
REMARK 921   NORMALIZED FREE ENERGY PREDICTED BY IDOCK:   -5.58 KCAL/MOL
REMARK 922        TOTAL FREE ENERGY PREDICTED BY IDOCK:  -10.59 KCAL/MOL
REMARK 923 INTER-LIGAND FREE ENERGY PREDICTED BY IDOCK:   -8.91 KCAL/MOL
REMARK 924 INTRA-LIGAND FREE ENERGY PREDICTED BY IDOCK:   -1.68 KCAL/MOL
REMARK 927      BINDING AFFINITY PREDICTED BY RF-SCORE:    0.00 PKD
ROOT
HETATM    1  C   UNL     1      -8.263   5.679  72.853  1.00  0.00    -0.119 C  
HETATM    2  C   UNL     1      -9.469   5.550  73.770  1.00  0.00    -0.138 C  
ENDROOT
BRANCH   2   3
HETATM    3  C   UNL     1     -10.717   5.103  73.019  1.00  0.00    -0.255 C  
BRANCH   3   4
HETATM    4  N   UNL     1     -11.648   6.256  72.862  1.00  0.00    -0.488 N  
HETATM    5  H   UNL     1     -12.177   6.670  73.628  1.00  0.00     0.000 HD 
BRANCH   4   6
HETATM    6  S   UNL     1     -11.722   6.792  71.274  1.00  0.00    -0.353 S  
HETATM    7  O   UNL     1     -11.067   5.758  70.501  1.00  0.00    -0.289 OA 
HETATM    8  O   UNL     1     -13.069   7.209  70.989  1.00  0.00    -0.305 OA 
BRANCH   6   9
HETATM    9  N   UNL     1     -10.680   8.103  71.298  1.00  0.00    -0.223 N  
HETATM   10  H   UNL     1      -9.814   8.093  71.839  1.00  0.00     0.000 HD 
BRANCH   9  11
HETATM   11  C   UNL     1     -11.067   9.224  70.527  1.00  0.00    -0.265 A  
HETATM   12  C   UNL     1     -10.848   9.344  69.149  1.00  0.00    -0.176 A  
HETATM   13  C   UNL     1     -11.461  10.501  68.647  1.00  0.00    -0.223 A  
HETATM   14  N   UNL     1     -11.658  10.138  71.322  1.00  0.00    -0.351 NA 
HETATM   15  N   UNL     1     -12.103  11.432  69.388  1.00  0.00    -0.312 NA 
HETATM   16  C   UNL     1     -12.152  11.206  70.700  1.00  0.00    -0.379 A  
BRANCH  12  17
HETATM   17  C   UNL     1     -10.033   8.409  68.290  1.00  0.00    -0.214 A  
HETATM   18  C   UNL     1      -8.629   8.415  68.251  1.00  0.00    -0.139 A  
HETATM   19  C   UNL     1      -7.873   7.486  67.523  1.00  0.00    -0.116 A  
HETATM   20  C   UNL     1      -9.899   6.479  66.750  1.00  0.00    -0.213 A  
HETATM   21  C   UNL     1     -10.640   7.437  67.465  1.00  0.00    -0.340 A  
HETATM   22 BR   UNL     1      -7.503   5.185  65.898  1.00  0.00    -0.083 Br 
HETATM   23  C   UNL     1      -8.515   6.499  66.798  1.00  0.00    -0.113 A  
ENDBRANCH  12  17
BRANCH  13  24
HETATM   24  O   UNL     1     -11.420  10.708  67.283  1.00  0.00    -0.412 OA 
BRANCH  24  25
HETATM   25  C   UNL     1     -10.545  11.726  66.794  1.00  0.00    -0.238 C  
BRANCH  25  26
HETATM   26  C   UNL     1     -11.277  12.434  65.654  1.00  0.00    -0.322 C  
BRANCH  26  27
HETATM   27  O   UNL     1     -12.266  13.315  66.180  1.00  0.00    -0.420 OA 
BRANCH  27  28
HETATM   28  C   UNL     1     -11.726  14.460  66.731  1.00  0.00    -0.397 A  
HETATM   29  N   UNL     1     -11.949  14.757  68.024  1.00  0.00    -0.284 NA 
HETATM   30  C   UNL     1     -11.380  15.896  68.478  1.00  0.00    -0.374 A  
HETATM   31  C   UNL     1     -10.613  16.727  67.695  1.00  0.00    -0.325 A  
HETATM   32  C   UNL     1     -10.456  16.328  66.389  1.00  0.00    -0.294 A  
HETATM   33 BR   UNL     1      -9.833  18.298  68.364  1.00  0.00    -0.410 Br 
HETATM   34  N   UNL     1     -11.001  15.202  65.880  1.00  0.00    -0.338 NA 
ENDBRANCH  27  28
ENDBRANCH  26  27
ENDBRANCH  25  26
ENDBRANCH  24  25
ENDBRANCH  13  24
ENDBRANCH   9  11
ENDBRANCH   6   9
ENDBRANCH   4   6
ENDBRANCH   3   4
ENDBRANCH   2   3
TORSDOF 11
ENDMDL
MODEL       56
REMARK 921   NORMALIZED FREE ENERGY PREDICTED BY IDOCK:   -5.57 KCAL/MOL
REMARK 922        TOTAL FREE ENERGY PREDICTED BY IDOCK:  -10.56 KCAL/MOL
REMARK 923 INTER-LIGAND FREE ENERGY PREDICTED BY IDOCK:   -8.47 KCAL/MOL
REMARK 924 INTRA-LIGAND FREE ENERGY PREDICTED BY IDOCK:   -2.09 KCAL/MOL
REMARK 927      BINDING AFFINITY PREDICTED BY RF-SCORE:    0.00 PKD
ROOT
HETATM    1  C   UNL     1     -10.427  16.598  68.912  1.00  0.00    -0.322 C  
HETATM    2  C   UNL     1      -9.658  15.472  69.585  1.00  0.00    -0.264 C  
ENDROOT
BRANCH   2   3
HETATM    3  C   UNL     1      -8.150  15.645  69.451  1.00  0.00    -0.227 C  
BRANCH   3   4
HETATM    4  N   UNL     1      -7.513  14.318  69.216  1.00  0.00    -0.294 N  
HETATM    5  H   UNL     1      -7.685  13.493  69.790  1.00  0.00     0.000 HD 
BRANCH   4   6
HETATM    6  S   UNL     1      -6.479  14.342  67.896  1.00  0.00    -0.167 S  
HETATM    7  O   UNL     1      -7.198  15.071  66.873  1.00  0.00    -0.113 OA 
HETATM    8  O   UNL     1      -5.173  14.752  68.339  1.00  0.00    -0.097 OA 
BRANCH   6   9
HETATM    9  N   UNL     1      -6.476  12.735  67.425  1.00  0.00    -0.205 N  
HETATM   10  H   UNL     1      -6.087  12.436  66.530  1.00  0.00     0.000 HD 
BRANCH   9  11
HETATM   11  C   UNL     1      -7.044  11.814  68.337  1.00  0.00    -0.085 A  
HETATM   12  C   UNL     1      -8.261  11.152  68.131  1.00  0.00    -0.131 A  
HETATM   13  C   UNL     1      -8.490  10.207  69.142  1.00  0.00    -0.156 A  
HETATM   14  N   UNL     1      -6.241  11.690  69.413  1.00  0.00    -0.089 NA 
HETATM   15  N   UNL     1      -7.702  10.009  70.223  1.00  0.00    -0.213 NA 
HETATM   16  C   UNL     1      -6.619  10.781  70.309  1.00  0.00    -0.097 A  
BRANCH  12  17
HETATM   17  C   UNL     1      -9.245  11.417  67.019  1.00  0.00    -0.174 A  
HETATM   18  C   UNL     1     -10.212  12.435  67.063  1.00  0.00    -0.232 A  
HETATM   19  C   UNL     1     -11.063  12.739  65.992  1.00  0.00    -0.315 A  
HETATM   20  C   UNL     1     -10.073  10.963  64.734  1.00  0.00    -0.383 A  
HETATM   21  C   UNL     1      -9.247  10.656  65.829  1.00  0.00    -0.218 A  
HETATM   22 BR   UNL     1     -12.040  12.486  63.336  1.00  0.00    -0.560 Br 
HETATM   23  C   UNL     1     -10.967  12.018  64.816  1.00  0.00    -0.311 A  
ENDBRANCH  12  17
BRANCH  13  24
HETATM   24  O   UNL     1      -9.604   9.401  69.026  1.00  0.00    -0.158 OA 
BRANCH  24  25
HETATM   25  C   UNL     1      -9.978   8.621  70.162  1.00  0.00    -0.182 C  
BRANCH  25  26
HETATM   26  C   UNL     1     -10.840   9.515  71.054  1.00  0.00    -0.353 C  
BRANCH  26  27
HETATM   27  O   UNL     1     -11.976   9.979  70.330  1.00  0.00    -0.268 OA 
BRANCH  27  28
HETATM   28  C   UNL     1     -12.382  11.240  70.720  1.00  0.00    -0.398 A  
HETATM   29  N   UNL     1     -13.119  11.398  71.835  1.00  0.00    -0.473 NA 
HETATM   30  C   UNL     1     -13.469  12.667  72.140  1.00  0.00    -0.460 A  
HETATM   31  C   UNL     1     -13.113  13.758  71.381  1.00  0.00    -0.337 A  
HETATM   32  C   UNL     1     -12.365  13.478  70.262  1.00  0.00    -0.300 A  
HETATM   33 BR   UNL     1     -13.613  15.507  71.842  1.00  0.00    -0.564 Br 
HETATM   34  N   UNL     1     -11.987  12.231  69.907  1.00  0.00    -0.327 NA 
ENDBRANCH  27  28
ENDBRANCH  26  27
ENDBRANCH  25  26
ENDBRANCH  24  25
ENDBRANCH  13  24
ENDBRANCH   9  11
ENDBRANCH   6   9
ENDBRANCH   4   6
ENDBRANCH   3   4
ENDBRANCH   2   3
TORSDOF 11
ENDMDL
MODEL       57
REMARK 921   NORMALIZED FREE ENERGY PREDICTED BY IDOCK:   -5.53 KCAL/MOL
REMARK 922        TOTAL FREE ENERGY PREDICTED BY IDOCK:  -10.51 KCAL/MOL
REMARK 923 INTER-LIGAND FREE ENERGY PREDICTED BY IDOCK:   -9.27 KCAL/MOL
REMARK 924 INTRA-LIGAND FREE ENERGY PREDICTED BY IDOCK:   -1.23 KCAL/MOL
REMARK 927      BINDING AFFINITY PREDICTED BY RF-SCORE:    0.00 PKD
ROOT
HETATM    1  C   UNL     1     -10.466  18.468  67.412  1.00  0.00    -0.455 C  
HETATM    2  C   UNL     1     -10.098  17.455  66.341  1.00  0.00    -0.330 C  
ENDROOT
BRANCH   2   3
HETATM    3  C   UNL     1      -9.942  16.049  66.909  1.00  0.00    -0.251 C  
BRANCH   3   4
HETATM    4  N   UNL     1     -10.190  16.071  68.378  1.00  0.00    -0.230 N  
HETATM    5  H   UNL     1      -9.604  16.568  69.048  1.00  0.00     0.000 HD 
BRANCH   4   6
HETATM    6  S   UNL     1     -11.548  15.181  68.800  1.00  0.00    -0.353 S  
HETATM    7  O   UNL     1     -12.346  16.080  69.606  1.00  0.00    -0.192 OA 
HETATM    8  O   UNL     1     -12.077  14.556  67.617  1.00  0.00    -0.343 OA 
BRANCH   6   9
HETATM    9  N   UNL     1     -10.908  14.041  69.846  1.00  0.00    -0.449 N  
HETATM   10  H   UNL     1      -9.905  13.971  70.018  1.00  0.00     0.000 HD 
BRANCH   9  11
HETATM   11  C   UNL     1     -11.837  13.182  70.480  1.00  0.00    -0.101 A  
HETATM   12  C   UNL     1     -11.916  11.803  70.248  1.00  0.00    -0.429 A  
HETATM   13  C   UNL     1     -12.839  11.205  71.118  1.00  0.00    -0.374 A  
HETATM   14  N   UNL     1     -12.617  13.895  71.316  1.00  0.00    -0.358 NA 
HETATM   15  N   UNL     1     -13.619  11.862  72.005  1.00  0.00    -0.249 NA 
HETATM   16  C   UNL     1     -13.476  13.186  72.044  1.00  0.00    -0.507 A  
BRANCH  12  17
HETATM   17  C   UNL     1     -11.170  11.031  69.188  1.00  0.00    -0.318 A  
HETATM   18  C   UNL     1     -11.507  11.057  67.824  1.00  0.00    -0.339 A  
HETATM   19  C   UNL     1     -10.757  10.413  66.831  1.00  0.00    -0.272 A  
HETATM   20  C   UNL     1      -9.269   9.599  68.517  1.00  0.00    -0.137 A  
HETATM   21  C   UNL     1     -10.050  10.229  69.501  1.00  0.00    -0.260 A  
HETATM   22 BR   UNL     1      -8.549   8.926  65.838  1.00  0.00    -0.194 Br 
HETATM   23  C   UNL     1      -9.619   9.710  67.181  1.00  0.00    -0.166 A  
ENDBRANCH  12  17
BRANCH  13  24
HETATM   24  O   UNL     1     -12.958   9.830  71.081  1.00  0.00    -0.350 OA 
BRANCH  24  25
HETATM   25  C   UNL     1     -12.420   9.089  72.175  1.00  0.00    -0.380 C  
BRANCH  25  26
HETATM   26  C   UNL     1     -12.643   7.608  71.865  1.00  0.00    -0.303 C  
BRANCH  26  27
HETATM   27  O   UNL     1     -11.429   6.883  72.041  1.00  0.00    -0.254 OA 
BRANCH  27  28
HETATM   28  C   UNL     1     -10.983   6.294  70.874  1.00  0.00    -0.286 A  
HETATM   29  N   UNL     1     -11.337   6.806  69.681  1.00  0.00    -0.293 NA 
HETATM   30  C   UNL     1     -10.852   6.165  68.594  1.00  0.00    -0.332 A  
HETATM   31  C   UNL     1     -10.045   5.054  68.662  1.00  0.00    -0.121 A  
HETATM   32  C   UNL     1      -9.753   4.615  69.932  1.00  0.00    -0.209 A  
HETATM   33 BR   UNL     1      -9.386   4.197  67.129  1.00  0.00    -0.215 Br 
HETATM   34  N   UNL     1     -10.208   5.214  71.054  1.00  0.00    -0.224 NA 
ENDBRANCH  27  28
ENDBRANCH  26  27
ENDBRANCH  25  26
ENDBRANCH  24  25
ENDBRANCH  13  24
ENDBRANCH   9  11
ENDBRANCH   6   9
ENDBRANCH   4   6
ENDBRANCH   3   4
ENDBRANCH   2   3
TORSDOF 11
ENDMDL
MODEL       58
REMARK 921   NORMALIZED FREE ENERGY PREDICTED BY IDOCK:   -5.53 KCAL/MOL
REMARK 922        TOTAL FREE ENERGY PREDICTED BY IDOCK:  -10.50 KCAL/MOL
REMARK 923 INTER-LIGAND FREE ENERGY PREDICTED BY IDOCK:   -8.74 KCAL/MOL
REMARK 924 INTRA-LIGAND FREE ENERGY PREDICTED BY IDOCK:   -1.75 KCAL/MOL
REMARK 927      BINDING AFFINITY PREDICTED BY RF-SCORE:    0.00 PKD
ROOT
HETATM    1  C   UNL     1     -11.735   6.082  72.324  1.00  0.00    -0.338 C  
HETATM    2  C   UNL     1     -11.976   6.665  70.941  1.00  0.00    -0.413 C  
ENDROOT
BRANCH   2   3
HETATM    3  C   UNL     1     -11.073   6.036  69.887  1.00  0.00    -0.399 C  
BRANCH   3   4
HETATM    4  N   UNL     1     -11.471   6.518  68.534  1.00  0.00    -0.547 N  
HETATM    5  H   UNL     1     -12.366   6.959  68.327  1.00  0.00     0.000 HD 
BRANCH   4   6
HETATM    6  S   UNL     1     -10.272   6.249  67.392  1.00  0.00    -0.211 S  
HETATM    7  O   UNL     1      -9.028   6.456  68.103  1.00  0.00    -0.118 OA 
HETATM    8  O   UNL     1     -10.554   5.016  66.707  1.00  0.00    -0.252 OA 
BRANCH   6   9
HETATM    9  N   UNL     1     -10.462   7.561  66.369  1.00  0.00    -0.423 N  
HETATM   10  H   UNL     1     -11.302   7.686  65.804  1.00  0.00     0.000 HD 
BRANCH   9  11
HETATM   11  C   UNL     1      -9.392   8.486  66.334  1.00  0.00    -0.213 A  
HETATM   12  C   UNL     1      -9.209   9.514  67.268  1.00  0.00    -0.154 A  
HETATM   13  C   UNL     1      -7.993  10.176  67.048  1.00  0.00    -0.110 A  
HETATM   14  N   UNL     1      -8.603   8.225  65.273  1.00  0.00    -0.161 NA 
HETATM   15  N   UNL     1      -7.141   9.931  66.027  1.00  0.00    -0.100 NA 
HETATM   16  C   UNL     1      -7.504   8.971  65.177  1.00  0.00    -0.097 A  
BRANCH  12  17
HETATM   17  C   UNL     1     -10.180   9.921  68.349  1.00  0.00    -0.203 A  
HETATM   18  C   UNL     1     -10.045   9.547  69.697  1.00  0.00    -0.228 A  
HETATM   19  C   UNL     1     -10.897  10.002  70.712  1.00  0.00    -0.330 A  
HETATM   20  C   UNL     1     -12.149  11.224  69.083  1.00  0.00    -0.348 A  
HETATM   21  C   UNL     1     -11.301  10.734  68.074  1.00  0.00    -0.378 A  
HETATM   22 BR   UNL     1     -13.017  11.562  71.781  1.00  0.00    -0.390 Br 
HETATM   23  C   UNL     1     -11.930  10.867  70.404  1.00  0.00    -0.362 A  
ENDBRANCH  12  17
BRANCH  13  24
HETATM   24  O   UNL     1      -7.622  11.152  67.950  1.00  0.00    -0.094 OA 
BRANCH  24  25
HETATM   25  C   UNL     1      -7.480  12.486  67.461  1.00  0.00    -0.151 C  
BRANCH  25  26
HETATM   26  C   UNL     1      -8.567  13.326  68.131  1.00  0.00    -0.177 C  
BRANCH  26  27
HETATM   27  O   UNL     1      -9.491  13.800  67.155  1.00  0.00    -0.226 OA 
BRANCH  27  28
HETATM   28  C   UNL     1      -9.647  15.171  67.186  1.00  0.00    -0.218 A  
HETATM   29  N   UNL     1      -9.044  15.941  66.261  1.00  0.00    -0.316 NA 
HETATM   30  C   UNL     1      -9.255  17.272  66.368  1.00  0.00    -0.253 A  
HETATM   31  C   UNL     1     -10.032  17.842  67.349  1.00  0.00    -0.325 A  
HETATM   32  C   UNL     1     -10.595  16.962  68.242  1.00  0.00    -0.363 A  
HETATM   33 BR   UNL     1     -10.307  19.696  67.459  1.00  0.00    -0.595 Br 
HETATM   34  N   UNL     1     -10.419  15.624  68.186  1.00  0.00    -0.253 NA 
ENDBRANCH  27  28
ENDBRANCH  26  27
ENDBRANCH  25  26
ENDBRANCH  24  25
ENDBRANCH  13  24
ENDBRANCH   9  11
ENDBRANCH   6   9
ENDBRANCH   4   6
ENDBRANCH   3   4
ENDBRANCH   2   3
TORSDOF 11
ENDMDL
MODEL       59
REMARK 921   NORMALIZED FREE ENERGY PREDICTED BY IDOCK:   -5.50 KCAL/MOL
REMARK 922        TOTAL FREE ENERGY PREDICTED BY IDOCK:  -10.45 KCAL/MOL
REMARK 923 INTER-LIGAND FREE ENERGY PREDICTED BY IDOCK:   -7.69 KCAL/MOL
REMARK 924 INTRA-LIGAND FREE ENERGY PREDICTED BY IDOCK:   -2.76 KCAL/MOL
REMARK 927      BINDING AFFINITY PREDICTED BY RF-SCORE:    0.00 PKD
ROOT
HETATM    1  C   UNL     1     -10.280   4.775  71.455  1.00  0.00    -0.246 C  
HETATM    2  C   UNL     1     -10.334   5.245  70.010  1.00  0.00    -0.365 C  
ENDROOT
BRANCH   2   3
HETATM    3  C   UNL     1      -8.971   5.172  69.331  1.00  0.00    -0.099 C  
BRANCH   3   4
HETATM    4  N   UNL     1      -7.915   5.639  70.273  1.00  0.00    -0.101 N  
HETATM    5  H   UNL     1      -7.948   5.495  71.282  1.00  0.00     0.000 HD 
BRANCH   4   6
HETATM    6  S   UNL     1      -6.668   6.429  69.478  1.00  0.00    -0.054 S  
HETATM    7  O   UNL     1      -5.457   5.826  69.994  1.00  0.00    -0.008 OA 
HETATM    8  O   UNL     1      -6.959   6.454  68.070  1.00  0.00    -0.071 OA 
BRANCH   6   9
HETATM    9  N   UNL     1      -6.752   7.967  70.136  1.00  0.00    -0.037 N  
HETATM   10  H   UNL     1      -5.980   8.629  70.058  1.00  0.00     0.000 HD 
BRANCH   9  11
HETATM   11  C   UNL     1      -7.955   8.296  70.804  1.00  0.00    -0.100 A  
HETATM   12  C   UNL     1      -9.101   8.787  70.165  1.00  0.00    -0.176 A  
HETATM   13  C   UNL     1     -10.168   8.889  71.069  1.00  0.00    -0.254 A  
HETATM   14  N   UNL     1      -7.814   8.072  72.125  1.00  0.00    -0.106 NA 
HETATM   15  N   UNL     1     -10.099   8.640  72.395  1.00  0.00    -0.292 NA 
HETATM   16  C   UNL     1      -8.910   8.257  72.859  1.00  0.00    -0.232 A  
BRANCH  12  17
HETATM   17  C   UNL     1      -9.207   9.206  68.720  1.00  0.00    -0.136 A  
HETATM   18  C   UNL     1      -9.886   8.461  67.741  1.00  0.00    -0.218 A  
HETATM   19  C   UNL     1     -10.061   8.898  66.422  1.00  0.00    -0.333 A  
HETATM   20  C   UNL     1      -8.821  10.876  66.937  1.00  0.00    -0.145 A  
HETATM   21  C   UNL     1      -8.633  10.407  68.249  1.00  0.00    -0.128 A  
HETATM   22 BR   UNL     1      -9.871  10.763  64.286  1.00  0.00    -0.414 Br 
HETATM   23  C   UNL     1      -9.552  10.123  66.033  1.00  0.00    -0.210 A  
ENDBRANCH  12  17
BRANCH  13  24
HETATM   24  O   UNL     1     -11.398   9.265  70.568  1.00  0.00    -0.252 OA 
BRANCH  24  25
HETATM   25  C   UNL     1     -12.117  10.280  71.270  1.00  0.00    -0.382 C  
BRANCH  25  26
HETATM   26  C   UNL     1     -12.051  11.547  70.416  1.00  0.00    -0.382 C  
BRANCH  26  27
HETATM   27  O   UNL     1     -12.200  11.217  69.038  1.00  0.00    -0.469 OA 
BRANCH  27  28
HETATM   28  C   UNL     1     -11.773  12.224  68.196  1.00  0.00    -0.349 A  
HETATM   29  N   UNL     1     -12.155  12.232  66.905  1.00  0.00    -0.553 NA 
HETATM   30  C   UNL     1     -11.690  13.257  66.156  1.00  0.00    -0.374 A  
HETATM   31  C   UNL     1     -10.875  14.250  66.647  1.00  0.00    -0.301 A  
HETATM   32  C   UNL     1     -10.544  14.137  67.977  1.00  0.00    -0.239 A  
HETATM   33 BR   UNL     1     -10.256  15.661  65.576  1.00  0.00    -0.413 Br 
HETATM   34  N   UNL     1     -10.977  13.136  68.774  1.00  0.00    -0.258 NA 
ENDBRANCH  27  28
ENDBRANCH  26  27
ENDBRANCH  25  26
ENDBRANCH  24  25
ENDBRANCH  13  24
ENDBRANCH   9  11
ENDBRANCH   6   9
ENDBRANCH   4   6
ENDBRANCH   3   4
ENDBRANCH   2   3
TORSDOF 11
ENDMDL
MODEL       60
REMARK 921   NORMALIZED FREE ENERGY PREDICTED BY IDOCK:   -5.49 KCAL/MOL
REMARK 922        TOTAL FREE ENERGY PREDICTED BY IDOCK:  -10.44 KCAL/MOL
REMARK 923 INTER-LIGAND FREE ENERGY PREDICTED BY IDOCK:   -8.63 KCAL/MOL
REMARK 924 INTRA-LIGAND FREE ENERGY PREDICTED BY IDOCK:   -1.80 KCAL/MOL
REMARK 927      BINDING AFFINITY PREDICTED BY RF-SCORE:    0.00 PKD
ROOT
HETATM    1  C   UNL     1     -11.232   5.368  72.936  1.00  0.00    -0.372 C  
HETATM    2  C   UNL     1     -11.326   6.196  71.665  1.00  0.00    -0.341 C  
ENDROOT
BRANCH   2   3
HETATM    3  C   UNL     1     -12.508   7.157  71.690  1.00  0.00    -0.370 C  
BRANCH   3   4
HETATM    4  N   UNL     1     -12.045   8.511  72.106  1.00  0.00    -0.360 N  
HETATM    5  H   UNL     1     -11.517   8.696  72.959  1.00  0.00     0.000 HD 
BRANCH   4   6
HETATM    6  S   UNL     1     -12.494   9.695  71.007  1.00  0.00    -0.271 S  
HETATM    7  O   UNL     1     -13.889   9.434  70.728  1.00  0.00    -0.062 OA 
HETATM    8  O   UNL     1     -12.047  10.973  71.495  1.00  0.00    -0.179 OA 
BRANCH   6   9
HETATM    9  N   UNL     1     -11.640   9.243  69.638  1.00  0.00    -0.417 N  
HETATM   10  H   UNL     1     -12.079   8.725  68.877  1.00  0.00     0.000 HD 
BRANCH   9  11
HETATM   11  C   UNL     1     -10.277   9.621  69.598  1.00  0.00    -0.222 A  
HETATM   12  C   UNL     1      -9.735  10.508  68.659  1.00  0.00    -0.175 A  
HETATM   13  C   UNL     1      -8.394  10.788  68.958  1.00  0.00    -0.136 A  
HETATM   14  N   UNL     1      -9.605   8.995  70.583  1.00  0.00    -0.216 NA 
HETATM   15  N   UNL     1      -7.678  10.223  69.956  1.00  0.00    -0.139 NA 
HETATM   16  C   UNL     1      -8.324   9.336  70.711  1.00  0.00    -0.186 A  
BRANCH  12  17
HETATM   17  C   UNL     1     -10.441  11.071  67.451  1.00  0.00    -0.255 A  
HETATM   18  C   UNL     1     -11.351  12.140  67.511  1.00  0.00    -0.392 A  
HETATM   19  C   UNL     1     -11.935  12.721  66.376  1.00  0.00    -0.443 A  
HETATM   20  C   UNL     1     -10.770  11.149  65.002  1.00  0.00    -0.301 A  
HETATM   21  C   UNL     1     -10.216  10.563  66.153  1.00  0.00    -0.299 A  
HETATM   22 BR   UNL     1     -12.320  13.082  63.585  1.00  0.00    -0.449 Br 
HETATM   23  C   UNL     1     -11.616  12.240  65.120  1.00  0.00    -0.351 A  
ENDBRANCH  12  17
BRANCH  13  24
HETATM   24  O   UNL     1      -7.746  11.726  68.179  1.00  0.00    -0.109 OA 
BRANCH  24  25
HETATM   25  C   UNL     1      -6.872  12.644  68.837  1.00  0.00    -0.097 C  
BRANCH  25  26
HETATM   26  C   UNL     1      -7.173  14.032  68.271  1.00  0.00    -0.114 C  
BRANCH  26  27
HETATM   27  O   UNL     1      -8.512  14.084  67.788  1.00  0.00    -0.160 OA 
BRANCH  27  28
HETATM   28  C   UNL     1      -8.906  15.359  67.437  1.00  0.00    -0.183 A  
HETATM   29  N   UNL     1      -8.122  16.115  66.646  1.00  0.00    -0.266 NA 
HETATM   30  C   UNL     1      -8.589  17.349  66.352  1.00  0.00    -0.247 A  
HETATM   31  C   UNL     1      -9.788  17.839  66.816  1.00  0.00    -0.320 A  
HETATM   32  C   UNL     1     -10.504  16.983  67.620  1.00  0.00    -0.343 A  
HETATM   33 BR   UNL     1     -10.406  19.556  66.380  1.00  0.00    -0.635 Br 
HETATM   34  N   UNL     1     -10.087  15.740  67.947  1.00  0.00    -0.228 NA 
ENDBRANCH  27  28
ENDBRANCH  26  27
ENDBRANCH  25  26
ENDBRANCH  24  25
ENDBRANCH  13  24
ENDBRANCH   9  11
ENDBRANCH   6   9
ENDBRANCH   4   6
ENDBRANCH   3   4
ENDBRANCH   2   3
TORSDOF 11
ENDMDL
MODEL       61
REMARK 921   NORMALIZED FREE ENERGY PREDICTED BY IDOCK:   -5.49 KCAL/MOL
REMARK 922        TOTAL FREE ENERGY PREDICTED BY IDOCK:  -10.43 KCAL/MOL
REMARK 923 INTER-LIGAND FREE ENERGY PREDICTED BY IDOCK:   -9.60 KCAL/MOL
REMARK 924 INTRA-LIGAND FREE ENERGY PREDICTED BY IDOCK:   -0.83 KCAL/MOL
REMARK 927      BINDING AFFINITY PREDICTED BY RF-SCORE:    0.00 PKD
ROOT
HETATM    1  C   UNL     1      -7.131  13.445  68.544  1.00  0.00    -0.108 C  
HETATM    2  C   UNL     1      -7.470  14.577  69.500  1.00  0.00    -0.027 C  
ENDROOT
BRANCH   2   3
HETATM    3  C   UNL     1      -8.725  15.332  69.076  1.00  0.00    -0.226 C  
BRANCH   3   4
HETATM    4  N   UNL     1      -9.861  14.952  69.963  1.00  0.00    -0.455 N  
HETATM    5  H   UNL     1      -9.875  14.114  70.544  1.00  0.00     0.000 HD 
BRANCH   4   6
HETATM    6  S   UNL     1     -11.113  16.066  69.893  1.00  0.00    -0.370 S  
HETATM    7  O   UNL     1     -11.367  16.428  71.271  1.00  0.00    -0.347 OA 
HETATM    8  O   UNL     1     -10.796  17.056  68.898  1.00  0.00    -0.307 OA 
BRANCH   6   9
HETATM    9  N   UNL     1     -12.401  15.114  69.404  1.00  0.00    -0.577 N  
HETATM   10  H   UNL     1     -12.900  15.290  68.532  1.00  0.00     0.000 HD 
BRANCH   9  11
HETATM   11  C   UNL     1     -12.758  14.052  70.268  1.00  0.00    -0.210 A  
HETATM   12  C   UNL     1     -12.339  12.726  70.099  1.00  0.00    -0.235 A  
HETATM   13  C   UNL     1     -12.741  11.936  71.185  1.00  0.00    -0.284 A  
HETATM   14  N   UNL     1     -13.553  14.517  71.252  1.00  0.00    -0.372 NA 
HETATM   15  N   UNL     1     -13.504  12.355  72.220  1.00  0.00    -0.471 NA 
HETATM   16  C   UNL     1     -13.886  13.630  72.188  1.00  0.00    -0.548 A  
BRANCH  12  17
HETATM   17  C   UNL     1     -11.599  12.169  68.909  1.00  0.00    -0.377 A  
HETATM   18  C   UNL     1     -10.631  11.154  69.000  1.00  0.00    -0.251 A  
HETATM   19  C   UNL     1     -10.013  10.575  67.883  1.00  0.00    -0.193 A  
HETATM   20  C   UNL     1     -11.259  12.040  66.463  1.00  0.00    -0.387 A  
HETATM   21  C   UNL     1     -11.848  12.627  67.596  1.00  0.00    -0.390 A  
HETATM   22 BR   UNL     1      -9.601  10.157  65.103  1.00  0.00    -0.378 Br 
HETATM   23  C   UNL     1     -10.355  11.001  66.613  1.00  0.00    -0.240 A  
ENDBRANCH  12  17
BRANCH  13  24
HETATM   24  O   UNL     1     -12.318  10.622  71.214  1.00  0.00    -0.360 OA 
BRANCH  24  25
HETATM   25  C   UNL     1     -13.166   9.667  71.852  1.00  0.00    -0.446 C  
BRANCH  25  26
HETATM   26  C   UNL     1     -12.264   8.549  72.376  1.00  0.00    -0.366 C  
BRANCH  26  27
HETATM   27  O   UNL     1     -12.369   7.402  71.537  1.00  0.00    -0.319 OA 
BRANCH  27  28
HETATM   28  C   UNL     1     -11.363   7.332  70.595  1.00  0.00    -0.284 A  
HETATM   29  N   UNL     1     -10.177   7.926  70.828  1.00  0.00    -0.194 NA 
HETATM   30  C   UNL     1      -9.251   7.804  69.851  1.00  0.00    -0.146 A  
HETATM   31  C   UNL     1      -9.469   7.124  68.676  1.00  0.00    -0.140 A  
HETATM   32  C   UNL     1     -10.717   6.563  68.542  1.00  0.00    -0.273 A  
HETATM   33 BR   UNL     1      -8.154   6.972  67.346  1.00  0.00    -0.116 Br 
HETATM   34  N   UNL     1     -11.682   6.652  69.483  1.00  0.00    -0.203 NA 
ENDBRANCH  27  28
ENDBRANCH  26  27
ENDBRANCH  25  26
ENDBRANCH  24  25
ENDBRANCH  13  24
ENDBRANCH   9  11
ENDBRANCH   6   9
ENDBRANCH   4   6
ENDBRANCH   3   4
ENDBRANCH   2   3
TORSDOF 11
ENDMDL
MODEL       62
REMARK 921   NORMALIZED FREE ENERGY PREDICTED BY IDOCK:   -5.47 KCAL/MOL
REMARK 922        TOTAL FREE ENERGY PREDICTED BY IDOCK:  -10.41 KCAL/MOL
REMARK 923 INTER-LIGAND FREE ENERGY PREDICTED BY IDOCK:   -8.12 KCAL/MOL
REMARK 924 INTRA-LIGAND FREE ENERGY PREDICTED BY IDOCK:   -2.29 KCAL/MOL
REMARK 927      BINDING AFFINITY PREDICTED BY RF-SCORE:    0.00 PKD
ROOT
HETATM    1  C   UNL     1     -11.368   6.118  69.923  1.00  0.00    -0.454 C  
HETATM    2  C   UNL     1     -11.127   6.251  68.428  1.00  0.00    -0.371 C  
ENDROOT
BRANCH   2   3
HETATM    3  C   UNL     1      -9.695   5.901  68.043  1.00  0.00    -0.119 C  
BRANCH   3   4
HETATM    4  N   UNL     1      -8.770   6.285  69.147  1.00  0.00    -0.123 N  
HETATM    5  H   UNL     1      -8.993   6.188  70.137  1.00  0.00     0.000 HD 
BRANCH   4   6
HETATM    6  S   UNL     1      -7.320   6.898  68.569  1.00  0.00    -0.092 S  
HETATM    7  O   UNL     1      -6.296   6.167  69.284  1.00  0.00    -0.037 OA 
HETATM    8  O   UNL     1      -7.368   6.921  67.131  1.00  0.00    -0.085 OA 
BRANCH   6   9
HETATM    9  N   UNL     1      -7.323   8.452  69.194  1.00  0.00    -0.078 N  
HETATM   10  H   UNL     1      -6.549   9.098  69.034  1.00  0.00     0.000 HD 
BRANCH   9  11
HETATM   11  C   UNL     1      -8.457   8.818  69.956  1.00  0.00    -0.133 A  
HETATM   12  C   UNL     1      -9.560   9.512  69.442  1.00  0.00    -0.186 A  
HETATM   13  C   UNL     1     -10.578   9.608  70.401  1.00  0.00    -0.295 A  
HETATM   14  N   UNL     1      -8.300   8.403  71.229  1.00  0.00    -0.129 NA 
HETATM   15  N   UNL     1     -10.494   9.176  71.679  1.00  0.00    -0.351 NA 
HETATM   16  C   UNL     1      -9.342   8.607  72.032  1.00  0.00    -0.292 A  
BRANCH  12  17
HETATM   17  C   UNL     1      -9.664  10.130  68.070  1.00  0.00    -0.161 A  
HETATM   18  C   UNL     1     -10.060   9.420  66.924  1.00  0.00    -0.314 A  
HETATM   19  C   UNL     1     -10.244  10.019  65.670  1.00  0.00    -0.258 A  
HETATM   20  C   UNL     1      -9.588  12.120  66.603  1.00  0.00    -0.226 A  
HETATM   21  C   UNL     1      -9.381  11.496  67.846  1.00  0.00    -0.171 A  
HETATM   22 BR   UNL     1     -10.380  12.207  63.863  1.00  0.00    -0.477 Br 
HETATM   23  C   UNL     1     -10.036  11.378  65.523  1.00  0.00    -0.247 A  
ENDBRANCH  12  17
BRANCH  13  24
HETATM   24  O   UNL     1     -11.772  10.180  70.012  1.00  0.00    -0.256 OA 
BRANCH  24  25
HETATM   25  C   UNL     1     -12.180  11.377  70.676  1.00  0.00    -0.389 C  
BRANCH  25  26
HETATM   26  C   UNL     1     -11.905  12.536  69.717  1.00  0.00    -0.310 C  
BRANCH  26  27
HETATM   27  O   UNL     1     -11.827  13.761  70.440  1.00  0.00    -0.302 OA 
BRANCH  27  28
HETATM   28  C   UNL     1     -11.425  14.822  69.655  1.00  0.00    -0.292 A  
HETATM   29  N   UNL     1     -10.998  15.963  70.228  1.00  0.00    -0.342 NA 
HETATM   30  C   UNL     1     -10.622  16.947  69.382  1.00  0.00    -0.292 A  
HETATM   31  C   UNL     1     -10.659  16.829  68.012  1.00  0.00    -0.347 A  
HETATM   32  C   UNL     1     -11.117  15.623  67.537  1.00  0.00    -0.289 A  
HETATM   33 BR   UNL     1     -10.122  18.217  66.870  1.00  0.00    -0.405 Br 
HETATM   34  N   UNL     1     -11.507  14.604  68.334  1.00  0.00    -0.296 NA 
ENDBRANCH  27  28
ENDBRANCH  26  27
ENDBRANCH  25  26
ENDBRANCH  24  25
ENDBRANCH  13  24
ENDBRANCH   9  11
ENDBRANCH   6   9
ENDBRANCH   4   6
ENDBRANCH   3   4
ENDBRANCH   2   3
TORSDOF 11
ENDMDL
MODEL       63
REMARK 921   NORMALIZED FREE ENERGY PREDICTED BY IDOCK:   -5.46 KCAL/MOL
REMARK 922        TOTAL FREE ENERGY PREDICTED BY IDOCK:  -10.39 KCAL/MOL
REMARK 923 INTER-LIGAND FREE ENERGY PREDICTED BY IDOCK:   -8.76 KCAL/MOL
REMARK 924 INTRA-LIGAND FREE ENERGY PREDICTED BY IDOCK:   -1.63 KCAL/MOL
REMARK 927      BINDING AFFINITY PREDICTED BY RF-SCORE:    0.00 PKD
ROOT
HETATM    1  C   UNL     1      -9.362  18.408  66.365  1.00  0.00    -0.287 C  
HETATM    2  C   UNL     1     -10.625  17.868  65.713  1.00  0.00    -0.175 C  
ENDROOT
BRANCH   2   3
HETATM    3  C   UNL     1     -10.604  16.350  65.590  1.00  0.00    -0.323 C  
BRANCH   3   4
HETATM    4  N   UNL     1     -11.404  15.932  64.403  1.00  0.00    -0.745 N  
HETATM    5  H   UNL     1     -11.682  16.564  63.653  1.00  0.00     0.000 HD 
BRANCH   4   6
HETATM    6  S   UNL     1     -11.792  14.301  64.448  1.00  0.00    -0.399 S  
HETATM    7  O   UNL     1     -12.450  14.110  65.723  1.00  0.00    -0.466 OA 
HETATM    8  O   UNL     1     -12.427  13.943  63.208  1.00  0.00    -0.817 OA 
BRANCH   6   9
HETATM    9  N   UNL     1     -10.283  13.586  64.578  1.00  0.00    -0.605 N  
HETATM   10  H   UNL     1      -9.479  13.925  64.048  1.00  0.00     0.000 HD 
BRANCH   9  11
HETATM   11  C   UNL     1     -10.185  12.487  65.464  1.00  0.00    -0.275 A  
HETATM   12  C   UNL     1      -9.658  12.567  66.760  1.00  0.00    -0.231 A  
HETATM   13  C   UNL     1      -9.820  11.350  67.437  1.00  0.00    -0.182 A  
HETATM   14  N   UNL     1     -10.665  11.380  64.866  1.00  0.00    -0.298 NA 
HETATM   15  N   UNL     1     -10.331  10.218  66.903  1.00  0.00    -0.232 NA 
HETATM   16  C   UNL     1     -10.714  10.290  65.629  1.00  0.00     0.152 A  
BRANCH  12  17
HETATM   17  C   UNL     1      -8.960  13.757  67.368  1.00  0.00    -0.224 A  
HETATM   18  C   UNL     1      -9.545  14.590  68.337  1.00  0.00    -0.213 A  
HETATM   19  C   UNL     1      -8.861  15.639  68.967  1.00  0.00    -0.243 A  
HETATM   20  C   UNL     1      -6.929  15.140  67.650  1.00  0.00    -0.206 A  
HETATM   21  C   UNL     1      -7.640  14.110  67.009  1.00  0.00     0.194 A  
HETATM   22 BR   UNL     1      -6.585  17.235  69.557  1.00  0.00    -0.103 Br 
HETATM   23  C   UNL     1      -7.541  15.890  68.641  1.00  0.00    -0.161 A  
ENDBRANCH  12  17
BRANCH  13  24
HETATM   24  O   UNL     1      -9.439  11.298  68.762  1.00  0.00    -0.187 OA 
BRANCH  24  25
HETATM   25  C   UNL     1      -9.691  10.088  69.477  1.00  0.00    -0.233 C  
BRANCH  25  26
HETATM   26  C   UNL     1     -10.873  10.356  70.409  1.00  0.00    -0.189 C  
BRANCH  26  27
HETATM   27  O   UNL     1     -11.835   9.312  70.292  1.00  0.00    -0.139 OA 
BRANCH  27  28
HETATM   28  C   UNL     1     -11.530   8.212  71.069  1.00  0.00    -0.279 A  
HETATM   29  N   UNL     1     -11.460   6.989  70.511  1.00  0.00    -0.309 NA 
HETATM   30  C   UNL     1     -11.153   5.973  71.347  1.00  0.00    -0.274 A  
HETATM   31  C   UNL     1     -10.920   6.138  72.692  1.00  0.00    -0.256 A  
HETATM   32  C   UNL     1     -11.023   7.428  73.154  1.00  0.00    -0.359 A  
HETATM   33 BR   UNL     1     -10.490   4.700  73.819  1.00  0.00    -0.330 Br 
HETATM   34  N   UNL     1     -11.327   8.483  72.367  1.00  0.00    -0.368 NA 
ENDBRANCH  27  28
ENDBRANCH  26  27
ENDBRANCH  25  26
ENDBRANCH  24  25
ENDBRANCH  13  24
ENDBRANCH   9  11
ENDBRANCH   6   9
ENDBRANCH   4   6
ENDBRANCH   3   4
ENDBRANCH   2   3
TORSDOF 11
ENDMDL
MODEL       64
REMARK 921   NORMALIZED FREE ENERGY PREDICTED BY IDOCK:   -5.46 KCAL/MOL
REMARK 922        TOTAL FREE ENERGY PREDICTED BY IDOCK:  -10.38 KCAL/MOL
REMARK 923 INTER-LIGAND FREE ENERGY PREDICTED BY IDOCK:   -8.27 KCAL/MOL
REMARK 924 INTRA-LIGAND FREE ENERGY PREDICTED BY IDOCK:   -2.12 KCAL/MOL
REMARK 927      BINDING AFFINITY PREDICTED BY RF-SCORE:    0.00 PKD
ROOT
HETATM    1  C   UNL     1      -9.583  14.951  67.730  1.00  0.00    -0.208 C  
HETATM    2  C   UNL     1      -9.280  14.887  66.242  1.00  0.00    -0.301 C  
ENDROOT
BRANCH   2   3
HETATM    3  C   UNL     1     -10.540  15.006  65.393  1.00  0.00    -0.380 C  
BRANCH   3   4
HETATM    4  N   UNL     1     -10.580  13.898  64.397  1.00  0.00    -0.589 N  
HETATM    5  H   UNL     1      -9.756  13.522  63.929  1.00  0.00     0.000 HD 
BRANCH   4   6
HETATM    6  S   UNL     1     -12.141  13.341  64.137  1.00  0.00    -0.431 S  
HETATM    7  O   UNL     1     -12.849  13.633  65.365  1.00  0.00    -0.634 OA 
HETATM    8  O   UNL     1     -12.600  13.830  62.865  1.00  0.00    -0.611 OA 
BRANCH   6   9
HETATM    9  N   UNL     1     -11.918  11.681  64.098  1.00  0.00    -0.218 N  
HETATM   10  H   UNL     1     -12.705  11.033  64.065  1.00  0.00     0.000 HD 
BRANCH   9  11
HETATM   11  C   UNL     1     -10.577  11.229  64.112  1.00  0.00    -0.373 A  
HETATM   12  C   UNL     1      -9.955  10.650  65.226  1.00  0.00    -0.356 A  
HETATM   13  C   UNL     1      -8.676  10.183  64.893  1.00  0.00    -0.181 A  
HETATM   14  N   UNL     1     -10.012  11.450  62.909  1.00  0.00    -0.292 NA 
HETATM   15  N   UNL     1      -8.072  10.339  63.693  1.00  0.00    -0.160 NA 
HETATM   16  C   UNL     1      -8.774  10.985  62.763  1.00  0.00    -0.230 A  
BRANCH  12  17
HETATM   17  C   UNL     1     -10.523  10.563  66.621  1.00  0.00    -0.290 A  
HETATM   18  C   UNL     1     -10.683   9.355  67.321  1.00  0.00    -0.258 A  
HETATM   19  C   UNL     1     -11.123   9.286  68.650  1.00  0.00     0.065 A  
HETATM   20  C   UNL     1     -11.340  11.667  68.677  1.00  0.00    -0.326 A  
HETATM   21  C   UNL     1     -10.923  11.714  67.335  1.00  0.00    -0.313 A  
HETATM   22 BR   UNL     1     -11.919  10.371  71.153  1.00  0.00    -0.438 Br 
HETATM   23  C   UNL     1     -11.422  10.450  69.334  1.00  0.00    -0.227 A  
ENDBRANCH  12  17
BRANCH  13  24
HETATM   24  O   UNL     1      -7.972   9.496  65.861  1.00  0.00    -0.108 OA 
BRANCH  24  25
HETATM   25  C   UNL     1      -7.666   8.124  65.610  1.00  0.00    -0.090 C  
BRANCH  25  26
HETATM   26  C   UNL     1      -7.476   7.452  66.970  1.00  0.00    -0.098 C  
BRANCH  26  27
HETATM   27  O   UNL     1      -7.202   8.433  67.966  1.00  0.00    -0.087 OA 
BRANCH  27  28
HETATM   28  C   UNL     1      -7.803   8.150  69.177  1.00  0.00    -0.107 A  
HETATM   29  N   UNL     1      -8.197   6.895  69.458  1.00  0.00    -0.130 NA 
HETATM   30  C   UNL     1      -8.773   6.711  70.667  1.00  0.00    -0.143 A  
HETATM   31  C   UNL     1      -8.964   7.721  71.580  1.00  0.00    -0.129 A  
HETATM   32  C   UNL     1      -8.529   8.964  71.185  1.00  0.00    -0.198 A  
HETATM   33 BR   UNL     1      -9.763   7.424  73.252  1.00  0.00    -0.331 Br 
HETATM   34  N   UNL     1      -7.947   9.207  69.991  1.00  0.00    -0.099 NA 
ENDBRANCH  27  28
ENDBRANCH  26  27
ENDBRANCH  25  26
ENDBRANCH  24  25
ENDBRANCH  13  24
ENDBRANCH   9  11
ENDBRANCH   6   9
ENDBRANCH   4   6
ENDBRANCH   3   4
ENDBRANCH   2   3
TORSDOF 11
ENDMDL
MODEL       65
REMARK 921   NORMALIZED FREE ENERGY PREDICTED BY IDOCK:   -5.46 KCAL/MOL
REMARK 922        TOTAL FREE ENERGY PREDICTED BY IDOCK:  -10.38 KCAL/MOL
REMARK 923 INTER-LIGAND FREE ENERGY PREDICTED BY IDOCK:   -8.46 KCAL/MOL
REMARK 924 INTRA-LIGAND FREE ENERGY PREDICTED BY IDOCK:   -1.93 KCAL/MOL
REMARK 927      BINDING AFFINITY PREDICTED BY RF-SCORE:    0.00 PKD
ROOT
HETATM    1  C   UNL     1      -7.296   5.884  67.563  1.00  0.00    -0.077 C  
HETATM    2  C   UNL     1      -8.223   6.294  68.696  1.00  0.00    -0.112 C  
ENDROOT
BRANCH   2   3
HETATM    3  C   UNL     1      -9.164   5.167  69.107  1.00  0.00    -0.110 C  
BRANCH   3   4
HETATM    4  N   UNL     1      -9.332   5.168  70.588  1.00  0.00    -0.152 N  
HETATM    5  H   UNL     1      -8.663   4.756  71.237  1.00  0.00     0.000 HD 
BRANCH   4   6
HETATM    6  S   UNL     1     -10.751   5.928  71.059  1.00  0.00    -0.265 S  
HETATM    7  O   UNL     1     -11.521   6.065  69.841  1.00  0.00    -0.388 OA 
HETATM    8  O   UNL     1     -11.277   5.250  72.213  1.00  0.00    -0.204 OA 
BRANCH   6   9
HETATM    9  N   UNL     1     -10.211   7.462  71.457  1.00  0.00    -0.193 N  
HETATM   10  H   UNL     1      -9.265   7.627  71.804  1.00  0.00     0.000 HD 
BRANCH   9  11
HETATM   11  C   UNL     1     -11.139   8.516  71.287  1.00  0.00    -0.262 A  
HETATM   12  C   UNL     1     -11.152   9.381  70.185  1.00  0.00    -0.277 A  
HETATM   13  C   UNL     1     -12.267  10.231  70.233  1.00  0.00    -0.221 A  
HETATM   14  N   UNL     1     -11.982   8.552  72.337  1.00  0.00    -0.380 NA 
HETATM   15  N   UNL     1     -13.168  10.284  71.239  1.00  0.00    -0.374 NA 
HETATM   16  C   UNL     1     -12.965   9.446  72.254  1.00  0.00    -0.400 A  
BRANCH  12  17
HETATM   17  C   UNL     1     -10.109   9.459  69.098  1.00  0.00    -0.200 A  
HETATM   18  C   UNL     1     -10.346   9.091  67.764  1.00  0.00    -0.304 A  
HETATM   19  C   UNL     1      -9.403   9.251  66.739  1.00  0.00    -0.202 A  
HETATM   20  C   UNL     1      -7.853  10.127  68.335  1.00  0.00    -0.093 A  
HETATM   21  C   UNL     1      -8.803   9.933  69.353  1.00  0.00    -0.195 A  
HETATM   22 BR   UNL     1      -6.931  10.111  65.634  1.00  0.00    -0.130 Br 
HETATM   23  C   UNL     1      -8.167   9.800  67.026  1.00  0.00    -0.117 A  
ENDBRANCH  12  17
BRANCH  13  24
HETATM   24  O   UNL     1     -12.475  11.077  69.163  1.00  0.00    -0.432 OA 
BRANCH  24  25
HETATM   25  C   UNL     1     -12.024  12.426  69.289  1.00  0.00    -0.253 C  
BRANCH  25  26
HETATM   26  C   UNL     1     -11.275  12.769  68.001  1.00  0.00    -0.270 C  
BRANCH  26  27
HETATM   27  O   UNL     1     -12.015  13.722  67.243  1.00  0.00    -0.385 OA 
BRANCH  27  28
HETATM   28  C   UNL     1     -11.399  14.955  67.182  1.00  0.00    -0.343 A  
HETATM   29  N   UNL     1     -11.309  15.721  68.285  1.00  0.00    -0.358 NA 
HETATM   30  C   UNL     1     -10.687  16.912  68.131  1.00  0.00    -0.375 A  
HETATM   31  C   UNL     1     -10.165  17.349  66.936  1.00  0.00    -0.322 A  
HETATM   32  C   UNL     1     -10.318  16.487  65.876  1.00  0.00    -0.350 A  
HETATM   33 BR   UNL     1      -9.302  19.006  66.766  1.00  0.00    -0.380 Br 
HETATM   34  N   UNL     1     -10.930  15.287  65.969  1.00  0.00    -0.332 NA 
ENDBRANCH  27  28
ENDBRANCH  26  27
ENDBRANCH  25  26
ENDBRANCH  24  25
ENDBRANCH  13  24
ENDBRANCH   9  11
ENDBRANCH   6   9
ENDBRANCH   4   6
ENDBRANCH   3   4
ENDBRANCH   2   3
TORSDOF 11
ENDMDL
MODEL       66
REMARK 921   NORMALIZED FREE ENERGY PREDICTED BY IDOCK:   -5.45 KCAL/MOL
REMARK 922        TOTAL FREE ENERGY PREDICTED BY IDOCK:  -10.38 KCAL/MOL
REMARK 923 INTER-LIGAND FREE ENERGY PREDICTED BY IDOCK:   -8.07 KCAL/MOL
REMARK 924 INTRA-LIGAND FREE ENERGY PREDICTED BY IDOCK:   -2.31 KCAL/MOL
REMARK 927      BINDING AFFINITY PREDICTED BY RF-SCORE:    0.00 PKD
ROOT
HETATM    1  C   UNL     1     -12.837  13.760  65.541  1.00  0.00    -0.464 C  
HETATM    2  C   UNL     1     -11.788  13.376  64.510  1.00  0.00    -0.440 C  
ENDROOT
BRANCH   2   3
HETATM    3  C   UNL     1     -10.409  13.924  64.861  1.00  0.00    -0.406 C  
BRANCH   3   4
HETATM    4  N   UNL     1      -9.688  12.950  65.728  1.00  0.00    -0.423 N  
HETATM    5  H   UNL     1      -9.540  11.971  65.484  1.00  0.00     0.000 HD 
BRANCH   4   6
HETATM    6  S   UNL     1      -9.150  13.654  67.152  1.00  0.00    -0.246 S  
HETATM    7  O   UNL     1      -8.300  14.746  66.729  1.00  0.00    -0.200 OA 
HETATM    8  O   UNL     1     -10.279  13.866  68.018  1.00  0.00    -0.234 OA 
BRANCH   6   9
HETATM    9  N   UNL     1      -8.137  12.470  67.766  1.00  0.00    -0.151 N  
HETATM   10  H   UNL     1      -7.502  12.654  68.543  1.00  0.00     0.000 HD 
BRANCH   9  11
HETATM   11  C   UNL     1      -8.210  11.200  67.145  1.00  0.00    -0.137 A  
HETATM   12  C   UNL     1      -9.149  10.216  67.478  1.00  0.00    -0.143 A  
HETATM   13  C   UNL     1      -9.057   9.125  66.602  1.00  0.00    -0.148 A  
HETATM   14  N   UNL     1      -7.246  11.097  66.210  1.00  0.00    -0.093 NA 
HETATM   15  N   UNL     1      -8.139   8.984  65.620  1.00  0.00    -0.110 NA 
HETATM   16  C   UNL     1      -7.264   9.980  65.487  1.00  0.00    -0.133 A  
BRANCH  12  17
HETATM   17  C   UNL     1     -10.111  10.256  68.639  1.00  0.00    -0.187 A  
HETATM   18  C   UNL     1     -11.418  10.766  68.548  1.00  0.00    -0.362 A  
HETATM   19  C   UNL     1     -12.340  10.717  69.603  1.00  0.00    -0.262 A  
HETATM   20  C   UNL     1     -10.680   9.677  70.975  1.00  0.00    -0.393 A  
HETATM   21  C   UNL     1      -9.762   9.759  69.914  1.00  0.00    -0.273 A  
HETATM   22 BR   UNL     1     -13.242   9.984  72.196  1.00  0.00    -0.396 Br 
HETATM   23  C   UNL     1     -11.974  10.142  70.806  1.00  0.00    -0.348 A  
ENDBRANCH  12  17
BRANCH  13  24
HETATM   24  O   UNL     1      -9.985   8.112  66.739  1.00  0.00    -0.233 OA 
BRANCH  24  25
HETATM   25  C   UNL     1      -9.568   6.784  66.421  1.00  0.00    -0.095 C  
BRANCH  25  26
HETATM   26  C   UNL     1     -10.339   5.840  67.345  1.00  0.00    -0.225 C  
BRANCH  26  27
HETATM   27  O   UNL     1     -11.223   6.585  68.177  1.00  0.00    -0.275 OA 
BRANCH  27  28
HETATM   28  C   UNL     1     -10.986   6.389  69.523  1.00  0.00    -0.359 A  
HETATM   29  N   UNL     1      -9.746   6.089  69.953  1.00  0.00    -0.160 NA 
HETATM   30  C   UNL     1      -9.607   5.917  71.287  1.00  0.00    -0.168 A  
HETATM   31  C   UNL     1     -10.645   6.032  72.181  1.00  0.00    -0.214 A  
HETATM   32  C   UNL     1     -11.868   6.336  71.630  1.00  0.00    -0.256 A  
HETATM   33 BR   UNL     1     -10.410   5.792  74.027  1.00  0.00    -0.298 Br 
HETATM   34  N   UNL     1     -12.067   6.519  70.307  1.00  0.00    -0.233 NA 
ENDBRANCH  27  28
ENDBRANCH  26  27
ENDBRANCH  25  26
ENDBRANCH  24  25
ENDBRANCH  13  24
ENDBRANCH   9  11
ENDBRANCH   6   9
ENDBRANCH   4   6
ENDBRANCH   3   4
ENDBRANCH   2   3
TORSDOF 11
ENDMDL
MODEL       67
REMARK 921   NORMALIZED FREE ENERGY PREDICTED BY IDOCK:   -5.45 KCAL/MOL
REMARK 922        TOTAL FREE ENERGY PREDICTED BY IDOCK:  -10.37 KCAL/MOL
REMARK 923 INTER-LIGAND FREE ENERGY PREDICTED BY IDOCK:   -9.30 KCAL/MOL
REMARK 924 INTRA-LIGAND FREE ENERGY PREDICTED BY IDOCK:   -1.08 KCAL/MOL
REMARK 927      BINDING AFFINITY PREDICTED BY RF-SCORE:    0.00 PKD
ROOT
HETATM    1  C   UNL     1     -11.779  13.070  63.905  1.00  0.00    -0.531 C  
HETATM    2  C   UNL     1     -12.510  13.673  65.093  1.00  0.00    -0.488 C  
ENDROOT
BRANCH   2   3
HETATM    3  C   UNL     1     -11.550  14.219  66.143  1.00  0.00    -0.369 C  
BRANCH   3   4
HETATM    4  N   UNL     1     -12.271  14.406  67.434  1.00  0.00    -0.617 N  
HETATM    5  H   UNL     1     -13.209  14.050  67.619  1.00  0.00     0.000 HD 
BRANCH   4   6
HETATM    6  S   UNL     1     -11.360  15.270  68.545  1.00  0.00    -0.343 S  
HETATM    7  O   UNL     1     -10.279  15.846  67.772  1.00  0.00    -0.250 OA 
HETATM    8  O   UNL     1     -12.244  16.087  69.333  1.00  0.00    -0.231 OA 
BRANCH   6   9
HETATM    9  N   UNL     1     -10.686  14.048  69.471  1.00  0.00    -0.444 N  
HETATM   10  H   UNL     1      -9.676  13.924  69.546  1.00  0.00     0.000 HD 
BRANCH   9  11
HETATM   11  C   UNL     1     -11.596  13.198  70.143  1.00  0.00    -0.074 A  
HETATM   12  C   UNL     1     -11.666  11.812  69.950  1.00  0.00    -0.399 A  
HETATM   13  C   UNL     1     -12.569  11.230  70.852  1.00  0.00    -0.371 A  
HETATM   14  N   UNL     1     -12.369  13.927  70.972  1.00  0.00    -0.364 NA 
HETATM   15  N   UNL     1     -13.341  11.905  71.733  1.00  0.00    -0.343 NA 
HETATM   16  C   UNL     1     -13.210  13.231  71.733  1.00  0.00    -0.405 A  
BRANCH  12  17
HETATM   17  C   UNL     1     -10.930  11.019  68.900  1.00  0.00    -0.277 A  
HETATM   18  C   UNL     1     -11.241  11.064  67.531  1.00  0.00    -0.372 A  
HETATM   19  C   UNL     1     -10.497  10.397  66.548  1.00  0.00    -0.262 A  
HETATM   20  C   UNL     1      -9.071   9.520  68.255  1.00  0.00    -0.127 A  
HETATM   21  C   UNL     1      -9.847  10.174  69.229  1.00  0.00    -0.235 A  
HETATM   22 BR   UNL     1      -8.328   8.833  65.587  1.00  0.00    -0.160 Br 
HETATM   23  C   UNL     1      -9.392   9.650  66.914  1.00  0.00    -0.146 A  
ENDBRANCH  12  17
BRANCH  13  24
HETATM   24  O   UNL     1     -12.676   9.854  70.854  1.00  0.00    -0.321 OA 
BRANCH  24  25
HETATM   25  C   UNL     1     -13.420   9.250  71.912  1.00  0.00    -0.430 C  
BRANCH  25  26
HETATM   26  C   UNL     1     -12.652   7.999  72.341  1.00  0.00    -0.178 C  
BRANCH  26  27
HETATM   27  O   UNL     1     -11.249   8.242  72.282  1.00  0.00    -0.321 OA 
BRANCH  27  28
HETATM   28  C   UNL     1     -10.502   7.194  72.779  1.00  0.00    -0.244 A  
HETATM   29  N   UNL     1     -10.816   5.926  72.454  1.00  0.00    -0.230 NA 
HETATM   30  C   UNL     1     -10.028   4.965  72.985  1.00  0.00    -0.151 A  
HETATM   31  C   UNL     1      -8.961   5.227  73.813  1.00  0.00    -0.123 A  
HETATM   32  C   UNL     1      -8.736   6.556  74.082  1.00  0.00    -0.139 A  
HETATM   33 BR   UNL     1      -7.886   3.863  74.525  1.00  0.00    -0.086 Br 
HETATM   34  N   UNL     1      -9.489   7.559  73.581  1.00  0.00    -0.267 NA 
ENDBRANCH  27  28
ENDBRANCH  26  27
ENDBRANCH  25  26
ENDBRANCH  24  25
ENDBRANCH  13  24
ENDBRANCH   9  11
ENDBRANCH   6   9
ENDBRANCH   4   6
ENDBRANCH   3   4
ENDBRANCH   2   3
TORSDOF 11
ENDMDL
MODEL       68
REMARK 921   NORMALIZED FREE ENERGY PREDICTED BY IDOCK:   -5.45 KCAL/MOL
REMARK 922        TOTAL FREE ENERGY PREDICTED BY IDOCK:  -10.37 KCAL/MOL
REMARK 923 INTER-LIGAND FREE ENERGY PREDICTED BY IDOCK:   -8.79 KCAL/MOL
REMARK 924 INTRA-LIGAND FREE ENERGY PREDICTED BY IDOCK:   -1.58 KCAL/MOL
REMARK 927      BINDING AFFINITY PREDICTED BY RF-SCORE:    0.00 PKD
ROOT
HETATM    1  C   UNL     1     -13.287   9.419  72.054  1.00  0.00    -0.525 C  
HETATM    2  C   UNL     1     -12.765   8.032  71.716  1.00  0.00    -0.352 C  
ENDROOT
BRANCH   2   3
HETATM    3  C   UNL     1     -11.245   7.954  71.794  1.00  0.00    -0.260 C  
BRANCH   3   4
HETATM    4  N   UNL     1     -10.649   9.191  71.215  1.00  0.00    -0.302 N  
HETATM    5  H   UNL     1     -10.789  10.125  71.599  1.00  0.00     0.000 HD 
BRANCH   4   6
HETATM    6  S   UNL     1      -9.722   8.866  69.855  1.00  0.00    -0.185 S  
HETATM    7  O   UNL     1      -8.693   9.884  69.854  1.00  0.00    -0.205 OA 
HETATM    8  O   UNL     1      -9.399   7.465  69.840  1.00  0.00    -0.155 OA 
BRANCH   6   9
HETATM    9  N   UNL     1     -10.777   9.253  68.612  1.00  0.00    -0.368 N  
HETATM   10  H   UNL     1     -11.248   8.534  68.063  1.00  0.00     0.000 HD 
BRANCH   9  11
HETATM   11  C   UNL     1     -10.977  10.632  68.368  1.00  0.00    -0.251 A  
HETATM   12  C   UNL     1     -10.419  11.328  67.287  1.00  0.00    -0.249 A  
HETATM   13  C   UNL     1     -10.907  12.642  67.238  1.00  0.00    -0.248 A  
HETATM   14  N   UNL     1     -11.767  11.152  69.327  1.00  0.00    -0.303 NA 
HETATM   15  N   UNL     1     -11.732  13.206  68.147  1.00  0.00    -0.336 NA 
HETATM   16  C   UNL     1     -12.108  12.428  69.161  1.00  0.00    -0.146 A  
BRANCH  12  17
HETATM   17  C   UNL     1      -9.396  10.795  66.315  1.00  0.00    -0.205 A  
HETATM   18  C   UNL     1      -8.009  10.921  66.499  1.00  0.00    -0.152 A  
HETATM   19  C   UNL     1      -7.061  10.346  65.642  1.00  0.00    -0.142 A  
HETATM   20  C   UNL     1      -8.838   9.499  64.284  1.00  0.00    -0.247 A  
HETATM   21  C   UNL     1      -9.773  10.107  65.140  1.00  0.00    -0.370 A  
HETATM   22 BR   UNL     1      -6.214   8.747  63.451  1.00  0.00    -0.085 Br 
HETATM   23  C   UNL     1      -7.483   9.608  64.551  1.00  0.00    -0.128 A  
ENDBRANCH  12  17
BRANCH  13  24
HETATM   24  O   UNL     1     -10.526  13.427  66.168  1.00  0.00    -0.285 OA 
BRANCH  24  25
HETATM   25  C   UNL     1     -10.766  14.831  66.259  1.00  0.00    -0.313 C  
BRANCH  25  26
HETATM   26  C   UNL     1      -9.401  15.513  66.363  1.00  0.00    -0.298 C  
BRANCH  26  27
HETATM   27  O   UNL     1      -9.487  16.854  65.891  1.00  0.00    -0.478 OA 
BRANCH  27  28
HETATM   28  C   UNL     1      -8.609  17.706  66.531  1.00  0.00    -0.259 A  
HETATM   29  N   UNL     1      -7.673  18.366  65.824  1.00  0.00    -0.524 NA 
HETATM   30  C   UNL     1      -6.859  19.179  66.533  1.00  0.00    -0.200 A  
HETATM   31  C   UNL     1      -6.949  19.347  67.895  1.00  0.00    -0.246 A  
HETATM   32  C   UNL     1      -7.938  18.619  68.515  1.00  0.00    -0.337 A  
HETATM   33 BR   UNL     1      -5.803  20.491  68.844  1.00  0.00    -0.391 Br 
HETATM   34  N   UNL     1      -8.780  17.791  67.859  1.00  0.00    -0.246 NA 
ENDBRANCH  27  28
ENDBRANCH  26  27
ENDBRANCH  25  26
ENDBRANCH  24  25
ENDBRANCH  13  24
ENDBRANCH   9  11
ENDBRANCH   6   9
ENDBRANCH   4   6
ENDBRANCH   3   4
ENDBRANCH   2   3
TORSDOF 11
ENDMDL
MODEL       69
REMARK 921   NORMALIZED FREE ENERGY PREDICTED BY IDOCK:   -5.45 KCAL/MOL
REMARK 922        TOTAL FREE ENERGY PREDICTED BY IDOCK:  -10.36 KCAL/MOL
REMARK 923 INTER-LIGAND FREE ENERGY PREDICTED BY IDOCK:   -8.46 KCAL/MOL
REMARK 924 INTRA-LIGAND FREE ENERGY PREDICTED BY IDOCK:   -1.91 KCAL/MOL
REMARK 927      BINDING AFFINITY PREDICTED BY RF-SCORE:    0.00 PKD
ROOT
HETATM    1  C   UNL     1      -9.960   5.022  70.316  1.00  0.00    -0.325 C  
HETATM    2  C   UNL     1     -11.046   6.038  70.001  1.00  0.00    -0.451 C  
ENDROOT
BRANCH   2   3
HETATM    3  C   UNL     1     -11.113   6.365  68.514  1.00  0.00    -0.300 C  
BRANCH   3   4
HETATM    4  N   UNL     1      -9.821   6.008  67.863  1.00  0.00    -0.115 N  
HETATM    5  H   UNL     1      -9.342   5.118  67.998  1.00  0.00     0.000 HD 
BRANCH   4   6
HETATM    6  S   UNL     1      -9.249   7.242  66.882  1.00  0.00    -0.158 S  
HETATM    7  O   UNL     1      -8.393   6.584  65.918  1.00  0.00    -0.127 OA 
HETATM    8  O   UNL     1     -10.359   8.060  66.473  1.00  0.00    -0.260 OA 
BRANCH   6   9
HETATM    9  N   UNL     1      -8.239   8.077  67.925  1.00  0.00    -0.128 N  
HETATM   10  H   UNL     1      -7.744   7.610  68.685  1.00  0.00     0.000 HD 
BRANCH   9  11
HETATM   11  C   UNL     1      -8.110   9.467  67.691  1.00  0.00    -0.106 A  
HETATM   12  C   UNL     1      -8.826  10.450  68.386  1.00  0.00    -0.136 A  
HETATM   13  C   UNL     1      -8.385  11.732  68.028  1.00  0.00    -0.154 A  
HETATM   14  N   UNL     1      -7.211   9.680  66.710  1.00  0.00    -0.089 NA 
HETATM   15  N   UNL     1      -7.459  12.006  67.081  1.00  0.00    -0.148 NA 
HETATM   16  C   UNL     1      -6.930  10.956  66.456  1.00  0.00    -0.139 A  
BRANCH  12  17
HETATM   17  C   UNL     1      -9.957  10.213  69.356  1.00  0.00    -0.247 A  
HETATM   18  C   UNL     1     -11.285  10.601  69.112  1.00  0.00    -0.324 A  
HETATM   19  C   UNL     1     -12.348  10.298  69.974  1.00  0.00    -0.158 A  
HETATM   20  C   UNL     1     -10.810   9.220  71.454  1.00  0.00    -0.434 A  
HETATM   21  C   UNL     1      -9.753   9.558  70.591  1.00  0.00    -0.311 A  
HETATM   22 BR   UNL     1     -13.549   9.081  72.243  1.00  0.00    -0.563 Br 
HETATM   23  C   UNL     1     -12.109   9.579  71.130  1.00  0.00    -0.347 A  
ENDBRANCH  12  17
BRANCH  13  24
HETATM   24  O   UNL     1      -8.927  12.808  68.701  1.00  0.00    -0.092 OA 
BRANCH  24  25
HETATM   25  C   UNL     1      -8.502  14.115  68.313  1.00  0.00    -0.169 C  
BRANCH  25  26
HETATM   26  C   UNL     1      -9.655  15.070  68.622  1.00  0.00    -0.219 C  
BRANCH  26  27
HETATM   27  O   UNL     1     -10.103  15.699  67.425  1.00  0.00    -0.244 OA 
BRANCH  27  28
HETATM   28  C   UNL     1     -10.720  14.821  66.556  1.00  0.00    -0.319 A  
HETATM   29  N   UNL     1     -11.802  14.126  66.953  1.00  0.00    -0.412 NA 
HETATM   30  C   UNL     1     -12.340  13.292  66.036  1.00  0.00    -0.386 A  
HETATM   31  C   UNL     1     -11.841  13.136  64.764  1.00  0.00    -0.369 A  
HETATM   32  C   UNL     1     -10.731  13.891  64.469  1.00  0.00    -0.366 A  
HETATM   33 BR   UNL     1     -12.623  11.972  63.517  1.00  0.00    -0.485 Br 
HETATM   34  N   UNL     1     -10.149  14.739  65.344  1.00  0.00    -0.371 NA 
ENDBRANCH  27  28
ENDBRANCH  26  27
ENDBRANCH  25  26
ENDBRANCH  24  25
ENDBRANCH  13  24
ENDBRANCH   9  11
ENDBRANCH   6   9
ENDBRANCH   4   6
ENDBRANCH   3   4
ENDBRANCH   2   3
TORSDOF 11
ENDMDL
MODEL       70
REMARK 921   NORMALIZED FREE ENERGY PREDICTED BY IDOCK:   -5.44 KCAL/MOL
REMARK 922        TOTAL FREE ENERGY PREDICTED BY IDOCK:  -10.36 KCAL/MOL
REMARK 923 INTER-LIGAND FREE ENERGY PREDICTED BY IDOCK:   -8.27 KCAL/MOL
REMARK 924 INTRA-LIGAND FREE ENERGY PREDICTED BY IDOCK:   -2.09 KCAL/MOL
REMARK 927      BINDING AFFINITY PREDICTED BY RF-SCORE:    0.00 PKD
ROOT
HETATM    1  C   UNL     1     -13.120  15.709  72.538  1.00  0.00    -0.559 C  
HETATM    2  C   UNL     1     -11.894  15.263  71.756  1.00  0.00    -0.473 C  
ENDROOT
BRANCH   2   3
HETATM    3  C   UNL     1     -12.226  14.931  70.306  1.00  0.00    -0.335 C  
BRANCH   3   4
HETATM    4  N   UNL     1     -11.469  13.718  69.885  1.00  0.00    -0.448 N  
HETATM    5  H   UNL     1     -11.034  13.063  70.534  1.00  0.00     0.000 HD 
BRANCH   4   6
HETATM    6  S   UNL     1     -11.418  13.557  68.216  1.00  0.00    -0.334 S  
HETATM    7  O   UNL     1     -12.408  12.547  67.909  1.00  0.00    -0.245 OA 
HETATM    8  O   UNL     1     -11.465  14.867  67.624  1.00  0.00    -0.334 OA 
BRANCH   6   9
HETATM    9  N   UNL     1      -9.921  12.844  67.980  1.00  0.00    -0.230 N  
HETATM   10  H   UNL     1      -9.079  13.196  68.437  1.00  0.00     0.000 HD 
BRANCH   9  11
HETATM   11  C   UNL     1      -9.889  11.728  67.110  1.00  0.00    -0.193 A  
HETATM   12  C   UNL     1      -9.873  10.396  67.542  1.00  0.00    -0.202 A  
HETATM   13  C   UNL     1      -9.979   9.519  66.453  1.00  0.00    -0.269 A  
HETATM   14  N   UNL     1      -9.871  12.151  65.831  1.00  0.00    -0.245 NA 
HETATM   15  N   UNL     1     -10.006   9.886  65.152  1.00  0.00    -0.292 NA 
HETATM   16  C   UNL     1      -9.932  11.193  64.909  1.00  0.00    -0.278 A  
BRANCH  12  17
HETATM   17  C   UNL     1      -9.715   9.920  68.965  1.00  0.00    -0.195 A  
HETATM   18  C   UNL     1     -10.788   9.774  69.860  1.00  0.00    -0.306 A  
HETATM   19  C   UNL     1     -10.650   9.245  71.150  1.00  0.00    -0.402 A  
HETATM   20  C   UNL     1      -8.300   9.010  70.778  1.00  0.00    -0.228 A  
HETATM   21  C   UNL     1      -8.455   9.568  69.497  1.00  0.00    -0.156 A  
HETATM   22 BR   UNL     1      -9.231   8.029  73.291  1.00  0.00    -0.328 Br 
HETATM   23  C   UNL     1      -9.406   8.835  71.593  1.00  0.00    -0.275 A  
ENDBRANCH  12  17
BRANCH  13  24
HETATM   24  O   UNL     1     -10.077   8.169  66.724  1.00  0.00    -0.254 OA 
BRANCH  24  25
HETATM   25  C   UNL     1      -9.072   7.311  66.183  1.00  0.00    -0.122 C  
BRANCH  25  26
HETATM   26  C   UNL     1      -9.092   6.024  67.007  1.00  0.00    -0.117 C  
BRANCH  26  27
HETATM   27  O   UNL     1      -8.274   6.171  68.164  1.00  0.00    -0.113 OA 
BRANCH  27  28
HETATM   28  C   UNL     1      -8.915   5.788  69.326  1.00  0.00    -0.119 A  
HETATM   29  N   UNL     1      -8.214   5.230  70.331  1.00  0.00    -0.101 NA 
HETATM   30  C   UNL     1      -8.923   4.889  71.430  1.00  0.00    -0.134 A  
HETATM   31  C   UNL     1     -10.279   5.082  71.551  1.00  0.00    -0.204 A  
HETATM   32  C   UNL     1     -10.893   5.654  70.461  1.00  0.00    -0.244 A  
HETATM   33 BR   UNL     1     -11.227   4.600  73.097  1.00  0.00    -0.346 Br 
HETATM   34  N   UNL     1     -10.237   6.015  69.337  1.00  0.00    -0.193 NA 
ENDBRANCH  27  28
ENDBRANCH  26  27
ENDBRANCH  25  26
ENDBRANCH  24  25
ENDBRANCH  13  24
ENDBRANCH   9  11
ENDBRANCH   6   9
ENDBRANCH   4   6
ENDBRANCH   3   4
ENDBRANCH   2   3
TORSDOF 11
ENDMDL
MODEL       71
REMARK 921   NORMALIZED FREE ENERGY PREDICTED BY IDOCK:   -5.44 KCAL/MOL
REMARK 922        TOTAL FREE ENERGY PREDICTED BY IDOCK:  -10.36 KCAL/MOL
REMARK 923 INTER-LIGAND FREE ENERGY PREDICTED BY IDOCK:   -8.74 KCAL/MOL
REMARK 924 INTRA-LIGAND FREE ENERGY PREDICTED BY IDOCK:   -1.61 KCAL/MOL
REMARK 927      BINDING AFFINITY PREDICTED BY RF-SCORE:    0.00 PKD
ROOT
HETATM    1  C   UNL     1     -10.048  17.200  66.301  1.00  0.00    -0.329 C  
HETATM    2  C   UNL     1     -10.654  17.538  67.654  1.00  0.00    -0.355 C  
ENDROOT
BRANCH   2   3
HETATM    3  C   UNL     1     -10.774  16.312  68.552  1.00  0.00    -0.307 C  
BRANCH   3   4
HETATM    4  N   UNL     1     -11.835  15.407  68.027  1.00  0.00    -0.413 N  
HETATM    5  H   UNL     1     -12.813  15.677  67.921  1.00  0.00     0.000 HD 
BRANCH   4   6
HETATM    6  S   UNL     1     -11.232  13.893  67.634  1.00  0.00    -0.309 S  
HETATM    7  O   UNL     1     -12.402  13.083  67.372  1.00  0.00    -0.249 OA 
HETATM    8  O   UNL     1     -10.188  14.050  66.657  1.00  0.00    -0.265 OA 
BRANCH   6   9
HETATM    9  N   UNL     1     -10.610  13.372  69.099  1.00  0.00    -0.436 N  
HETATM   10  H   UNL     1      -9.642  13.554  69.368  1.00  0.00     0.000 HD 
BRANCH   9  11
HETATM   11  C   UNL     1     -11.500  12.666  69.941  1.00  0.00    -0.081 A  
HETATM   12  C   UNL     1     -11.509  11.272  70.084  1.00  0.00    -0.336 A  
HETATM   13  C   UNL     1     -12.408  10.881  71.086  1.00  0.00    -0.374 A  
HETATM   14  N   UNL     1     -12.321  13.535  70.562  1.00  0.00    -0.350 NA 
HETATM   15  N   UNL     1     -13.228  11.710  71.771  1.00  0.00    -0.421 NA 
HETATM   16  C   UNL     1     -13.151  13.003  71.457  1.00  0.00    -0.310 A  
BRANCH  12  17
HETATM   17  C   UNL     1     -10.716  10.286  69.263  1.00  0.00    -0.265 A  
HETATM   18  C   UNL     1      -9.545   9.658  69.719  1.00  0.00    -0.242 A  
HETATM   19  C   UNL     1      -8.863   8.674  68.990  1.00  0.00    -0.138 A  
HETATM   20  C   UNL     1     -10.463   8.904  67.228  1.00  0.00    -0.348 A  
HETATM   21  C   UNL     1     -11.117   9.908  67.962  1.00  0.00    -0.220 A  
HETATM   22 BR   UNL     1      -8.489   6.883  66.816  1.00  0.00    -0.121 Br 
HETATM   23  C   UNL     1      -9.345   8.278  67.757  1.00  0.00    -0.138 A  
ENDBRANCH  12  17
BRANCH  13  24
HETATM   24  O   UNL     1     -12.459   9.542  71.414  1.00  0.00    -0.321 OA 
BRANCH  24  25
HETATM   25  C   UNL     1     -13.746   8.927  71.489  1.00  0.00    -0.345 C  
BRANCH  25  26
HETATM   26  C   UNL     1     -13.516   7.444  71.782  1.00  0.00    -0.313 C  
BRANCH  26  27
HETATM   27  O   UNL     1     -12.652   6.879  70.800  1.00  0.00    -0.324 OA 
BRANCH  27  28
HETATM   28  C   UNL     1     -11.458   6.433  71.329  1.00  0.00    -0.314 A  
HETATM   29  N   UNL     1     -11.163   6.665  72.622  1.00  0.00    -0.260 NA 
HETATM   30  C   UNL     1      -9.974   6.189  73.054  1.00  0.00    -0.176 A  
HETATM   31  C   UNL     1      -9.091   5.505  72.251  1.00  0.00    -0.142 A  
HETATM   32  C   UNL     1      -9.493   5.331  70.948  1.00  0.00    -0.165 A  
HETATM   33 BR   UNL     1      -7.452   4.855  72.891  1.00  0.00    -0.093 Br 
HETATM   34  N   UNL     1     -10.668   5.784  70.460  1.00  0.00    -0.286 NA 
ENDBRANCH  27  28
ENDBRANCH  26  27
ENDBRANCH  25  26
ENDBRANCH  24  25
ENDBRANCH  13  24
ENDBRANCH   9  11
ENDBRANCH   6   9
ENDBRANCH   4   6
ENDBRANCH   3   4
ENDBRANCH   2   3
TORSDOF 11
ENDMDL
MODEL       72
REMARK 921   NORMALIZED FREE ENERGY PREDICTED BY IDOCK:   -5.44 KCAL/MOL
REMARK 922        TOTAL FREE ENERGY PREDICTED BY IDOCK:  -10.35 KCAL/MOL
REMARK 923 INTER-LIGAND FREE ENERGY PREDICTED BY IDOCK:   -8.25 KCAL/MOL
REMARK 924 INTRA-LIGAND FREE ENERGY PREDICTED BY IDOCK:   -2.10 KCAL/MOL
REMARK 927      BINDING AFFINITY PREDICTED BY RF-SCORE:    0.00 PKD
ROOT
HETATM    1  C   UNL     1      -9.414  10.540  62.757  1.00  0.00    -0.353 C  
HETATM    2  C   UNL     1      -9.233  10.841  64.236  1.00  0.00    -0.246 C  
ENDROOT
BRANCH   2   3
HETATM    3  C   UNL     1      -9.848   9.763  65.122  1.00  0.00    -0.224 C  
BRANCH   3   4
HETATM    4  N   UNL     1      -8.948   8.576  65.165  1.00  0.00    -0.411 N  
HETATM    5  H   UNL     1      -8.242   8.370  64.458  1.00  0.00     0.000 HD 
BRANCH   4   6
HETATM    6  S   UNL     1      -9.233   7.618  66.512  1.00  0.00    -0.174 S  
HETATM    7  O   UNL     1     -10.468   8.124  67.072  1.00  0.00    -0.312 OA 
HETATM    8  O   UNL     1      -9.083   6.238  66.138  1.00  0.00    -0.155 OA 
BRANCH   6   9
HETATM    9  N   UNL     1      -8.007   8.097  67.548  1.00  0.00    -0.120 N  
HETATM   10  H   UNL     1      -7.573   7.448  68.204  1.00  0.00     0.000 HD 
BRANCH   9  11
HETATM   11  C   UNL     1      -7.609   9.452  67.461  1.00  0.00    -0.091 A  
HETATM   12  C   UNL     1      -8.158  10.484  68.232  1.00  0.00    -0.115 A  
HETATM   13  C   UNL     1      -7.467  11.686  68.019  1.00  0.00    -0.100 A  
HETATM   14  N   UNL     1      -6.642   9.581  66.531  1.00  0.00    -0.070 NA 
HETATM   15  N   UNL     1      -6.464  11.866  67.131  1.00  0.00    -0.140 NA 
HETATM   16  C   UNL     1      -6.114  10.797  66.417  1.00  0.00    -0.118 A  
BRANCH  12  17
HETATM   17  C   UNL     1      -9.357  10.378  69.142  1.00  0.00    -0.211 A  
HETATM   18  C   UNL     1     -10.572  11.044  68.909  1.00  0.00    -0.239 A  
HETATM   19  C   UNL     1     -11.712  10.871  69.705  1.00  0.00    -0.413 A  
HETATM   20  C   UNL     1     -10.483   9.364  71.096  1.00  0.00    -0.392 A  
HETATM   21  C   UNL     1      -9.342   9.572  70.302  1.00  0.00    -0.305 A  
HETATM   22 BR   UNL     1     -13.231   9.690  71.796  1.00  0.00    -0.549 Br 
HETATM   23  C   UNL     1     -11.671  10.004  70.781  1.00  0.00    -0.350 A  
ENDBRANCH  12  17
BRANCH  13  24
HETATM   24  O   UNL     1      -7.828  12.777  68.784  1.00  0.00    -0.076 OA 
BRANCH  24  25
HETATM   25  C   UNL     1      -7.964  14.034  68.120  1.00  0.00    -0.149 C  
BRANCH  25  26
HETATM   26  C   UNL     1      -9.210  14.709  68.693  1.00  0.00    -0.194 C  
BRANCH  26  27
HETATM   27  O   UNL     1      -9.851  15.488  67.686  1.00  0.00    -0.213 OA 
BRANCH  27  28
HETATM   28  C   UNL     1     -10.548  14.719  66.776  1.00  0.00    -0.302 A  
HETATM   29  N   UNL     1     -11.547  13.919  67.192  1.00  0.00    -0.343 NA 
HETATM   30  C   UNL     1     -12.174  13.204  66.232  1.00  0.00    -0.355 A  
HETATM   31  C   UNL     1     -11.840  13.263  64.899  1.00  0.00    -0.362 A  
HETATM   32  C   UNL     1     -10.801  14.109  64.589  1.00  0.00    -0.386 A  
HETATM   33 BR   UNL     1     -12.740  12.260  63.594  1.00  0.00    -0.427 Br 
HETATM   34  N   UNL     1     -10.137  14.847  65.505  1.00  0.00    -0.353 NA 
ENDBRANCH  27  28
ENDBRANCH  26  27
ENDBRANCH  25  26
ENDBRANCH  24  25
ENDBRANCH  13  24
ENDBRANCH   9  11
ENDBRANCH   6   9
ENDBRANCH   4   6
ENDBRANCH   3   4
ENDBRANCH   2   3
TORSDOF 11
ENDMDL
MODEL       73
REMARK 921   NORMALIZED FREE ENERGY PREDICTED BY IDOCK:   -5.44 KCAL/MOL
REMARK 922        TOTAL FREE ENERGY PREDICTED BY IDOCK:  -10.35 KCAL/MOL
REMARK 923 INTER-LIGAND FREE ENERGY PREDICTED BY IDOCK:   -8.26 KCAL/MOL
REMARK 924 INTRA-LIGAND FREE ENERGY PREDICTED BY IDOCK:   -2.08 KCAL/MOL
REMARK 927      BINDING AFFINITY PREDICTED BY RF-SCORE:    0.00 PKD
ROOT
HETATM    1  C   UNL     1      -9.507   3.443  69.105  1.00  0.00    -0.211 C  
HETATM    2  C   UNL     1      -9.411   4.331  70.336  1.00  0.00    -0.245 C  
ENDROOT
BRANCH   2   3
HETATM    3  C   UNL     1     -10.439   5.456  70.315  1.00  0.00    -0.285 C  
BRANCH   3   4
HETATM    4  N   UNL     1     -10.170   6.402  71.435  1.00  0.00    -0.197 N  
HETATM    5  H   UNL     1      -9.924   6.110  72.380  1.00  0.00     0.000 HD 
BRANCH   4   6
HETATM    6  S   UNL     1     -10.322   8.002  70.956  1.00  0.00    -0.203 S  
HETATM    7  O   UNL     1     -11.604   8.071  70.288  1.00  0.00    -0.156 OA 
HETATM    8  O   UNL     1     -10.007   8.851  72.074  1.00  0.00    -0.329 OA 
BRANCH   6   9
HETATM    9  N   UNL     1      -9.153   8.123  69.763  1.00  0.00    -0.148 N  
HETATM   10  H   UNL     1      -8.336   7.513  69.746  1.00  0.00     0.000 HD 
BRANCH   9  11
HETATM   11  C   UNL     1      -9.364   9.118  68.779  1.00  0.00    -0.139 A  
HETATM   12  C   UNL     1      -9.672   8.847  67.439  1.00  0.00    -0.227 A  
HETATM   13  C   UNL     1      -9.955  10.031  66.745  1.00  0.00    -0.210 A  
HETATM   14  N   UNL     1      -9.216  10.338  69.331  1.00  0.00    -0.203 NA 
HETATM   15  N   UNL     1      -9.863  11.280  67.255  1.00  0.00    -0.181 NA 
HETATM   16  C   UNL     1      -9.479  11.367  68.528  1.00  0.00    -0.183 A  
BRANCH  12  17
HETATM   17  C   UNL     1      -9.664   7.491  66.779  1.00  0.00    -0.283 A  
HETATM   18  C   UNL     1      -8.567   6.980  66.064  1.00  0.00    -0.154 A  
HETATM   19  C   UNL     1      -8.529   5.685  65.530  1.00  0.00    -0.146 A  
HETATM   20  C   UNL     1     -10.745   5.309  66.347  1.00  0.00    -0.290 A  
HETATM   21  C   UNL     1     -10.774   6.621  66.850  1.00  0.00    -0.401 A  
HETATM   22 BR   UNL     1      -9.527   3.063  65.074  1.00  0.00    -0.078 Br 
HETATM   23  C   UNL     1      -9.611   4.841  65.702  1.00  0.00    -0.174 A  
ENDBRANCH  12  17
BRANCH  13  24
HETATM   24  O   UNL     1     -10.373   9.922  65.434  1.00  0.00    -0.207 OA 
BRANCH  24  25
HETATM   25  C   UNL     1      -9.832  10.844  64.487  1.00  0.00    -0.300 C  
BRANCH  25  26
HETATM   26  C   UNL     1     -11.000  11.352  63.641  1.00  0.00    -0.363 C  
BRANCH  26  27
HETATM   27  O   UNL     1     -10.939  12.771  63.527  1.00  0.00    -0.412 OA 
BRANCH  27  28
HETATM   28  C   UNL     1     -11.054  13.413  64.743  1.00  0.00    -0.351 A  
HETATM   29  N   UNL     1     -10.071  14.226  65.174  1.00  0.00    -0.365 NA 
HETATM   30  C   UNL     1     -10.270  14.813  66.375  1.00  0.00    -0.291 A  
HETATM   31  C   UNL     1     -11.396  14.616  67.141  1.00  0.00    -0.356 A  
HETATM   32  C   UNL     1     -12.331  13.762  66.605  1.00  0.00    -0.357 A  
HETATM   33 BR   UNL     1     -11.638  15.456  68.801  1.00  0.00    -0.386 Br 
HETATM   34  N   UNL     1     -12.186  13.147  65.412  1.00  0.00    -0.435 NA 
ENDBRANCH  27  28
ENDBRANCH  26  27
ENDBRANCH  25  26
ENDBRANCH  24  25
ENDBRANCH  13  24
ENDBRANCH   9  11
ENDBRANCH   6   9
ENDBRANCH   4   6
ENDBRANCH   3   4
ENDBRANCH   2   3
TORSDOF 11
ENDMDL
MODEL       74
REMARK 921   NORMALIZED FREE ENERGY PREDICTED BY IDOCK:   -5.37 KCAL/MOL
REMARK 922        TOTAL FREE ENERGY PREDICTED BY IDOCK:  -10.24 KCAL/MOL
REMARK 923 INTER-LIGAND FREE ENERGY PREDICTED BY IDOCK:   -8.55 KCAL/MOL
REMARK 924 INTRA-LIGAND FREE ENERGY PREDICTED BY IDOCK:   -1.69 KCAL/MOL
REMARK 927      BINDING AFFINITY PREDICTED BY RF-SCORE:    0.00 PKD
ROOT
HETATM    1  C   UNL     1      -9.940  16.524  67.672  1.00  0.00    -0.254 C  
HETATM    2  C   UNL     1      -9.178  15.883  66.523  1.00  0.00    -0.310 C  
ENDROOT
BRANCH   2   3
HETATM    3  C   UNL     1     -10.057  15.679  65.294  1.00  0.00    -0.270 C  
BRANCH   3   4
HETATM    4  N   UNL     1     -10.347  14.227  65.121  1.00  0.00    -0.396 N  
HETATM    5  H   UNL     1      -9.629  13.506  65.054  1.00  0.00     0.000 HD 
BRANCH   4   6
HETATM    6  S   UNL     1     -11.994  13.919  65.049  1.00  0.00    -0.414 S  
HETATM    7  O   UNL     1     -12.477  14.167  66.391  1.00  0.00    -0.461 OA 
HETATM    8  O   UNL     1     -12.544  14.604  63.910  1.00  0.00    -0.834 OA 
BRANCH   6   9
HETATM    9  N   UNL     1     -12.030  12.260  64.828  1.00  0.00    -0.378 N  
HETATM   10  H   UNL     1     -12.898  11.726  64.892  1.00  0.00     0.000 HD 
BRANCH   9  11
HETATM   11  C   UNL     1     -10.790  11.639  64.545  1.00  0.00    -0.324 A  
HETATM   12  C   UNL     1     -10.094  10.827  65.450  1.00  0.00    -0.347 A  
HETATM   13  C   UNL     1      -8.972  10.250  64.837  1.00  0.00    -0.201 A  
HETATM   14  N   UNL     1     -10.399  11.957  63.296  1.00  0.00    -0.426 NA 
HETATM   15  N   UNL     1      -8.553  10.499  63.576  1.00  0.00    -0.176 NA 
HETATM   16  C   UNL     1      -9.287  11.360  62.873  1.00  0.00    -0.323 A  
BRANCH  12  17
HETATM   17  C   UNL     1     -10.436  10.612  66.903  1.00  0.00    -0.304 A  
HETATM   18  C   UNL     1     -10.652  11.659  67.814  1.00  0.00    -0.227 A  
HETATM   19  C   UNL     1     -11.060  11.457  69.140  1.00  0.00    -0.317 A  
HETATM   20  C   UNL     1     -11.015   9.095  68.768  1.00  0.00    -0.011 A  
HETATM   21  C   UNL     1     -10.580   9.318  67.450  1.00  0.00    -0.324 A  
HETATM   22 BR   UNL     1     -11.916   9.897  71.355  1.00  0.00    -0.486 Br 
HETATM   23  C   UNL     1     -11.270  10.171  69.603  1.00  0.00    -0.261 A  
ENDBRANCH  12  17
BRANCH  13  24
HETATM   24  O   UNL     1      -8.235   9.344  65.572  1.00  0.00    -0.119 OA 
BRANCH  24  25
HETATM   25  C   UNL     1      -7.923   8.092  64.959  1.00  0.00    -0.139 C  
BRANCH  25  26
HETATM   26  C   UNL     1      -6.975   7.355  65.906  1.00  0.00    -0.061 C  
BRANCH  26  27
HETATM   27  O   UNL     1      -7.480   6.052  66.185  1.00  0.00    -0.082 OA 
BRANCH  27  28
HETATM   28  C   UNL     1      -8.278   6.015  67.311  1.00  0.00    -0.106 A  
HETATM   29  N   UNL     1      -7.765   6.337  68.513  1.00  0.00    -0.099 NA 
HETATM   30  C   UNL     1      -8.620   6.275  69.558  1.00  0.00    -0.132 A  
HETATM   31  C   UNL     1      -9.941   5.910  69.440  1.00  0.00    -0.178 A  
HETATM   32  C   UNL     1     -10.355   5.598  68.167  1.00  0.00    -0.197 A  
HETATM   33 BR   UNL     1     -11.099   5.844  70.915  1.00  0.00    -0.263 Br 
HETATM   34  N   UNL     1      -9.547   5.641  67.086  1.00  0.00    -0.125 NA 
ENDBRANCH  27  28
ENDBRANCH  26  27
ENDBRANCH  25  26
ENDBRANCH  24  25
ENDBRANCH  13  24
ENDBRANCH   9  11
ENDBRANCH   6   9
ENDBRANCH   4   6
ENDBRANCH   3   4
ENDBRANCH   2   3
TORSDOF 11
ENDMDL
MODEL       75
REMARK 921   NORMALIZED FREE ENERGY PREDICTED BY IDOCK:   -5.37 KCAL/MOL
REMARK 922        TOTAL FREE ENERGY PREDICTED BY IDOCK:  -10.24 KCAL/MOL
REMARK 923 INTER-LIGAND FREE ENERGY PREDICTED BY IDOCK:   -8.76 KCAL/MOL
REMARK 924 INTRA-LIGAND FREE ENERGY PREDICTED BY IDOCK:   -1.47 KCAL/MOL
REMARK 927      BINDING AFFINITY PREDICTED BY RF-SCORE:    0.00 PKD
ROOT
HETATM    1  C   UNL     1      -6.681   5.311  62.392  1.00  0.00    -0.026 C  
HETATM    2  C   UNL     1      -7.829   5.863  63.223  1.00  0.00    -0.103 C  
ENDROOT
BRANCH   2   3
HETATM    3  C   UNL     1      -7.368   6.941  64.197  1.00  0.00    -0.086 C  
BRANCH   3   4
HETATM    4  N   UNL     1      -7.986   8.246  63.830  1.00  0.00    -0.152 N  
HETATM    5  H   UNL     1      -8.249   8.505  62.879  1.00  0.00     0.000 HD 
BRANCH   4   6
HETATM    6  S   UNL     1      -8.196   9.240  65.164  1.00  0.00    -0.151 S  
HETATM    7  O   UNL     1      -8.015   8.371  66.308  1.00  0.00    -0.095 OA 
HETATM    8  O   UNL     1      -7.404  10.428  64.986  1.00  0.00    -0.134 OA 
BRANCH   6   9
HETATM    9  N   UNL     1      -9.831   9.592  65.085  1.00  0.00    -0.437 N  
HETATM   10  H   UNL     1     -10.532   8.864  64.941  1.00  0.00     0.000 HD 
BRANCH   9  11
HETATM   11  C   UNL     1     -10.187  10.954  65.228  1.00  0.00    -0.288 A  
HETATM   12  C   UNL     1     -10.282  11.616  66.458  1.00  0.00    -0.249 A  
HETATM   13  C   UNL     1     -10.519  12.985  66.269  1.00  0.00    -0.276 A  
HETATM   14  N   UNL     1     -10.419  11.491  64.014  1.00  0.00    -0.334 NA 
HETATM   15  N   UNL     1     -10.719  13.588  65.075  1.00  0.00    -0.335 NA 
HETATM   16  C   UNL     1     -10.675  12.797  64.004  1.00  0.00    -0.426 A  
BRANCH  12  17
HETATM   17  C   UNL     1     -10.198  10.980  67.824  1.00  0.00    -0.210 A  
HETATM   18  C   UNL     1     -11.319  10.538  68.546  1.00  0.00    -0.320 A  
HETATM   19  C   UNL     1     -11.230   9.865  69.772  1.00  0.00    -0.279 A  
HETATM   20  C   UNL     1      -8.849  10.070  69.686  1.00  0.00    -0.217 A  
HETATM   21  C   UNL     1      -8.960  10.768  68.471  1.00  0.00    -0.160 A  
HETATM   22 BR   UNL     1      -9.858   8.612  71.923  1.00  0.00    -0.394 Br 
HETATM   23  C   UNL     1      -9.988   9.606  70.323  1.00  0.00    -0.270 A  
ENDBRANCH  12  17
BRANCH  13  24
HETATM   24  O   UNL     1     -10.540  13.793  67.387  1.00  0.00    -0.257 OA 
BRANCH  24  25
HETATM   25  C   UNL     1     -10.156  15.159  67.225  1.00  0.00    -0.235 C  
BRANCH  25  26
HETATM   26  C   UNL     1     -11.115  15.997  68.070  1.00  0.00    -0.334 C  
BRANCH  26  27
HETATM   27  O   UNL     1     -12.158  15.175  68.586  1.00  0.00    -0.264 OA 
BRANCH  27  28
HETATM   28  C   UNL     1     -12.272  15.251  69.959  1.00  0.00    -0.349 A  
HETATM   29  N   UNL     1     -13.100  14.417  70.616  1.00  0.00    -0.301 NA 
HETATM   30  C   UNL     1     -13.145  14.563  71.959  1.00  0.00    -0.344 A  
HETATM   31  C   UNL     1     -12.406  15.495  72.649  1.00  0.00    -0.414 A  
HETATM   32  C   UNL     1     -11.599  16.297  71.877  1.00  0.00    -0.345 A  
HETATM   33 BR   UNL     1     -12.492  15.661  74.516  1.00  0.00    -0.605 Br 
HETATM   34  N   UNL     1     -11.514  16.198  70.532  1.00  0.00    -0.373 NA 
ENDBRANCH  27  28
ENDBRANCH  26  27
ENDBRANCH  25  26
ENDBRANCH  24  25
ENDBRANCH  13  24
ENDBRANCH   9  11
ENDBRANCH   6   9
ENDBRANCH   4   6
ENDBRANCH   3   4
ENDBRANCH   2   3
TORSDOF 11
ENDMDL
MODEL       76
REMARK 921   NORMALIZED FREE ENERGY PREDICTED BY IDOCK:   -5.35 KCAL/MOL
REMARK 922        TOTAL FREE ENERGY PREDICTED BY IDOCK:  -10.20 KCAL/MOL
REMARK 923 INTER-LIGAND FREE ENERGY PREDICTED BY IDOCK:   -7.88 KCAL/MOL
REMARK 924 INTRA-LIGAND FREE ENERGY PREDICTED BY IDOCK:   -2.32 KCAL/MOL
REMARK 927      BINDING AFFINITY PREDICTED BY RF-SCORE:    0.00 PKD
ROOT
HETATM    1  C   UNL     1      -9.977  16.097  66.183  1.00  0.00    -0.357 C  
HETATM    2  C   UNL     1     -10.360  15.243  64.985  1.00  0.00    -0.375 C  
ENDROOT
BRANCH   2   3
HETATM    3  C   UNL     1     -10.533  13.775  65.357  1.00  0.00    -0.331 C  
BRANCH   3   4
HETATM    4  N   UNL     1     -10.156  13.572  66.785  1.00  0.00    -0.262 N  
HETATM    5  H   UNL     1      -9.233  13.779  67.165  1.00  0.00     0.000 HD 
BRANCH   4   6
HETATM    6  S   UNL     1     -11.429  12.963  67.691  1.00  0.00    -0.356 S  
HETATM    7  O   UNL     1     -12.180  14.128  68.108  1.00  0.00    -0.306 OA 
HETATM    8  O   UNL     1     -12.045  11.888  66.959  1.00  0.00    -0.600 OA 
BRANCH   6   9
HETATM    9  N   UNL     1     -10.644  12.388  69.054  1.00  0.00    -0.410 N  
HETATM   10  H   UNL     1      -9.718  12.722  69.324  1.00  0.00     0.000 HD 
BRANCH   9  11
HETATM   11  C   UNL     1     -11.337  11.414  69.811  1.00  0.00    -0.255 A  
HETATM   12  C   UNL     1     -11.071  10.039  69.755  1.00  0.00    -0.319 A  
HETATM   13  C   UNL     1     -11.825   9.348  70.714  1.00  0.00    -0.256 A  
HETATM   14  N   UNL     1     -12.275  12.013  70.571  1.00  0.00    -0.361 NA 
HETATM   15  N   UNL     1     -12.750   9.900  71.531  1.00  0.00    -0.380 NA 
HETATM   16  C   UNL     1     -12.939  11.212  71.401  1.00  0.00    -0.403 A  
BRANCH  12  17
HETATM   17  C   UNL     1     -10.149   9.348  68.782  1.00  0.00    -0.208 A  
HETATM   18  C   UNL     1     -10.564   8.855  67.533  1.00  0.00    -0.307 A  
HETATM   19  C   UNL     1      -9.687   8.296  66.594  1.00  0.00    -0.321 A  
HETATM   20  C   UNL     1      -7.878   8.628  68.121  1.00  0.00    -0.103 A  
HETATM   21  C   UNL     1      -8.777   9.161  69.060  1.00  0.00    -0.135 A  
HETATM   22 BR   UNL     1      -7.138   7.555  65.582  1.00  0.00    -0.062 Br 
HETATM   23  C   UNL     1      -8.337   8.213  66.881  1.00  0.00    -0.115 A  
ENDBRANCH  12  17
BRANCH  13  24
HETATM   24  O   UNL     1     -11.601   7.993  70.850  1.00  0.00    -0.283 OA 
BRANCH  24  25
HETATM   25  C   UNL     1     -10.711   7.569  71.884  1.00  0.00    -0.217 C  
BRANCH  25  26
HETATM   26  C   UNL     1     -10.009   6.308  71.381  1.00  0.00    -0.186 C  
BRANCH  26  27
HETATM   27  O   UNL     1     -10.630   5.847  70.184  1.00  0.00    -0.241 OA 
BRANCH  27  28
HETATM   28  C   UNL     1      -9.724   5.357  69.265  1.00  0.00    -0.164 A  
HETATM   29  N   UNL     1      -8.408   5.349  69.551  1.00  0.00    -0.099 NA 
HETATM   30  C   UNL     1      -7.596   4.850  68.593  1.00  0.00    -0.077 A  
HETATM   31  C   UNL     1      -8.049   4.370  67.386  1.00  0.00    -0.100 A  
HETATM   32  C   UNL     1      -9.409   4.432  67.199  1.00  0.00    -0.155 A  
HETATM   33 BR   UNL     1      -6.888   3.677  66.084  1.00  0.00    -0.058 Br 
HETATM   34  N   UNL     1     -10.269   4.920  68.119  1.00  0.00    -0.084 NA 
ENDBRANCH  27  28
ENDBRANCH  26  27
ENDBRANCH  25  26
ENDBRANCH  24  25
ENDBRANCH  13  24
ENDBRANCH   9  11
ENDBRANCH   6   9
ENDBRANCH   4   6
ENDBRANCH   3   4
ENDBRANCH   2   3
TORSDOF 11
ENDMDL
MODEL       77
REMARK 921   NORMALIZED FREE ENERGY PREDICTED BY IDOCK:   -5.34 KCAL/MOL
REMARK 922        TOTAL FREE ENERGY PREDICTED BY IDOCK:  -10.18 KCAL/MOL
REMARK 923 INTER-LIGAND FREE ENERGY PREDICTED BY IDOCK:   -8.19 KCAL/MOL
REMARK 924 INTRA-LIGAND FREE ENERGY PREDICTED BY IDOCK:   -1.99 KCAL/MOL
REMARK 927      BINDING AFFINITY PREDICTED BY RF-SCORE:    0.00 PKD
ROOT
HETATM    1  C   UNL     1     -13.159  10.967  71.781  1.00  0.00    -0.554 C  
HETATM    2  C   UNL     1     -11.964  10.059  71.543  1.00  0.00    -0.438 C  
ENDROOT
BRANCH   2   3
HETATM    3  C   UNL     1     -11.170  10.463  70.306  1.00  0.00    -0.320 C  
BRANCH   3   4
HETATM    4  N   UNL     1      -9.793   9.898  70.388  1.00  0.00    -0.377 N  
HETATM    5  H   UNL     1      -9.023  10.345  70.884  1.00  0.00     0.000 HD 
BRANCH   4   6
HETATM    6  S   UNL     1      -9.661   8.442  69.566  1.00  0.00    -0.172 S  
HETATM    7  O   UNL     1      -9.025   7.542  70.504  1.00  0.00    -0.150 OA 
HETATM    8  O   UNL     1     -10.930   8.133  68.965  1.00  0.00    -0.057 OA 
BRANCH   6   9
HETATM    9  N   UNL     1      -8.515   8.802  68.398  1.00  0.00    -0.129 N  
HETATM   10  H   UNL     1      -8.309   8.162  67.631  1.00  0.00     0.000 HD 
BRANCH   9  11
HETATM   11  C   UNL     1      -7.849  10.043  68.537  1.00  0.00    -0.093 A  
HETATM   12  C   UNL     1      -8.250  11.225  67.901  1.00  0.00    -0.123 A  
HETATM   13  C   UNL     1      -7.478  12.311  68.338  1.00  0.00    -0.122 A  
HETATM   14  N   UNL     1      -6.789   9.899  69.356  1.00  0.00    -0.055 NA 
HETATM   15  N   UNL     1      -6.429  12.235  69.188  1.00  0.00    -0.093 NA 
HETATM   16  C   UNL     1      -6.129  11.019  69.642  1.00  0.00    -0.084 A  
BRANCH  12  17
HETATM   17  C   UNL     1      -9.324  11.354  66.849  1.00  0.00    -0.191 A  
HETATM   18  C   UNL     1     -10.582  11.930  67.089  1.00  0.00    -0.264 A  
HETATM   19  C   UNL     1     -11.542  12.131  66.088  1.00  0.00    -0.418 A  
HETATM   20  C   UNL     1     -10.063  11.127  64.500  1.00  0.00    -0.364 A  
HETATM   21  C   UNL     1      -9.124  10.909  65.523  1.00  0.00    -0.221 A  
HETATM   22 BR   UNL     1     -12.512  12.115  63.417  1.00  0.00    -0.500 Br 
HETATM   23  C   UNL     1     -11.264  11.755  64.787  1.00  0.00    -0.271 A  
ENDBRANCH  12  17
BRANCH  13  24
HETATM   24  O   UNL     1      -7.816  13.566  67.875  1.00  0.00    -0.129 OA 
BRANCH  24  25
HETATM   25  C   UNL     1      -7.535  14.682  68.721  1.00  0.00    -0.135 C  
BRANCH  25  26
HETATM   26  C   UNL     1      -8.679  15.680  68.540  1.00  0.00    -0.182 C  
BRANCH  26  27
HETATM   27  O   UNL     1      -9.884  14.990  68.221  1.00  0.00    -0.211 OA 
BRANCH  27  28
HETATM   28  C   UNL     1     -10.833  15.079  69.219  1.00  0.00    -0.261 A  
HETATM   29  N   UNL     1     -11.902  14.261  69.210  1.00  0.00    -0.310 NA 
HETATM   30  C   UNL     1     -12.778  14.417  70.227  1.00  0.00    -0.263 A  
HETATM   31  C   UNL     1     -12.621  15.345  71.230  1.00  0.00    -0.412 A  
HETATM   32  C   UNL     1     -11.496  16.131  71.136  1.00  0.00    -0.382 A  
HETATM   33 BR   UNL     1     -13.857  15.527  72.630  1.00  0.00    -0.617 Br 
HETATM   34  N   UNL     1     -10.588  16.020  70.143  1.00  0.00    -0.297 NA 
ENDBRANCH  27  28
ENDBRANCH  26  27
ENDBRANCH  25  26
ENDBRANCH  24  25
ENDBRANCH  13  24
ENDBRANCH   9  11
ENDBRANCH   6   9
ENDBRANCH   4   6
ENDBRANCH   3   4
ENDBRANCH   2   3
TORSDOF 11
ENDMDL
MODEL       78
REMARK 921   NORMALIZED FREE ENERGY PREDICTED BY IDOCK:   -5.32 KCAL/MOL
REMARK 922        TOTAL FREE ENERGY PREDICTED BY IDOCK:  -10.16 KCAL/MOL
REMARK 923 INTER-LIGAND FREE ENERGY PREDICTED BY IDOCK:   -8.35 KCAL/MOL
REMARK 924 INTRA-LIGAND FREE ENERGY PREDICTED BY IDOCK:   -1.81 KCAL/MOL
REMARK 927      BINDING AFFINITY PREDICTED BY RF-SCORE:    0.00 PKD
ROOT
HETATM    1  C   UNL     1      -8.294   5.538  68.634  1.00  0.00    -0.101 C  
HETATM    2  C   UNL     1      -7.578   6.758  68.076  1.00  0.00    -0.107 C  
ENDROOT
BRANCH   2   3
HETATM    3  C   UNL     1      -6.899   6.467  66.743  1.00  0.00    -0.066 C  
BRANCH   3   4
HETATM    4  N   UNL     1      -6.342   7.728  66.178  1.00  0.00    -0.045 N  
HETATM    5  H   UNL     1      -5.549   8.230  66.576  1.00  0.00     0.000 HD 
BRANCH   4   6
HETATM    6  S   UNL     1      -7.174   8.226  64.809  1.00  0.00    -0.085 S  
HETATM    7  O   UNL     1      -6.198   8.178  63.742  1.00  0.00    -0.066 OA 
HETATM    8  O   UNL     1      -8.414   7.500  64.732  1.00  0.00    -0.059 OA 
BRANCH   6   9
HETATM    9  N   UNL     1      -7.446   9.846  65.135  1.00  0.00    -0.127 N  
HETATM   10  H   UNL     1      -6.781  10.407  65.668  1.00  0.00     0.000 HD 
BRANCH   9  11
HETATM   11  C   UNL     1      -8.650  10.392  64.630  1.00  0.00    -0.185 A  
HETATM   12  C   UNL     1      -9.790  10.635  65.407  1.00  0.00    -0.325 A  
HETATM   13  C   UNL     1     -10.769  11.302  64.657  1.00  0.00    -0.303 A  
HETATM   14  N   UNL     1      -8.521  10.628  63.309  1.00  0.00    -0.150 NA 
HETATM   15  N   UNL     1     -10.680  11.602  63.342  1.00  0.00    -0.396 NA 
HETATM   16  C   UNL     1      -9.557  11.229  62.730  1.00  0.00    -0.296 A  
BRANCH  12  17
HETATM   17  C   UNL     1     -10.001  10.211  66.839  1.00  0.00    -0.259 A  
HETATM   18  C   UNL     1     -10.412   8.922  67.216  1.00  0.00    -0.348 A  
HETATM   19  C   UNL     1     -10.518   8.505  68.550  1.00  0.00    -0.205 A  
HETATM   20  C   UNL     1      -9.852  10.689  69.261  1.00  0.00    -0.201 A  
HETATM   21  C   UNL     1      -9.779  11.096  67.917  1.00  0.00    -0.184 A  
HETATM   22 BR   UNL     1     -10.250   8.801  71.364  1.00  0.00    -0.378 Br 
HETATM   23  C   UNL     1     -10.206   9.386  69.570  1.00  0.00    -0.209 A  
ENDBRANCH  12  17
BRANCH  13  24
HETATM   24  O   UNL     1     -11.917  11.701  65.312  1.00  0.00    -0.174 OA 
BRANCH  24  25
HETATM   25  C   UNL     1     -12.478  12.964  64.955  1.00  0.00    -0.492 C  
BRANCH  25  26
HETATM   26  C   UNL     1     -11.945  13.989  65.957  1.00  0.00    -0.416 C  
BRANCH  26  27
HETATM   27  O   UNL     1     -10.975  14.825  65.333  1.00  0.00    -0.321 OA 
BRANCH  27  28
HETATM   28  C   UNL     1     -10.725  15.981  66.046  1.00  0.00    -0.267 A  
HETATM   29  N   UNL     1     -10.479  17.134  65.397  1.00  0.00    -0.651 NA 
HETATM   30  C   UNL     1     -10.247  18.214  66.176  1.00  0.00    -0.367 A  
HETATM   31  C   UNL     1     -10.252  18.176  67.551  1.00  0.00    -0.371 A  
HETATM   32  C   UNL     1     -10.509  16.945  68.106  1.00  0.00    -0.350 A  
HETATM   33 BR   UNL     1      -9.931  19.701  68.598  1.00  0.00    -0.538 Br 
HETATM   34  N   UNL     1     -10.747  15.832  67.379  1.00  0.00    -0.314 NA 
ENDBRANCH  27  28
ENDBRANCH  26  27
ENDBRANCH  25  26
ENDBRANCH  24  25
ENDBRANCH  13  24
ENDBRANCH   9  11
ENDBRANCH   6   9
ENDBRANCH   4   6
ENDBRANCH   3   4
ENDBRANCH   2   3
TORSDOF 11
ENDMDL
MODEL       79
REMARK 921   NORMALIZED FREE ENERGY PREDICTED BY IDOCK:   -5.32 KCAL/MOL
REMARK 922        TOTAL FREE ENERGY PREDICTED BY IDOCK:  -10.15 KCAL/MOL
REMARK 923 INTER-LIGAND FREE ENERGY PREDICTED BY IDOCK:   -9.88 KCAL/MOL
REMARK 924 INTRA-LIGAND FREE ENERGY PREDICTED BY IDOCK:   -0.27 KCAL/MOL
REMARK 927      BINDING AFFINITY PREDICTED BY RF-SCORE:    0.00 PKD
ROOT
HETATM    1  C   UNL     1      -9.423   5.160  70.934  1.00  0.00    -0.223 C  
HETATM    2  C   UNL     1     -10.455   6.271  70.823  1.00  0.00    -0.273 C  
ENDROOT
BRANCH   2   3
HETATM    3  C   UNL     1     -10.140   7.237  69.686  1.00  0.00    -0.194 C  
BRANCH   3   4
HETATM    4  N   UNL     1     -11.251   8.219  69.541  1.00  0.00    -0.439 N  
HETATM    5  H   UNL     1     -12.124   8.024  69.052  1.00  0.00     0.000 HD 
BRANCH   4   6
HETATM    6  S   UNL     1     -10.896   9.684  70.278  1.00  0.00    -0.308 S  
HETATM    7  O   UNL     1     -11.040   9.432  71.696  1.00  0.00    -0.369 OA 
HETATM    8  O   UNL     1      -9.671  10.196  69.722  1.00  0.00    -0.230 OA 
BRANCH   6   9
HETATM    9  N   UNL     1     -12.202  10.629  69.825  1.00  0.00    -0.492 N  
HETATM   10  H   UNL     1     -13.107  10.556  70.291  1.00  0.00     0.000 HD 
BRANCH   9  11
HETATM   11  C   UNL     1     -11.980  11.534  68.760  1.00  0.00    -0.271 A  
HETATM   12  C   UNL     1     -11.871  12.922  68.918  1.00  0.00    -0.352 A  
HETATM   13  C   UNL     1     -11.519  13.534  67.707  1.00  0.00    -0.315 A  
HETATM   14  N   UNL     1     -11.901  10.856  67.599  1.00  0.00    -0.490 NA 
HETATM   15  N   UNL     1     -11.385  12.901  66.519  1.00  0.00    -0.303 NA 
HETATM   16  C   UNL     1     -11.602  11.587  66.527  1.00  0.00     0.019 A  
BRANCH  12  17
HETATM   17  C   UNL     1     -12.134  13.700  70.183  1.00  0.00    -0.431 A  
HETATM   18  C   UNL     1     -13.040  13.288  71.176  1.00  0.00    -0.224 A  
HETATM   19  C   UNL     1     -13.213  13.965  72.390  1.00  0.00    -0.587 A  
HETATM   20  C   UNL     1     -11.601  15.586  71.691  1.00  0.00    -0.502 A  
HETATM   21  C   UNL     1     -11.461  14.909  70.467  1.00  0.00    -0.310 A  
HETATM   22 BR   UNL     1     -12.624  15.956  74.330  1.00  0.00    -0.569 Br 
HETATM   23  C   UNL     1     -12.467  15.098  72.656  1.00  0.00    -0.376 A  
ENDBRANCH  12  17
BRANCH  13  24
HETATM   24  O   UNL     1     -11.276  14.892  67.721  1.00  0.00    -0.297 OA 
BRANCH  24  25
HETATM   25  C   UNL     1     -10.068  15.355  67.116  1.00  0.00    -0.245 C  
BRANCH  25  26
HETATM   26  C   UNL     1      -9.621  16.590  67.898  1.00  0.00    -0.233 C  
BRANCH  26  27
HETATM   27  O   UNL     1      -8.205  16.732  67.821  1.00  0.00    -0.179 OA 
BRANCH  27  28
HETATM   28  C   UNL     1      -7.813  17.739  66.962  1.00  0.00    -0.213 A  
HETATM   29  N   UNL     1      -8.443  18.928  66.983  1.00  0.00    -0.274 NA 
HETATM   30  C   UNL     1      -7.991  19.855  66.110  1.00  0.00    -0.328 A  
HETATM   31  C   UNL     1      -6.951  19.634  65.236  1.00  0.00    -0.175 A  
HETATM   32  C   UNL     1      -6.385  18.383  65.298  1.00  0.00    -0.188 A  
HETATM   33 BR   UNL     1      -6.347  20.950  64.043  1.00  0.00    -0.246 Br 
HETATM   34  N   UNL     1      -6.795  17.417  66.149  1.00  0.00    -0.261 NA 
ENDBRANCH  27  28
ENDBRANCH  26  27
ENDBRANCH  25  26
ENDBRANCH  24  25
ENDBRANCH  13  24
ENDBRANCH   9  11
ENDBRANCH   6   9
ENDBRANCH   4   6
ENDBRANCH   3   4
ENDBRANCH   2   3
TORSDOF 11
ENDMDL
MODEL       80
REMARK 921   NORMALIZED FREE ENERGY PREDICTED BY IDOCK:   -5.29 KCAL/MOL
REMARK 922        TOTAL FREE ENERGY PREDICTED BY IDOCK:  -10.11 KCAL/MOL
REMARK 923 INTER-LIGAND FREE ENERGY PREDICTED BY IDOCK:   -9.02 KCAL/MOL
REMARK 924 INTRA-LIGAND FREE ENERGY PREDICTED BY IDOCK:   -1.10 KCAL/MOL
REMARK 927      BINDING AFFINITY PREDICTED BY RF-SCORE:    0.00 PKD
ROOT
HETATM    1  C   UNL     1      -9.870  20.246  67.396  1.00  0.00    -0.586 C  
HETATM    2  C   UNL     1     -10.251  19.412  66.183  1.00  0.00    -0.570 C  
ENDROOT
BRANCH   2   3
HETATM    3  C   UNL     1     -10.471  17.946  66.538  1.00  0.00    -0.313 C  
BRANCH   3   4
HETATM    4  N   UNL     1     -10.059  17.705  67.950  1.00  0.00    -0.327 N  
HETATM    5  H   UNL     1      -9.861  18.448  68.621  1.00  0.00     0.000 HD 
BRANCH   4   6
HETATM    6  S   UNL     1      -9.960  16.069  68.306  1.00  0.00    -0.224 S  
HETATM    7  O   UNL     1      -9.355  15.470  67.136  1.00  0.00    -0.207 OA 
HETATM    8  O   UNL     1      -9.386  15.915  69.616  1.00  0.00    -0.249 OA 
BRANCH   6   9
HETATM    9  N   UNL     1     -11.571  15.612  68.298  1.00  0.00    -0.353 N  
HETATM   10  H   UNL     1     -12.271  16.113  67.750  1.00  0.00     0.000 HD 
BRANCH   9  11
HETATM   11  C   UNL     1     -11.907  14.491  69.094  1.00  0.00    -0.319 A  
HETATM   12  C   UNL     1     -11.717  13.161  68.698  1.00  0.00    -0.362 A  
HETATM   13  C   UNL     1     -12.018  12.282  69.749  1.00  0.00    -0.295 A  
HETATM   14  N   UNL     1     -12.434  14.907  70.262  1.00  0.00    -0.340 NA 
HETATM   15  N   UNL     1     -12.510  12.643  70.955  1.00  0.00    -0.335 NA 
HETATM   16  C   UNL     1     -12.709  13.947  71.142  1.00  0.00    -0.367 A  
BRANCH  12  17
HETATM   17  C   UNL     1     -11.295  12.688  67.329  1.00  0.00    -0.372 A  
HETATM   18  C   UNL     1     -12.024  12.950  66.157  1.00  0.00    -0.491 A  
HETATM   19  C   UNL     1     -11.583  12.589  64.877  1.00  0.00    -0.386 A  
HETATM   20  C   UNL     1      -9.634  11.604  65.852  1.00  0.00    -0.250 A  
HETATM   21  C   UNL     1     -10.107  11.950  67.129  1.00  0.00    -0.222 A  
HETATM   22 BR   UNL     1      -9.724  11.544  63.000  1.00  0.00    -0.293 Br 
HETATM   23  C   UNL     1     -10.370  11.943  64.727  1.00  0.00    -0.281 A  
ENDBRANCH  12  17
BRANCH  13  24
HETATM   24  O   UNL     1     -11.785  10.937  69.546  1.00  0.00    -0.275 OA 
BRANCH  24  25
HETATM   25  C   UNL     1     -11.313  10.172  70.656  1.00  0.00    -0.352 C  
BRANCH  25  26
HETATM   26  C   UNL     1      -9.910   9.682  70.296  1.00  0.00    -0.266 C  
BRANCH  26  27
HETATM   27  O   UNL     1      -9.058   9.760  71.436  1.00  0.00     0.106 OA 
BRANCH  27  28
HETATM   28  C   UNL     1      -8.764   8.522  71.971  1.00  0.00    -0.196 A  
HETATM   29  N   UNL     1      -8.322   7.529  71.177  1.00  0.00    -0.108 NA 
HETATM   30  C   UNL     1      -8.058   6.353  71.788  1.00  0.00    -0.105 A  
HETATM   31  C   UNL     1      -8.219   6.144  73.138  1.00  0.00    -0.114 A  
HETATM   32  C   UNL     1      -8.681   7.225  73.851  1.00  0.00    -0.191 A  
HETATM   33 BR   UNL     1      -7.835   4.497  73.950  1.00  0.00    -0.094 Br 
HETATM   34  N   UNL     1      -8.962   8.423  73.295  1.00  0.00    -0.280 NA 
ENDBRANCH  27  28
ENDBRANCH  26  27
ENDBRANCH  25  26
ENDBRANCH  24  25
ENDBRANCH  13  24
ENDBRANCH   9  11
ENDBRANCH   6   9
ENDBRANCH   4   6
ENDBRANCH   3   4
ENDBRANCH   2   3
TORSDOF 11
ENDMDL
MODEL       81
REMARK 921   NORMALIZED FREE ENERGY PREDICTED BY IDOCK:   -5.29 KCAL/MOL
REMARK 922        TOTAL FREE ENERGY PREDICTED BY IDOCK:  -10.11 KCAL/MOL
REMARK 923 INTER-LIGAND FREE ENERGY PREDICTED BY IDOCK:   -8.05 KCAL/MOL
REMARK 924 INTRA-LIGAND FREE ENERGY PREDICTED BY IDOCK:   -2.06 KCAL/MOL
REMARK 927      BINDING AFFINITY PREDICTED BY RF-SCORE:    0.00 PKD
ROOT
HETATM    1  C   UNL     1     -10.978  11.912  64.269  1.00  0.00    -0.411 C  
HETATM    2  C   UNL     1      -9.837  11.123  64.890  1.00  0.00    -0.316 C  
ENDROOT
BRANCH   2   3
HETATM    3  C   UNL     1     -10.278   9.738  65.349  1.00  0.00     0.021 C  
BRANCH   3   4
HETATM    4  N   UNL     1      -9.154   8.773  65.182  1.00  0.00    -0.419 N  
HETATM    5  H   UNL     1      -8.443   8.847  64.455  1.00  0.00     0.000 HD 
BRANCH   4   6
HETATM    6  S   UNL     1      -9.198   7.552  66.331  1.00  0.00    -0.144 S  
HETATM    7  O   UNL     1     -10.439   7.759  67.047  1.00  0.00    -0.309 OA 
HETATM    8  O   UNL     1      -8.896   6.301  65.688  1.00  0.00    -0.147 OA 
BRANCH   6   9
HETATM    9  N   UNL     1      -7.966   8.006  67.371  1.00  0.00    -0.120 N  
HETATM   10  H   UNL     1      -7.538   7.345  68.020  1.00  0.00     0.000 HD 
BRANCH   9  11
HETATM   11  C   UNL     1      -7.552   9.357  67.298  1.00  0.00    -0.091 A  
HETATM   12  C   UNL     1      -8.060  10.379  68.110  1.00  0.00    -0.111 A  
HETATM   13  C   UNL     1      -7.361  11.576  67.898  1.00  0.00    -0.094 A  
HETATM   14  N   UNL     1      -6.617   9.493  66.338  1.00  0.00    -0.070 NA 
HETATM   15  N   UNL     1      -6.387  11.762  66.979  1.00  0.00    -0.147 NA 
HETATM   16  C   UNL     1      -6.077  10.705  66.230  1.00  0.00    -0.111 A  
BRANCH  12  17
HETATM   17  C   UNL     1      -9.227  10.269  69.060  1.00  0.00    -0.188 A  
HETATM   18  C   UNL     1     -10.485  10.846  68.816  1.00  0.00    -0.224 A  
HETATM   19  C   UNL     1     -11.592  10.664  69.656  1.00  0.00    -0.368 A  
HETATM   20  C   UNL     1     -10.241   9.332  71.111  1.00  0.00    -0.387 A  
HETATM   21  C   UNL     1      -9.135   9.549  70.272  1.00  0.00    -0.296 A  
HETATM   22 BR   UNL     1     -12.985   9.548  71.867  1.00  0.00    -0.539 Br 
HETATM   23  C   UNL     1     -11.473   9.879  70.787  1.00  0.00    -0.354 A  
ENDBRANCH  12  17
BRANCH  13  24
HETATM   24  O   UNL     1      -7.679  12.655  68.697  1.00  0.00    -0.125 OA 
BRANCH  24  25
HETATM   25  C   UNL     1      -7.854  13.922  68.061  1.00  0.00    -0.154 C  
BRANCH  25  26
HETATM   26  C   UNL     1      -9.236  13.906  67.406  1.00  0.00    -0.224 C  
BRANCH  26  27
HETATM   27  O   UNL     1      -9.235  14.730  66.244  1.00  0.00    -0.283 OA 
BRANCH  27  28
HETATM   28  C   UNL     1      -9.386  16.071  66.537  1.00  0.00    -0.268 A  
HETATM   29  N   UNL     1     -10.375  16.476  67.355  1.00  0.00    -0.286 NA 
HETATM   30  C   UNL     1     -10.446  17.806  67.586  1.00  0.00    -0.388 A  
HETATM   31  C   UNL     1      -9.578  18.721  67.037  1.00  0.00    -0.303 A  
HETATM   32  C   UNL     1      -8.611  18.196  66.213  1.00  0.00    -0.179 A  
HETATM   33 BR   UNL     1      -9.706  20.560  67.389  1.00  0.00    -0.521 Br 
HETATM   34  N   UNL     1      -8.493  16.877  65.944  1.00  0.00    -0.499 NA 
ENDBRANCH  27  28
ENDBRANCH  26  27
ENDBRANCH  25  26
ENDBRANCH  24  25
ENDBRANCH  13  24
ENDBRANCH   9  11
ENDBRANCH   6   9
ENDBRANCH   4   6
ENDBRANCH   3   4
ENDBRANCH   2   3
TORSDOF 11
ENDMDL
MODEL       82
REMARK 921   NORMALIZED FREE ENERGY PREDICTED BY IDOCK:   -5.29 KCAL/MOL
REMARK 922        TOTAL FREE ENERGY PREDICTED BY IDOCK:  -10.11 KCAL/MOL
REMARK 923 INTER-LIGAND FREE ENERGY PREDICTED BY IDOCK:   -8.05 KCAL/MOL
REMARK 924 INTRA-LIGAND FREE ENERGY PREDICTED BY IDOCK:   -2.07 KCAL/MOL
REMARK 927      BINDING AFFINITY PREDICTED BY RF-SCORE:    0.00 PKD
ROOT
HETATM    1  C   UNL     1      -8.760   1.480  68.509  1.00  0.00    -0.102 C  
HETATM    2  C   UNL     1      -9.338   2.886  68.509  1.00  0.00    -0.249 C  
ENDROOT
BRANCH   2   3
HETATM    3  C   UNL     1      -9.318   3.516  67.121  1.00  0.00    -0.200 C  
BRANCH   3   4
HETATM    4  N   UNL     1      -8.386   4.679  67.112  1.00  0.00    -0.105 N  
HETATM    5  H   UNL     1      -7.392   4.615  67.333  1.00  0.00     0.000 HD 
BRANCH   4   6
HETATM    6  S   UNL     1      -9.164   6.105  66.696  1.00  0.00    -0.147 S  
HETATM    7  O   UNL     1      -8.681   6.419  65.368  1.00  0.00    -0.122 OA 
HETATM    8  O   UNL     1     -10.568   5.965  66.976  1.00  0.00    -0.241 OA 
BRANCH   6   9
HETATM    9  N   UNL     1      -8.451   7.208  67.736  1.00  0.00    -0.120 N  
HETATM   10  H   UNL     1      -7.660   7.785  67.449  1.00  0.00     0.000 HD 
BRANCH   9  11
HETATM   11  C   UNL     1      -9.008   7.295  69.034  1.00  0.00    -0.134 A  
HETATM   12  C   UNL     1      -9.756   8.385  69.497  1.00  0.00    -0.177 A  
HETATM   13  C   UNL     1     -10.284   8.120  70.769  1.00  0.00    -0.194 A  
HETATM   14  N   UNL     1      -8.700   6.185  69.733  1.00  0.00    -0.134 NA 
HETATM   15  N   UNL     1     -10.044   7.010  71.501  1.00  0.00    -0.188 NA 
HETATM   16  C   UNL     1      -9.244   6.101  70.945  1.00  0.00    -0.154 A  
BRANCH  12  17
HETATM   17  C   UNL     1      -9.953   9.700  68.785  1.00  0.00    -0.184 A  
HETATM   18  C   UNL     1      -9.094  10.801  68.934  1.00  0.00    -0.170 A  
HETATM   19  C   UNL     1      -9.227  11.989  68.201  1.00  0.00    -0.195 A  
HETATM   20  C   UNL     1     -11.161  11.081  67.127  1.00  0.00    -0.333 A  
HETATM   21  C   UNL     1     -11.026   9.909  67.891  1.00  0.00    -0.281 A  
HETATM   22 BR   UNL     1     -10.371  13.667  66.214  1.00  0.00    -0.299 Br 
HETATM   23  C   UNL     1     -10.246  12.111  67.274  1.00  0.00    -0.202 A  
ENDBRANCH  12  17
BRANCH  13  24
HETATM   24  O   UNL     1     -11.129   9.062  71.321  1.00  0.00    -0.260 OA 
BRANCH  24  25
HETATM   25  C   UNL     1     -12.264   8.588  72.046  1.00  0.00    -0.366 C  
BRANCH  25  26
HETATM   26  C   UNL     1     -13.367   9.635  71.882  1.00  0.00    -0.438 C  
BRANCH  26  27
HETATM   27  O   UNL     1     -13.071  10.489  70.781  1.00  0.00    -0.364 OA 
BRANCH  27  28
HETATM   28  C   UNL     1     -12.891  11.805  71.156  1.00  0.00    -0.267 A  
HETATM   29  N   UNL     1     -13.458  12.269  72.285  1.00  0.00    -0.428 NA 
HETATM   30  C   UNL     1     -13.226  13.569  72.575  1.00  0.00    -0.448 A  
HETATM   31  C   UNL     1     -12.464  14.399  71.787  1.00  0.00    -0.339 A  
HETATM   32  C   UNL     1     -11.939  13.821  70.655  1.00  0.00    -0.266 A  
HETATM   33 BR   UNL     1     -12.160  16.198  72.227  1.00  0.00    -0.595 Br 
HETATM   34  N   UNL     1     -12.137  12.529  70.315  1.00  0.00    -0.341 NA 
ENDBRANCH  27  28
ENDBRANCH  26  27
ENDBRANCH  25  26
ENDBRANCH  24  25
ENDBRANCH  13  24
ENDBRANCH   9  11
ENDBRANCH   6   9
ENDBRANCH   4   6
ENDBRANCH   3   4
ENDBRANCH   2   3
TORSDOF 11
ENDMDL
MODEL       83
REMARK 921   NORMALIZED FREE ENERGY PREDICTED BY IDOCK:   -5.29 KCAL/MOL
REMARK 922        TOTAL FREE ENERGY PREDICTED BY IDOCK:  -10.10 KCAL/MOL
REMARK 923 INTER-LIGAND FREE ENERGY PREDICTED BY IDOCK:   -7.63 KCAL/MOL
REMARK 924 INTRA-LIGAND FREE ENERGY PREDICTED BY IDOCK:   -2.47 KCAL/MOL
REMARK 927      BINDING AFFINITY PREDICTED BY RF-SCORE:    0.00 PKD
ROOT
HETATM    1  C   UNL     1     -12.427  12.142  63.553  1.00  0.00    -0.666 C  
HETATM    2  C   UNL     1     -10.981  12.540  63.803  1.00  0.00    -0.496 C  
ENDROOT
BRANCH   2   3
HETATM    3  C   UNL     1      -9.998  11.612  63.099  1.00  0.00    -0.375 C  
BRANCH   3   4
HETATM    4  N   UNL     1      -8.870  11.287  64.017  1.00  0.00    -0.386 N  
HETATM    5  H   UNL     1      -8.162  11.960  64.311  1.00  0.00     0.000 HD 
BRANCH   4   6
HETATM    6  S   UNL     1      -8.902   9.684  64.510  1.00  0.00    -0.229 S  
HETATM    7  O   UNL     1     -10.148   9.541  65.232  1.00  0.00    -0.165 OA 
HETATM    8  O   UNL     1      -8.581   8.847  63.385  1.00  0.00    -0.178 OA 
BRANCH   6   9
HETATM    9  N   UNL     1      -7.680   9.646  65.655  1.00  0.00    -0.104 N  
HETATM   10  H   UNL     1      -6.724   9.382  65.413  1.00  0.00     0.000 HD 
BRANCH   9  11
HETATM   11  C   UNL     1      -8.047  10.000  66.974  1.00  0.00    -0.117 A  
HETATM   12  C   UNL     1      -8.399   9.075  67.967  1.00  0.00    -0.117 A  
HETATM   13  C   UNL     1      -8.579   9.716  69.201  1.00  0.00    -0.146 A  
HETATM   14  N   UNL     1      -8.010  11.339  67.111  1.00  0.00    -0.143 NA 
HETATM   15  N   UNL     1      -8.515  11.051  69.407  1.00  0.00     0.071 NA 
HETATM   16  C   UNL     1      -8.248  11.798  68.338  1.00  0.00    -0.154 A  
BRANCH  12  17
HETATM   17  C   UNL     1      -8.613   7.595  67.773  1.00  0.00    -0.121 A  
HETATM   18  C   UNL     1      -7.588   6.640  67.876  1.00  0.00    -0.107 A  
HETATM   19  C   UNL     1      -7.807   5.259  67.786  1.00  0.00    -0.092 A  
HETATM   20  C   UNL     1     -10.133   5.676  67.420  1.00  0.00    -0.206 A  
HETATM   21  C   UNL     1      -9.888   7.059  67.485  1.00  0.00    -0.186 A  
HETATM   22 BR   UNL     1      -9.406   2.920  67.568  1.00  0.00    -0.161 Br 
HETATM   23  C   UNL     1      -9.089   4.781  67.589  1.00  0.00    -0.115 A  
ENDBRANCH  12  17
BRANCH  13  24
HETATM   24  O   UNL     1      -8.833   8.926  70.303  1.00  0.00    -0.147 OA 
BRANCH  24  25
HETATM   25  C   UNL     1      -9.896   9.320  71.171  1.00  0.00    -0.272 C  
BRANCH  25  26
HETATM   26  C   UNL     1     -11.204   9.071  70.418  1.00  0.00    -0.241 C  
BRANCH  26  27
HETATM   27  O   UNL     1     -12.146  10.095  70.724  1.00  0.00    -0.297 OA 
BRANCH  27  28
HETATM   28  C   UNL     1     -12.025  11.198  69.902  1.00  0.00    -0.363 A  
HETATM   29  N   UNL     1     -12.043  12.437  70.427  1.00  0.00    -0.349 NA 
HETATM   30  C   UNL     1     -11.916  13.456  69.548  1.00  0.00    -0.319 A  
HETATM   31  C   UNL     1     -11.775  13.278  68.192  1.00  0.00    -0.362 A  
HETATM   32  C   UNL     1     -11.775  11.970  67.766  1.00  0.00    -0.309 A  
HETATM   33 BR   UNL     1     -11.594  14.719  67.004  1.00  0.00    -0.315 Br 
HETATM   34  N   UNL     1     -11.899  10.913  68.597  1.00  0.00    -0.468 NA 
ENDBRANCH  27  28
ENDBRANCH  26  27
ENDBRANCH  25  26
ENDBRANCH  24  25
ENDBRANCH  13  24
ENDBRANCH   9  11
ENDBRANCH   6   9
ENDBRANCH   4   6
ENDBRANCH   3   4
ENDBRANCH   2   3
TORSDOF 11
ENDMDL
MODEL       84
REMARK 921   NORMALIZED FREE ENERGY PREDICTED BY IDOCK:   -5.26 KCAL/MOL
REMARK 922        TOTAL FREE ENERGY PREDICTED BY IDOCK:  -10.05 KCAL/MOL
REMARK 923 INTER-LIGAND FREE ENERGY PREDICTED BY IDOCK:   -7.61 KCAL/MOL
REMARK 924 INTRA-LIGAND FREE ENERGY PREDICTED BY IDOCK:   -2.44 KCAL/MOL
REMARK 927      BINDING AFFINITY PREDICTED BY RF-SCORE:    0.00 PKD
ROOT
HETATM    1  C   UNL     1     -10.126   5.463  70.361  1.00  0.00    -0.314 C  
HETATM    2  C   UNL     1     -11.282   6.209  69.713  1.00  0.00    -0.494 C  
ENDROOT
BRANCH   2   3
HETATM    3  C   UNL     1     -11.118   6.323  68.202  1.00  0.00    -0.266 C  
BRANCH   3   4
HETATM    4  N   UNL     1      -9.882   5.608  67.776  1.00  0.00    -0.125 N  
HETATM    5  H   UNL     1      -9.659   4.648  68.040  1.00  0.00     0.000 HD 
BRANCH   4   6
HETATM    6  S   UNL     1      -8.900   6.567  66.812  1.00  0.00    -0.134 S  
HETATM    7  O   UNL     1      -8.152   5.633  65.998  1.00  0.00    -0.104 OA 
HETATM    8  O   UNL     1      -9.702   7.607  66.226  1.00  0.00    -0.161 OA 
BRANCH   6   9
HETATM    9  N   UNL     1      -7.822   7.196  67.928  1.00  0.00    -0.112 N  
HETATM   10  H   UNL     1      -7.488   6.650  68.723  1.00  0.00     0.000 HD 
BRANCH   9  11
HETATM   11  C   UNL     1      -7.399   8.529  67.708  1.00  0.00    -0.093 A  
HETATM   12  C   UNL     1      -7.973   9.648  68.325  1.00  0.00    -0.096 A  
HETATM   13  C   UNL     1      -7.254  10.810  68.012  1.00  0.00    -0.086 A  
HETATM   14  N   UNL     1      -6.384   8.541  66.822  1.00  0.00    -0.055 NA 
HETATM   15  N   UNL     1      -6.204  10.878  67.163  1.00  0.00    -0.063 NA 
HETATM   16  C   UNL     1      -5.833   9.731  66.596  1.00  0.00    -0.054 A  
BRANCH  12  17
HETATM   17  C   UNL     1      -9.218   9.657  69.177  1.00  0.00    -0.168 A  
HETATM   18  C   UNL     1      -9.250   9.223  70.513  1.00  0.00    -0.311 A  
HETATM   19  C   UNL     1     -10.385   9.320  71.328  1.00  0.00    -0.397 A  
HETATM   20  C   UNL     1     -11.595  10.259  69.492  1.00  0.00    -0.234 A  
HETATM   21  C   UNL     1     -10.454  10.128  68.682  1.00  0.00    -0.225 A  
HETATM   22 BR   UNL     1     -13.050  10.093  71.943  1.00  0.00    -0.545 Br 
HETATM   23  C   UNL     1     -11.549   9.868  70.821  1.00  0.00    -0.349 A  
ENDBRANCH  12  17
BRANCH  13  24
HETATM   24  O   UNL     1      -7.638  11.986  68.626  1.00  0.00    -0.122 OA 
BRANCH  24  25
HETATM   25  C   UNL     1      -7.670  13.169  67.828  1.00  0.00    -0.153 C  
BRANCH  25  26
HETATM   26  C   UNL     1      -9.132  13.609  67.740  1.00  0.00    -0.199 C  
BRANCH  26  27
HETATM   27  O   UNL     1      -9.301  14.875  68.372  1.00  0.00    -0.185 OA 
BRANCH  27  28
HETATM   28  C   UNL     1     -10.414  14.922  69.188  1.00  0.00    -0.244 A  
HETATM   29  N   UNL     1     -10.633  15.996  69.970  1.00  0.00    -0.308 NA 
HETATM   30  C   UNL     1     -11.747  15.956  70.733  1.00  0.00    -0.401 A  
HETATM   31  C   UNL     1     -12.628  14.900  70.739  1.00  0.00    -0.354 A  
HETATM   32  C   UNL     1     -12.302  13.856  69.906  1.00  0.00    -0.300 A  
HETATM   33 BR   UNL     1     -14.170  14.885  71.809  1.00  0.00    -0.698 Br 
HETATM   34  N   UNL     1     -11.203  13.839  69.122  1.00  0.00    -0.259 NA 
ENDBRANCH  27  28
ENDBRANCH  26  27
ENDBRANCH  25  26
ENDBRANCH  24  25
ENDBRANCH  13  24
ENDBRANCH   9  11
ENDBRANCH   6   9
ENDBRANCH   4   6
ENDBRANCH   3   4
ENDBRANCH   2   3
TORSDOF 11
ENDMDL
MODEL       85
REMARK 921   NORMALIZED FREE ENERGY PREDICTED BY IDOCK:   -5.24 KCAL/MOL
REMARK 922        TOTAL FREE ENERGY PREDICTED BY IDOCK:  -10.02 KCAL/MOL
REMARK 923 INTER-LIGAND FREE ENERGY PREDICTED BY IDOCK:   -7.75 KCAL/MOL
REMARK 924 INTRA-LIGAND FREE ENERGY PREDICTED BY IDOCK:   -2.27 KCAL/MOL
REMARK 927      BINDING AFFINITY PREDICTED BY RF-SCORE:    0.00 PKD
ROOT
HETATM    1  C   UNL     1     -11.456  12.061  64.063  1.00  0.00    -0.484 C  
HETATM    2  C   UNL     1     -11.053  13.202  64.983  1.00  0.00    -0.322 C  
ENDROOT
BRANCH   2   3
HETATM    3  C   UNL     1     -12.118  13.500  66.031  1.00  0.00    -0.445 C  
BRANCH   3   4
HETATM    4  N   UNL     1     -11.565  14.426  67.059  1.00  0.00    -0.369 N  
HETATM    5  H   UNL     1     -11.285  15.388  66.868  1.00  0.00     0.000 HD 
BRANCH   4   6
HETATM    6  S   UNL     1     -11.458  13.700  68.568  1.00  0.00    -0.337 S  
HETATM    7  O   UNL     1     -10.038  13.570  68.818  1.00  0.00    -0.202 OA 
HETATM    8  O   UNL     1     -12.325  14.398  69.479  1.00  0.00    -0.305 OA 
BRANCH   6   9
HETATM    9  N   UNL     1     -12.031  12.158  68.255  1.00  0.00    -0.286 N  
HETATM   10  H   UNL     1     -12.612  11.954  67.441  1.00  0.00     0.000 HD 
BRANCH   9  11
HETATM   11  C   UNL     1     -11.665  11.154  69.182  1.00  0.00    -0.338 A  
HETATM   12  C   UNL     1     -10.602  10.262  68.995  1.00  0.00    -0.247 A  
HETATM   13  C   UNL     1     -10.403   9.479  70.142  1.00  0.00    -0.255 A  
HETATM   14  N   UNL     1     -12.493  11.196  70.245  1.00  0.00    -0.294 NA 
HETATM   15  N   UNL     1     -11.175   9.504  71.252  1.00  0.00    -0.358 NA 
HETATM   16  C   UNL     1     -12.198  10.358  71.236  1.00  0.00    -0.389 A  
BRANCH  12  17
HETATM   17  C   UNL     1      -9.787  10.094  67.737  1.00  0.00    -0.190 A  
HETATM   18  C   UNL     1     -10.227   9.369  66.616  1.00  0.00    -0.319 A  
HETATM   19  C   UNL     1      -9.508   9.293  65.416  1.00  0.00    -0.281 A  
HETATM   20  C   UNL     1      -7.788  10.640  66.388  1.00  0.00    -0.144 A  
HETATM   21  C   UNL     1      -8.511  10.681  67.593  1.00  0.00    -0.118 A  
HETATM   22 BR   UNL     1      -7.378   9.942  63.651  1.00  0.00    -0.127 Br 
HETATM   23  C   UNL     1      -8.301   9.958  65.297  1.00  0.00    -0.149 A  
ENDBRANCH  12  17
BRANCH  13  24
HETATM   24  O   UNL     1      -9.326   8.616  70.150  1.00  0.00    -0.156 OA 
BRANCH  24  25
HETATM   25  C   UNL     1      -9.481   7.369  70.828  1.00  0.00    -0.167 C  
BRANCH  25  26
HETATM   26  C   UNL     1      -9.482   6.276  69.759  1.00  0.00    -0.151 C  
BRANCH  26  27
HETATM   27  O   UNL     1      -8.904   6.770  68.554  1.00  0.00    -0.124 OA 
BRANCH  27  28
HETATM   28  C   UNL     1      -9.168   5.966  67.463  1.00  0.00    -0.108 A  
HETATM   29  N   UNL     1      -8.156   5.393  66.786  1.00  0.00    -0.105 NA 
HETATM   30  C   UNL     1      -8.509   4.620  65.734  1.00  0.00    -0.117 A  
HETATM   31  C   UNL     1      -9.812   4.409  65.348  1.00  0.00    -0.210 A  
HETATM   32  C   UNL     1     -10.763   5.047  66.109  1.00  0.00    -0.203 A  
HETATM   33 BR   UNL     1     -10.261   3.323  63.885  1.00  0.00    -0.211 Br 
HETATM   34  N   UNL     1     -10.470   5.831  67.169  1.00  0.00    -0.243 NA 
ENDBRANCH  27  28
ENDBRANCH  26  27
ENDBRANCH  25  26
ENDBRANCH  24  25
ENDBRANCH  13  24
ENDBRANCH   9  11
ENDBRANCH   6   9
ENDBRANCH   4   6
ENDBRANCH   3   4
ENDBRANCH   2   3
TORSDOF 11
ENDMDL
MODEL       86
REMARK 921   NORMALIZED FREE ENERGY PREDICTED BY IDOCK:   -5.24 KCAL/MOL
REMARK 922        TOTAL FREE ENERGY PREDICTED BY IDOCK:  -10.02 KCAL/MOL
REMARK 923 INTER-LIGAND FREE ENERGY PREDICTED BY IDOCK:   -8.39 KCAL/MOL
REMARK 924 INTRA-LIGAND FREE ENERGY PREDICTED BY IDOCK:   -1.63 KCAL/MOL
REMARK 927      BINDING AFFINITY PREDICTED BY RF-SCORE:    0.00 PKD
ROOT
HETATM    1  C   UNL     1      -8.470   6.058  65.900  1.00  0.00    -0.143 C  
HETATM    2  C   UNL     1      -9.100   5.300  67.057  1.00  0.00    -0.112 C  
ENDROOT
BRANCH   2   3
HETATM    3  C   UNL     1      -9.698   6.237  68.101  1.00  0.00    -0.122 C  
BRANCH   3   4
HETATM    4  N   UNL     1      -9.290   7.640  67.808  1.00  0.00    -0.141 N  
HETATM    5  H   UNL     1      -9.545   8.142  66.958  1.00  0.00     0.000 HD 
BRANCH   4   6
HETATM    6  S   UNL     1      -8.359   8.294  69.040  1.00  0.00    -0.121 S  
HETATM    7  O   UNL     1      -9.260   8.405  70.168  1.00  0.00    -0.155 OA 
HETATM    8  O   UNL     1      -7.125   7.559  69.128  1.00  0.00    -0.073 OA 
BRANCH   6   9
HETATM    9  N   UNL     1      -8.092   9.852  68.487  1.00  0.00    -0.099 N  
HETATM   10  H   UNL     1      -7.533  10.523  69.016  1.00  0.00     0.000 HD 
BRANCH   9  11
HETATM   11  C   UNL     1      -8.685  10.186  67.247  1.00  0.00    -0.129 A  
HETATM   12  C   UNL     1      -9.858  10.941  67.115  1.00  0.00    -0.213 A  
HETATM   13  C   UNL     1     -10.120  11.220  65.766  1.00  0.00    -0.247 A  
HETATM   14  N   UNL     1      -7.956   9.665  66.241  1.00  0.00    -0.108 NA 
HETATM   15  N   UNL     1      -9.403  10.759  64.717  1.00  0.00    -0.213 NA 
HETATM   16  C   UNL     1      -8.360   9.985  65.014  1.00  0.00    -0.155 A  
BRANCH  12  17
HETATM   17  C   UNL     1     -10.771  11.375  68.234  1.00  0.00    -0.240 A  
HETATM   18  C   UNL     1     -11.499  10.480  69.036  1.00  0.00    -0.304 A  
HETATM   19  C   UNL     1     -12.274  10.881  70.133  1.00  0.00    -0.423 A  
HETATM   20  C   UNL     1     -11.695  13.156  69.681  1.00  0.00    -0.370 A  
HETATM   21  C   UNL     1     -10.946  12.737  68.568  1.00  0.00    -0.288 A  
HETATM   22 BR   UNL     1     -13.303  12.755  72.004  1.00  0.00    -0.472 Br 
HETATM   23  C   UNL     1     -12.343  12.220  70.470  1.00  0.00    -0.264 A  
ENDBRANCH  12  17
BRANCH  13  24
HETATM   24  O   UNL     1     -11.191  12.041  65.477  1.00  0.00    -0.313 OA 
BRANCH  24  25
HETATM   25  C   UNL     1     -11.101  12.862  64.312  1.00  0.00    -0.378 C  
BRANCH  25  26
HETATM   26  C   UNL     1     -10.598  14.232  64.768  1.00  0.00    -0.412 C  
BRANCH  26  27
HETATM   27  O   UNL     1     -11.239  14.609  65.983  1.00  0.00    -0.334 OA 
BRANCH  27  28
HETATM   28  C   UNL     1     -10.908  15.886  66.390  1.00  0.00    -0.193 A  
HETATM   29  N   UNL     1     -10.802  16.171  67.701  1.00  0.00    -0.317 NA 
HETATM   30  C   UNL     1     -10.472  17.445  68.007  1.00  0.00    -0.383 A  
HETATM   31  C   UNL     1     -10.251  18.421  67.063  1.00  0.00    -0.379 A  
HETATM   32  C   UNL     1     -10.392  18.020  65.755  1.00  0.00    -0.175 A  
HETATM   33 BR   UNL     1      -9.787  20.179  67.527  1.00  0.00    -0.584 Br 
HETATM   34  N   UNL     1     -10.720  16.761  65.391  1.00  0.00    -0.531 NA 
ENDBRANCH  27  28
ENDBRANCH  26  27
ENDBRANCH  25  26
ENDBRANCH  24  25
ENDBRANCH  13  24
ENDBRANCH   9  11
ENDBRANCH   6   9
ENDBRANCH   4   6
ENDBRANCH   3   4
ENDBRANCH   2   3
TORSDOF 11
ENDMDL
MODEL       87
REMARK 921   NORMALIZED FREE ENERGY PREDICTED BY IDOCK:   -5.23 KCAL/MOL
REMARK 922        TOTAL FREE ENERGY PREDICTED BY IDOCK:  -10.01 KCAL/MOL
REMARK 923 INTER-LIGAND FREE ENERGY PREDICTED BY IDOCK:   -7.95 KCAL/MOL
REMARK 924 INTRA-LIGAND FREE ENERGY PREDICTED BY IDOCK:   -2.06 KCAL/MOL
REMARK 927      BINDING AFFINITY PREDICTED BY RF-SCORE:    0.00 PKD
ROOT
HETATM    1  C   UNL     1     -11.229  12.204  64.130  1.00  0.00    -0.433 C  
HETATM    2  C   UNL     1     -10.899  13.180  65.248  1.00  0.00    -0.314 C  
ENDROOT
BRANCH   2   3
HETATM    3  C   UNL     1     -12.149  13.693  65.952  1.00  0.00    -0.439 C  
BRANCH   3   4
HETATM    4  N   UNL     1     -11.762  14.646  67.031  1.00  0.00    -0.380 N  
HETATM    5  H   UNL     1     -11.636  15.647  66.888  1.00  0.00     0.000 HD 
BRANCH   4   6
HETATM    6  S   UNL     1     -11.558  13.875  68.506  1.00  0.00    -0.354 S  
HETATM    7  O   UNL     1     -10.125  13.761  68.672  1.00  0.00    -0.231 OA 
HETATM    8  O   UNL     1     -12.382  14.529  69.487  1.00  0.00    -0.291 OA 
BRANCH   6   9
HETATM    9  N   UNL     1     -12.125  12.334  68.178  1.00  0.00    -0.173 N  
HETATM   10  H   UNL     1     -12.675  12.129  67.343  1.00  0.00     0.000 HD 
BRANCH   9  11
HETATM   11  C   UNL     1     -11.799  11.332  69.122  1.00  0.00    -0.355 A  
HETATM   12  C   UNL     1     -10.751  10.415  68.965  1.00  0.00    -0.260 A  
HETATM   13  C   UNL     1     -10.591   9.641  70.123  1.00  0.00    -0.272 A  
HETATM   14  N   UNL     1     -12.646  11.402  70.167  1.00  0.00    -0.155 NA 
HETATM   15  N   UNL     1     -11.384   9.694  71.217  1.00  0.00    -0.372 NA 
HETATM   16  C   UNL     1     -12.388  10.568  71.172  1.00  0.00    -0.405 A  
BRANCH  12  17
HETATM   17  C   UNL     1      -9.916  10.218  67.725  1.00  0.00    -0.203 A  
HETATM   18  C   UNL     1     -10.265   9.342  66.683  1.00  0.00    -0.319 A  
HETATM   19  C   UNL     1      -9.535   9.230  65.492  1.00  0.00    -0.309 A  
HETATM   20  C   UNL     1      -7.982  10.850  66.318  1.00  0.00    -0.161 A  
HETATM   21  C   UNL     1      -8.712  10.928  67.517  1.00  0.00    -0.130 A  
HETATM   22 BR   UNL     1      -7.480   9.937  63.661  1.00  0.00    -0.137 Br 
HETATM   23  C   UNL     1      -8.409  10.011  65.302  1.00  0.00    -0.154 A  
ENDBRANCH  12  17
BRANCH  13  24
HETATM   24  O   UNL     1      -9.533   8.756  70.161  1.00  0.00    -0.159 OA 
BRANCH  24  25
HETATM   25  C   UNL     1      -8.392   9.121  70.939  1.00  0.00    -0.185 C  
BRANCH  25  26
HETATM   26  C   UNL     1      -8.133   7.974  71.917  1.00  0.00    -0.121 C  
BRANCH  26  27
HETATM   27  O   UNL     1      -9.234   7.835  72.811  1.00  0.00    -0.157 OA 
BRANCH  27  28
HETATM   28  C   UNL     1      -9.697   6.537  72.893  1.00  0.00    -0.154 A  
HETATM   29  N   UNL     1      -9.679   5.744  71.806  1.00  0.00    -0.156 NA 
HETATM   30  C   UNL     1     -10.150   4.489  71.980  1.00  0.00    -0.196 A  
HETATM   31  C   UNL     1     -10.627   4.015  73.179  1.00  0.00    -0.183 A  
HETATM   32  C   UNL     1     -10.603   4.913  74.220  1.00  0.00    -0.270 A  
HETATM   33 BR   UNL     1     -11.266   2.262  73.382  1.00  0.00    -0.263 Br 
HETATM   34  N   UNL     1     -10.146   6.178  74.105  1.00  0.00    -0.262 NA 
ENDBRANCH  27  28
ENDBRANCH  26  27
ENDBRANCH  25  26
ENDBRANCH  24  25
ENDBRANCH  13  24
ENDBRANCH   9  11
ENDBRANCH   6   9
ENDBRANCH   4   6
ENDBRANCH   3   4
ENDBRANCH   2   3
TORSDOF 11
ENDMDL
MODEL       88
REMARK 921   NORMALIZED FREE ENERGY PREDICTED BY IDOCK:   -5.23 KCAL/MOL
REMARK 922        TOTAL FREE ENERGY PREDICTED BY IDOCK:  -10.01 KCAL/MOL
REMARK 923 INTER-LIGAND FREE ENERGY PREDICTED BY IDOCK:   -8.27 KCAL/MOL
REMARK 924 INTRA-LIGAND FREE ENERGY PREDICTED BY IDOCK:   -1.73 KCAL/MOL
REMARK 927      BINDING AFFINITY PREDICTED BY RF-SCORE:    0.00 PKD
ROOT
HETATM    1  C   UNL     1     -11.842  12.608  63.632  1.00  0.00    -0.606 C  
HETATM    2  C   UNL     1     -12.620  12.682  64.936  1.00  0.00    -0.525 C  
ENDROOT
BRANCH   2   3
HETATM    3  C   UNL     1     -12.746  14.110  65.451  1.00  0.00    -0.431 C  
BRANCH   3   4
HETATM    4  N   UNL     1     -12.454  14.144  66.913  1.00  0.00    -0.549 N  
HETATM    5  H   UNL     1     -13.008  13.655  67.616  1.00  0.00     0.000 HD 
BRANCH   4   6
HETATM    6  S   UNL     1     -11.108  15.080  67.264  1.00  0.00    -0.335 S  
HETATM    7  O   UNL     1     -10.458  15.290  65.988  1.00  0.00    -0.287 OA 
HETATM    8  O   UNL     1     -11.514  16.181  68.095  1.00  0.00    -0.326 OA 
BRANCH   6   9
HETATM    9  N   UNL     1     -10.148  14.006  68.117  1.00  0.00    -0.238 N  
HETATM   10  H   UNL     1      -9.130  14.079  68.121  1.00  0.00     0.000 HD 
BRANCH   9  11
HETATM   11  C   UNL     1     -10.827  12.991  68.832  1.00  0.00    -0.206 A  
HETATM   12  C   UNL     1     -10.664  11.620  68.597  1.00  0.00    -0.246 A  
HETATM   13  C   UNL     1     -11.364  10.866  69.550  1.00  0.00    -0.283 A  
HETATM   14  N   UNL     1     -11.641  13.551  69.749  1.00  0.00    -0.269 NA 
HETATM   15  N   UNL     1     -12.162  11.371  70.517  1.00  0.00    -0.377 NA 
HETATM   16  C   UNL     1     -12.272  12.698  70.553  1.00  0.00    -0.299 A  
BRANCH  12  17
HETATM   17  C   UNL     1      -9.894  10.994  67.461  1.00  0.00    -0.190 A  
HETATM   18  C   UNL     1      -8.503  10.799  67.479  1.00  0.00    -0.119 A  
HETATM   19  C   UNL     1      -7.804  10.135  66.462  1.00  0.00    -0.112 A  
HETATM   20  C   UNL     1      -9.857   9.846  65.271  1.00  0.00    -0.373 A  
HETATM   21  C   UNL     1     -10.536  10.539  66.288  1.00  0.00    -0.250 A  
HETATM   22 BR   UNL     1      -7.571   8.650  64.050  1.00  0.00    -0.133 Br 
HETATM   23  C   UNL     1      -8.492   9.632  65.373  1.00  0.00    -0.145 A  
ENDBRANCH  12  17
BRANCH  13  24
HETATM   24  O   UNL     1     -11.222   9.493  69.511  1.00  0.00    -0.189 OA 
BRANCH  24  25
HETATM   25  C   UNL     1     -10.388   8.886  70.499  1.00  0.00    -0.203 C  
BRANCH  25  26
HETATM   26  C   UNL     1      -9.693   7.700  69.830  1.00  0.00    -0.175 C  
BRANCH  26  27
HETATM   27  O   UNL     1     -10.436   6.506  70.057  1.00  0.00    -0.193 OA 
BRANCH  27  28
HETATM   28  C   UNL     1     -10.085   5.485  69.196  1.00  0.00    -0.216 A  
HETATM   29  N   UNL     1     -10.319   5.604  67.876  1.00  0.00    -0.200 NA 
HETATM   30  C   UNL     1      -9.941   4.557  67.110  1.00  0.00    -0.159 A  
HETATM   31  C   UNL     1      -9.352   3.420  67.612  1.00  0.00    -0.199 A  
HETATM   32  C   UNL     1      -9.166   3.405  68.974  1.00  0.00    -0.160 A  
HETATM   33 BR   UNL     1      -8.835   1.989  66.513  1.00  0.00    -0.115 Br 
HETATM   34  N   UNL     1      -9.524   4.420  69.789  1.00  0.00    -0.165 NA 
ENDBRANCH  27  28
ENDBRANCH  26  27
ENDBRANCH  25  26
ENDBRANCH  24  25
ENDBRANCH  13  24
ENDBRANCH   9  11
ENDBRANCH   6   9
ENDBRANCH   4   6
ENDBRANCH   3   4
ENDBRANCH   2   3
TORSDOF 11
ENDMDL
MODEL       89
REMARK 921   NORMALIZED FREE ENERGY PREDICTED BY IDOCK:   -5.23 KCAL/MOL
REMARK 922        TOTAL FREE ENERGY PREDICTED BY IDOCK:  -10.00 KCAL/MOL
REMARK 923 INTER-LIGAND FREE ENERGY PREDICTED BY IDOCK:   -8.29 KCAL/MOL
REMARK 924 INTRA-LIGAND FREE ENERGY PREDICTED BY IDOCK:   -1.72 KCAL/MOL
REMARK 927      BINDING AFFINITY PREDICTED BY RF-SCORE:    0.00 PKD
ROOT
HETATM    1  C   UNL     1      -9.783  20.055  67.211  1.00  0.00    -0.545 C  
HETATM    2  C   UNL     1     -10.475  18.886  66.529  1.00  0.00    -0.500 C  
ENDROOT
BRANCH   2   3
HETATM    3  C   UNL     1     -10.151  17.556  67.198  1.00  0.00    -0.321 C  
BRANCH   3   4
HETATM    4  N   UNL     1     -11.396  16.964  67.765  1.00  0.00     0.005 N  
HETATM    5  H   UNL     1     -12.319  17.392  67.685  1.00  0.00     0.000 HD 
BRANCH   4   6
HETATM    6  S   UNL     1     -11.102  15.512  68.552  1.00  0.00    -0.325 S  
HETATM    7  O   UNL     1      -9.824  15.065  68.040  1.00  0.00    -0.214 OA 
HETATM    8  O   UNL     1     -11.330  15.695  69.960  1.00  0.00    -0.277 OA 
BRANCH   6   9
HETATM    9  N   UNL     1     -12.262  14.509  67.880  1.00  0.00    -0.622 N  
HETATM   10  H   UNL     1     -13.145  14.314  68.354  1.00  0.00     0.000 HD 
BRANCH   9  11
HETATM   11  C   UNL     1     -11.950  13.947  66.619  1.00  0.00    -0.442 A  
HETATM   12  C   UNL     1     -11.367  12.686  66.443  1.00  0.00    -0.381 A  
HETATM   13  C   UNL     1     -11.305  12.353  65.083  1.00  0.00    -0.323 A  
HETATM   14  N   UNL     1     -12.292  14.810  65.642  1.00  0.00    -0.113 NA 
HETATM   15  N   UNL     1     -11.671  13.159  64.061  1.00  0.00    -0.413 NA 
HETATM   16  C   UNL     1     -12.133  14.362  64.399  1.00  0.00    -0.470 A  
BRANCH  12  17
HETATM   17  C   UNL     1     -10.821  11.795  67.531  1.00  0.00    -0.286 A  
HETATM   18  C   UNL     1     -11.627  10.999  68.362  1.00  0.00    -0.372 A  
HETATM   19  C   UNL     1     -11.112  10.104  69.309  1.00  0.00    -0.270 A  
HETATM   20  C   UNL     1      -8.898  10.776  68.706  1.00  0.00    -0.163 A  
HETATM   21  C   UNL     1      -9.435  11.688  67.780  1.00  0.00    -0.178 A  
HETATM   22 BR   UNL     1      -9.042   8.698  70.657  1.00  0.00    -0.224 Br 
HETATM   23  C   UNL     1      -9.743   9.973  69.455  1.00  0.00    -0.233 A  
ENDBRANCH  12  17
BRANCH  13  24
HETATM   24  O   UNL     1     -10.845  11.095  64.751  1.00  0.00    -0.289 OA 
BRANCH  24  25
HETATM   25  C   UNL     1     -10.186  10.941  63.493  1.00  0.00    -0.317 C  
BRANCH  25  26
HETATM   26  C   UNL     1      -9.085   9.898  63.689  1.00  0.00    -0.259 C  
BRANCH  26  27
HETATM   27  O   UNL     1      -9.024   9.502  65.057  1.00  0.00    -0.188 OA 
BRANCH  27  28
HETATM   28  C   UNL     1      -8.207   8.409  65.263  1.00  0.00    -0.151 A  
HETATM   29  N   UNL     1      -7.793   8.099  66.506  1.00  0.00    -0.092 NA 
HETATM   30  C   UNL     1      -6.998   7.012  66.612  1.00  0.00    -0.073 A  
HETATM   31  C   UNL     1      -6.612   6.243  65.539  1.00  0.00    -0.047 A  
HETATM   32  C   UNL     1      -7.089   6.655  64.317  1.00  0.00    -0.057 A  
HETATM   33 BR   UNL     1      -5.511   4.735  65.729  1.00  0.00    -0.014 Br 
HETATM   34  N   UNL     1      -7.885   7.733  64.149  1.00  0.00    -0.132 NA 
ENDBRANCH  27  28
ENDBRANCH  26  27
ENDBRANCH  25  26
ENDBRANCH  24  25
ENDBRANCH  13  24
ENDBRANCH   9  11
ENDBRANCH   6   9
ENDBRANCH   4   6
ENDBRANCH   3   4
ENDBRANCH   2   3
TORSDOF 11
ENDMDL
MODEL       90
REMARK 921   NORMALIZED FREE ENERGY PREDICTED BY IDOCK:   -5.22 KCAL/MOL
REMARK 922        TOTAL FREE ENERGY PREDICTED BY IDOCK:  -10.00 KCAL/MOL
REMARK 923 INTER-LIGAND FREE ENERGY PREDICTED BY IDOCK:   -7.66 KCAL/MOL
REMARK 924 INTRA-LIGAND FREE ENERGY PREDICTED BY IDOCK:   -2.34 KCAL/MOL
REMARK 927      BINDING AFFINITY PREDICTED BY RF-SCORE:    0.00 PKD
ROOT
HETATM    1  C   UNL     1     -11.260   9.561  71.216  1.00  0.00    -0.452 C  
HETATM    2  C   UNL     1      -9.972   8.767  71.355  1.00  0.00    -0.354 C  
ENDROOT
BRANCH   2   3
HETATM    3  C   UNL     1      -8.965   9.106  70.262  1.00  0.00    -0.217 C  
BRANCH   3   4
HETATM    4  N   UNL     1      -8.068   7.939  70.027  1.00  0.00    -0.115 N  
HETATM    5  H   UNL     1      -7.846   7.240  70.735  1.00  0.00     0.000 HD 
BRANCH   4   6
HETATM    6  S   UNL     1      -7.468   7.913  68.461  1.00  0.00    -0.098 S  
HETATM    7  O   UNL     1      -6.909   9.232  68.255  1.00  0.00    -0.063 OA 
HETATM    8  O   UNL     1      -6.679   6.722  68.288  1.00  0.00    -0.062 OA 
BRANCH   6   9
HETATM    9  N   UNL     1      -8.871   7.841  67.550  1.00  0.00    -0.124 N  
HETATM   10  H   UNL     1      -9.730   7.427  67.914  1.00  0.00     0.000 HD 
BRANCH   9  11
HETATM   11  C   UNL     1      -8.799   8.388  66.246  1.00  0.00    -0.159 A  
HETATM   12  C   UNL     1      -9.148   9.706  65.926  1.00  0.00    -0.221 A  
HETATM   13  C   UNL     1      -8.842   9.990  64.587  1.00  0.00    -0.200 A  
HETATM   14  N   UNL     1      -8.358   7.449  65.386  1.00  0.00    -0.133 NA 
HETATM   15  N   UNL     1      -8.360   9.102  63.689  1.00  0.00    -0.179 NA 
HETATM   16  C   UNL     1      -8.158   7.864  64.137  1.00  0.00    -0.093 A  
BRANCH  12  17
HETATM   17  C   UNL     1      -9.807  10.704  66.846  1.00  0.00    -0.228 A  
HETATM   18  C   UNL     1     -11.155  10.628  67.237  1.00  0.00    -0.313 A  
HETATM   19  C   UNL     1     -11.740  11.503  68.163  1.00  0.00    -0.357 A  
HETATM   20  C   UNL     1      -9.656  12.661  68.349  1.00  0.00    -0.173 A  
HETATM   21  C   UNL     1      -9.095  11.791  67.398  1.00  0.00    -0.175 A  
HETATM   22 BR   UNL     1     -11.730  13.616  70.062  1.00  0.00    -0.277 Br 
HETATM   23  C   UNL     1     -10.976  12.500  68.740  1.00  0.00    -0.253 A  
ENDBRANCH  12  17
BRANCH  13  24
HETATM   24  O   UNL     1      -9.037  11.282  64.145  1.00  0.00    -0.104 OA 
BRANCH  24  25
HETATM   25  C   UNL     1      -9.904  11.477  63.028  1.00  0.00    -0.343 C  
BRANCH  25  26
HETATM   26  C   UNL     1     -11.323  11.608  63.581  1.00  0.00    -0.394 C  
BRANCH  26  27
HETATM   27  O   UNL     1     -11.812  12.930  63.367  1.00  0.00    -0.525 OA 
BRANCH  27  28
HETATM   28  C   UNL     1     -11.546  13.778  64.423  1.00  0.00    -0.395 A  
HETATM   29  N   UNL     1     -12.438  13.914  65.421  1.00  0.00    -0.476 NA 
HETATM   30  C   UNL     1     -12.093  14.763  66.414  1.00  0.00    -0.106 A  
HETATM   31  C   UNL     1     -10.910  15.465  66.438  1.00  0.00    -0.303 A  
HETATM   32  C   UNL     1     -10.077  15.253  65.365  1.00  0.00    -0.362 A  
HETATM   33 BR   UNL     1     -10.464  16.631  67.839  1.00  0.00    -0.331 Br 
HETATM   34  N   UNL     1     -10.369  14.418  64.345  1.00  0.00    -0.074 NA 
ENDBRANCH  27  28
ENDBRANCH  26  27
ENDBRANCH  25  26
ENDBRANCH  24  25
ENDBRANCH  13  24
ENDBRANCH   9  11
ENDBRANCH   6   9
ENDBRANCH   4   6
ENDBRANCH   3   4
ENDBRANCH   2   3
TORSDOF 11
ENDMDL
MODEL       91
REMARK 921   NORMALIZED FREE ENERGY PREDICTED BY IDOCK:   -5.21 KCAL/MOL
REMARK 922        TOTAL FREE ENERGY PREDICTED BY IDOCK:   -9.98 KCAL/MOL
REMARK 923 INTER-LIGAND FREE ENERGY PREDICTED BY IDOCK:   -8.16 KCAL/MOL
REMARK 924 INTRA-LIGAND FREE ENERGY PREDICTED BY IDOCK:   -1.82 KCAL/MOL
REMARK 927      BINDING AFFINITY PREDICTED BY RF-SCORE:    0.00 PKD
ROOT
HETATM    1  C   UNL     1     -10.639  16.751  67.196  1.00  0.00    -0.256 C  
HETATM    2  C   UNL     1      -9.871  16.282  65.970  1.00  0.00    -0.371 C  
ENDROOT
BRANCH   2   3
HETATM    3  C   UNL     1     -10.793  15.733  64.889  1.00  0.00    -0.413 C  
BRANCH   3   4
HETATM    4  N   UNL     1     -10.668  14.249  64.830  1.00  0.00    -0.489 N  
HETATM    5  H   UNL     1      -9.795  13.744  64.977  1.00  0.00     0.000 HD 
BRANCH   4   6
HETATM    6  S   UNL     1     -12.134  13.507  64.492  1.00  0.00    -0.418 S  
HETATM    7  O   UNL     1     -13.134  14.375  65.076  1.00  0.00    -0.615 OA 
HETATM    8  O   UNL     1     -12.163  13.153  63.098  1.00  0.00    -0.631 OA 
BRANCH   6   9
HETATM    9  N   UNL     1     -12.065  12.140  65.457  1.00  0.00    -0.260 N  
HETATM   10  H   UNL     1     -12.904  11.618  65.712  1.00  0.00     0.000 HD 
BRANCH   9  11
HETATM   11  C   UNL     1     -10.778  11.750  65.899  1.00  0.00    -0.282 A  
HETATM   12  C   UNL     1     -10.397  11.683  67.245  1.00  0.00    -0.232 A  
HETATM   13  C   UNL     1      -9.111  11.137  67.370  1.00  0.00    -0.142 A  
HETATM   14  N   UNL     1     -10.000  11.469  64.835  1.00  0.00    -0.250 NA 
HETATM   15  N   UNL     1      -8.300  10.798  66.342  1.00  0.00    -0.148 NA 
HETATM   16  C   UNL     1      -8.787  11.001  65.119  1.00  0.00    -0.106 A  
BRANCH  12  17
HETATM   17  C   UNL     1     -11.202  12.164  68.426  1.00  0.00    -0.314 A  
HETATM   18  C   UNL     1     -11.789  11.303  69.369  1.00  0.00    -0.424 A  
HETATM   19  C   UNL     1     -12.457  11.755  70.515  1.00  0.00    -0.317 A  
HETATM   20  C   UNL     1     -12.051  14.011  69.834  1.00  0.00    -0.406 A  
HETATM   21  C   UNL     1     -11.408  13.538  68.677  1.00  0.00    -0.323 A  
HETATM   22 BR   UNL     1     -13.368  13.725  72.350  1.00  0.00    -0.652 Br 
HETATM   23  C   UNL     1     -12.558  13.113  70.759  1.00  0.00    -0.260 A  
ENDBRANCH  12  17
BRANCH  13  24
HETATM   24  O   UNL     1      -8.631  10.913  68.644  1.00  0.00    -0.140 OA 
BRANCH  24  25
HETATM   25  C   UNL     1      -7.219  10.990  68.843  1.00  0.00    -0.103 C  
BRANCH  25  26
HETATM   26  C   UNL     1      -6.809   9.744  69.628  1.00  0.00    -0.072 C  
BRANCH  26  27
HETATM   27  O   UNL     1      -7.645   8.646  69.274  1.00  0.00    -0.089 OA 
BRANCH  27  28
HETATM   28  C   UNL     1      -7.210   7.982  68.145  1.00  0.00    -0.094 A  
HETATM   29  N   UNL     1      -5.895   7.775  67.948  1.00  0.00    -0.039 NA 
HETATM   30  C   UNL     1      -5.561   7.115  66.816  1.00  0.00    -0.023 A  
HETATM   31  C   UNL     1      -6.482   6.668  65.897  1.00  0.00    -0.046 A  
HETATM   32  C   UNL     1      -7.795   6.940  66.197  1.00  0.00    -0.102 A  
HETATM   33 BR   UNL     1      -5.978   5.749  64.340  1.00  0.00    -0.025 Br 
HETATM   34  N   UNL     1      -8.188   7.595  67.311  1.00  0.00    -0.118 NA 
ENDBRANCH  27  28
ENDBRANCH  26  27
ENDBRANCH  25  26
ENDBRANCH  24  25
ENDBRANCH  13  24
ENDBRANCH   9  11
ENDBRANCH   6   9
ENDBRANCH   4   6
ENDBRANCH   3   4
ENDBRANCH   2   3
TORSDOF 11
ENDMDL
MODEL       92
REMARK 921   NORMALIZED FREE ENERGY PREDICTED BY IDOCK:   -5.21 KCAL/MOL
REMARK 922        TOTAL FREE ENERGY PREDICTED BY IDOCK:   -9.98 KCAL/MOL
REMARK 923 INTER-LIGAND FREE ENERGY PREDICTED BY IDOCK:   -7.87 KCAL/MOL
REMARK 924 INTRA-LIGAND FREE ENERGY PREDICTED BY IDOCK:   -2.10 KCAL/MOL
REMARK 927      BINDING AFFINITY PREDICTED BY RF-SCORE:    0.00 PKD
ROOT
HETATM    1  C   UNL     1      -9.059   5.369  69.204  1.00  0.00    -0.131 C  
HETATM    2  C   UNL     1      -8.027   6.383  68.737  1.00  0.00    -0.110 C  
ENDROOT
BRANCH   2   3
HETATM    3  C   UNL     1      -7.723   6.251  67.250  1.00  0.00    -0.100 C  
BRANCH   3   4
HETATM    4  N   UNL     1      -6.928   7.427  66.794  1.00  0.00    -0.075 N  
HETATM    5  H   UNL     1      -6.334   7.985  67.407  1.00  0.00     0.000 HD 
BRANCH   4   6
HETATM    6  S   UNL     1      -7.128   7.726  65.156  1.00  0.00    -0.061 S  
HETATM    7  O   UNL     1      -5.895   7.280  64.544  1.00  0.00    -0.036 OA 
HETATM    8  O   UNL     1      -8.406   7.209  64.744  1.00  0.00    -0.091 OA 
BRANCH   6   9
HETATM    9  N   UNL     1      -7.110   9.400  65.101  1.00  0.00    -0.097 N  
HETATM   10  H   UNL     1      -6.312   9.941  65.434  1.00  0.00     0.000 HD 
BRANCH   9  11
HETATM   11  C   UNL     1      -8.264  10.020  64.567  1.00  0.00    -0.164 A  
HETATM   12  C   UNL     1      -9.373  10.406  65.330  1.00  0.00    -0.252 A  
HETATM   13  C   UNL     1     -10.295  11.114  64.545  1.00  0.00    -0.337 A  
HETATM   14  N   UNL     1      -8.124  10.167  63.235  1.00  0.00    -0.155 NA 
HETATM   15  N   UNL     1     -10.189  11.328  63.215  1.00  0.00    -0.367 NA 
HETATM   16  C   UNL     1      -9.107  10.824  62.623  1.00  0.00    -0.318 A  
BRANCH  12  17
HETATM   17  C   UNL     1      -9.611  10.086  66.785  1.00  0.00    -0.228 A  
HETATM   18  C   UNL     1      -9.144  10.883  67.844  1.00  0.00    -0.149 A  
HETATM   19  C   UNL     1      -9.445  10.633  69.189  1.00  0.00    -0.185 A  
HETATM   20  C   UNL     1     -10.684   8.698  68.528  1.00  0.00    -0.091 A  
HETATM   21  C   UNL     1     -10.348   8.950  67.186  1.00  0.00    -0.351 A  
HETATM   22 BR   UNL     1     -10.734   9.271  71.324  1.00  0.00    -0.431 Br 
HETATM   23  C   UNL     1     -10.243   9.555  69.524  1.00  0.00    -0.213 A  
ENDBRANCH  12  17
BRANCH  13  24
HETATM   24  O   UNL     1     -11.399  11.649  65.178  1.00  0.00    -0.256 OA 
BRANCH  24  25
HETATM   25  C   UNL     1     -11.631  13.050  65.033  1.00  0.00    -0.325 C  
BRANCH  25  26
HETATM   26  C   UNL     1     -12.216  13.546  66.356  1.00  0.00    -0.400 C  
BRANCH  26  27
HETATM   27  O   UNL     1     -11.168  13.857  67.269  1.00  0.00    -0.295 OA 
BRANCH  27  28
HETATM   28  C   UNL     1     -11.618  14.037  68.561  1.00  0.00    -0.322 A  
HETATM   29  N   UNL     1     -11.906  12.971  69.331  1.00  0.00    -0.322 NA 
HETATM   30  C   UNL     1     -12.339  13.243  70.582  1.00  0.00    -0.339 A  
HETATM   31  C   UNL     1     -12.488  14.518  71.076  1.00  0.00    -0.341 A  
HETATM   32  C   UNL     1     -12.170  15.530  70.201  1.00  0.00    -0.376 A  
HETATM   33 BR   UNL     1     -13.085  14.853  72.823  1.00  0.00    -0.614 Br 
HETATM   34  N   UNL     1     -11.734  15.319  68.940  1.00  0.00    -0.339 NA 
ENDBRANCH  27  28
ENDBRANCH  26  27
ENDBRANCH  25  26
ENDBRANCH  24  25
ENDBRANCH  13  24
ENDBRANCH   9  11
ENDBRANCH   6   9
ENDBRANCH   4   6
ENDBRANCH   3   4
ENDBRANCH   2   3
TORSDOF 11
ENDMDL
MODEL       93
REMARK 921   NORMALIZED FREE ENERGY PREDICTED BY IDOCK:   -5.18 KCAL/MOL
REMARK 922        TOTAL FREE ENERGY PREDICTED BY IDOCK:   -9.92 KCAL/MOL
REMARK 923 INTER-LIGAND FREE ENERGY PREDICTED BY IDOCK:   -8.26 KCAL/MOL
REMARK 924 INTRA-LIGAND FREE ENERGY PREDICTED BY IDOCK:   -1.66 KCAL/MOL
REMARK 927      BINDING AFFINITY PREDICTED BY RF-SCORE:    0.00 PKD
ROOT
HETATM    1  C   UNL     1     -10.854   5.226  71.700  1.00  0.00    -0.181 C  
HETATM    2  C   UNL     1     -10.041   5.009  70.434  1.00  0.00    -0.330 C  
ENDROOT
BRANCH   2   3
HETATM    3  C   UNL     1     -10.504   5.904  69.291  1.00  0.00    -0.274 C  
BRANCH   3   4
HETATM    4  N   UNL     1      -9.353   6.210  68.395  1.00  0.00    -0.117 N  
HETATM    5  H   UNL     1      -8.376   6.079  68.658  1.00  0.00     0.000 HD 
BRANCH   4   6
HETATM    6  S   UNL     1      -9.853   6.794  66.905  1.00  0.00    -0.178 S  
HETATM    7  O   UNL     1      -9.302   5.868  65.938  1.00  0.00    -0.140 OA 
HETATM    8  O   UNL     1     -11.263   7.071  66.967  1.00  0.00    -0.328 OA 
BRANCH   6   9
HETATM    9  N   UNL     1      -8.968   8.209  66.769  1.00  0.00    -0.139 N  
HETATM   10  H   UNL     1      -7.950   8.202  66.696  1.00  0.00     0.000 HD 
BRANCH   9  11
HETATM   11  C   UNL     1      -9.710   9.413  66.760  1.00  0.00    -0.198 A  
HETATM   12  C   UNL     1     -10.070  10.123  67.913  1.00  0.00    -0.207 A  
HETATM   13  C   UNL     1     -10.681  11.340  67.576  1.00  0.00    -0.232 A  
HETATM   14  N   UNL     1     -10.011   9.750  65.490  1.00  0.00    -0.305 NA 
HETATM   15  N   UNL     1     -10.971  11.750  66.321  1.00  0.00    -0.290 NA 
HETATM   16  C   UNL     1     -10.633  10.917  65.338  1.00  0.00    -0.173 A  
BRANCH  12  17
HETATM   17  C   UNL     1      -9.892   9.662  69.337  1.00  0.00    -0.203 A  
HETATM   18  C   UNL     1     -10.961   9.365  70.199  1.00  0.00    -0.282 A  
HETATM   19  C   UNL     1     -10.792   8.849  71.491  1.00  0.00    -0.396 A  
HETATM   20  C   UNL     1      -8.421   8.934  71.188  1.00  0.00    -0.250 A  
HETATM   21  C   UNL     1      -8.612   9.477  69.906  1.00  0.00    -0.217 A  
HETATM   22 BR   UNL     1      -9.286   7.818  73.668  1.00  0.00    -0.310 Br 
HETATM   23  C   UNL     1      -9.517   8.606  71.969  1.00  0.00    -0.300 A  
ENDBRANCH  12  17
BRANCH  13  24
HETATM   24  O   UNL     1     -11.005  12.200  68.605  1.00  0.00    -0.222 OA 
BRANCH  24  25
HETATM   25  C   UNL     1     -11.808  13.338  68.289  1.00  0.00    -0.354 C  
BRANCH  25  26
HETATM   26  C   UNL     1     -11.332  14.484  69.182  1.00  0.00    -0.277 C  
BRANCH  26  27
HETATM   27  O   UNL     1     -11.733  15.734  68.629  1.00  0.00    -0.375 OA 
BRANCH  27  28
HETATM   28  C   UNL     1     -10.678  16.445  68.092  1.00  0.00    -0.336 A  
HETATM   29  N   UNL     1      -9.898  17.201  68.886  1.00  0.00    -0.279 NA 
HETATM   30  C   UNL     1      -8.889  17.860  68.274  1.00  0.00    -0.275 A  
HETATM   31  C   UNL     1      -8.643  17.788  66.923  1.00  0.00    -0.244 A  
HETATM   32  C   UNL     1      -9.506  16.991  66.208  1.00  0.00    -0.256 A  
HETATM   33 BR   UNL     1      -7.227  18.713  66.110  1.00  0.00    -0.296 Br 
HETATM   34  N   UNL     1     -10.531  16.310  66.765  1.00  0.00    -0.298 NA 
ENDBRANCH  27  28
ENDBRANCH  26  27
ENDBRANCH  25  26
ENDBRANCH  24  25
ENDBRANCH  13  24
ENDBRANCH   9  11
ENDBRANCH   6   9
ENDBRANCH   4   6
ENDBRANCH   3   4
ENDBRANCH   2   3
TORSDOF 11
ENDMDL
MODEL       94
REMARK 921   NORMALIZED FREE ENERGY PREDICTED BY IDOCK:   -5.17 KCAL/MOL
REMARK 922        TOTAL FREE ENERGY PREDICTED BY IDOCK:   -9.90 KCAL/MOL
REMARK 923 INTER-LIGAND FREE ENERGY PREDICTED BY IDOCK:   -7.91 KCAL/MOL
REMARK 924 INTRA-LIGAND FREE ENERGY PREDICTED BY IDOCK:   -1.99 KCAL/MOL
REMARK 927      BINDING AFFINITY PREDICTED BY RF-SCORE:    0.00 PKD
ROOT
HETATM    1  C   UNL     1     -11.435  15.647  68.284  1.00  0.00    -0.353 C  
HETATM    2  C   UNL     1     -11.869  14.238  67.916  1.00  0.00    -0.393 C  
ENDROOT
BRANCH   2   3
HETATM    3  C   UNL     1     -12.190  14.104  66.432  1.00  0.00    -0.446 C  
BRANCH   3   4
HETATM    4  N   UNL     1     -10.987  13.614  65.701  1.00  0.00    -0.288 N  
HETATM    5  H   UNL     1     -10.190  14.201  65.456  1.00  0.00     0.000 HD 
BRANCH   4   6
HETATM    6  S   UNL     1     -11.098  11.982  65.329  1.00  0.00    -0.310 S  
HETATM    7  O   UNL     1     -11.681  11.372  66.505  1.00  0.00    -0.388 OA 
HETATM    8  O   UNL     1     -11.698  11.844  64.029  1.00  0.00    -0.384 OA 
BRANCH   6   9
HETATM    9  N   UNL     1      -9.488  11.520  65.300  1.00  0.00    -0.311 N  
HETATM   10  H   UNL     1      -9.018  11.262  64.432  1.00  0.00     0.000 HD 
BRANCH   9  11
HETATM   11  C   UNL     1      -8.818  11.506  66.546  1.00  0.00    -0.190 A  
HETATM   12  C   UNL     1      -8.483  10.340  67.246  1.00  0.00    -0.125 A  
HETATM   13  C   UNL     1      -7.709  10.643  68.375  1.00  0.00    -0.106 A  
HETATM   14  N   UNL     1      -8.569  12.770  66.940  1.00  0.00    -0.176 NA 
HETATM   15  N   UNL     1      -7.393  11.887  68.797  1.00  0.00    -0.112 NA 
HETATM   16  C   UNL     1      -7.859  12.893  68.059  1.00  0.00    -0.149 A  
BRANCH  12  17
HETATM   17  C   UNL     1      -8.914   8.936  66.899  1.00  0.00    -0.150 A  
HETATM   18  C   UNL     1      -8.083   8.005  66.253  1.00  0.00    -0.112 A  
HETATM   19  C   UNL     1      -8.453   6.674  66.016  1.00  0.00    -0.142 A  
HETATM   20  C   UNL     1     -10.580   7.112  67.017  1.00  0.00    -0.413 A  
HETATM   21  C   UNL     1     -10.200   8.450  67.222  1.00  0.00    -0.349 A  
HETATM   22 BR   UNL     1     -10.160   4.410  66.202  1.00  0.00    -0.225 Br 
HETATM   23  C   UNL     1      -9.694   6.225  66.429  1.00  0.00    -0.099 A  
ENDBRANCH  12  17
BRANCH  13  24
HETATM   24  O   UNL     1      -7.216   9.588  69.116  1.00  0.00    -0.064 OA 
BRANCH  24  25
HETATM   25  C   UNL     1      -6.947   9.818  70.499  1.00  0.00    -0.126 C  
BRANCH  25  26
HETATM   26  C   UNL     1      -7.758   8.790  71.289  1.00  0.00    -0.120 C  
BRANCH  26  27
HETATM   27  O   UNL     1      -8.693   8.141  70.432  1.00  0.00    -0.131 OA 
BRANCH  27  28
HETATM   28  C   UNL     1     -10.002   8.318  70.835  1.00  0.00    -0.190 A  
HETATM   29  N   UNL     1     -10.451   9.546  71.153  1.00  0.00    -0.315 NA 
HETATM   30  C   UNL     1     -11.745   9.624  71.534  1.00  0.00    -0.400 A  
HETATM   31  C   UNL     1     -12.584   8.537  71.607  1.00  0.00    -0.333 A  
HETATM   32  C   UNL     1     -12.017   7.331  71.265  1.00  0.00    -0.324 A  
HETATM   33 BR   UNL     1     -14.378   8.688  72.135  1.00  0.00    -0.456 Br 
HETATM   34  N   UNL     1     -10.731   7.193  70.878  1.00  0.00    -0.228 NA 
ENDBRANCH  27  28
ENDBRANCH  26  27
ENDBRANCH  25  26
ENDBRANCH  24  25
ENDBRANCH  13  24
ENDBRANCH   9  11
ENDBRANCH   6   9
ENDBRANCH   4   6
ENDBRANCH   3   4
ENDBRANCH   2   3
TORSDOF 11
ENDMDL
MODEL       95
REMARK 921   NORMALIZED FREE ENERGY PREDICTED BY IDOCK:   -5.16 KCAL/MOL
REMARK 922        TOTAL FREE ENERGY PREDICTED BY IDOCK:   -9.90 KCAL/MOL
REMARK 923 INTER-LIGAND FREE ENERGY PREDICTED BY IDOCK:   -8.54 KCAL/MOL
REMARK 924 INTRA-LIGAND FREE ENERGY PREDICTED BY IDOCK:   -1.36 KCAL/MOL
REMARK 927      BINDING AFFINITY PREDICTED BY RF-SCORE:    0.00 PKD
ROOT
HETATM    1  C   UNL     1     -11.533  14.716  64.806  1.00  0.00    -0.410 C  
HETATM    2  C   UNL     1     -11.619  13.198  64.841  1.00  0.00    -0.356 C  
ENDROOT
BRANCH   2   3
HETATM    3  C   UNL     1     -11.016  12.559  63.595  1.00  0.00    -0.456 C  
BRANCH   3   4
HETATM    4  N   UNL     1      -9.553  12.355  63.795  1.00  0.00    -0.529 N  
HETATM    5  H   UNL     1      -8.870  13.112  63.820  1.00  0.00     0.000 HD 
BRANCH   4   6
HETATM    6  S   UNL     1      -9.163  10.734  63.974  1.00  0.00    -0.223 S  
HETATM    7  O   UNL     1     -10.360  10.120  64.509  1.00  0.00    -0.166 OA 
HETATM    8  O   UNL     1      -8.554  10.268  62.757  1.00  0.00    -0.156 OA 
BRANCH   6   9
HETATM    9  N   UNL     1      -8.049  10.778  65.224  1.00  0.00    -0.328 N  
HETATM   10  H   UNL     1      -7.049  10.657  65.059  1.00  0.00     0.000 HD 
BRANCH   9  11
HETATM   11  C   UNL     1      -8.573  10.992  66.521  1.00  0.00    -0.165 A  
HETATM   12  C   UNL     1      -8.838   9.969  67.440  1.00  0.00    -0.132 A  
HETATM   13  C   UNL     1      -9.220  10.502  68.680  1.00  0.00    -0.172 A  
HETATM   14  N   UNL     1      -8.774  12.310  66.716  1.00  0.00    -0.196 NA 
HETATM   15  N   UNL     1      -9.399  11.815  68.946  1.00  0.00     0.003 NA 
HETATM   16  C   UNL     1      -9.181  12.654  67.935  1.00  0.00    -0.201 A  
BRANCH  12  17
HETATM   17  C   UNL     1      -8.782   8.487  67.167  1.00  0.00    -0.134 A  
HETATM   18  C   UNL     1      -7.614   7.716  67.293  1.00  0.00    -0.108 A  
HETATM   19  C   UNL     1      -7.586   6.324  67.128  1.00  0.00    -0.096 A  
HETATM   20  C   UNL     1      -9.925   6.360  66.633  1.00  0.00    -0.207 A  
HETATM   21  C   UNL     1      -9.927   7.758  66.775  1.00  0.00    -0.331 A  
HETATM   22 BR   UNL     1      -8.741   3.763  66.704  1.00  0.00    -0.128 Br 
HETATM   23  C   UNL     1      -8.753   5.647  66.828  1.00  0.00    -0.115 A  
ENDBRANCH  12  17
BRANCH  13  24
HETATM   24  O   UNL     1      -9.420   9.620  69.722  1.00  0.00    -0.191 OA 
BRANCH  24  25
HETATM   25  C   UNL     1     -10.701   8.998  69.826  1.00  0.00    -0.225 C  
BRANCH  25  26
HETATM   26  C   UNL     1     -11.498   9.785  70.867  1.00  0.00    -0.369 C  
BRANCH  26  27
HETATM   27  O   UNL     1     -12.465  10.609  70.221  1.00  0.00    -0.318 OA 
BRANCH  27  28
HETATM   28  C   UNL     1     -12.614  11.839  70.830  1.00  0.00    -0.253 A  
HETATM   29  N   UNL     1     -12.029  12.929  70.300  1.00  0.00    -0.327 NA 
HETATM   30  C   UNL     1     -12.230  14.091  70.962  1.00  0.00    -0.353 A  
HETATM   31  C   UNL     1     -12.981  14.192  72.110  1.00  0.00    -0.376 A  
HETATM   32  C   UNL     1     -13.526  13.014  72.564  1.00  0.00    -0.419 A  
HETATM   33 BR   UNL     1     -13.243  15.825  72.996  1.00  0.00    -0.699 Br 
HETATM   34  N   UNL     1     -13.359  11.825  71.945  1.00  0.00    -0.401 NA 
ENDBRANCH  27  28
ENDBRANCH  26  27
ENDBRANCH  25  26
ENDBRANCH  24  25
ENDBRANCH  13  24
ENDBRANCH   9  11
ENDBRANCH   6   9
ENDBRANCH   4   6
ENDBRANCH   3   4
ENDBRANCH   2   3
TORSDOF 11
ENDMDL
MODEL       96
REMARK 921   NORMALIZED FREE ENERGY PREDICTED BY IDOCK:   -5.16 KCAL/MOL
REMARK 922        TOTAL FREE ENERGY PREDICTED BY IDOCK:   -9.89 KCAL/MOL
REMARK 923 INTER-LIGAND FREE ENERGY PREDICTED BY IDOCK:   -8.18 KCAL/MOL
REMARK 924 INTRA-LIGAND FREE ENERGY PREDICTED BY IDOCK:   -1.71 KCAL/MOL
REMARK 927      BINDING AFFINITY PREDICTED BY RF-SCORE:    0.00 PKD
ROOT
HETATM    1  C   UNL     1      -8.303   4.996  70.348  1.00  0.00    -0.100 C  
HETATM    2  C   UNL     1      -9.305   4.071  69.675  1.00  0.00    -0.243 C  
ENDROOT
BRANCH   2   3
HETATM    3  C   UNL     1      -9.262   4.185  68.156  1.00  0.00    -0.147 C  
BRANCH   3   4
HETATM    4  N   UNL     1      -8.131   5.067  67.751  1.00  0.00    -0.098 N  
HETATM    5  H   UNL     1      -7.267   5.167  68.283  1.00  0.00     0.000 HD 
BRANCH   4   6
HETATM    6  S   UNL     1      -8.447   5.876  66.316  1.00  0.00    -0.133 S  
HETATM    7  O   UNL     1      -7.519   5.311  65.359  1.00  0.00    -0.074 OA 
HETATM    8  O   UNL     1      -9.866   5.871  66.085  1.00  0.00    -0.118 OA 
BRANCH   6   9
HETATM    9  N   UNL     1      -7.898   7.421  66.657  1.00  0.00    -0.107 N  
HETATM   10  H   UNL     1      -7.022   7.584  67.154  1.00  0.00     0.000 HD 
BRANCH   9  11
HETATM   11  C   UNL     1      -8.719   8.487  66.219  1.00  0.00    -0.142 A  
HETATM   12  C   UNL     1      -9.591   9.201  67.050  1.00  0.00    -0.223 A  
HETATM   13  C   UNL     1     -10.163  10.280  66.361  1.00  0.00    -0.225 A  
HETATM   14  N   UNL     1      -8.530   8.691  64.900  1.00  0.00    -0.174 NA 
HETATM   15  N   UNL     1      -9.980  10.558  65.051  1.00  0.00    -0.301 NA 
HETATM   16  C   UNL     1      -9.180   9.731  64.381  1.00  0.00    -0.245 A  
BRANCH  12  17
HETATM   17  C   UNL     1      -9.937   8.865  68.480  1.00  0.00    -0.195 A  
HETATM   18  C   UNL     1     -10.781   7.803  68.847  1.00  0.00    -0.108 A  
HETATM   19  C   UNL     1     -11.026   7.437  70.177  1.00  0.00    -0.272 A  
HETATM   20  C   UNL     1      -9.624   9.232  70.905  1.00  0.00    -0.339 A  
HETATM   21  C   UNL     1      -9.412   9.600  69.565  1.00  0.00    -0.211 A  
HETATM   22 BR   UNL     1     -10.665   7.586  72.992  1.00  0.00    -0.454 Br 
HETATM   23  C   UNL     1     -10.419   8.137  71.204  1.00  0.00    -0.199 A  
ENDBRANCH  12  17
BRANCH  13  24
HETATM   24  O   UNL     1     -10.973  11.140  67.075  1.00  0.00    -0.275 OA 
BRANCH  24  25
HETATM   25  C   UNL     1     -11.588  12.214  66.363  1.00  0.00    -0.364 C  
BRANCH  25  26
HETATM   26  C   UNL     1     -11.091  13.514  66.998  1.00  0.00    -0.296 C  
BRANCH  26  27
HETATM   27  O   UNL     1     -10.765  14.460  65.984  1.00  0.00    -0.291 OA 
BRANCH  27  28
HETATM   28  C   UNL     1     -10.596  15.738  66.478  1.00  0.00    -0.306 A  
HETATM   29  N   UNL     1     -10.298  16.751  65.642  1.00  0.00    -0.562 NA 
HETATM   30  C   UNL     1     -10.154  17.967  66.213  1.00  0.00    -0.363 A  
HETATM   31  C   UNL     1     -10.295  18.196  67.562  1.00  0.00    -0.392 A  
HETATM   32  C   UNL     1     -10.594  17.089  68.320  1.00  0.00    -0.372 A  
HETATM   33 BR   UNL     1     -10.093  19.903  68.316  1.00  0.00    -0.543 Br 
HETATM   34  N   UNL     1     -10.749  15.850  67.806  1.00  0.00    -0.312 NA 
ENDBRANCH  27  28
ENDBRANCH  26  27
ENDBRANCH  25  26
ENDBRANCH  24  25
ENDBRANCH  13  24
ENDBRANCH   9  11
ENDBRANCH   6   9
ENDBRANCH   4   6
ENDBRANCH   3   4
ENDBRANCH   2   3
TORSDOF 11
ENDMDL
MODEL       97
REMARK 921   NORMALIZED FREE ENERGY PREDICTED BY IDOCK:   -5.15 KCAL/MOL
REMARK 922        TOTAL FREE ENERGY PREDICTED BY IDOCK:   -9.89 KCAL/MOL
REMARK 923 INTER-LIGAND FREE ENERGY PREDICTED BY IDOCK:   -7.24 KCAL/MOL
REMARK 924 INTRA-LIGAND FREE ENERGY PREDICTED BY IDOCK:   -2.65 KCAL/MOL
REMARK 927      BINDING AFFINITY PREDICTED BY RF-SCORE:    0.00 PKD
ROOT
HETATM    1  C   UNL     1     -10.200   5.171  69.868  1.00  0.00    -0.361 C  
HETATM    2  C   UNL     1      -8.803   5.641  69.497  1.00  0.00    -0.116 C  
ENDROOT
BRANCH   2   3
HETATM    3  C   UNL     1      -8.234   6.617  70.520  1.00  0.00    -0.118 C  
BRANCH   3   4
HETATM    4  N   UNL     1      -7.847   7.886  69.840  1.00  0.00    -0.101 N  
HETATM    5  H   UNL     1      -7.542   7.942  68.868  1.00  0.00     0.000 HD 
BRANCH   4   6
HETATM    6  S   UNL     1      -7.971   9.210  70.861  1.00  0.00    -0.123 S  
HETATM    7  O   UNL     1      -8.525   8.682  72.089  1.00  0.00    -0.285 OA 
HETATM    8  O   UNL     1      -6.724   9.928  70.842  1.00  0.00    -0.265 OA 
BRANCH   6   9
HETATM    9  N   UNL     1      -9.188  10.101  70.132  1.00  0.00    -0.369 N  
HETATM   10  H   UNL     1      -9.689  10.836  70.631  1.00  0.00     0.000 HD 
BRANCH   9  11
HETATM   11  C   UNL     1      -9.480   9.776  68.787  1.00  0.00    -0.154 A  
HETATM   12  C   UNL     1      -8.898  10.409  67.681  1.00  0.00    -0.124 A  
HETATM   13  C   UNL     1      -9.284   9.780  66.488  1.00  0.00    -0.156 A  
HETATM   14  N   UNL     1     -10.395   8.787  68.748  1.00  0.00    -0.214 NA 
HETATM   15  N   UNL     1     -10.164   8.759  66.390  1.00  0.00    -0.259 NA 
HETATM   16  C   UNL     1     -10.690   8.325  67.535  1.00  0.00    -0.147 A  
BRANCH  12  17
HETATM   17  C   UNL     1      -8.013  11.630  67.715  1.00  0.00    -0.131 A  
HETATM   18  C   UNL     1      -8.493  12.933  67.927  1.00  0.00    -0.181 A  
HETATM   19  C   UNL     1      -7.658  14.053  68.050  1.00  0.00    -0.143 A  
HETATM   20  C   UNL     1      -5.758  12.646  67.696  1.00  0.00    -0.136 A  
HETATM   21  C   UNL     1      -6.613  11.540  67.548  1.00  0.00    -0.087 A  
HETATM   22 BR   UNL     1      -5.155  15.384  68.228  1.00  0.00    -0.113 Br 
HETATM   23  C   UNL     1      -6.287  13.898  67.964  1.00  0.00    -0.142 A  
ENDBRANCH  12  17
BRANCH  13  24
HETATM   24  O   UNL     1      -8.713  10.228  65.314  1.00  0.00    -0.156 OA 
BRANCH  24  25
HETATM   25  C   UNL     1      -9.589  10.552  64.234  1.00  0.00    -0.307 C  
BRANCH  25  26
HETATM   26  C   UNL     1     -10.073  11.984  64.464  1.00  0.00    -0.265 C  
BRANCH  26  27
HETATM   27  O   UNL     1     -11.445  11.981  64.849  1.00  0.00    -0.324 OA 
BRANCH  27  28
HETATM   28  C   UNL     1     -11.656  12.558  66.085  1.00  0.00    -0.395 A  
HETATM   29  N   UNL     1     -11.944  11.788  67.151  1.00  0.00    -0.595 NA 
HETATM   30  C   UNL     1     -12.133  12.439  68.320  1.00  0.00    -0.048 A  
HETATM   31  C   UNL     1     -12.046  13.805  68.452  1.00  0.00    -0.289 A  
HETATM   32  C   UNL     1     -11.753  14.492  67.298  1.00  0.00    -0.406 A  
HETATM   33 BR   UNL     1     -12.309  14.672  70.096  1.00  0.00    -0.381 Br 
HETATM   34  N   UNL     1     -11.555  13.896  66.102  1.00  0.00    -0.345 NA 
ENDBRANCH  27  28
ENDBRANCH  26  27
ENDBRANCH  25  26
ENDBRANCH  24  25
ENDBRANCH  13  24
ENDBRANCH   9  11
ENDBRANCH   6   9
ENDBRANCH   4   6
ENDBRANCH   3   4
ENDBRANCH   2   3
TORSDOF 11
ENDMDL
MODEL       98
REMARK 921   NORMALIZED FREE ENERGY PREDICTED BY IDOCK:   -5.09 KCAL/MOL
REMARK 922        TOTAL FREE ENERGY PREDICTED BY IDOCK:   -9.78 KCAL/MOL
REMARK 923 INTER-LIGAND FREE ENERGY PREDICTED BY IDOCK:   -7.72 KCAL/MOL
REMARK 924 INTRA-LIGAND FREE ENERGY PREDICTED BY IDOCK:   -2.05 KCAL/MOL
REMARK 927      BINDING AFFINITY PREDICTED BY RF-SCORE:    0.00 PKD
ROOT
HETATM    1  C   UNL     1     -10.375  11.002  63.624  1.00  0.00    -0.415 C  
HETATM    2  C   UNL     1      -9.063  10.488  63.054  1.00  0.00    -0.281 C  
ENDROOT
BRANCH   2   3
HETATM    3  C   UNL     1      -8.653   9.154  63.665  1.00  0.00    -0.166 C  
BRANCH   3   4
HETATM    4  N   UNL     1      -9.049   9.118  65.102  1.00  0.00    -0.335 N  
HETATM    5  H   UNL     1      -9.524   9.882  65.581  1.00  0.00     0.000 HD 
BRANCH   4   6
HETATM    6  S   UNL     1      -8.621   7.672  65.836  1.00  0.00    -0.136 S  
HETATM    7  O   UNL     1      -9.802   7.261  66.565  1.00  0.00    -0.193 OA 
HETATM    8  O   UNL     1      -8.005   6.819  64.855  1.00  0.00    -0.117 OA 
BRANCH   6   9
HETATM    9  N   UNL     1      -7.506   8.177  66.979  1.00  0.00    -0.087 N  
HETATM   10  H   UNL     1      -7.068   7.523  67.630  1.00  0.00     0.000 HD 
BRANCH   9  11
HETATM   11  C   UNL     1      -7.205   9.559  66.992  1.00  0.00    -0.087 A  
HETATM   12  C   UNL     1      -7.864  10.500  67.793  1.00  0.00    -0.104 A  
HETATM   13  C   UNL     1      -7.255  11.758  67.685  1.00  0.00    -0.111 A  
HETATM   14  N   UNL     1      -6.208   9.813  66.121  1.00  0.00    -0.064 NA 
HETATM   15  N   UNL     1      -6.228  12.064  66.861  1.00  0.00    -0.147 NA 
HETATM   16  C   UNL     1      -5.767  11.069  66.104  1.00  0.00    -0.143 A  
BRANCH  12  17
HETATM   17  C   UNL     1      -9.092  10.253  68.634  1.00  0.00    -0.152 A  
HETATM   18  C   UNL     1      -9.048   9.755  69.947  1.00  0.00    -0.257 A  
HETATM   19  C   UNL     1     -10.183   9.613  70.757  1.00  0.00    -0.330 A  
HETATM   20  C   UNL     1     -11.538  10.418  68.959  1.00  0.00    -0.220 A  
HETATM   21  C   UNL     1     -10.391  10.527  68.153  1.00  0.00    -0.201 A  
HETATM   22 BR   UNL     1     -12.940   9.884  71.386  1.00  0.00    -0.535 Br 
HETATM   23  C   UNL     1     -11.424   9.977  70.267  1.00  0.00    -0.300 A  
ENDBRANCH  12  17
BRANCH  13  24
HETATM   24  O   UNL     1      -7.729  12.772  68.493  1.00  0.00    -0.132 OA 
BRANCH  24  25
HETATM   25  C   UNL     1      -7.796  14.085  67.937  1.00  0.00    -0.160 C  
BRANCH  25  26
HETATM   26  C   UNL     1      -9.242  14.313  67.497  1.00  0.00    -0.197 C  
BRANCH  26  27
HETATM   27  O   UNL     1      -9.767  15.478  68.126  1.00  0.00    -0.206 OA 
BRANCH  27  28
HETATM   28  C   UNL     1     -10.707  15.188  69.095  1.00  0.00    -0.253 A  
HETATM   29  N   UNL     1     -11.043  16.117  70.009  1.00  0.00    -0.347 NA 
HETATM   30  C   UNL     1     -11.973  15.746  70.918  1.00  0.00    -0.413 A  
HETATM   31  C   UNL     1     -12.561  14.503  70.940  1.00  0.00    -0.344 A  
HETATM   32  C   UNL     1     -12.138  13.633  69.963  1.00  0.00    -0.348 A  
HETATM   33 BR   UNL     1     -13.853  14.028  72.215  1.00  0.00    -0.678 Br 
HETATM   34  N   UNL     1     -11.213  13.947  69.030  1.00  0.00    -0.263 NA 
ENDBRANCH  27  28
ENDBRANCH  26  27
ENDBRANCH  25  26
ENDBRANCH  24  25
ENDBRANCH  13  24
ENDBRANCH   9  11
ENDBRANCH   6   9
ENDBRANCH   4   6
ENDBRANCH   3   4
ENDBRANCH   2   3
TORSDOF 11
ENDMDL
MODEL       99
REMARK 921   NORMALIZED FREE ENERGY PREDICTED BY IDOCK:   -5.07 KCAL/MOL
REMARK 922        TOTAL FREE ENERGY PREDICTED BY IDOCK:   -9.74 KCAL/MOL
REMARK 923 INTER-LIGAND FREE ENERGY PREDICTED BY IDOCK:   -7.92 KCAL/MOL
REMARK 924 INTRA-LIGAND FREE ENERGY PREDICTED BY IDOCK:   -1.83 KCAL/MOL
REMARK 927      BINDING AFFINITY PREDICTED BY RF-SCORE:    0.00 PKD
ROOT
HETATM    1  C   UNL     1      -9.288  14.898  68.141  1.00  0.00    -0.193 C  
HETATM    2  C   UNL     1      -8.819  14.807  66.698  1.00  0.00    -0.262 C  
ENDROOT
BRANCH   2   3
HETATM    3  C   UNL     1      -9.937  15.113  65.709  1.00  0.00    -0.345 C  
BRANCH   3   4
HETATM    4  N   UNL     1     -10.216  13.908  64.877  1.00  0.00    -0.558 N  
HETATM    5  H   UNL     1      -9.496  13.371  64.393  1.00  0.00     0.000 HD 
BRANCH   4   6
HETATM    6  S   UNL     1     -11.851  13.538  64.833  1.00  0.00    -0.396 S  
HETATM    7  O   UNL     1     -12.315  13.740  66.188  1.00  0.00    -0.445 OA 
HETATM    8  O   UNL     1     -12.450  14.224  63.719  1.00  0.00    -0.810 OA 
BRANCH   6   9
HETATM    9  N   UNL     1     -11.829  11.883  64.577  1.00  0.00    -0.268 N  
HETATM   10  H   UNL     1     -12.669  11.312  64.670  1.00  0.00     0.000 HD 
BRANCH   9  11
HETATM   11  C   UNL     1     -10.579  11.321  64.224  1.00  0.00    -0.358 A  
HETATM   12  C   UNL     1      -9.816  10.507  65.071  1.00  0.00    -0.369 A  
HETATM   13  C   UNL     1      -8.699   9.996  64.395  1.00  0.00    -0.199 A  
HETATM   14  N   UNL     1     -10.251  11.696  62.972  1.00  0.00    -0.321 NA 
HETATM   15  N   UNL     1      -8.342  10.303  63.128  1.00  0.00    -0.160 NA 
HETATM   16  C   UNL     1      -9.135  11.158  62.485  1.00  0.00    -0.303 A  
BRANCH  12  17
HETATM   17  C   UNL     1     -10.090  10.230  66.528  1.00  0.00    -0.290 A  
HETATM   18  C   UNL     1     -10.429   8.962  67.028  1.00  0.00    -0.326 A  
HETATM   19  C   UNL     1     -10.593   8.689  68.393  1.00  0.00    -0.169 A  
HETATM   20  C   UNL     1     -10.138  10.985  68.883  1.00  0.00    -0.212 A  
HETATM   21  C   UNL     1     -10.006  11.244  67.508  1.00  0.00    -0.203 A  
HETATM   22 BR   UNL     1     -10.535   9.316  71.164  1.00  0.00    -0.403 Br 
HETATM   23  C   UNL     1     -10.415   9.699  69.320  1.00  0.00    -0.217 A  
ENDBRANCH  12  17
BRANCH  13  24
HETATM   24  O   UNL     1      -7.900   9.094  65.068  1.00  0.00    -0.105 OA 
BRANCH  24  25
HETATM   25  C   UNL     1      -7.206   8.116  64.292  1.00  0.00    -0.089 C  
BRANCH  25  26
HETATM   26  C   UNL     1      -6.708   7.046  65.264  1.00  0.00    -0.051 C  
BRANCH  26  27
HETATM   27  O   UNL     1      -6.891   5.750  64.700  1.00  0.00    -0.048 OA 
BRANCH  27  28
HETATM   28  C   UNL     1      -7.479   4.861  65.578  1.00  0.00    -0.081 A  
HETATM   29  N   UNL     1      -8.698   4.356  65.312  1.00  0.00    -0.123 NA 
HETATM   30  C   UNL     1      -9.194   3.492  66.225  1.00  0.00    -0.171 A  
HETATM   31  C   UNL     1      -8.525   3.128  67.370  1.00  0.00    -0.092 A  
HETATM   32  C   UNL     1      -7.291   3.710  67.543  1.00  0.00    -0.066 A  
HETATM   33 BR   UNL     1      -9.245   1.920  68.612  1.00  0.00    -0.233 Br 
HETATM   34  N   UNL     1      -6.745   4.580  66.665  1.00  0.00    -0.050 NA 
ENDBRANCH  27  28
ENDBRANCH  26  27
ENDBRANCH  25  26
ENDBRANCH  24  25
ENDBRANCH  13  24
ENDBRANCH   9  11
ENDBRANCH   6   9
ENDBRANCH   4   6
ENDBRANCH   3   4
ENDBRANCH   2   3
TORSDOF 11
ENDMDL
MODEL      100
REMARK 921   NORMALIZED FREE ENERGY PREDICTED BY IDOCK:   -5.05 KCAL/MOL
REMARK 922        TOTAL FREE ENERGY PREDICTED BY IDOCK:   -9.71 KCAL/MOL
REMARK 923 INTER-LIGAND FREE ENERGY PREDICTED BY IDOCK:   -8.12 KCAL/MOL
REMARK 924 INTRA-LIGAND FREE ENERGY PREDICTED BY IDOCK:   -1.59 KCAL/MOL
REMARK 927      BINDING AFFINITY PREDICTED BY RF-SCORE:    0.00 PKD
ROOT
HETATM    1  C   UNL     1     -10.576   3.381  73.406  1.00  0.00    -0.283 C  
HETATM    2  C   UNL     1     -11.042   4.802  73.678  1.00  0.00    -0.380 C  
ENDROOT
BRANCH   2   3
HETATM    3  C   UNL     1     -11.615   5.468  72.432  1.00  0.00    -0.167 C  
BRANCH   3   4
HETATM    4  N   UNL     1     -11.909   6.901  72.720  1.00  0.00    -0.502 N  
HETATM    5  H   UNL     1     -11.832   7.324  73.644  1.00  0.00     0.000 HD 
BRANCH   4   6
HETATM    6  S   UNL     1     -12.381   7.734  71.343  1.00  0.00    -0.312 S  
HETATM    7  O   UNL     1     -11.757   7.025  70.247  1.00  0.00    -0.295 OA 
HETATM    8  O   UNL     1     -13.803   7.945  71.395  1.00  0.00    -0.335 OA 
BRANCH   6   9
HETATM    9  N   UNL     1     -11.553   9.181  71.509  1.00  0.00    -0.341 N  
HETATM   10  H   UNL     1     -12.024  10.041  71.792  1.00  0.00     0.000 HD 
BRANCH   9  11
HETATM   11  C   UNL     1     -10.166   9.143  71.235  1.00  0.00    -0.329 A  
HETATM   12  C   UNL     1      -9.560   9.792  70.152  1.00  0.00    -0.287 A  
HETATM   13  C   UNL     1      -8.164   9.682  70.224  1.00  0.00    -0.191 A  
HETATM   14  N   UNL     1      -9.542   8.391  72.163  1.00  0.00    -0.268 NA 
HETATM   15  N   UNL     1      -7.480   8.976  71.153  1.00  0.00    -0.180 NA 
HETATM   16  C   UNL     1      -8.214   8.349  72.070  1.00  0.00    -0.155 A  
BRANCH  12  17
HETATM   17  C   UNL     1     -10.270  10.484  69.016  1.00  0.00    -0.233 A  
HETATM   18  C   UNL     1     -10.971  11.694  69.158  1.00  0.00    -0.270 A  
HETATM   19  C   UNL     1     -11.551  12.381  68.083  1.00  0.00    -0.395 A  
HETATM   20  C   UNL     1     -10.815  10.648  66.609  1.00  0.00    -0.197 A  
HETATM   21  C   UNL     1     -10.264   9.960  67.704  1.00  0.00    -0.255 A  
HETATM   22 BR   UNL     1     -12.134  12.838  65.340  1.00  0.00    -0.524 Br 
HETATM   23  C   UNL     1     -11.443  11.868  66.804  1.00  0.00    -0.316 A  
ENDBRANCH  12  17
BRANCH  13  24
HETATM   24  O   UNL     1      -7.418  10.356  69.278  1.00  0.00    -0.094 OA 
BRANCH  24  25
HETATM   25  C   UNL     1      -6.213  10.987  69.712  1.00  0.00    -0.113 C  
BRANCH  25  26
HETATM   26  C   UNL     1      -6.414  12.494  69.551  1.00  0.00    -0.083 C  
BRANCH  26  27
HETATM   27  O   UNL     1      -6.113  12.888  68.215  1.00  0.00    -0.068 OA 
BRANCH  27  28
HETATM   28  C   UNL     1      -6.883  13.948  67.782  1.00  0.00    -0.175 A  
HETATM   29  N   UNL     1      -8.216  13.808  67.656  1.00  0.00    -0.163 NA 
HETATM   30  C   UNL     1      -8.889  14.899  67.227  1.00  0.00    -0.201 A  
HETATM   31  C   UNL     1      -8.285  16.097  66.928  1.00  0.00    -0.238 A  
HETATM   32  C   UNL     1      -6.919  16.125  67.088  1.00  0.00    -0.209 A  
HETATM   33 BR   UNL     1      -9.256  17.592  66.342  1.00  0.00    -0.239 Br 
HETATM   34  N   UNL     1      -6.194  15.067  67.512  1.00  0.00    -0.322 NA 
ENDBRANCH  27  28
ENDBRANCH  26  27
ENDBRANCH  25  26
ENDBRANCH  24  25
ENDBRANCH  13  24
ENDBRANCH   9  11
ENDBRANCH   6   9
ENDBRANCH   4   6
ENDBRANCH   3   4
ENDBRANCH   2   3
TORSDOF 11
ENDMDL
MODEL      101
REMARK 921   NORMALIZED FREE ENERGY PREDICTED BY IDOCK:   -5.04 KCAL/MOL
REMARK 922        TOTAL FREE ENERGY PREDICTED BY IDOCK:   -9.69 KCAL/MOL
REMARK 923 INTER-LIGAND FREE ENERGY PREDICTED BY IDOCK:   -9.32 KCAL/MOL
REMARK 924 INTRA-LIGAND FREE ENERGY PREDICTED BY IDOCK:   -0.37 KCAL/MOL
REMARK 927      BINDING AFFINITY PREDICTED BY RF-SCORE:    0.00 PKD
ROOT
HETATM    1  C   UNL     1      -5.632   9.420  70.701  1.00  0.00    -0.045 C  
HETATM    2  C   UNL     1      -6.910   8.975  70.007  1.00  0.00    -0.045 C  
ENDROOT
BRANCH   2   3
HETATM    3  C   UNL     1      -7.856  10.140  69.742  1.00  0.00    -0.166 C  
BRANCH   3   4
HETATM    4  N   UNL     1      -8.947   9.701  68.826  1.00  0.00    -0.131 N  
HETATM    5  H   UNL     1      -8.897   9.763  67.810  1.00  0.00     0.000 HD 
BRANCH   4   6
HETATM    6  S   UNL     1     -10.267   9.094  69.666  1.00  0.00    -0.213 S  
HETATM    7  O   UNL     1     -10.371   7.713  69.246  1.00  0.00    -0.209 OA 
HETATM    8  O   UNL     1     -10.139   9.455  71.052  1.00  0.00    -0.288 OA 
BRANCH   6   9
HETATM    9  N   UNL     1     -11.542   9.909  68.948  1.00  0.00    -0.482 N  
HETATM   10  H   UNL     1     -12.505   9.786  69.263  1.00  0.00     0.000 HD 
BRANCH   9  11
HETATM   11  C   UNL     1     -11.209  10.778  67.882  1.00  0.00    -0.318 A  
HETATM   12  C   UNL     1     -11.216  12.176  67.976  1.00  0.00    -0.319 A  
HETATM   13  C   UNL     1     -10.712  12.755  66.803  1.00  0.00    -0.260 A  
HETATM   14  N   UNL     1     -10.899  10.055  66.789  1.00  0.00    -0.089 NA 
HETATM   15  N   UNL     1     -10.347  12.080  65.690  1.00  0.00    -0.244 NA 
HETATM   16  C   UNL     1     -10.478  10.755  65.738  1.00  0.00    -0.188 A  
BRANCH  12  17
HETATM   17  C   UNL     1     -11.730  12.990  69.137  1.00  0.00    -0.378 A  
HETATM   18  C   UNL     1     -11.841  14.391  69.116  1.00  0.00    -0.359 A  
HETATM   19  C   UNL     1     -12.405  15.136  70.161  1.00  0.00    -0.385 A  
HETATM   20  C   UNL     1     -12.750  13.112  71.387  1.00  0.00    -0.390 A  
HETATM   21  C   UNL     1     -12.156  12.385  70.340  1.00  0.00    -0.381 A  
HETATM   22 BR   UNL     1     -13.737  15.475  72.648  1.00  0.00    -0.661 Br 
HETATM   23  C   UNL     1     -12.887  14.487  71.283  1.00  0.00    -0.332 A  
ENDBRANCH  12  17
BRANCH  13  24
HETATM   24  O   UNL     1     -10.562  14.127  66.778  1.00  0.00    -0.275 OA 
BRANCH  24  25
HETATM   25  C   UNL     1     -10.971  14.817  65.597  1.00  0.00    -0.344 C  
BRANCH  25  26
HETATM   26  C   UNL     1     -10.508  16.266  65.742  1.00  0.00    -0.364 C  
BRANCH  26  27
HETATM   27  O   UNL     1      -9.092  16.344  65.598  1.00  0.00    -0.446 OA 
BRANCH  27  28
HETATM   28  C   UNL     1      -8.516  17.264  66.451  1.00  0.00    -0.269 A  
HETATM   29  N   UNL     1      -8.113  18.460  65.982  1.00  0.00    -0.498 NA 
HETATM   30  C   UNL     1      -7.563  19.297  66.889  1.00  0.00    -0.239 A  
HETATM   31  C   UNL     1      -7.406  18.982  68.219  1.00  0.00    -0.284 A  
HETATM   32  C   UNL     1      -7.848  17.733  68.585  1.00  0.00    -0.278 A  
HETATM   33 BR   UNL     1      -6.642  20.176  69.449  1.00  0.00    -0.246 Br 
HETATM   34  N   UNL     1      -8.405  16.854  67.724  1.00  0.00    -0.192 NA 
ENDBRANCH  27  28
ENDBRANCH  26  27
ENDBRANCH  25  26
ENDBRANCH  24  25
ENDBRANCH  13  24
ENDBRANCH   9  11
ENDBRANCH   6   9
ENDBRANCH   4   6
ENDBRANCH   3   4
ENDBRANCH   2   3
TORSDOF 11
ENDMDL
MODEL      102
REMARK 921   NORMALIZED FREE ENERGY PREDICTED BY IDOCK:   -5.03 KCAL/MOL
REMARK 922        TOTAL FREE ENERGY PREDICTED BY IDOCK:   -9.69 KCAL/MOL
REMARK 923 INTER-LIGAND FREE ENERGY PREDICTED BY IDOCK:   -7.53 KCAL/MOL
REMARK 924 INTRA-LIGAND FREE ENERGY PREDICTED BY IDOCK:   -2.16 KCAL/MOL
REMARK 927      BINDING AFFINITY PREDICTED BY RF-SCORE:    0.00 PKD
ROOT
HETATM    1  C   UNL     1      -9.376   4.118  67.560  1.00  0.00    -0.204 C  
HETATM    2  C   UNL     1      -7.959   4.646  67.403  1.00  0.00    -0.101 C  
ENDROOT
BRANCH   2   3
HETATM    3  C   UNL     1      -7.678   5.129  65.985  1.00  0.00    -0.091 C  
BRANCH   3   4
HETATM    4  N   UNL     1      -6.844   6.362  66.031  1.00  0.00    -0.055 N  
HETATM    5  H   UNL     1      -5.852   6.371  66.269  1.00  0.00     0.000 HD 
BRANCH   4   6
HETATM    6  S   UNL     1      -7.728   7.735  65.648  1.00  0.00    -0.107 S  
HETATM    7  O   UNL     1      -7.314   8.080  64.304  1.00  0.00    -0.084 OA 
HETATM    8  O   UNL     1      -9.109   7.503  65.977  1.00  0.00    -0.162 OA 
BRANCH   6   9
HETATM    9  N   UNL     1      -7.053   8.882  66.665  1.00  0.00    -0.083 N  
HETATM   10  H   UNL     1      -6.411   9.596  66.320  1.00  0.00     0.000 HD 
BRANCH   9  11
HETATM   11  C   UNL     1      -7.422   8.803  68.028  1.00  0.00    -0.093 A  
HETATM   12  C   UNL     1      -8.446   9.561  68.610  1.00  0.00    -0.119 A  
HETATM   13  C   UNL     1      -8.664   9.165  69.938  1.00  0.00    -0.163 A  
HETATM   14  N   UNL     1      -6.638   7.906  68.659  1.00  0.00    -0.055 NA 
HETATM   15  N   UNL     1      -7.938   8.244  70.610  1.00  0.00    -0.090 NA 
HETATM   16  C   UNL     1      -6.945   7.671  69.933  1.00  0.00    -0.054 A  
BRANCH  12  17
HETATM   17  C   UNL     1      -9.205  10.689  67.956  1.00  0.00    -0.148 A  
HETATM   18  C   UNL     1     -10.423  10.516  67.279  1.00  0.00    -0.300 A  
HETATM   19  C   UNL     1     -11.170  11.579  66.752  1.00  0.00    -0.350 A  
HETATM   20  C   UNL     1      -9.486  13.103  67.500  1.00  0.00    -0.212 A  
HETATM   21  C   UNL     1      -8.738  12.021  67.996  1.00  0.00    -0.175 A  
HETATM   22 BR   UNL     1     -11.761  14.317  66.276  1.00  0.00    -0.414 Br 
HETATM   23  C   UNL     1     -10.711  12.875  66.893  1.00  0.00    -0.257 A  
ENDBRANCH  12  17
BRANCH  13  24
HETATM   24  O   UNL     1      -9.712   9.752  70.618  1.00  0.00    -0.228 OA 
BRANCH  24  25
HETATM   25  C   UNL     1     -10.455   8.935  71.522  1.00  0.00    -0.323 C  
BRANCH  25  26
HETATM   26  C   UNL     1     -11.900   9.435  71.493  1.00  0.00    -0.385 C  
BRANCH  26  27
HETATM   27  O   UNL     1     -12.080  10.345  70.412  1.00  0.00    -0.282 OA 
BRANCH  27  28
HETATM   28  C   UNL     1     -12.440  11.611  70.830  1.00  0.00    -0.341 A  
HETATM   29  N   UNL     1     -11.970  12.694  70.185  1.00  0.00    -0.341 NA 
HETATM   30  C   UNL     1     -12.376  13.891  70.662  1.00  0.00    -0.381 A  
HETATM   31  C   UNL     1     -13.217  14.035  71.741  1.00  0.00    -0.375 A  
HETATM   32  C   UNL     1     -13.630  12.861  72.327  1.00  0.00    -0.515 A  
HETATM   33 BR   UNL     1     -13.763  15.716  72.371  1.00  0.00    -0.588 Br 
HETATM   34  N   UNL     1     -13.257  11.637  71.894  1.00  0.00    -0.454 NA 
ENDBRANCH  27  28
ENDBRANCH  26  27
ENDBRANCH  25  26
ENDBRANCH  24  25
ENDBRANCH  13  24
ENDBRANCH   9  11
ENDBRANCH   6   9
ENDBRANCH   4   6
ENDBRANCH   3   4
ENDBRANCH   2   3
TORSDOF 11
ENDMDL
MODEL      103
REMARK 921   NORMALIZED FREE ENERGY PREDICTED BY IDOCK:   -5.03 KCAL/MOL
REMARK 922        TOTAL FREE ENERGY PREDICTED BY IDOCK:   -9.67 KCAL/MOL
REMARK 923 INTER-LIGAND FREE ENERGY PREDICTED BY IDOCK:   -7.67 KCAL/MOL
REMARK 924 INTRA-LIGAND FREE ENERGY PREDICTED BY IDOCK:   -2.00 KCAL/MOL
REMARK 927      BINDING AFFINITY PREDICTED BY RF-SCORE:    0.00 PKD
ROOT
HETATM    1  C   UNL     1     -13.091  15.152  73.427  1.00  0.00    -0.588 C  
HETATM    2  C   UNL     1     -11.659  15.330  72.947  1.00  0.00    -0.394 C  
ENDROOT
BRANCH   2   3
HETATM    3  C   UNL     1     -11.588  16.043  71.602  1.00  0.00    -0.459 C  
BRANCH   3   4
HETATM    4  N   UNL     1     -11.033  15.119  70.573  1.00  0.00    -0.442 N  
HETATM    5  H   UNL     1     -10.039  14.913  70.469  1.00  0.00     0.000 HD 
BRANCH   4   6
HETATM    6  S   UNL     1     -12.234  14.457  69.608  1.00  0.00    -0.270 S  
HETATM    7  O   UNL     1     -11.898  13.053  69.505  1.00  0.00    -0.305 OA 
HETATM    8  O   UNL     1     -13.514  14.894  70.097  1.00  0.00     0.111 OA 
BRANCH   6   9
HETATM    9  N   UNL     1     -11.897  15.139  68.115  1.00  0.00    -0.491 N  
HETATM   10  H   UNL     1     -11.859  16.150  67.981  1.00  0.00     0.000 HD 
BRANCH   9  11
HETATM   11  C   UNL     1     -11.669  14.234  67.051  1.00  0.00    -0.403 A  
HETATM   12  C   UNL     1     -10.405  13.748  66.691  1.00  0.00    -0.279 A  
HETATM   13  C   UNL     1     -10.516  12.769  65.692  1.00  0.00    -0.278 A  
HETATM   14  N   UNL     1     -12.838  13.932  66.454  1.00  0.00    -0.126 NA 
HETATM   15  N   UNL     1     -11.665  12.396  65.085  1.00  0.00    -0.370 NA 
HETATM   16  C   UNL     1     -12.771  13.016  65.491  1.00  0.00    -0.228 A  
BRANCH  12  17
HETATM   17  C   UNL     1      -9.079  14.215  67.237  1.00  0.00    -0.218 A  
HETATM   18  C   UNL     1      -8.366  15.309  66.718  1.00  0.00    -0.258 A  
HETATM   19  C   UNL     1      -7.181  15.797  67.285  1.00  0.00    -0.254 A  
HETATM   20  C   UNL     1      -7.291  14.074  68.940  1.00  0.00    -0.113 A  
HETATM   21  C   UNL     1      -8.463  13.583  68.340  1.00  0.00    -0.143 A  
HETATM   22 BR   UNL     1      -5.125  15.908  69.243  1.00  0.00    -0.106 Br 
HETATM   23  C   UNL     1      -6.664  15.194  68.417  1.00  0.00    -0.110 A  
ENDBRANCH  12  17
BRANCH  13  24
HETATM   24  O   UNL     1      -9.363  12.121  65.299  1.00  0.00    -0.055 OA 
BRANCH  24  25
HETATM   25  C   UNL     1      -9.498  10.827  64.712  1.00  0.00    -0.247 C  
BRANCH  25  26
HETATM   26  C   UNL     1      -9.276   9.804  65.826  1.00  0.00    -0.191 C  
BRANCH  26  27
HETATM   27  O   UNL     1      -8.535  10.394  66.891  1.00  0.00    -0.123 OA 
BRANCH  27  28
HETATM   28  C   UNL     1      -8.864   9.873  68.126  1.00  0.00    -0.118 A  
HETATM   29  N   UNL     1      -7.971   9.131  68.806  1.00  0.00    -0.099 NA 
HETATM   30  C   UNL     1      -8.379   8.664  70.007  1.00  0.00    -0.124 A  
HETATM   31  C   UNL     1      -9.625   8.911  70.536  1.00  0.00    -0.202 A  
HETATM   32  C   UNL     1     -10.457   9.675  69.753  1.00  0.00    -0.238 A  
HETATM   33 BR   UNL     1     -10.152   8.250  72.211  1.00  0.00    -0.390 Br 
HETATM   34  N   UNL     1     -10.104  10.168  68.546  1.00  0.00    -0.162 NA 
ENDBRANCH  27  28
ENDBRANCH  26  27
ENDBRANCH  25  26
ENDBRANCH  24  25
ENDBRANCH  13  24
ENDBRANCH   9  11
ENDBRANCH   6   9
ENDBRANCH   4   6
ENDBRANCH   3   4
ENDBRANCH   2   3
TORSDOF 11
ENDMDL
MODEL      104
REMARK 921   NORMALIZED FREE ENERGY PREDICTED BY IDOCK:   -4.99 KCAL/MOL
REMARK 922        TOTAL FREE ENERGY PREDICTED BY IDOCK:   -9.62 KCAL/MOL
REMARK 923 INTER-LIGAND FREE ENERGY PREDICTED BY IDOCK:   -8.49 KCAL/MOL
REMARK 924 INTRA-LIGAND FREE ENERGY PREDICTED BY IDOCK:   -1.13 KCAL/MOL
REMARK 927      BINDING AFFINITY PREDICTED BY RF-SCORE:    0.00 PKD
ROOT
HETATM    1  C   UNL     1      -9.410   3.660  66.890  1.00  0.00    -0.217 C  
HETATM    2  C   UNL     1     -10.052   4.796  66.110  1.00  0.00    -0.288 C  
ENDROOT
BRANCH   2   3
HETATM    3  C   UNL     1      -9.024   5.628  65.354  1.00  0.00    -0.069 C  
BRANCH   3   4
HETATM    4  N   UNL     1      -9.041   7.029  65.862  1.00  0.00    -0.352 N  
HETATM    5  H   UNL     1      -9.845   7.652  65.790  1.00  0.00     0.000 HD 
BRANCH   4   6
HETATM    6  S   UNL     1      -7.581   7.460  66.567  1.00  0.00    -0.094 S  
HETATM    7  O   UNL     1      -7.539   6.726  67.814  1.00  0.00    -0.102 OA 
HETATM    8  O   UNL     1      -6.539   7.340  65.584  1.00  0.00    -0.046 OA 
BRANCH   6   9
HETATM    9  N   UNL     1      -7.847   9.065  66.968  1.00  0.00    -0.098 N  
HETATM   10  H   UNL     1      -7.350   9.518  67.735  1.00  0.00     0.000 HD 
BRANCH   9  11
HETATM   11  C   UNL     1      -8.800   9.756  66.183  1.00  0.00    -0.141 A  
HETATM   12  C   UNL     1      -9.984  10.308  66.689  1.00  0.00    -0.270 A  
HETATM   13  C   UNL     1     -10.652  11.043  65.700  1.00  0.00    -0.197 A  
HETATM   14  N   UNL     1      -8.392   9.787  64.899  1.00  0.00    -0.139 NA 
HETATM   15  N   UNL     1     -10.270  11.145  64.407  1.00  0.00    -0.304 NA 
HETATM   16  C   UNL     1      -9.160  10.491  64.070  1.00  0.00    -0.231 A  
BRANCH  12  17
HETATM   17  C   UNL     1     -10.530  10.125  68.084  1.00  0.00    -0.243 A  
HETATM   18  C   UNL     1     -11.069  11.170  68.852  1.00  0.00    -0.293 A  
HETATM   19  C   UNL     1     -11.658  10.980  70.109  1.00  0.00    -0.421 A  
HETATM   20  C   UNL     1     -11.163   8.645  69.961  1.00  0.00    -0.098 A  
HETATM   21  C   UNL     1     -10.551   8.861  68.714  1.00  0.00    -0.185 A  
HETATM   22 BR   UNL     1     -12.612   9.430  72.291  1.00  0.00    -0.327 Br 
HETATM   23  C   UNL     1     -11.730   9.707  70.646  1.00  0.00    -0.280 A  
ENDBRANCH  12  17
BRANCH  13  24
HETATM   24  O   UNL     1     -11.789  11.733  66.071  1.00  0.00    -0.446 OA 
BRANCH  24  25
HETATM   25  C   UNL     1     -12.164  12.863  65.284  1.00  0.00    -0.476 C  
BRANCH  25  26
HETATM   26  C   UNL     1     -12.496  13.995  66.257  1.00  0.00    -0.400 C  
BRANCH  26  27
HETATM   27  O   UNL     1     -11.405  14.212  67.147  1.00  0.00    -0.305 OA 
BRANCH  27  28
HETATM   28  C   UNL     1     -11.017  15.535  67.208  1.00  0.00    -0.303 A  
HETATM   29  N   UNL     1     -10.682  16.194  66.084  1.00  0.00    -0.266 NA 
HETATM   30  C   UNL     1     -10.318  17.486  66.240  1.00  0.00    -0.335 A  
HETATM   31  C   UNL     1     -10.279  18.124  67.458  1.00  0.00    -0.371 A  
HETATM   32  C   UNL     1     -10.636  17.353  68.539  1.00  0.00    -0.340 A  
HETATM   33 BR   UNL     1      -9.774  19.923  67.632  1.00  0.00    -0.540 Br 
HETATM   34  N   UNL     1     -11.008  16.058  68.444  1.00  0.00    -0.315 NA 
ENDBRANCH  27  28
ENDBRANCH  26  27
ENDBRANCH  25  26
ENDBRANCH  24  25
ENDBRANCH  13  24
ENDBRANCH   9  11
ENDBRANCH   6   9
ENDBRANCH   4   6
ENDBRANCH   3   4
ENDBRANCH   2   3
TORSDOF 11
ENDMDL
MODEL      105
REMARK 921   NORMALIZED FREE ENERGY PREDICTED BY IDOCK:   -4.99 KCAL/MOL
REMARK 922        TOTAL FREE ENERGY PREDICTED BY IDOCK:   -9.62 KCAL/MOL
REMARK 923 INTER-LIGAND FREE ENERGY PREDICTED BY IDOCK:   -8.67 KCAL/MOL
REMARK 924 INTRA-LIGAND FREE ENERGY PREDICTED BY IDOCK:   -0.95 KCAL/MOL
REMARK 927      BINDING AFFINITY PREDICTED BY RF-SCORE:    0.00 PKD
ROOT
HETATM    1  C   UNL     1      -5.315  10.585  64.373  1.00  0.00    -0.145 C  
HETATM    2  C   UNL     1      -6.442  10.601  65.394  1.00  0.00    -0.034 C  
ENDROOT
BRANCH   2   3
HETATM    3  C   UNL     1      -6.032  11.287  66.691  1.00  0.00    -0.145 C  
BRANCH   3   4
HETATM    4  N   UNL     1      -7.248  11.639  67.478  1.00  0.00    -0.110 N  
HETATM    5  H   UNL     1      -7.967  12.287  67.157  1.00  0.00     0.000 HD 
BRANCH   4   6
HETATM    6  S   UNL     1      -7.294  10.843  68.954  1.00  0.00    -0.121 S  
HETATM    7  O   UNL     1      -6.945   9.472  68.648  1.00  0.00    -0.063 OA 
HETATM    8  O   UNL     1      -6.557  11.614  69.918  1.00  0.00    -0.121 OA 
BRANCH   6   9
HETATM    9  N   UNL     1      -8.932  10.851  69.304  1.00  0.00    -0.388 N  
HETATM   10  H   UNL     1      -9.279  10.771  70.261  1.00  0.00     0.000 HD 
BRANCH   9  11
HETATM   11  C   UNL     1      -9.808  10.975  68.200  1.00  0.00    -0.176 A  
HETATM   12  C   UNL     1     -10.900  11.851  68.157  1.00  0.00    -0.259 A  
HETATM   13  C   UNL     1     -11.492  11.844  66.886  1.00  0.00    -0.322 A  
HETATM   14  N   UNL     1      -9.429  10.125  67.225  1.00  0.00    -0.152 NA 
HETATM   15  N   UNL     1     -11.131  11.045  65.857  1.00  0.00    -0.054 NA 
HETATM   16  C   UNL     1     -10.121  10.209  66.090  1.00  0.00    -0.246 A  
BRANCH  12  17
HETATM   17  C   UNL     1     -11.432  12.671  69.305  1.00  0.00    -0.354 A  
HETATM   18  C   UNL     1     -11.204  14.051  69.447  1.00  0.00    -0.283 A  
HETATM   19  C   UNL     1     -11.776  14.826  70.465  1.00  0.00    -0.350 A  
HETATM   20  C   UNL     1     -12.830  12.865  71.336  1.00  0.00    -0.377 A  
HETATM   21  C   UNL     1     -12.225  12.099  70.324  1.00  0.00    -0.344 A  
HETATM   22 BR   UNL     1     -13.467  15.289  72.700  1.00  0.00    -0.654 Br 
HETATM   23  C   UNL     1     -12.615  14.233  71.390  1.00  0.00    -0.360 A  
ENDBRANCH  12  17
BRANCH  13  24
HETATM   24  O   UNL     1     -12.524  12.732  66.654  1.00  0.00    -0.373 OA 
BRANCH  24  25
HETATM   25  C   UNL     1     -12.178  14.065  66.277  1.00  0.00    -0.462 C  
BRANCH  25  26
HETATM   26  C   UNL     1     -11.880  14.043  64.778  1.00  0.00    -0.403 C  
BRANCH  26  27
HETATM   27  O   UNL     1     -10.477  14.150  64.556  1.00  0.00    -0.408 OA 
BRANCH  27  28
HETATM   28  C   UNL     1      -9.849  14.964  65.477  1.00  0.00    -0.313 A  
HETATM   29  N   UNL     1     -10.049  16.294  65.451  1.00  0.00    -0.547 NA 
HETATM   30  C   UNL     1      -9.395  17.011  66.391  1.00  0.00    -0.270 A  
HETATM   31  C   UNL     1      -8.566  16.451  67.335  1.00  0.00    -0.178 A  
HETATM   32  C   UNL     1      -8.431  15.085  67.265  1.00  0.00    -0.198 A  
HETATM   33 BR   UNL     1      -7.681  17.481  68.630  1.00  0.00    -0.262 Br 
HETATM   34  N   UNL     1      -9.058  14.317  66.348  1.00  0.00    -0.197 NA 
ENDBRANCH  27  28
ENDBRANCH  26  27
ENDBRANCH  25  26
ENDBRANCH  24  25
ENDBRANCH  13  24
ENDBRANCH   9  11
ENDBRANCH   6   9
ENDBRANCH   4   6
ENDBRANCH   3   4
ENDBRANCH   2   3
TORSDOF 11
ENDMDL
MODEL      106
REMARK 921   NORMALIZED FREE ENERGY PREDICTED BY IDOCK:   -4.97 KCAL/MOL
REMARK 922        TOTAL FREE ENERGY PREDICTED BY IDOCK:   -9.58 KCAL/MOL
REMARK 923 INTER-LIGAND FREE ENERGY PREDICTED BY IDOCK:   -8.38 KCAL/MOL
REMARK 924 INTRA-LIGAND FREE ENERGY PREDICTED BY IDOCK:   -1.20 KCAL/MOL
REMARK 927      BINDING AFFINITY PREDICTED BY RF-SCORE:    0.00 PKD
ROOT
HETATM    1  C   UNL     1      -5.827  13.402  68.017  1.00  0.00    -0.124 C  
HETATM    2  C   UNL     1      -6.360  14.806  67.778  1.00  0.00    -0.172 C  
ENDROOT
BRANCH   2   3
HETATM    3  C   UNL     1      -7.812  14.800  67.317  1.00  0.00    -0.194 C  
BRANCH   3   4
HETATM    4  N   UNL     1      -8.624  15.681  68.203  1.00  0.00    -0.158 N  
HETATM    5  H   UNL     1      -8.672  15.581  69.217  1.00  0.00     0.000 HD 
BRANCH   4   6
HETATM    6  S   UNL     1      -9.449  16.856  67.337  1.00  0.00    -0.241 S  
HETATM    7  O   UNL     1      -9.615  17.954  68.265  1.00  0.00    -0.286 OA 
HETATM    8  O   UNL     1      -8.801  17.034  66.065  1.00  0.00    -0.477 OA 
BRANCH   6   9
HETATM    9  N   UNL     1     -10.959  16.157  67.149  1.00  0.00    -0.213 N  
HETATM   10  H   UNL     1     -11.525  16.313  66.314  1.00  0.00     0.000 HD 
BRANCH   9  11
HETATM   11  C   UNL     1     -11.406  15.339  68.213  1.00  0.00    -0.336 A  
HETATM   12  C   UNL     1     -11.419  13.938  68.176  1.00  0.00    -0.346 A  
HETATM   13  C   UNL     1     -11.787  13.412  69.423  1.00  0.00    -0.335 A  
HETATM   14  N   UNL     1     -11.814  16.112  69.239  1.00  0.00    -0.249 NA 
HETATM   15  N   UNL     1     -12.166  14.137  70.499  1.00  0.00    -0.338 NA 
HETATM   16  C   UNL     1     -12.175  15.460  70.342  1.00  0.00    -0.391 A  
BRANCH  12  17
HETATM   17  C   UNL     1     -11.134  13.075  66.973  1.00  0.00    -0.311 A  
HETATM   18  C   UNL     1     -11.884  13.121  65.786  1.00  0.00    -0.442 A  
HETATM   19  C   UNL     1     -11.560  12.384  64.639  1.00  0.00    -0.400 A  
HETATM   20  C   UNL     1      -9.704  11.430  65.805  1.00  0.00    -0.263 A  
HETATM   21  C   UNL     1     -10.061  12.155  66.954  1.00  0.00    -0.222 A  
HETATM   22 BR   UNL     1      -9.950  10.646  63.072  1.00  0.00    -0.110 Br 
HETATM   23  C   UNL     1     -10.448  11.562  64.644  1.00  0.00    -0.301 A  
ENDBRANCH  12  17
BRANCH  13  24
HETATM   24  O   UNL     1     -11.750  12.041  69.575  1.00  0.00    -0.301 OA 
BRANCH  24  25
HETATM   25  C   UNL     1     -12.776  11.434  70.362  1.00  0.00    -0.092 C  
BRANCH  25  26
HETATM   26  C   UNL     1     -12.382   9.970  70.559  1.00  0.00    -0.200 C  
BRANCH  26  27
HETATM   27  O   UNL     1     -10.985   9.805  70.337  1.00  0.00    -0.263 OA 
BRANCH  27  28
HETATM   28  C   UNL     1     -10.365   9.077  71.332  1.00  0.00    -0.326 A  
HETATM   29  N   UNL     1     -11.070   8.654  72.398  1.00  0.00    -0.324 NA 
HETATM   30  C   UNL     1     -10.382   7.946  73.321  1.00  0.00    -0.212 A  
HETATM   31  C   UNL     1      -9.042   7.656  73.214  1.00  0.00    -0.215 A  
HETATM   32  C   UNL     1      -8.422   8.142  72.087  1.00  0.00    -0.161 A  
HETATM   33 BR   UNL     1      -8.123   6.664  74.515  1.00  0.00    -0.150 Br 
HETATM   34  N   UNL     1      -9.057   8.855  71.132  1.00  0.00    -0.229 NA 
ENDBRANCH  27  28
ENDBRANCH  26  27
ENDBRANCH  25  26
ENDBRANCH  24  25
ENDBRANCH  13  24
ENDBRANCH   9  11
ENDBRANCH   6   9
ENDBRANCH   4   6
ENDBRANCH   3   4
ENDBRANCH   2   3
TORSDOF 11
ENDMDL
MODEL      107
REMARK 921   NORMALIZED FREE ENERGY PREDICTED BY IDOCK:   -4.92 KCAL/MOL
REMARK 922        TOTAL FREE ENERGY PREDICTED BY IDOCK:   -9.50 KCAL/MOL
REMARK 923 INTER-LIGAND FREE ENERGY PREDICTED BY IDOCK:   -7.76 KCAL/MOL
REMARK 924 INTRA-LIGAND FREE ENERGY PREDICTED BY IDOCK:   -1.73 KCAL/MOL
REMARK 927      BINDING AFFINITY PREDICTED BY RF-SCORE:    0.00 PKD
ROOT
HETATM    1  C   UNL     1      -8.191   6.191  73.849  1.00  0.00    -0.109 C  
HETATM    2  C   UNL     1      -9.160   7.363  73.838  1.00  0.00    -0.298 C  
ENDROOT
BRANCH   2   3
HETATM    3  C   UNL     1     -10.611   6.909  73.739  1.00  0.00    -0.301 C  
BRANCH   3   4
HETATM    4  N   UNL     1     -11.316   7.704  72.694  1.00  0.00    -0.384 N  
HETATM    5  H   UNL     1     -11.752   8.610  72.865  1.00  0.00     0.000 HD 
BRANCH   4   6
HETATM    6  S   UNL     1     -11.306   6.934  71.204  1.00  0.00    -0.308 S  
HETATM    7  O   UNL     1     -10.993   5.553  71.501  1.00  0.00    -0.230 OA 
HETATM    8  O   UNL     1     -12.497   7.302  70.486  1.00  0.00    -0.122 OA 
BRANCH   6   9
HETATM    9  N   UNL     1      -9.944   7.587  70.482  1.00  0.00    -0.184 N  
HETATM   10  H   UNL     1      -9.004   7.260  70.709  1.00  0.00     0.000 HD 
BRANCH   9  11
HETATM   11  C   UNL     1     -10.168   8.619  69.540  1.00  0.00    -0.209 A  
HETATM   12  C   UNL     1     -10.220   8.420  68.154  1.00  0.00    -0.253 A  
HETATM   13  C   UNL     1     -10.591   9.601  67.496  1.00  0.00    -0.277 A  
HETATM   14  N   UNL     1     -10.314   9.795  70.181  1.00  0.00    -0.265 NA 
HETATM   15  N   UNL     1     -10.790  10.800  68.090  1.00  0.00    -0.216 NA 
HETATM   16  C   UNL     1     -10.622  10.835  69.411  1.00  0.00    -0.221 A  
BRANCH  12  17
HETATM   17  C   UNL     1      -9.883   7.145  67.422  1.00  0.00    -0.200 A  
HETATM   18  C   UNL     1     -10.778   6.071  67.278  1.00  0.00    -0.400 A  
HETATM   19  C   UNL     1     -10.495   4.927  66.519  1.00  0.00    -0.299 A  
HETATM   20  C   UNL     1      -8.335   5.822  66.018  1.00  0.00    -0.126 A  
HETATM   21  C   UNL     1      -8.627   6.949  66.806  1.00  0.00    -0.120 A  
HETATM   22 BR   UNL     1      -8.935   3.331  64.761  1.00  0.00    -0.138 Br 
HETATM   23  C   UNL     1      -9.282   4.822  65.865  1.00  0.00    -0.149 A  
ENDBRANCH  12  17
BRANCH  13  24
HETATM   24  O   UNL     1     -10.782   9.542  66.130  1.00  0.00     0.024 OA 
BRANCH  24  25
HETATM   25  C   UNL     1      -9.965  10.378  65.310  1.00  0.00    -0.309 C  
BRANCH  25  26
HETATM   26  C   UNL     1     -10.904  11.157  64.389  1.00  0.00    -0.270 C  
BRANCH  26  27
HETATM   27  O   UNL     1     -10.381  12.459  64.145  1.00  0.00    -0.341 OA 
BRANCH  27  28
HETATM   28  C   UNL     1     -10.544  13.312  65.218  1.00  0.00    -0.315 A  
HETATM   29  N   UNL     1      -9.471  13.879  65.800  1.00  0.00    -0.071 NA 
HETATM   30  C   UNL     1      -9.726  14.701  66.842  1.00  0.00    -0.242 A  
HETATM   31  C   UNL     1     -10.992  14.967  67.309  1.00  0.00    -0.323 A  
HETATM   32  C   UNL     1     -12.012  14.329  66.644  1.00  0.00    -0.430 A  
HETATM   33 BR   UNL     1     -11.305  16.121  68.756  1.00  0.00    -0.328 Br 
HETATM   34  N   UNL     1     -11.818  13.497  65.598  1.00  0.00    -0.351 NA 
ENDBRANCH  27  28
ENDBRANCH  26  27
ENDBRANCH  25  26
ENDBRANCH  24  25
ENDBRANCH  13  24
ENDBRANCH   9  11
ENDBRANCH   6   9
ENDBRANCH   4   6
ENDBRANCH   3   4
ENDBRANCH   2   3
TORSDOF 11
ENDMDL
MODEL      108
REMARK 921   NORMALIZED FREE ENERGY PREDICTED BY IDOCK:   -4.91 KCAL/MOL
REMARK 922        TOTAL FREE ENERGY PREDICTED BY IDOCK:   -9.48 KCAL/MOL
REMARK 923 INTER-LIGAND FREE ENERGY PREDICTED BY IDOCK:   -7.72 KCAL/MOL
REMARK 924 INTRA-LIGAND FREE ENERGY PREDICTED BY IDOCK:   -1.76 KCAL/MOL
REMARK 927      BINDING AFFINITY PREDICTED BY RF-SCORE:    0.00 PKD
ROOT
HETATM    1  C   UNL     1      -9.670   5.554  70.495  1.00  0.00    -0.241 C  
HETATM    2  C   UNL     1     -11.035   5.890  69.916  1.00  0.00    -0.444 C  
ENDROOT
BRANCH   2   3
HETATM    3  C   UNL     1     -10.951   6.318  68.456  1.00  0.00    -0.340 C  
BRANCH   3   4
HETATM    4  N   UNL     1      -9.625   5.933  67.896  1.00  0.00    -0.113 N  
HETATM    5  H   UNL     1      -9.148   5.057  68.110  1.00  0.00     0.000 HD 
BRANCH   4   6
HETATM    6  S   UNL     1      -9.009   7.109  66.871  1.00  0.00    -0.140 S  
HETATM    7  O   UNL     1      -8.207   6.382  65.910  1.00  0.00    -0.117 OA 
HETATM    8  O   UNL     1     -10.082   7.973  66.460  1.00  0.00    -0.260 OA 
BRANCH   6   9
HETATM    9  N   UNL     1      -7.936   7.918  67.872  1.00  0.00    -0.126 N  
HETATM   10  H   UNL     1      -7.410   7.434  68.600  1.00  0.00     0.000 HD 
BRANCH   9  11
HETATM   11  C   UNL     1      -7.801   9.309  67.651  1.00  0.00    -0.096 A  
HETATM   12  C   UNL     1      -8.550  10.287  68.319  1.00  0.00    -0.122 A  
HETATM   13  C   UNL     1      -8.097  11.572  67.986  1.00  0.00    -0.136 A  
HETATM   14  N   UNL     1      -6.862   9.529  66.710  1.00  0.00    -0.079 NA 
HETATM   15  N   UNL     1      -7.132  11.853  67.081  1.00  0.00    -0.145 NA 
HETATM   16  C   UNL     1      -6.574  10.807  66.474  1.00  0.00    -0.119 A  
BRANCH  12  17
HETATM   17  C   UNL     1      -9.720  10.043  69.238  1.00  0.00    -0.227 A  
HETATM   18  C   UNL     1      -9.612   9.391  70.478  1.00  0.00    -0.330 A  
HETATM   19  C   UNL     1     -10.683   9.247  71.370  1.00  0.00    -0.432 A  
HETATM   20  C   UNL     1     -12.105  10.367  69.807  1.00  0.00    -0.208 A  
HETATM   21  C   UNL     1     -11.025  10.477  68.914  1.00  0.00    -0.291 A  
HETATM   22 BR   UNL     1     -13.342   9.665  72.281  1.00  0.00    -0.429 Br 
HETATM   23  C   UNL     1     -11.922   9.766  71.042  1.00  0.00    -0.352 A  
ENDBRANCH  12  17
BRANCH  13  24
HETATM   24  O   UNL     1      -8.671  12.643  68.640  1.00  0.00    -0.089 OA 
BRANCH  24  25
HETATM   25  C   UNL     1      -9.243  13.678  67.840  1.00  0.00    -0.203 C  
BRANCH  25  26
HETATM   26  C   UNL     1     -10.332  14.343  68.682  1.00  0.00    -0.245 C  
BRANCH  26  27
HETATM   27  O   UNL     1      -9.760  15.339  69.525  1.00  0.00    -0.238 OA 
BRANCH  27  28
HETATM   28  C   UNL     1      -9.616  16.558  68.895  1.00  0.00    -0.261 A  
HETATM   29  N   UNL     1      -8.441  17.212  68.949  1.00  0.00    -0.232 NA 
HETATM   30  C   UNL     1      -8.392  18.398  68.301  1.00  0.00    -0.303 A  
HETATM   31  C   UNL     1      -9.457  18.936  67.618  1.00  0.00    -0.301 A  
HETATM   32  C   UNL     1     -10.608  18.185  67.634  1.00  0.00    -0.406 A  
HETATM   33 BR   UNL     1      -9.347  20.583  66.725  1.00  0.00    -0.321 Br 
HETATM   34  N   UNL     1     -10.717  16.995  68.264  1.00  0.00    -0.373 NA 
ENDBRANCH  27  28
ENDBRANCH  26  27
ENDBRANCH  25  26
ENDBRANCH  24  25
ENDBRANCH  13  24
ENDBRANCH   9  11
ENDBRANCH   6   9
ENDBRANCH   4   6
ENDBRANCH   3   4
ENDBRANCH   2   3
TORSDOF 11
ENDMDL
MODEL      109
REMARK 921   NORMALIZED FREE ENERGY PREDICTED BY IDOCK:   -4.89 KCAL/MOL
REMARK 922        TOTAL FREE ENERGY PREDICTED BY IDOCK:   -9.45 KCAL/MOL
REMARK 923 INTER-LIGAND FREE ENERGY PREDICTED BY IDOCK:   -7.91 KCAL/MOL
REMARK 924 INTRA-LIGAND FREE ENERGY PREDICTED BY IDOCK:   -1.54 KCAL/MOL
REMARK 927      BINDING AFFINITY PREDICTED BY RF-SCORE:    0.00 PKD
ROOT
HETATM    1  C   UNL     1      -9.556  19.605  68.270  1.00  0.00    -0.478 C  
HETATM    2  C   UNL     1     -10.630  18.595  67.896  1.00  0.00    -0.397 C  
ENDROOT
BRANCH   2   3
HETATM    3  C   UNL     1     -10.046  17.221  67.590  1.00  0.00    -0.313 C  
BRANCH   3   4
HETATM    4  N   UNL     1     -11.150  16.238  67.401  1.00  0.00    -0.171 N  
HETATM    5  H   UNL     1     -11.688  16.144  66.540  1.00  0.00     0.000 HD 
BRANCH   4   6
HETATM    6  S   UNL     1     -11.403  15.306  68.772  1.00  0.00    -0.327 S  
HETATM    7  O   UNL     1     -10.078  14.930  69.217  1.00  0.00    -0.224 OA 
HETATM    8  O   UNL     1     -12.323  15.995  69.637  1.00  0.00    -0.192 OA 
BRANCH   6   9
HETATM    9  N   UNL     1     -12.101  13.925  68.132  1.00  0.00    -0.478 N  
HETATM   10  H   UNL     1     -12.769  13.364  68.662  1.00  0.00     0.000 HD 
BRANCH   9  11
HETATM   11  C   UNL     1     -11.713  13.580  66.816  1.00  0.00    -0.391 A  
HETATM   12  C   UNL     1     -10.644  12.728  66.510  1.00  0.00    -0.270 A  
HETATM   13  C   UNL     1     -10.591  12.472  65.132  1.00  0.00    -0.293 A  
HETATM   14  N   UNL     1     -12.519  14.197  65.930  1.00  0.00    -0.478 NA 
HETATM   15  N   UNL     1     -11.397  13.028  64.200  1.00  0.00    -0.376 NA 
HETATM   16  C   UNL     1     -12.315  13.882  64.652  1.00  0.00    -0.388 A  
BRANCH  12  17
HETATM   17  C   UNL     1      -9.633  12.178  67.485  1.00  0.00    -0.179 A  
HETATM   18  C   UNL     1      -9.943  11.232  68.476  1.00  0.00    -0.206 A  
HETATM   19  C   UNL     1      -8.984  10.655  69.320  1.00  0.00    -0.098 A  
HETATM   20  C   UNL     1      -7.296  11.986  68.272  1.00  0.00    -0.095 A  
HETATM   21  C   UNL     1      -8.277  12.573  67.454  1.00  0.00    -0.183 A  
HETATM   22 BR   UNL     1      -6.346  10.167  70.255  1.00  0.00    -0.131 Br 
HETATM   23  C   UNL     1      -7.655  11.014  69.192  1.00  0.00    -0.113 A  
ENDBRANCH  12  17
BRANCH  13  24
HETATM   24  O   UNL     1      -9.650  11.568  64.683  1.00  0.00    -0.226 OA 
BRANCH  24  25
HETATM   25  C   UNL     1     -10.032  10.194  64.610  1.00  0.00    -0.234 C  
BRANCH  25  26
HETATM   26  C   UNL     1      -9.127   9.426  65.574  1.00  0.00    -0.218 C  
BRANCH  26  27
HETATM   27  O   UNL     1      -9.418   8.033  65.512  1.00  0.00     0.112 OA 
BRANCH  27  28
HETATM   28  C   UNL     1      -9.551   7.457  66.760  1.00  0.00    -0.192 A  
HETATM   29  N   UNL     1      -8.545   7.536  67.651  1.00  0.00    -0.120 NA 
HETATM   30  C   UNL     1      -8.765   6.946  68.847  1.00  0.00    -0.130 A  
HETATM   31  C   UNL     1      -9.931   6.293  69.170  1.00  0.00    -0.150 A  
HETATM   32  C   UNL     1     -10.887   6.268  68.182  1.00  0.00    -0.320 A  
HETATM   33 BR   UNL     1     -10.200   5.490  70.845  1.00  0.00    -0.309 Br 
HETATM   34  N   UNL     1     -10.724   6.840  66.970  1.00  0.00    -0.342 NA 
ENDBRANCH  27  28
ENDBRANCH  26  27
ENDBRANCH  25  26
ENDBRANCH  24  25
ENDBRANCH  13  24
ENDBRANCH   9  11
ENDBRANCH   6   9
ENDBRANCH   4   6
ENDBRANCH   3   4
ENDBRANCH   2   3
TORSDOF 11
ENDMDL
MODEL      110
REMARK 921   NORMALIZED FREE ENERGY PREDICTED BY IDOCK:   -4.87 KCAL/MOL
REMARK 922        TOTAL FREE ENERGY PREDICTED BY IDOCK:   -9.43 KCAL/MOL
REMARK 923 INTER-LIGAND FREE ENERGY PREDICTED BY IDOCK:   -7.84 KCAL/MOL
REMARK 924 INTRA-LIGAND FREE ENERGY PREDICTED BY IDOCK:   -1.58 KCAL/MOL
REMARK 927      BINDING AFFINITY PREDICTED BY RF-SCORE:    0.00 PKD
ROOT
HETATM    1  C   UNL     1     -12.743  15.929  71.971  1.00  0.00    -0.495 C  
HETATM    2  C   UNL     1     -11.349  15.545  71.499  1.00  0.00    -0.466 C  
ENDROOT
BRANCH   2   3
HETATM    3  C   UNL     1     -11.240  15.532  69.979  1.00  0.00    -0.315 C  
BRANCH   3   4
HETATM    4  N   UNL     1     -10.520  14.303  69.539  1.00  0.00    -0.440 N  
HETATM    5  H   UNL     1     -10.856  13.355  69.706  1.00  0.00     0.000 HD 
BRANCH   4   6
HETATM    6  S   UNL     1      -9.091  14.663  68.739  1.00  0.00    -0.147 S  
HETATM    7  O   UNL     1      -9.322  14.265  67.367  1.00  0.00    -0.192 OA 
HETATM    8  O   UNL     1      -8.695  16.004  69.081  1.00  0.00    -0.236 OA 
BRANCH   6   9
HETATM    9  N   UNL     1      -8.032  13.541  69.391  1.00  0.00    -0.104 N  
HETATM   10  H   UNL     1      -7.768  13.558  70.376  1.00  0.00     0.000 HD 
BRANCH   9  11
HETATM   11  C   UNL     1      -7.526  12.567  68.498  1.00  0.00    -0.122 A  
HETATM   12  C   UNL     1      -8.120  11.318  68.277  1.00  0.00    -0.137 A  
HETATM   13  C   UNL     1      -7.467  10.632  67.243  1.00  0.00    -0.099 A  
HETATM   14  N   UNL     1      -6.401  13.028  67.916  1.00  0.00    -0.117 NA 
HETATM   15  N   UNL     1      -6.361  11.062  66.595  1.00  0.00    -0.111 NA 
HETATM   16  C   UNL     1      -5.873  12.240  66.982  1.00  0.00    -0.040 A  
BRANCH  12  17
HETATM   17  C   UNL     1      -9.272  10.728  69.052  1.00  0.00    -0.157 A  
HETATM   18  C   UNL     1      -9.121   9.734  70.034  1.00  0.00    -0.258 A  
HETATM   19  C   UNL     1     -10.181   9.255  70.816  1.00  0.00    -0.353 A  
HETATM   20  C   UNL     1     -11.673  10.707  69.642  1.00  0.00    -0.368 A  
HETATM   21  C   UNL     1     -10.602  11.155  68.849  1.00  0.00    -0.239 A  
HETATM   22 BR   UNL     1     -12.862   9.200  71.754  1.00  0.00    -0.489 Br 
HETATM   23  C   UNL     1     -11.452   9.769  70.636  1.00  0.00    -0.324 A  
ENDBRANCH  12  17
BRANCH  13  24
HETATM   24  O   UNL     1      -7.997   9.424  66.839  1.00  0.00    -0.107 OA 
BRANCH  24  25
HETATM   25  C   UNL     1      -7.721   8.991  65.507  1.00  0.00    -0.091 C  
BRANCH  25  26
HETATM   26  C   UNL     1      -8.890   9.450  64.635  1.00  0.00    -0.200 C  
BRANCH  26  27
HETATM   27  O   UNL     1     -10.027   9.726  65.449  1.00  0.00    -0.320 OA 
BRANCH  27  28
HETATM   28  C   UNL     1     -10.545  10.988  65.236  1.00  0.00    -0.214 A  
HETATM   29  N   UNL     1     -11.642  11.390  65.903  1.00  0.00    -0.151 NA 
HETATM   30  C   UNL     1     -12.076  12.641  65.633  1.00  0.00    -0.443 A  
HETATM   31  C   UNL     1     -11.461  13.482  64.736  1.00  0.00    -0.346 A  
HETATM   32  C   UNL     1     -10.352  12.966  64.108  1.00  0.00    -0.361 A  
HETATM   33 BR   UNL     1     -12.091  15.216  64.393  1.00  0.00    -0.172 Br 
HETATM   34  N   UNL     1      -9.873  11.724  64.337  1.00  0.00    -0.231 NA 
ENDBRANCH  27  28
ENDBRANCH  26  27
ENDBRANCH  25  26
ENDBRANCH  24  25
ENDBRANCH  13  24
ENDBRANCH   9  11
ENDBRANCH   6   9
ENDBRANCH   4   6
ENDBRANCH   3   4
ENDBRANCH   2   3
TORSDOF 11
ENDMDL
MODEL      111
REMARK 921   NORMALIZED FREE ENERGY PREDICTED BY IDOCK:   -4.86 KCAL/MOL
REMARK 922        TOTAL FREE ENERGY PREDICTED BY IDOCK:   -9.40 KCAL/MOL
REMARK 923 INTER-LIGAND FREE ENERGY PREDICTED BY IDOCK:   -8.76 KCAL/MOL
REMARK 924 INTRA-LIGAND FREE ENERGY PREDICTED BY IDOCK:   -0.65 KCAL/MOL
REMARK 927      BINDING AFFINITY PREDICTED BY RF-SCORE:    0.00 PKD
ROOT
HETATM    1  C   UNL     1     -10.081   4.768  70.241  1.00  0.00    -0.304 C  
HETATM    2  C   UNL     1     -10.813   6.078  70.490  1.00  0.00    -0.382 C  
ENDROOT
BRANCH   2   3
HETATM    3  C   UNL     1     -10.263   7.215  69.637  1.00  0.00    -0.208 C  
BRANCH   3   4
HETATM    4  N   UNL     1     -11.158   8.402  69.747  1.00  0.00    -0.433 N  
HETATM    5  H   UNL     1     -12.130   8.413  69.437  1.00  0.00     0.000 HD 
BRANCH   4   6
HETATM    6  S   UNL     1     -10.379   9.716  70.439  1.00  0.00    -0.300 S  
HETATM    7  O   UNL     1     -10.141   9.326  71.812  1.00  0.00    -0.293 OA 
HETATM    8  O   UNL     1      -9.306  10.126  69.573  1.00  0.00    -0.210 OA 
BRANCH   6   9
HETATM    9  N   UNL     1     -11.596  10.866  70.474  1.00  0.00    -0.391 N  
HETATM   10  H   UNL     1     -12.203  10.983  71.285  1.00  0.00     0.000 HD 
BRANCH   9  11
HETATM   11  C   UNL     1     -11.734  11.665  69.314  1.00  0.00    -0.331 A  
HETATM   12  C   UNL     1     -11.852  13.061  69.331  1.00  0.00    -0.380 A  
HETATM   13  C   UNL     1     -11.837  13.576  68.028  1.00  0.00    -0.365 A  
HETATM   14  N   UNL     1     -11.742  10.878  68.220  1.00  0.00    -0.520 NA 
HETATM   15  N   UNL     1     -11.805  12.840  66.894  1.00  0.00    -0.401 NA 
HETATM   16  C   UNL     1     -11.776  11.518  67.054  1.00  0.00    -0.005 A  
BRANCH  12  17
HETATM   17  C   UNL     1     -12.022  13.928  70.554  1.00  0.00    -0.384 A  
HETATM   18  C   UNL     1     -11.317  15.125  70.763  1.00  0.00    -0.341 A  
HETATM   19  C   UNL     1     -11.545  15.974  71.854  1.00  0.00    -0.524 A  
HETATM   20  C   UNL     1     -13.193  14.446  72.669  1.00  0.00    -0.586 A  
HETATM   21  C   UNL     1     -12.931  13.594  71.582  1.00  0.00    -0.448 A  
HETATM   22 BR   UNL     1     -12.889  16.832  74.206  1.00  0.00     0.494 Br 
HETATM   23  C   UNL     1     -12.508  15.644  72.790  1.00  0.00    -0.436 A  
ENDBRANCH  12  17
BRANCH  13  24
HETATM   24  O   UNL     1     -11.845  14.949  67.881  1.00  0.00    -0.338 OA 
BRANCH  24  25
HETATM   25  C   UNL     1     -11.134  15.500  66.772  1.00  0.00    -0.206 C  
BRANCH  25  26
HETATM   26  C   UNL     1     -10.338  16.694  67.301  1.00  0.00    -0.298 C  
BRANCH  26  27
HETATM   27  O   UNL     1      -9.016  16.673  66.770  1.00  0.00    -0.210 OA 
BRANCH  27  28
HETATM   28  C   UNL     1      -8.095  16.129  67.643  1.00  0.00    -0.147 A  
HETATM   29  N   UNL     1      -6.778  16.305  67.432  1.00  0.00    -0.161 NA 
HETATM   30  C   UNL     1      -5.951  15.739  68.339  1.00  0.00    -0.107 A  
HETATM   31  C   UNL     1      -6.392  15.018  69.425  1.00  0.00    -0.124 A  
HETATM   32  C   UNL     1      -7.757  14.898  69.538  1.00  0.00    -0.121 A  
HETATM   33 BR   UNL     1      -5.211  14.253  70.667  1.00  0.00    -0.128 Br 
HETATM   34  N   UNL     1      -8.631  15.441  68.663  1.00  0.00    -0.168 NA 
ENDBRANCH  27  28
ENDBRANCH  26  27
ENDBRANCH  25  26
ENDBRANCH  24  25
ENDBRANCH  13  24
ENDBRANCH   9  11
ENDBRANCH   6   9
ENDBRANCH   4   6
ENDBRANCH   3   4
ENDBRANCH   2   3
TORSDOF 11
ENDMDL
MODEL      112
REMARK 921   NORMALIZED FREE ENERGY PREDICTED BY IDOCK:   -4.81 KCAL/MOL
REMARK 922        TOTAL FREE ENERGY PREDICTED BY IDOCK:   -9.31 KCAL/MOL
REMARK 923 INTER-LIGAND FREE ENERGY PREDICTED BY IDOCK:   -8.04 KCAL/MOL
REMARK 924 INTRA-LIGAND FREE ENERGY PREDICTED BY IDOCK:   -1.27 KCAL/MOL
REMARK 927      BINDING AFFINITY PREDICTED BY RF-SCORE:    0.00 PKD
ROOT
HETATM    1  C   UNL     1      -9.668   2.377  63.934  1.00  0.00    -0.136 C  
HETATM    2  C   UNL     1      -9.744   3.896  63.919  1.00  0.00    -0.164 C  
ENDROOT
BRANCH   2   3
HETATM    3  C   UNL     1      -8.423   4.541  64.321  1.00  0.00    -0.120 C  
BRANCH   3   4
HETATM    4  N   UNL     1      -8.674   5.920  64.829  1.00  0.00    -0.355 N  
HETATM    5  H   UNL     1      -8.641   6.757  64.246  1.00  0.00     0.000 HD 
BRANCH   4   6
HETATM    6  S   UNL     1      -9.015   5.934  66.471  1.00  0.00    -0.135 S  
HETATM    7  O   UNL     1     -10.445   6.140  66.551  1.00  0.00    -0.192 OA 
HETATM    8  O   UNL     1      -8.379   4.799  67.085  1.00  0.00    -0.106 OA 
BRANCH   6   9
HETATM    9  N   UNL     1      -8.298   7.365  66.965  1.00  0.00    -0.120 N  
HETATM   10  H   UNL     1      -7.366   7.385  67.381  1.00  0.00     0.000 HD 
BRANCH   9  11
HETATM   11  C   UNL     1      -9.057   8.543  66.774  1.00  0.00    -0.151 A  
HETATM   12  C   UNL     1      -9.737   9.215  67.799  1.00  0.00    -0.188 A  
HETATM   13  C   UNL     1     -10.282  10.418  67.327  1.00  0.00    -0.211 A  
HETATM   14  N   UNL     1      -9.023   8.898  65.475  1.00  0.00    -0.200 NA 
HETATM   15  N   UNL     1     -10.245  10.846  66.046  1.00  0.00    -0.247 NA 
HETATM   16  C   UNL     1      -9.627  10.047  65.178  1.00  0.00    -0.291 A  
BRANCH  12  17
HETATM   17  C   UNL     1      -9.925   8.729  69.214  1.00  0.00    -0.194 A  
HETATM   18  C   UNL     1     -10.816   7.703  69.572  1.00  0.00    -0.171 A  
HETATM   19  C   UNL     1     -10.921   7.191  70.872  1.00  0.00    -0.276 A  
HETATM   20  C   UNL     1      -9.261   8.753  71.596  1.00  0.00    -0.333 A  
HETATM   21  C   UNL     1      -9.191   9.272  70.292  1.00  0.00    -0.273 A  
HETATM   22 BR   UNL     1     -10.182   6.946  73.605  1.00  0.00    -0.404 Br 
HETATM   23  C   UNL     1     -10.117   7.699  71.876  1.00  0.00    -0.178 A  
ENDBRANCH  12  17
BRANCH  13  24
HETATM   24  O   UNL     1     -10.900  11.244  68.244  1.00  0.00    -0.180 OA 
BRANCH  24  25
HETATM   25  C   UNL     1     -11.595  12.387  67.743  1.00  0.00    -0.352 C  
BRANCH  25  26
HETATM   26  C   UNL     1     -10.651  13.581  67.882  1.00  0.00    -0.248 C  
BRANCH  26  27
HETATM   27  O   UNL     1     -10.542  14.266  66.638  1.00  0.00    -0.275 OA 
BRANCH  27  28
HETATM   28  C   UNL     1     -10.378  15.629  66.788  1.00  0.00    -0.287 A  
HETATM   29  N   UNL     1     -10.021  16.386  65.735  1.00  0.00    -0.478 NA 
HETATM   30  C   UNL     1      -9.886  17.710  65.974  1.00  0.00    -0.170 A  
HETATM   31  C   UNL     1     -10.092  18.284  67.207  1.00  0.00    -0.355 A  
HETATM   32  C   UNL     1     -10.447  17.415  68.211  1.00  0.00    -0.385 A  
HETATM   33 BR   UNL     1      -9.901  20.128  67.498  1.00  0.00    -0.584 Br 
HETATM   34  N   UNL     1     -10.596  16.085  68.031  1.00  0.00    -0.285 NA 
ENDBRANCH  27  28
ENDBRANCH  26  27
ENDBRANCH  25  26
ENDBRANCH  24  25
ENDBRANCH  13  24
ENDBRANCH   9  11
ENDBRANCH   6   9
ENDBRANCH   4   6
ENDBRANCH   3   4
ENDBRANCH   2   3
TORSDOF 11
ENDMDL
MODEL      113
REMARK 921   NORMALIZED FREE ENERGY PREDICTED BY IDOCK:   -4.80 KCAL/MOL
REMARK 922        TOTAL FREE ENERGY PREDICTED BY IDOCK:   -9.31 KCAL/MOL
REMARK 923 INTER-LIGAND FREE ENERGY PREDICTED BY IDOCK:   -7.59 KCAL/MOL
REMARK 924 INTRA-LIGAND FREE ENERGY PREDICTED BY IDOCK:   -1.72 KCAL/MOL
REMARK 927      BINDING AFFINITY PREDICTED BY RF-SCORE:    0.00 PKD
ROOT
HETATM    1  C   UNL     1     -10.383   4.304  65.451  1.00  0.00    -0.217 C  
HETATM    2  C   UNL     1      -9.880   4.689  66.833  1.00  0.00    -0.235 C  
ENDROOT
BRANCH   2   3
HETATM    3  C   UNL     1      -9.515   3.471  67.673  1.00  0.00    -0.183 C  
BRANCH   3   4
HETATM    4  N   UNL     1      -9.454   3.853  69.112  1.00  0.00    -0.174 N  
HETATM    5  H   UNL     1     -10.275   3.984  69.702  1.00  0.00     0.000 HD 
BRANCH   4   6
HETATM    6  S   UNL     1      -7.876   4.044  69.646  1.00  0.00    -0.052 S  
HETATM    7  O   UNL     1      -7.608   2.865  70.443  1.00  0.00    -0.043 OA 
HETATM    8  O   UNL     1      -7.048   4.402  68.526  1.00  0.00    -0.051 OA 
BRANCH   6   9
HETATM    9  N   UNL     1      -8.021   5.322  70.719  1.00  0.00    -0.095 N  
HETATM   10  H   UNL     1      -7.228   5.917  70.958  1.00  0.00     0.000 HD 
BRANCH   9  11
HETATM   11  C   UNL     1      -9.306   5.529  71.275  1.00  0.00    -0.147 A  
HETATM   12  C   UNL     1     -10.176   6.554  70.882  1.00  0.00    -0.220 A  
HETATM   13  C   UNL     1     -11.420   6.419  71.515  1.00  0.00    -0.306 A  
HETATM   14  N   UNL     1      -9.543   4.603  72.225  1.00  0.00    -0.147 NA 
HETATM   15  N   UNL     1     -11.730   5.488  72.444  1.00  0.00    -0.189 NA 
HETATM   16  C   UNL     1     -10.759   4.633  72.764  1.00  0.00    -0.204 A  
BRANCH  12  17
HETATM   17  C   UNL     1      -9.850   7.695  69.950  1.00  0.00    -0.184 A  
HETATM   18  C   UNL     1      -9.478   8.976  70.390  1.00  0.00    -0.247 A  
HETATM   19  C   UNL     1      -9.086  10.006  69.524  1.00  0.00    -0.236 A  
HETATM   20  C   UNL     1      -9.465   8.552  67.663  1.00  0.00    -0.173 A  
HETATM   21  C   UNL     1      -9.881   7.541  68.547  1.00  0.00    -0.170 A  
HETATM   22 BR   UNL     1      -8.430  11.127  66.997  1.00  0.00    -0.151 Br 
HETATM   23  C   UNL     1      -9.052   9.778  68.160  1.00  0.00    -0.125 A  
ENDBRANCH  12  17
BRANCH  13  24
HETATM   24  O   UNL     1     -12.421   7.299  71.155  1.00  0.00    -0.348 OA 
BRANCH  24  25
HETATM   25  C   UNL     1     -13.364   7.675  72.159  1.00  0.00    -0.052 C  
BRANCH  25  26
HETATM   26  C   UNL     1     -13.610   9.176  72.002  1.00  0.00    -0.459 C  
BRANCH  26  27
HETATM   27  O   UNL     1     -12.742   9.712  71.007  1.00  0.00    -0.314 OA 
BRANCH  27  28
HETATM   28  C   UNL     1     -12.676  11.091  71.039  1.00  0.00    -0.386 A  
HETATM   29  N   UNL     1     -11.976  11.755  70.101  1.00  0.00    -0.342 NA 
HETATM   30  C   UNL     1     -11.968  13.103  70.211  1.00  0.00    -0.292 A  
HETATM   31  C   UNL     1     -12.622  13.789  71.207  1.00  0.00    -0.362 A  
HETATM   32  C   UNL     1     -13.300  13.008  72.114  1.00  0.00    -0.524 A  
HETATM   33 BR   UNL     1     -12.593  15.661  71.322  1.00  0.00    -0.530 Br 
HETATM   34  N   UNL     1     -13.343  11.659  72.055  1.00  0.00    -0.429 NA 
ENDBRANCH  27  28
ENDBRANCH  26  27
ENDBRANCH  25  26
ENDBRANCH  24  25
ENDBRANCH  13  24
ENDBRANCH   9  11
ENDBRANCH   6   9
ENDBRANCH   4   6
ENDBRANCH   3   4
ENDBRANCH   2   3
TORSDOF 11
ENDMDL
MODEL      114
REMARK 921   NORMALIZED FREE ENERGY PREDICTED BY IDOCK:   -4.79 KCAL/MOL
REMARK 922        TOTAL FREE ENERGY PREDICTED BY IDOCK:   -9.29 KCAL/MOL
REMARK 923 INTER-LIGAND FREE ENERGY PREDICTED BY IDOCK:   -8.65 KCAL/MOL
REMARK 924 INTRA-LIGAND FREE ENERGY PREDICTED BY IDOCK:   -0.65 KCAL/MOL
REMARK 927      BINDING AFFINITY PREDICTED BY RF-SCORE:    0.00 PKD
ROOT
HETATM    1  C   UNL     1      -9.238   3.236  65.914  1.00  0.00    -0.148 C  
HETATM    2  C   UNL     1      -9.574   4.718  65.882  1.00  0.00    -0.188 C  
ENDROOT
BRANCH   2   3
HETATM    3  C   UNL     1     -10.266   5.179  67.159  1.00  0.00    -0.208 C  
BRANCH   3   4
HETATM    4  N   UNL     1      -9.399   6.159  67.873  1.00  0.00    -0.115 N  
HETATM    5  H   UNL     1      -8.397   6.257  67.711  1.00  0.00     0.000 HD 
BRANCH   4   6
HETATM    6  S   UNL     1     -10.266   7.081  68.974  1.00  0.00    -0.193 S  
HETATM    7  O   UNL     1     -11.241   6.171  69.535  1.00  0.00    -0.389 OA 
HETATM    8  O   UNL     1      -9.339   7.801  69.805  1.00  0.00    -0.153 OA 
BRANCH   6   9
HETATM    9  N   UNL     1     -11.108   8.124  67.970  1.00  0.00    -0.357 N  
HETATM   10  H   UNL     1     -12.117   8.048  67.839  1.00  0.00     0.000 HD 
BRANCH   9  11
HETATM   11  C   UNL     1     -10.341   9.115  67.312  1.00  0.00    -0.270 A  
HETATM   12  C   UNL     1     -10.287  10.457  67.708  1.00  0.00    -0.245 A  
HETATM   13  C   UNL     1      -9.342  11.162  66.948  1.00  0.00    -0.175 A  
HETATM   14  N   UNL     1      -9.695   8.567  66.265  1.00  0.00    -0.246 NA 
HETATM   15  N   UNL     1      -8.634  10.656  65.913  1.00  0.00    -0.167 NA 
HETATM   16  C   UNL     1      -8.865   9.378  65.614  1.00  0.00    -0.174 A  
BRANCH  12  17
HETATM   17  C   UNL     1     -11.141  11.112  68.766  1.00  0.00    -0.291 A  
HETATM   18  C   UNL     1     -11.668  10.427  69.874  1.00  0.00    -0.341 A  
HETATM   19  C   UNL     1     -12.383  11.057  70.902  1.00  0.00    -0.503 A  
HETATM   20  C   UNL     1     -12.150  13.142  69.754  1.00  0.00    -0.336 A  
HETATM   21  C   UNL     1     -11.459  12.487  68.720  1.00  0.00    -0.353 A  
HETATM   22 BR   UNL     1     -13.468  13.291  72.281  1.00  0.00    -0.657 Br 
HETATM   23  C   UNL     1     -12.594  12.422  70.852  1.00  0.00    -0.246 A  
ENDBRANCH  12  17
BRANCH  13  24
HETATM   24  O   UNL     1      -9.100  12.478  67.286  1.00  0.00    -0.176 OA 
BRANCH  24  25
HETATM   25  C   UNL     1      -7.741  12.873  67.479  1.00  0.00    -0.174 C  
BRANCH  25  26
HETATM   26  C   UNL     1      -7.654  14.360  67.135  1.00  0.00     0.010 C  
BRANCH  26  27
HETATM   27  O   UNL     1      -8.921  14.833  66.686  1.00  0.00    -0.256 OA 
BRANCH  27  28
HETATM   28  C   UNL     1      -9.060  16.200  66.814  1.00  0.00    -0.230 A  
HETATM   29  N   UNL     1      -8.214  17.028  66.173  1.00  0.00    -0.456 NA 
HETATM   30  C   UNL     1      -8.426  18.350  66.355  1.00  0.00    -0.245 A  
HETATM   31  C   UNL     1      -9.435  18.858  67.141  1.00  0.00    -0.304 A  
HETATM   32  C   UNL     1     -10.234  17.921  67.752  1.00  0.00    -0.368 A  
HETATM   33 BR   UNL     1      -9.701  20.702  67.363  1.00  0.00    -0.431 Br 
HETATM   34  N   UNL     1     -10.070  16.588  67.608  1.00  0.00    -0.259 NA 
ENDBRANCH  27  28
ENDBRANCH  26  27
ENDBRANCH  25  26
ENDBRANCH  24  25
ENDBRANCH  13  24
ENDBRANCH   9  11
ENDBRANCH   6   9
ENDBRANCH   4   6
ENDBRANCH   3   4
ENDBRANCH   2   3
TORSDOF 11
ENDMDL
MODEL      115
REMARK 921   NORMALIZED FREE ENERGY PREDICTED BY IDOCK:   -4.78 KCAL/MOL
REMARK 922        TOTAL FREE ENERGY PREDICTED BY IDOCK:   -9.27 KCAL/MOL
REMARK 923 INTER-LIGAND FREE ENERGY PREDICTED BY IDOCK:   -7.87 KCAL/MOL
REMARK 924 INTRA-LIGAND FREE ENERGY PREDICTED BY IDOCK:   -1.40 KCAL/MOL
REMARK 927      BINDING AFFINITY PREDICTED BY RF-SCORE:    0.00 PKD
ROOT
HETATM    1  C   UNL     1     -12.941  11.881  71.502  1.00  0.00    -0.427 C  
HETATM    2  C   UNL     1     -13.601  10.589  71.956  1.00  0.00    -0.216 C  
ENDROOT
BRANCH   2   3
HETATM    3  C   UNL     1     -12.925   9.358  71.364  1.00  0.00    -0.346 C  
BRANCH   3   4
HETATM    4  N   UNL     1     -12.552   8.416  72.457  1.00  0.00    -0.570 N  
HETATM    5  H   UNL     1     -12.834   8.532  73.430  1.00  0.00     0.000 HD 
BRANCH   4   6
HETATM    6  S   UNL     1     -11.614   7.143  71.898  1.00  0.00    -0.290 S  
HETATM    7  O   UNL     1     -10.250   7.529  72.192  1.00  0.00    -0.187 OA 
HETATM    8  O   UNL     1     -12.171   5.909  72.383  1.00  0.00    -0.239 OA 
BRANCH   6   9
HETATM    9  N   UNL     1     -11.800   7.274  70.238  1.00  0.00    -0.537 N  
HETATM   10  H   UNL     1     -12.669   7.605  69.818  1.00  0.00     0.000 HD 
BRANCH   9  11
HETATM   11  C   UNL     1     -10.684   6.901  69.452  1.00  0.00    -0.246 A  
HETATM   12  C   UNL     1      -9.862   7.810  68.773  1.00  0.00    -0.171 A  
HETATM   13  C   UNL     1      -8.766   7.153  68.195  1.00  0.00    -0.127 A  
HETATM   14  N   UNL     1     -10.552   5.561  69.461  1.00  0.00    -0.306 NA 
HETATM   15  N   UNL     1      -8.559   5.817  68.206  1.00  0.00    -0.112 NA 
HETATM   16  C   UNL     1      -9.481   5.085  68.829  1.00  0.00    -0.139 A  
BRANCH  12  17
HETATM   17  C   UNL     1     -10.107   9.290  68.615  1.00  0.00    -0.207 A  
HETATM   18  C   UNL     1     -11.362   9.842  68.308  1.00  0.00    -0.045 A  
HETATM   19  C   UNL     1     -11.606  11.221  68.252  1.00  0.00    -0.370 A  
HETATM   20  C   UNL     1      -9.305  11.625  68.761  1.00  0.00    -0.056 A  
HETATM   21  C   UNL     1      -9.074  10.238  68.785  1.00  0.00    -0.159 A  
HETATM   22 BR   UNL     1     -10.923  13.965  68.537  1.00  0.00    -0.291 Br 
HETATM   23  C   UNL     1     -10.578  12.109  68.511  1.00  0.00    -0.233 A  
ENDBRANCH  12  17
BRANCH  13  24
HETATM   24  O   UNL     1      -7.809   7.928  67.573  1.00  0.00    -0.117 OA 
BRANCH  24  25
HETATM   25  C   UNL     1      -7.182   7.396  66.406  1.00  0.00    -0.079 C  
BRANCH  25  26
HETATM   26  C   UNL     1      -8.228   7.406  65.291  1.00  0.00    -0.127 C  
BRANCH  26  27
HETATM   27  O   UNL     1      -7.862   8.345  64.285  1.00  0.00    -0.128 OA 
BRANCH  27  28
HETATM   28  C   UNL     1      -8.777   9.370  64.148  1.00  0.00    -0.198 A  
HETATM   29  N   UNL     1      -9.398   9.870  65.232  1.00  0.00    -0.230 NA 
HETATM   30  C   UNL     1     -10.276  10.872  65.004  1.00  0.00    -0.303 A  
HETATM   31  C   UNL     1     -10.546  11.376  63.753  1.00  0.00    -0.403 A  
HETATM   32  C   UNL     1      -9.859  10.786  62.718  1.00  0.00    -0.197 A  
HETATM   33 BR   UNL     1     -11.768  12.773  63.477  1.00  0.00    -0.572 Br 
HETATM   34  N   UNL     1      -8.971   9.782  62.886  1.00  0.00    -0.246 NA 
ENDBRANCH  27  28
ENDBRANCH  26  27
ENDBRANCH  25  26
ENDBRANCH  24  25
ENDBRANCH  13  24
ENDBRANCH   9  11
ENDBRANCH   6   9
ENDBRANCH   4   6
ENDBRANCH   3   4
ENDBRANCH   2   3
TORSDOF 11
ENDMDL
MODEL      116
REMARK 921   NORMALIZED FREE ENERGY PREDICTED BY IDOCK:   -4.77 KCAL/MOL
REMARK 922        TOTAL FREE ENERGY PREDICTED BY IDOCK:   -9.25 KCAL/MOL
REMARK 923 INTER-LIGAND FREE ENERGY PREDICTED BY IDOCK:   -7.85 KCAL/MOL
REMARK 924 INTRA-LIGAND FREE ENERGY PREDICTED BY IDOCK:   -1.40 KCAL/MOL
REMARK 927      BINDING AFFINITY PREDICTED BY RF-SCORE:    0.00 PKD
ROOT
HETATM    1  C   UNL     1      -9.915  16.757  66.752  1.00  0.00    -0.286 C  
HETATM    2  C   UNL     1     -10.883  16.803  67.923  1.00  0.00    -0.311 C  
ENDROOT
BRANCH   2   3
HETATM    3  C   UNL     1     -11.213  15.413  68.452  1.00  0.00    -0.315 C  
BRANCH   3   4
HETATM    4  N   UNL     1     -11.931  14.635  67.403  1.00  0.00    -0.517 N  
HETATM    5  H   UNL     1     -12.774  14.959  66.930  1.00  0.00     0.000 HD 
BRANCH   4   6
HETATM    6  S   UNL     1     -11.189  13.163  67.093  1.00  0.00    -0.307 S  
HETATM    7  O   UNL     1     -12.279  12.222  66.941  1.00  0.00    -0.530 OA 
HETATM    8  O   UNL     1     -10.203  13.350  66.063  1.00  0.00    -0.288 OA 
BRANCH   6   9
HETATM    9  N   UNL     1     -10.465  12.820  68.564  1.00  0.00    -0.244 N  
HETATM   10  H   UNL     1      -9.540  13.178  68.805  1.00  0.00     0.000 HD 
BRANCH   9  11
HETATM   11  C   UNL     1     -11.207  12.006  69.452  1.00  0.00    -0.196 A  
HETATM   12  C   UNL     1     -11.048  10.619  69.566  1.00  0.00    -0.328 A  
HETATM   13  C   UNL     1     -11.823  10.115  70.620  1.00  0.00    -0.342 A  
HETATM   14  N   UNL     1     -12.074  12.768  70.148  1.00  0.00    -0.337 NA 
HETATM   15  N   UNL     1     -12.678  10.836  71.378  1.00  0.00    -0.416 NA 
HETATM   16  C   UNL     1     -12.771  12.132  71.087  1.00  0.00    -0.253 A  
BRANCH  12  17
HETATM   17  C   UNL     1     -10.211   9.740  68.670  1.00  0.00    -0.210 A  
HETATM   18  C   UNL     1     -10.658   9.233  67.438  1.00  0.00    -0.324 A  
HETATM   19  C   UNL     1      -9.846   8.494  66.567  1.00  0.00    -0.342 A  
HETATM   20  C   UNL     1      -8.051   8.658  68.138  1.00  0.00    -0.115 A  
HETATM   21  C   UNL     1      -8.889   9.374  69.011  1.00  0.00    -0.141 A  
HETATM   22 BR   UNL     1      -7.406   7.328  65.697  1.00  0.00    -0.078 Br 
HETATM   23  C   UNL     1      -8.532   8.236  66.909  1.00  0.00    -0.118 A  
ENDBRANCH  12  17
BRANCH  13  24
HETATM   24  O   UNL     1     -11.698   8.774  70.923  1.00  0.00    -0.282 OA 
BRANCH  24  25
HETATM   25  C   UNL     1     -12.318   8.305  72.121  1.00  0.00    -0.360 C  
BRANCH  25  26
HETATM   26  C   UNL     1     -11.227   7.637  72.958  1.00  0.00    -0.333 C  
BRANCH  26  27
HETATM   27  O   UNL     1     -10.021   7.546  72.206  1.00  0.00    -0.170 OA 
BRANCH  27  28
HETATM   28  C   UNL     1      -9.222   6.490  72.598  1.00  0.00    -0.137 A  
HETATM   29  N   UNL     1      -9.288   5.315  71.945  1.00  0.00    -0.141 NA 
HETATM   30  C   UNL     1      -8.468   4.340  72.397  1.00  0.00    -0.105 A  
HETATM   31  C   UNL     1      -7.606   4.500  73.457  1.00  0.00    -0.083 A  
HETATM   32  C   UNL     1      -7.627   5.739  74.052  1.00  0.00    -0.092 A  
HETATM   33 BR   UNL     1      -6.479   3.122  74.050  1.00  0.00    -0.030 Br 
HETATM   34  N   UNL     1      -8.424   6.751  73.645  1.00  0.00    -0.120 NA 
ENDBRANCH  27  28
ENDBRANCH  26  27
ENDBRANCH  25  26
ENDBRANCH  24  25
ENDBRANCH  13  24
ENDBRANCH   9  11
ENDBRANCH   6   9
ENDBRANCH   4   6
ENDBRANCH   3   4
ENDBRANCH   2   3
TORSDOF 11
ENDMDL
MODEL      117
REMARK 921   NORMALIZED FREE ENERGY PREDICTED BY IDOCK:   -4.76 KCAL/MOL
REMARK 922        TOTAL FREE ENERGY PREDICTED BY IDOCK:   -9.24 KCAL/MOL
REMARK 923 INTER-LIGAND FREE ENERGY PREDICTED BY IDOCK:   -7.47 KCAL/MOL
REMARK 924 INTRA-LIGAND FREE ENERGY PREDICTED BY IDOCK:   -1.76 KCAL/MOL
REMARK 927      BINDING AFFINITY PREDICTED BY RF-SCORE:    0.00 PKD
ROOT
HETATM    1  C   UNL     1     -12.540  12.734  64.904  1.00  0.00    -0.541 C  
HETATM    2  C   UNL     1     -11.198  13.077  64.277  1.00  0.00    -0.411 C  
ENDROOT
BRANCH   2   3
HETATM    3  C   UNL     1     -10.373  14.009  65.156  1.00  0.00    -0.400 C  
BRANCH   3   4
HETATM    4  N   UNL     1      -9.860  13.260  66.338  1.00  0.00    -0.276 N  
HETATM    5  H   UNL     1      -9.420  12.342  66.283  1.00  0.00     0.000 HD 
BRANCH   4   6
HETATM    6  S   UNL     1     -10.091  14.106  67.767  1.00  0.00    -0.243 S  
HETATM    7  O   UNL     1      -9.452  15.386  67.550  1.00  0.00    -0.203 OA 
HETATM    8  O   UNL     1     -11.476  14.007  68.144  1.00  0.00    -0.274 OA 
BRANCH   6   9
HETATM    9  N   UNL     1      -9.116  13.260  68.835  1.00  0.00    -0.373 N  
HETATM   10  H   UNL     1      -8.998  13.555  69.805  1.00  0.00     0.000 HD 
BRANCH   9  11
HETATM   11  C   UNL     1      -8.467  12.115  68.317  1.00  0.00    -0.176 A  
HETATM   12  C   UNL     1      -8.929  10.804  68.488  1.00  0.00    -0.160 A  
HETATM   13  C   UNL     1      -8.151   9.902  67.748  1.00  0.00    -0.109 A  
HETATM   14  N   UNL     1      -7.354  12.487  67.655  1.00  0.00    -0.121 NA 
HETATM   15  N   UNL     1      -7.049  10.222  67.033  1.00  0.00    -0.088 NA 
HETATM   16  C   UNL     1      -6.697  11.507  67.039  1.00  0.00    -0.143 A  
BRANCH  12  17
HETATM   17  C   UNL     1     -10.070  10.368  69.373  1.00  0.00    -0.251 A  
HETATM   18  C   UNL     1      -9.895   9.679  70.585  1.00  0.00    -0.268 A  
HETATM   19  C   UNL     1     -10.951   9.357  71.449  1.00  0.00    -0.443 A  
HETATM   20  C   UNL     1     -12.484  10.354  69.909  1.00  0.00    -0.123 A  
HETATM   21  C   UNL     1     -11.416  10.644  69.043  1.00  0.00    -0.342 A  
HETATM   22 BR   UNL     1     -13.654   9.384  72.325  1.00  0.00    -0.492 Br 
HETATM   23  C   UNL     1     -12.242   9.726  71.119  1.00  0.00    -0.362 A  
ENDBRANCH  12  17
BRANCH  13  24
HETATM   24  O   UNL     1      -8.542   8.579  67.734  1.00  0.00    -0.132 OA 
BRANCH  24  25
HETATM   25  C   UNL     1      -7.670   7.624  68.340  1.00  0.00    -0.119 C  
BRANCH  25  26
HETATM   26  C   UNL     1      -8.554   6.564  68.997  1.00  0.00    -0.125 C  
BRANCH  26  27
HETATM   27  O   UNL     1      -8.155   5.263  68.574  1.00  0.00    -0.087 OA 
BRANCH  27  28
HETATM   28  C   UNL     1      -8.735   4.887  67.379  1.00  0.00    -0.103 A  
HETATM   29  N   UNL     1     -10.032   5.157  67.143  1.00  0.00    -0.173 NA 
HETATM   30  C   UNL     1     -10.514   4.753  65.947  1.00  0.00    -0.274 A  
HETATM   31  C   UNL     1      -9.756   4.103  65.001  1.00  0.00    -0.194 A  
HETATM   32  C   UNL     1      -8.446   3.875  65.351  1.00  0.00    -0.109 A  
HETATM   33 BR   UNL     1     -10.461   3.564  63.348  1.00  0.00    -0.260 Br 
HETATM   34  N   UNL     1      -7.910   4.254  66.531  1.00  0.00    -0.097 NA 
ENDBRANCH  27  28
ENDBRANCH  26  27
ENDBRANCH  25  26
ENDBRANCH  24  25
ENDBRANCH  13  24
ENDBRANCH   9  11
ENDBRANCH   6   9
ENDBRANCH   4   6
ENDBRANCH   3   4
ENDBRANCH   2   3
TORSDOF 11
ENDMDL
MODEL      118
REMARK 921   NORMALIZED FREE ENERGY PREDICTED BY IDOCK:   -4.75 KCAL/MOL
REMARK 922        TOTAL FREE ENERGY PREDICTED BY IDOCK:   -9.22 KCAL/MOL
REMARK 923 INTER-LIGAND FREE ENERGY PREDICTED BY IDOCK:   -7.32 KCAL/MOL
REMARK 924 INTRA-LIGAND FREE ENERGY PREDICTED BY IDOCK:   -1.91 KCAL/MOL
REMARK 927      BINDING AFFINITY PREDICTED BY RF-SCORE:    0.00 PKD
ROOT
HETATM    1  C   UNL     1      -5.782  10.996  66.391  1.00  0.00    -0.132 C  
HETATM    2  C   UNL     1      -5.641   9.546  66.825  1.00  0.00    -0.046 C  
ENDROOT
BRANCH   2   3
HETATM    3  C   UNL     1      -5.673   9.393  68.341  1.00  0.00    -0.041 C  
BRANCH   3   4
HETATM    4  N   UNL     1      -6.958   8.759  68.753  1.00  0.00    -0.062 N  
HETATM    5  H   UNL     1      -7.232   7.810  68.501  1.00  0.00     0.000 HD 
BRANCH   4   6
HETATM    6  S   UNL     1      -7.900   9.791  69.681  1.00  0.00    -0.160 S  
HETATM    7  O   UNL     1      -7.706   9.347  71.044  1.00  0.00    -0.284 OA 
HETATM    8  O   UNL     1      -7.630  11.147  69.283  1.00  0.00    -0.121 OA 
BRANCH   6   9
HETATM    9  N   UNL     1      -9.451   9.335  69.246  1.00  0.00    -0.156 N  
HETATM   10  H   UNL     1      -9.765   8.366  69.307  1.00  0.00     0.000 HD 
BRANCH   9  11
HETATM   11  C   UNL     1     -10.302  10.368  68.788  1.00  0.00    -0.196 A  
HETATM   12  C   UNL     1     -10.488  10.693  67.438  1.00  0.00    -0.280 A  
HETATM   13  C   UNL     1     -11.488  11.666  67.294  1.00  0.00    -0.277 A  
HETATM   14  N   UNL     1     -10.883  10.977  69.840  1.00  0.00    -0.156 NA 
HETATM   15  N   UNL     1     -12.134  12.281  68.309  1.00  0.00    -0.345 NA 
HETATM   16  C   UNL     1     -11.781  11.912  69.539  1.00  0.00    -0.345 A  
BRANCH  12  17
HETATM   17  C   UNL     1      -9.710  10.138  66.270  1.00  0.00    -0.274 A  
HETATM   18  C   UNL     1      -9.388   8.778  66.127  1.00  0.00    -0.297 A  
HETATM   19  C   UNL     1      -8.746   8.252  64.998  1.00  0.00    -0.048 A  
HETATM   20  C   UNL     1      -8.641  10.450  64.062  1.00  0.00    -0.179 A  
HETATM   21  C   UNL     1      -9.261  10.962  65.215  1.00  0.00    -0.236 A  
HETATM   22 BR   UNL     1      -7.630   8.372  62.388  1.00  0.00    -0.121 Br 
HETATM   23  C   UNL     1      -8.403   9.089  63.953  1.00  0.00    -0.176 A  
ENDBRANCH  12  17
BRANCH  13  24
HETATM   24  O   UNL     1     -11.858  12.020  66.012  1.00  0.00    -0.522 OA 
BRANCH  24  25
HETATM   25  C   UNL     1     -12.537  13.264  65.839  1.00  0.00    -0.281 C  
BRANCH  25  26
HETATM   26  C   UNL     1     -11.604  14.177  65.044  1.00  0.00    -0.362 C  
BRANCH  26  27
HETATM   27  O   UNL     1     -11.384  15.392  65.756  1.00  0.00    -0.253 OA 
BRANCH  27  28
HETATM   28  C   UNL     1     -10.084  15.524  66.201  1.00  0.00    -0.309 A  
HETATM   29  N   UNL     1      -9.357  16.601  65.851  1.00  0.00    -0.505 NA 
HETATM   30  C   UNL     1      -8.095  16.647  66.335  1.00  0.00    -0.324 A  
HETATM   31  C   UNL     1      -7.553  15.672  67.139  1.00  0.00    -0.223 A  
HETATM   32  C   UNL     1      -8.384  14.616  67.427  1.00  0.00    -0.206 A  
HETATM   33 BR   UNL     1      -5.798  15.776  67.797  1.00  0.00    -0.164 Br 
HETATM   34  N   UNL     1      -9.651  14.515  66.972  1.00  0.00    -0.237 NA 
ENDBRANCH  27  28
ENDBRANCH  26  27
ENDBRANCH  25  26
ENDBRANCH  24  25
ENDBRANCH  13  24
ENDBRANCH   9  11
ENDBRANCH   6   9
ENDBRANCH   4   6
ENDBRANCH   3   4
ENDBRANCH   2   3
TORSDOF 11
ENDMDL
MODEL      119
REMARK 921   NORMALIZED FREE ENERGY PREDICTED BY IDOCK:   -4.75 KCAL/MOL
REMARK 922        TOTAL FREE ENERGY PREDICTED BY IDOCK:   -9.22 KCAL/MOL
REMARK 923 INTER-LIGAND FREE ENERGY PREDICTED BY IDOCK:   -6.87 KCAL/MOL
REMARK 924 INTRA-LIGAND FREE ENERGY PREDICTED BY IDOCK:   -2.35 KCAL/MOL
REMARK 927      BINDING AFFINITY PREDICTED BY RF-SCORE:    0.00 PKD
ROOT
HETATM    1  C   UNL     1     -12.258  12.634  65.076  1.00  0.00    -0.535 C  
HETATM    2  C   UNL     1     -11.326  13.097  66.184  1.00  0.00    -0.343 C  
ENDROOT
BRANCH   2   3
HETATM    3  C   UNL     1     -10.007  12.334  66.184  1.00  0.00    -0.243 C  
BRANCH   3   4
HETATM    4  N   UNL     1      -9.992  11.359  67.311  1.00  0.00    -0.192 N  
HETATM    5  H   UNL     1      -9.974  11.625  68.295  1.00  0.00     0.000 HD 
BRANCH   4   6
HETATM    6  S   UNL     1     -10.008   9.771  66.769  1.00  0.00    -0.232 S  
HETATM    7  O   UNL     1     -11.004   9.110  67.585  1.00  0.00    -0.173 OA 
HETATM    8  O   UNL     1     -10.088   9.773  65.333  1.00  0.00    -0.305 OA 
BRANCH   6   9
HETATM    9  N   UNL     1      -8.517   9.211  67.287  1.00  0.00    -0.121 N  
HETATM   10  H   UNL     1      -7.670   9.342  66.732  1.00  0.00     0.000 HD 
BRANCH   9  11
HETATM   11  C   UNL     1      -8.498   8.545  68.535  1.00  0.00    -0.131 A  
HETATM   12  C   UNL     1      -8.603   7.156  68.687  1.00  0.00    -0.124 A  
HETATM   13  C   UNL     1      -8.416   6.787  70.027  1.00  0.00    -0.140 A  
HETATM   14  N   UNL     1      -8.371   9.447  69.527  1.00  0.00    -0.116 NA 
HETATM   15  N   UNL     1      -8.245   7.644  71.059  1.00  0.00    -0.106 NA 
HETATM   16  C   UNL     1      -8.249   8.940  70.752  1.00  0.00    -0.171 A  
BRANCH  12  17
HETATM   17  C   UNL     1      -8.922   6.161  67.599  1.00  0.00    -0.111 A  
HETATM   18  C   UNL     1     -10.224   5.725  67.300  1.00  0.00    -0.248 A  
HETATM   19  C   UNL     1     -10.525   4.872  66.230  1.00  0.00    -0.349 A  
HETATM   20  C   UNL     1      -8.199   4.768  65.688  1.00  0.00    -0.113 A  
HETATM   21  C   UNL     1      -7.914   5.602  66.782  1.00  0.00    -0.102 A  
HETATM   22 BR   UNL     1      -9.922   3.353  63.906  1.00  0.00    -0.194 Br 
HETATM   23  C   UNL     1      -9.510   4.420  65.407  1.00  0.00    -0.175 A  
ENDBRANCH  12  17
BRANCH  13  24
HETATM   24  O   UNL     1      -8.393   5.440  70.323  1.00  0.00    -0.107 OA 
BRANCH  24  25
HETATM   25  C   UNL     1      -8.676   5.052  71.668  1.00  0.00    -0.132 C  
BRANCH  25  26
HETATM   26  C   UNL     1     -10.023   4.328  71.652  1.00  0.00    -0.180 C  
BRANCH  26  27
HETATM   27  O   UNL     1     -10.913   4.930  72.587  1.00  0.00    -0.223 OA 
BRANCH  27  28
HETATM   28  C   UNL     1     -11.284   6.210  72.228  1.00  0.00    -0.289 A  
HETATM   29  N   UNL     1     -11.073   7.236  73.074  1.00  0.00    -0.330 NA 
HETATM   30  C   UNL     1     -11.466   8.454  72.638  1.00  0.00    -0.289 A  
HETATM   31  C   UNL     1     -12.049   8.672  71.411  1.00  0.00    -0.303 A  
HETATM   32  C   UNL     1     -12.220   7.551  70.633  1.00  0.00    -0.038 A  
HETATM   33 BR   UNL     1     -12.574  10.380  70.839  1.00  0.00    -0.506 Br 
HETATM   34  N   UNL     1     -11.848   6.310  71.015  1.00  0.00    -0.245 NA 
ENDBRANCH  27  28
ENDBRANCH  26  27
ENDBRANCH  25  26
ENDBRANCH  24  25
ENDBRANCH  13  24
ENDBRANCH   9  11
ENDBRANCH   6   9
ENDBRANCH   4   6
ENDBRANCH   3   4
ENDBRANCH   2   3
TORSDOF 11
ENDMDL
MODEL      120
REMARK 921   NORMALIZED FREE ENERGY PREDICTED BY IDOCK:   -4.75 KCAL/MOL
REMARK 922        TOTAL FREE ENERGY PREDICTED BY IDOCK:   -9.22 KCAL/MOL
REMARK 923 INTER-LIGAND FREE ENERGY PREDICTED BY IDOCK:   -6.92 KCAL/MOL
REMARK 924 INTRA-LIGAND FREE ENERGY PREDICTED BY IDOCK:   -2.30 KCAL/MOL
REMARK 927      BINDING AFFINITY PREDICTED BY RF-SCORE:    0.00 PKD
ROOT
HETATM    1  C   UNL     1      -8.303   2.910  69.140  1.00  0.00    -0.086 C  
HETATM    2  C   UNL     1      -7.721   4.303  69.314  1.00  0.00    -0.054 C  
ENDROOT
BRANCH   2   3
HETATM    3  C   UNL     1      -8.784   5.390  69.196  1.00  0.00    -0.101 C  
BRANCH   3   4
HETATM    4  N   UNL     1      -8.924   5.801  67.770  1.00  0.00    -0.109 N  
HETATM    5  H   UNL     1      -8.136   5.949  67.140  1.00  0.00     0.000 HD 
BRANCH   4   6
HETATM    6  S   UNL     1     -10.530   5.990  67.325  1.00  0.00    -0.293 S  
HETATM    7  O   UNL     1     -10.771   4.947  66.350  1.00  0.00    -0.281 OA 
HETATM    8  O   UNL     1     -11.328   6.112  68.515  1.00  0.00    -0.289 OA 
BRANCH   6   9
HETATM    9  N   UNL     1     -10.490   7.435  66.478  1.00  0.00    -0.501 N  
HETATM   10  H   UNL     1     -11.267   7.735  65.889  1.00  0.00     0.000 HD 
BRANCH   9  11
HETATM   11  C   UNL     1      -9.318   8.214  66.625  1.00  0.00    -0.197 A  
HETATM   12  C   UNL     1      -9.122   9.153  67.645  1.00  0.00    -0.133 A  
HETATM   13  C   UNL     1      -7.816   9.664  67.606  1.00  0.00    -0.095 A  
HETATM   14  N   UNL     1      -8.448   7.913  65.640  1.00  0.00    -0.145 NA 
HETATM   15  N   UNL     1      -6.887   9.370  66.668  1.00  0.00    -0.079 NA 
HETATM   16  C   UNL     1      -7.263   8.515  65.718  1.00  0.00    -0.076 A  
BRANCH  12  17
HETATM   17  C   UNL     1     -10.155   9.620  68.640  1.00  0.00    -0.196 A  
HETATM   18  C   UNL     1     -10.185   9.206  69.982  1.00  0.00    -0.229 A  
HETATM   19  C   UNL     1     -11.090   9.712  70.925  1.00  0.00    -0.422 A  
HETATM   20  C   UNL     1     -12.068  11.075  69.222  1.00  0.00    -0.363 A  
HETATM   21  C   UNL     1     -11.170  10.535  68.284  1.00  0.00    -0.354 A  
HETATM   22 BR   UNL     1     -13.164  11.429  71.833  1.00  0.00    -0.317 Br 
HETATM   23  C   UNL     1     -12.010  10.671  70.546  1.00  0.00    -0.352 A  
ENDBRANCH  12  17
BRANCH  13  24
HETATM   24  O   UNL     1      -7.436  10.531  68.610  1.00  0.00    -0.085 OA 
BRANCH  24  25
HETATM   25  C   UNL     1      -6.301  11.364  68.372  1.00  0.00    -0.046 C  
BRANCH  25  26
HETATM   26  C   UNL     1      -6.818  12.649  67.723  1.00  0.00    -0.128 C  
BRANCH  26  27
HETATM   27  O   UNL     1      -7.877  13.198  68.502  1.00  0.00    -0.134 OA 
BRANCH  27  28
HETATM   28  C   UNL     1      -9.036  13.385  67.775  1.00  0.00    -0.202 A  
HETATM   29  N   UNL     1     -10.082  14.029  68.326  1.00  0.00    -0.240 NA 
HETATM   30  C   UNL     1     -11.173  14.167  67.540  1.00  0.00    -0.306 A  
HETATM   31  C   UNL     1     -11.248  13.693  66.251  1.00  0.00    -0.305 A  
HETATM   32  C   UNL     1     -10.123  13.047  65.794  1.00  0.00    -0.287 A  
HETATM   33 BR   UNL     1     -12.780  13.912  65.189  1.00  0.00    -0.380 Br 
HETATM   34  N   UNL     1      -9.006  12.878  66.533  1.00  0.00    -0.139 NA 
ENDBRANCH  27  28
ENDBRANCH  26  27
ENDBRANCH  25  26
ENDBRANCH  24  25
ENDBRANCH  13  24
ENDBRANCH   9  11
ENDBRANCH   6   9
ENDBRANCH   4   6
ENDBRANCH   3   4
ENDBRANCH   2   3
TORSDOF 11
ENDMDL
MODEL      121
REMARK 921   NORMALIZED FREE ENERGY PREDICTED BY IDOCK:   -4.74 KCAL/MOL
REMARK 922        TOTAL FREE ENERGY PREDICTED BY IDOCK:   -9.21 KCAL/MOL
REMARK 923 INTER-LIGAND FREE ENERGY PREDICTED BY IDOCK:   -7.42 KCAL/MOL
REMARK 924 INTRA-LIGAND FREE ENERGY PREDICTED BY IDOCK:   -1.79 KCAL/MOL
REMARK 927      BINDING AFFINITY PREDICTED BY RF-SCORE:    0.00 PKD
ROOT
HETATM    1  C   UNL     1     -11.844  11.955  63.516  1.00  0.00    -0.560 C  
HETATM    2  C   UNL     1     -12.627  12.412  64.736  1.00  0.00    -0.419 C  
ENDROOT
BRANCH   2   3
HETATM    3  C   UNL     1     -12.482  13.909  64.985  1.00  0.00    -0.419 C  
BRANCH   3   4
HETATM    4  N   UNL     1     -11.892  14.137  66.335  1.00  0.00    -0.405 N  
HETATM    5  H   UNL     1     -12.380  13.945  67.210  1.00  0.00     0.000 HD 
BRANCH   4   6
HETATM    6  S   UNL     1     -10.333  14.748  66.245  1.00  0.00    -0.311 S  
HETATM    7  O   UNL     1      -9.674  13.939  65.242  1.00  0.00    -0.177 OA 
HETATM    8  O   UNL     1     -10.403  16.181  66.135  1.00  0.00    -0.309 OA 
BRANCH   6   9
HETATM    9  N   UNL     1      -9.692  14.290  67.723  1.00  0.00    -0.218 N  
HETATM   10  H   UNL     1      -8.778  14.616  68.038  1.00  0.00     0.000 HD 
BRANCH   9  11
HETATM   11  C   UNL     1     -10.490  13.427  68.511  1.00  0.00    -0.252 A  
HETATM   12  C   UNL     1     -10.330  12.036  68.560  1.00  0.00    -0.228 A  
HETATM   13  C   UNL     1     -11.175  11.473  69.527  1.00  0.00    -0.236 A  
HETATM   14  N   UNL     1     -11.410  14.147  69.182  1.00  0.00    -0.265 NA 
HETATM   15  N   UNL     1     -12.088  12.149  70.260  1.00  0.00    -0.338 NA 
HETATM   16  C   UNL     1     -12.168  13.459  70.033  1.00  0.00    -0.298 A  
BRANCH  12  17
HETATM   17  C   UNL     1      -9.425  11.210  67.681  1.00  0.00    -0.173 A  
HETATM   18  C   UNL     1      -9.872  10.499  66.554  1.00  0.00    -0.255 A  
HETATM   19  C   UNL     1      -9.014   9.809  65.687  1.00  0.00    -0.199 A  
HETATM   20  C   UNL     1      -7.159  10.443  67.055  1.00  0.00    -0.092 A  
HETATM   21  C   UNL     1      -8.038  11.107  67.928  1.00  0.00    -0.119 A  
HETATM   22 BR   UNL     1      -6.483   8.967  64.708  1.00  0.00    -0.066 Br 
HETATM   23  C   UNL     1      -7.652   9.810  65.926  1.00  0.00    -0.103 A  
ENDBRANCH  12  17
BRANCH  13  24
HETATM   24  O   UNL     1     -11.063  10.118  69.765  1.00  0.00    -0.246 OA 
BRANCH  24  25
HETATM   25  C   UNL     1     -10.231   9.702  70.848  1.00  0.00    -0.232 C  
BRANCH  25  26
HETATM   26  C   UNL     1     -10.537   8.227  71.108  1.00  0.00    -0.214 C  
BRANCH  26  27
HETATM   27  O   UNL     1      -9.326   7.501  71.292  1.00  0.00    -0.149 OA 
BRANCH  27  28
HETATM   28  C   UNL     1      -9.529   6.141  71.415  1.00  0.00    -0.156 A  
HETATM   29  N   UNL     1      -9.203   5.315  70.403  1.00  0.00    -0.144 NA 
HETATM   30  C   UNL     1      -9.435   4.000  70.613  1.00  0.00    -0.170 A  
HETATM   31  C   UNL     1      -9.971   3.498  71.775  1.00  0.00    -0.131 A  
HETATM   32  C   UNL     1     -10.271   4.432  72.738  1.00  0.00    -0.176 A  
HETATM   33 BR   UNL     1     -10.272   1.663  72.030  1.00  0.00    -0.183 Br 
HETATM   34  N   UNL     1     -10.062   5.758  72.585  1.00  0.00    -0.177 NA 
ENDBRANCH  27  28
ENDBRANCH  26  27
ENDBRANCH  25  26
ENDBRANCH  24  25
ENDBRANCH  13  24
ENDBRANCH   9  11
ENDBRANCH   6   9
ENDBRANCH   4   6
ENDBRANCH   3   4
ENDBRANCH   2   3
TORSDOF 11
ENDMDL
MODEL      122
REMARK 921   NORMALIZED FREE ENERGY PREDICTED BY IDOCK:   -4.74 KCAL/MOL
REMARK 922        TOTAL FREE ENERGY PREDICTED BY IDOCK:   -9.20 KCAL/MOL
REMARK 923 INTER-LIGAND FREE ENERGY PREDICTED BY IDOCK:   -7.57 KCAL/MOL
REMARK 924 INTRA-LIGAND FREE ENERGY PREDICTED BY IDOCK:   -1.63 KCAL/MOL
REMARK 927      BINDING AFFINITY PREDICTED BY RF-SCORE:    0.00 PKD
ROOT
HETATM    1  C   UNL     1     -10.224  16.219  65.866  1.00  0.00    -0.384 C  
HETATM    2  C   UNL     1     -10.621  15.078  64.942  1.00  0.00    -0.400 C  
ENDROOT
BRANCH   2   3
HETATM    3  C   UNL     1     -10.823  13.770  65.697  1.00  0.00    -0.287 C  
BRANCH   3   4
HETATM    4  N   UNL     1     -10.561  13.983  67.149  1.00  0.00    -0.273 N  
HETATM    5  H   UNL     1      -9.897  14.666  67.514  1.00  0.00     0.000 HD 
BRANCH   4   6
HETATM    6  S   UNL     1     -11.486  12.968  68.111  1.00  0.00    -0.343 S  
HETATM    7  O   UNL     1     -12.171  13.850  69.032  1.00  0.00    -0.350 OA 
HETATM    8  O   UNL     1     -12.206  12.056  67.262  1.00  0.00    -0.496 OA 
BRANCH   6   9
HETATM    9  N   UNL     1     -10.316  12.165  68.999  1.00  0.00    -0.421 N  
HETATM   10  H   UNL     1      -9.467  12.633  69.320  1.00  0.00     0.000 HD 
BRANCH   9  11
HETATM   11  C   UNL     1     -10.569  10.801  69.280  1.00  0.00    -0.229 A  
HETATM   12  C   UNL     1     -10.097   9.738  68.499  1.00  0.00    -0.185 A  
HETATM   13  C   UNL     1     -10.395   8.508  69.103  1.00  0.00    -0.217 A  
HETATM   14  N   UNL     1     -11.325  10.700  70.390  1.00  0.00    -0.317 NA 
HETATM   15  N   UNL     1     -11.114   8.346  70.237  1.00  0.00    -0.240 NA 
HETATM   16  C   UNL     1     -11.559   9.461  70.814  1.00  0.00    -0.298 A  
BRANCH  12  17
HETATM   17  C   UNL     1      -9.403   9.849  67.164  1.00  0.00    -0.170 A  
HETATM   18  C   UNL     1      -8.007   9.843  67.011  1.00  0.00    -0.109 A  
HETATM   19  C   UNL     1      -7.367   9.853  65.763  1.00  0.00    -0.111 A  
HETATM   20  C   UNL     1      -9.505   9.934  64.695  1.00  0.00    -0.343 A  
HETATM   21  C   UNL     1     -10.127   9.951  65.956  1.00  0.00    -0.314 A  
HETATM   22 BR   UNL     1      -7.272   9.780  62.925  1.00  0.00    -0.121 Br 
HETATM   23  C   UNL     1      -8.124   9.867  64.606  1.00  0.00    -0.152 A  
ENDBRANCH  12  17
BRANCH  13  24
HETATM   24  O   UNL     1      -9.908   7.364  68.504  1.00  0.00    -0.153 OA 
BRANCH  24  25
HETATM   25  C   UNL     1     -10.737   6.202  68.523  1.00  0.00    -0.300 C  
BRANCH  25  26
HETATM   26  C   UNL     1      -9.827   5.008  68.815  1.00  0.00    -0.168 C  
BRANCH  26  27
HETATM   27  O   UNL     1     -10.115   4.479  70.106  1.00  0.00    -0.229 OA 
BRANCH  27  28
HETATM   28  C   UNL     1      -9.429   5.124  71.116  1.00  0.00    -0.153 A  
HETATM   29  N   UNL     1      -8.092   5.261  71.043  1.00  0.00    -0.109 NA 
HETATM   30  C   UNL     1      -7.505   5.908  72.075  1.00  0.00    -0.096 A  
HETATM   31  C   UNL     1      -8.198   6.409  73.151  1.00  0.00    -0.115 A  
HETATM   32  C   UNL     1      -9.558   6.208  73.123  1.00  0.00    -0.146 A  
HETATM   33 BR   UNL     1      -7.347   7.308  74.562  1.00  0.00    -0.142 Br 
HETATM   34  N   UNL     1     -10.199   5.569  72.121  1.00  0.00    -0.193 NA 
ENDBRANCH  27  28
ENDBRANCH  26  27
ENDBRANCH  25  26
ENDBRANCH  24  25
ENDBRANCH  13  24
ENDBRANCH   9  11
ENDBRANCH   6   9
ENDBRANCH   4   6
ENDBRANCH   3   4
ENDBRANCH   2   3
TORSDOF 11
ENDMDL
MODEL      123
REMARK 921   NORMALIZED FREE ENERGY PREDICTED BY IDOCK:   -4.74 KCAL/MOL
REMARK 922        TOTAL FREE ENERGY PREDICTED BY IDOCK:   -9.20 KCAL/MOL
REMARK 923 INTER-LIGAND FREE ENERGY PREDICTED BY IDOCK:   -7.67 KCAL/MOL
REMARK 924 INTRA-LIGAND FREE ENERGY PREDICTED BY IDOCK:   -1.53 KCAL/MOL
REMARK 927      BINDING AFFINITY PREDICTED BY RF-SCORE:    0.00 PKD
ROOT
HETATM    1  C   UNL     1     -12.892  14.339  65.019  1.00  0.00    -0.196 C  
HETATM    2  C   UNL     1     -11.858  13.631  64.158  1.00  0.00    -0.463 C  
ENDROOT
BRANCH   2   3
HETATM    3  C   UNL     1     -10.433  13.916  64.618  1.00  0.00    -0.396 C  
BRANCH   3   4
HETATM    4  N   UNL     1     -10.092  13.032  65.768  1.00  0.00    -0.290 N  
HETATM    5  H   UNL     1     -10.044  13.349  66.736  1.00  0.00     0.000 HD 
BRANCH   4   6
HETATM    6  S   UNL     1      -9.795  11.454  65.283  1.00  0.00    -0.257 S  
HETATM    7  O   UNL     1     -10.026  11.455  63.854  1.00  0.00    -0.259 OA 
HETATM    8  O   UNL     1      -8.542  11.025  65.845  1.00  0.00    -0.176 OA 
BRANCH   6   9
HETATM    9  N   UNL     1     -11.078  10.629  65.974  1.00  0.00     0.125 N  
HETATM   10  H   UNL     1     -11.746  10.103  65.410  1.00  0.00     0.000 HD 
BRANCH   9  11
HETATM   11  C   UNL     1     -11.182  10.702  67.383  1.00  0.00    -0.205 A  
HETATM   12  C   UNL     1     -10.704   9.718  68.259  1.00  0.00    -0.277 A  
HETATM   13  C   UNL     1     -10.831  10.135  69.592  1.00  0.00    -0.263 A  
HETATM   14  N   UNL     1     -11.809  11.842  67.732  1.00  0.00    -0.592 NA 
HETATM   15  N   UNL     1     -11.414  11.285  70.001  1.00  0.00    -0.293 NA 
HETATM   16  C   UNL     1     -11.891  12.075  69.040  1.00  0.00    -0.315 A  
BRANCH  12  17
HETATM   17  C   UNL     1     -10.163   8.365  67.872  1.00  0.00    -0.273 A  
HETATM   18  C   UNL     1     -10.974   7.284  67.487  1.00  0.00    -0.221 A  
HETATM   19  C   UNL     1     -10.465   6.057  67.040  1.00  0.00    -0.334 A  
HETATM   20  C   UNL     1      -8.246   6.881  67.381  1.00  0.00    -0.119 A  
HETATM   21  C   UNL     1      -8.777   8.094  67.853  1.00  0.00    -0.128 A  
HETATM   22 BR   UNL     1      -8.406   4.260  66.263  1.00  0.00    -0.109 Br 
HETATM   23  C   UNL     1      -9.097   5.872  66.959  1.00  0.00    -0.116 A  
ENDBRANCH  12  17
BRANCH  13  24
HETATM   24  O   UNL     1     -10.312   9.315  70.572  1.00  0.00    -0.216 OA 
BRANCH  24  25
HETATM   25  C   UNL     1     -11.005   9.253  71.819  1.00  0.00    -0.313 C  
BRANCH  25  26
HETATM   26  C   UNL     1     -10.435   8.062  72.589  1.00  0.00    -0.339 C  
BRANCH  26  27
HETATM   27  O   UNL     1     -11.372   6.988  72.594  1.00  0.00    -0.276 OA 
BRANCH  27  28
HETATM   28  C   UNL     1     -10.850   5.818  72.080  1.00  0.00    -0.251 A  
HETATM   29  N   UNL     1     -10.455   5.763  70.794  1.00  0.00    -0.242 NA 
HETATM   30  C   UNL     1      -9.955   4.578  70.378  1.00  0.00    -0.213 A  
HETATM   31  C   UNL     1      -9.842   3.473  71.188  1.00  0.00    -0.115 A  
HETATM   32  C   UNL     1     -10.282   3.642  72.480  1.00  0.00    -0.159 A  
HETATM   33 BR   UNL     1      -9.136   1.847  70.574  1.00  0.00    -0.164 Br 
HETATM   34  N   UNL     1     -10.790   4.801  72.952  1.00  0.00    -0.229 NA 
ENDBRANCH  27  28
ENDBRANCH  26  27
ENDBRANCH  25  26
ENDBRANCH  24  25
ENDBRANCH  13  24
ENDBRANCH   9  11
ENDBRANCH   6   9
ENDBRANCH   4   6
ENDBRANCH   3   4
ENDBRANCH   2   3
TORSDOF 11
ENDMDL
MODEL      124
REMARK 921   NORMALIZED FREE ENERGY PREDICTED BY IDOCK:   -4.73 KCAL/MOL
REMARK 922        TOTAL FREE ENERGY PREDICTED BY IDOCK:   -9.19 KCAL/MOL
REMARK 923 INTER-LIGAND FREE ENERGY PREDICTED BY IDOCK:   -7.44 KCAL/MOL
REMARK 924 INTRA-LIGAND FREE ENERGY PREDICTED BY IDOCK:   -1.75 KCAL/MOL
REMARK 927      BINDING AFFINITY PREDICTED BY RF-SCORE:    0.00 PKD
ROOT
HETATM    1  C   UNL     1     -11.708  12.315  63.498  1.00  0.00    -0.584 C  
HETATM    2  C   UNL     1     -10.211  12.056  63.477  1.00  0.00    -0.477 C  
ENDROOT
BRANCH   2   3
HETATM    3  C   UNL     1      -9.872  10.611  63.823  1.00  0.00    -0.335 C  
BRANCH   3   4
HETATM    4  N   UNL     1      -8.662  10.574  64.693  1.00  0.00    -0.186 N  
HETATM    5  H   UNL     1      -7.707  10.517  64.339  1.00  0.00     0.000 HD 
BRANCH   4   6
HETATM    6  S   UNL     1      -9.057  10.636  66.321  1.00  0.00    -0.173 S  
HETATM    7  O   UNL     1      -8.755  11.992  66.726  1.00  0.00    -0.192 OA 
HETATM    8  O   UNL     1     -10.365  10.067  66.503  1.00  0.00    -0.232 OA 
BRANCH   6   9
HETATM    9  N   UNL     1      -7.878   9.661  67.004  1.00  0.00    -0.098 N  
HETATM   10  H   UNL     1      -6.990   9.480  66.534  1.00  0.00     0.000 HD 
BRANCH   9  11
HETATM   11  C   UNL     1      -8.182   9.103  68.268  1.00  0.00    -0.116 A  
HETATM   12  C   UNL     1      -8.643   7.794  68.460  1.00  0.00    -0.128 A  
HETATM   13  C   UNL     1      -8.725   7.492  69.826  1.00  0.00    -0.140 A  
HETATM   14  N   UNL     1      -7.966  10.021  69.231  1.00  0.00    -0.117 NA 
HETATM   15  N   UNL     1      -8.482   8.356  70.837  1.00  0.00    -0.129 NA 
HETATM   16  C   UNL     1      -8.129   9.590  70.481  1.00  0.00    -0.166 A  
BRANCH  12  17
HETATM   17  C   UNL     1      -9.054   6.826  67.379  1.00  0.00    -0.117 A  
HETATM   18  C   UNL     1      -8.142   6.155  66.548  1.00  0.00    -0.110 A  
HETATM   19  C   UNL     1      -8.521   5.187  65.608  1.00  0.00    -0.134 A  
HETATM   20  C   UNL     1     -10.808   5.523  66.221  1.00  0.00    -0.127 A  
HETATM   21  C   UNL     1     -10.410   6.510  67.138  1.00  0.00    -0.311 A  
HETATM   22 BR   UNL     1     -10.363   3.479  64.279  1.00  0.00    -0.162 Br 
HETATM   23  C   UNL     1      -9.856   4.852  65.470  1.00  0.00    -0.092 A  
ENDBRANCH  12  17
BRANCH  13  24
HETATM   24  O   UNL     1      -9.071   6.202  70.178  1.00  0.00    -0.149 OA 
BRANCH  24  25
HETATM   25  C   UNL     1     -10.118   6.035  71.134  1.00  0.00    -0.194 C  
BRANCH  25  26
HETATM   26  C   UNL     1     -11.394   6.590  70.502  1.00  0.00    -0.367 C  
BRANCH  26  27
HETATM   27  O   UNL     1     -12.219   7.181  71.502  1.00  0.00    -0.319 OA 
BRANCH  27  28
HETATM   28  C   UNL     1     -12.323   8.551  71.370  1.00  0.00    -0.297 A  
HETATM   29  N   UNL     1     -13.050   9.262  72.252  1.00  0.00    -0.433 NA 
HETATM   30  C   UNL     1     -13.094  10.597  72.046  1.00  0.00    -0.396 A  
HETATM   31  C   UNL     1     -12.448  11.228  71.008  1.00  0.00    -0.400 A  
HETATM   32  C   UNL     1     -11.739  10.404  70.166  1.00  0.00    -0.312 A  
HETATM   33 BR   UNL     1     -12.527  13.086  70.760  1.00  0.00    -0.307 Br 
HETATM   34  N   UNL     1     -11.660   9.065  70.322  1.00  0.00    -0.135 NA 
ENDBRANCH  27  28
ENDBRANCH  26  27
ENDBRANCH  25  26
ENDBRANCH  24  25
ENDBRANCH  13  24
ENDBRANCH   9  11
ENDBRANCH   6   9
ENDBRANCH   4   6
ENDBRANCH   3   4
ENDBRANCH   2   3
TORSDOF 11
ENDMDL
MODEL      125
REMARK 921   NORMALIZED FREE ENERGY PREDICTED BY IDOCK:   -4.72 KCAL/MOL
REMARK 922        TOTAL FREE ENERGY PREDICTED BY IDOCK:   -9.17 KCAL/MOL
REMARK 923 INTER-LIGAND FREE ENERGY PREDICTED BY IDOCK:   -7.49 KCAL/MOL
REMARK 924 INTRA-LIGAND FREE ENERGY PREDICTED BY IDOCK:   -1.68 KCAL/MOL
REMARK 927      BINDING AFFINITY PREDICTED BY RF-SCORE:    0.00 PKD
ROOT
HETATM    1  C   UNL     1      -8.370   6.351  66.579  1.00  0.00    -0.115 C  
HETATM    2  C   UNL     1      -7.610   5.981  67.843  1.00  0.00    -0.097 C  
ENDROOT
BRANCH   2   3
HETATM    3  C   UNL     1      -8.480   6.091  69.090  1.00  0.00    -0.114 C  
BRANCH   3   4
HETATM    4  N   UNL     1      -7.880   7.077  70.033  1.00  0.00    -0.111 N  
HETATM    5  H   UNL     1      -6.892   7.329  70.042  1.00  0.00     0.000 HD 
BRANCH   4   6
HETATM    6  S   UNL     1      -9.022   7.722  71.078  1.00  0.00    -0.144 S  
HETATM    7  O   UNL     1      -9.386   6.628  71.953  1.00  0.00    -0.148 OA 
HETATM    8  O   UNL     1      -8.524   8.969  71.595  1.00  0.00    -0.339 OA 
BRANCH   6   9
HETATM    9  N   UNL     1     -10.327   7.973  70.058  1.00  0.00    -0.213 N  
HETATM   10  H   UNL     1     -10.644   7.257  69.404  1.00  0.00     0.000 HD 
BRANCH   9  11
HETATM   11  C   UNL     1     -10.965   9.232  70.156  1.00  0.00    -0.246 A  
HETATM   12  C   UNL     1     -10.848  10.249  69.199  1.00  0.00    -0.270 A  
HETATM   13  C   UNL     1     -11.699  11.320  69.506  1.00  0.00    -0.345 A  
HETATM   14  N   UNL     1     -11.678   9.291  71.297  1.00  0.00    -0.319 NA 
HETATM   15  N   UNL     1     -12.468  11.417  70.614  1.00  0.00    -0.340 NA 
HETATM   16  C   UNL     1     -12.402  10.395  71.466  1.00  0.00    -0.368 A  
BRANCH  12  17
HETATM   17  C   UNL     1      -9.915  10.256  68.014  1.00  0.00    -0.177 A  
HETATM   18  C   UNL     1      -8.565  10.638  68.090  1.00  0.00    -0.123 A  
HETATM   19  C   UNL     1      -7.678  10.556  67.008  1.00  0.00    -0.110 A  
HETATM   20  C   UNL     1      -9.461   9.742  65.638  1.00  0.00    -0.307 A  
HETATM   21  C   UNL     1     -10.341   9.857  66.728  1.00  0.00    -0.285 A  
HETATM   22 BR   UNL     1      -6.913   9.870  64.359  1.00  0.00    -0.130 Br 
HETATM   23  C   UNL     1      -8.125  10.077  65.790  1.00  0.00    -0.128 A  
ENDBRANCH  12  17
BRANCH  13  24
HETATM   24  O   UNL     1     -11.772  12.360  68.602  1.00  0.00    -0.292 OA 
BRANCH  24  25
HETATM   25  C   UNL     1     -10.958  13.507  68.845  1.00  0.00    -0.252 C  
BRANCH  25  26
HETATM   26  C   UNL     1     -11.903  14.676  69.124  1.00  0.00    -0.312 C  
BRANCH  26  27
HETATM   27  O   UNL     1     -11.220  15.696  69.847  1.00  0.00    -0.274 OA 
BRANCH  27  28
HETATM   28  C   UNL     1     -10.407  16.470  69.043  1.00  0.00    -0.296 A  
HETATM   29  N   UNL     1     -10.949  17.305  68.138  1.00  0.00    -0.288 NA 
HETATM   30  C   UNL     1     -10.077  18.024  67.397  1.00  0.00    -0.349 A  
HETATM   31  C   UNL     1      -8.711  17.936  67.531  1.00  0.00    -0.243 A  
HETATM   32  C   UNL     1      -8.268  17.047  68.483  1.00  0.00    -0.259 A  
HETATM   33 BR   UNL     1      -7.532  18.957  66.488  1.00  0.00    -0.270 Br 
HETATM   34  N   UNL     1      -9.092  16.302  69.251  1.00  0.00    -0.229 NA 
ENDBRANCH  27  28
ENDBRANCH  26  27
ENDBRANCH  25  26
ENDBRANCH  24  25
ENDBRANCH  13  24
ENDBRANCH   9  11
ENDBRANCH   6   9
ENDBRANCH   4   6
ENDBRANCH   3   4
ENDBRANCH   2   3
TORSDOF 11
ENDMDL
MODEL      126
REMARK 921   NORMALIZED FREE ENERGY PREDICTED BY IDOCK:   -4.71 KCAL/MOL
REMARK 922        TOTAL FREE ENERGY PREDICTED BY IDOCK:   -9.16 KCAL/MOL
REMARK 923 INTER-LIGAND FREE ENERGY PREDICTED BY IDOCK:   -7.79 KCAL/MOL
REMARK 924 INTRA-LIGAND FREE ENERGY PREDICTED BY IDOCK:   -1.36 KCAL/MOL
REMARK 927      BINDING AFFINITY PREDICTED BY RF-SCORE:    0.00 PKD
ROOT
HETATM    1  C   UNL     1      -5.660  14.029  67.959  1.00  0.00    -0.124 C  
HETATM    2  C   UNL     1      -6.589  15.227  67.835  1.00  0.00    -0.174 C  
ENDROOT
BRANCH   2   3
HETATM    3  C   UNL     1      -7.989  14.825  67.388  1.00  0.00    -0.197 C  
BRANCH   3   4
HETATM    4  N   UNL     1      -8.994  15.341  68.360  1.00  0.00    -0.178 N  
HETATM    5  H   UNL     1      -9.021  15.078  69.345  1.00  0.00     0.000 HD 
BRANCH   4   6
HETATM    6  S   UNL     1     -10.075  16.404  67.644  1.00  0.00    -0.270 S  
HETATM    7  O   UNL     1     -10.549  17.239  68.727  1.00  0.00    -0.338 OA 
HETATM    8  O   UNL     1      -9.462  16.966  66.470  1.00  0.00    -0.252 OA 
BRANCH   6   9
HETATM    9  N   UNL     1     -11.342  15.390  67.232  1.00  0.00    -0.273 N  
HETATM   10  H   UNL     1     -11.847  15.490  66.351  1.00  0.00     0.000 HD 
BRANCH   9  11
HETATM   11  C   UNL     1     -11.674  14.389  68.175  1.00  0.00    -0.342 A  
HETATM   12  C   UNL     1     -11.483  13.017  67.964  1.00  0.00    -0.348 A  
HETATM   13  C   UNL     1     -11.780  12.290  69.126  1.00  0.00    -0.323 A  
HETATM   14  N   UNL     1     -12.198  14.960  69.277  1.00  0.00    -0.232 NA 
HETATM   15  N   UNL     1     -12.268  12.812  70.274  1.00  0.00    -0.317 NA 
HETATM   16  C   UNL     1     -12.469  14.129  70.281  1.00  0.00    -0.353 A  
BRANCH  12  17
HETATM   17  C   UNL     1     -11.065  12.362  66.672  1.00  0.00    -0.336 A  
HETATM   18  C   UNL     1     -11.825  12.416  65.491  1.00  0.00    -0.469 A  
HETATM   19  C   UNL     1     -11.391  11.886  64.269  1.00  0.00    -0.425 A  
HETATM   20  C   UNL     1      -9.386  11.135  65.333  1.00  0.00    -0.243 A  
HETATM   21  C   UNL     1      -9.851  11.650  66.556  1.00  0.00    -0.228 A  
HETATM   22 BR   UNL     1      -9.521  10.646  62.525  1.00  0.00    -0.256 Br 
HETATM   23  C   UNL     1     -10.154  11.273  64.189  1.00  0.00    -0.320 A  
ENDBRANCH  12  17
BRANCH  13  24
HETATM   24  O   UNL     1     -11.545  10.930  69.109  1.00  0.00    -0.272 OA 
BRANCH  24  25
HETATM   25  C   UNL     1     -11.057  10.327  70.308  1.00  0.00    -0.319 C  
BRANCH  25  26
HETATM   26  C   UNL     1     -10.825   8.847  70.002  1.00  0.00    -0.227 C  
BRANCH  26  27
HETATM   27  O   UNL     1     -10.645   8.660  68.601  1.00  0.00    -0.204 OA 
BRANCH  27  28
HETATM   28  C   UNL     1      -9.629   7.773  68.305  1.00  0.00    -0.155 A  
HETATM   29  N   UNL     1      -8.587   8.168  67.550  1.00  0.00    -0.129 NA 
HETATM   30  C   UNL     1      -7.638   7.234  67.313  1.00  0.00    -0.104 A  
HETATM   31  C   UNL     1      -7.700   5.948  67.797  1.00  0.00    -0.097 A  
HETATM   32  C   UNL     1      -8.811   5.654  68.551  1.00  0.00    -0.108 A  
HETATM   33 BR   UNL     1      -6.359   4.682  67.452  1.00  0.00    -0.042 Br 
HETATM   34  N   UNL     1      -9.790   6.545  68.820  1.00  0.00    -0.138 NA 
ENDBRANCH  27  28
ENDBRANCH  26  27
ENDBRANCH  25  26
ENDBRANCH  24  25
ENDBRANCH  13  24
ENDBRANCH   9  11
ENDBRANCH   6   9
ENDBRANCH   4   6
ENDBRANCH   3   4
ENDBRANCH   2   3
TORSDOF 11
ENDMDL
MODEL      127
REMARK 921   NORMALIZED FREE ENERGY PREDICTED BY IDOCK:   -4.70 KCAL/MOL
REMARK 922        TOTAL FREE ENERGY PREDICTED BY IDOCK:   -9.14 KCAL/MOL
REMARK 923 INTER-LIGAND FREE ENERGY PREDICTED BY IDOCK:   -6.79 KCAL/MOL
REMARK 924 INTRA-LIGAND FREE ENERGY PREDICTED BY IDOCK:   -2.36 KCAL/MOL
REMARK 927      BINDING AFFINITY PREDICTED BY RF-SCORE:    0.00 PKD
ROOT
HETATM    1  C   UNL     1      -9.792   9.177  65.763  1.00  0.00    -0.248 C  
HETATM    2  C   UNL     1      -9.196   8.348  66.890  1.00  0.00    -0.196 C  
ENDROOT
BRANCH   2   3
HETATM    3  C   UNL     1      -9.954   7.045  67.109  1.00  0.00    -0.189 C  
BRANCH   3   4
HETATM    4  N   UNL     1      -9.015   5.993  67.592  1.00  0.00    -0.112 N  
HETATM    5  H   UNL     1      -8.074   5.856  67.222  1.00  0.00     0.000 HD 
BRANCH   4   6
HETATM    6  S   UNL     1      -9.687   5.062  68.814  1.00  0.00    -0.165 S  
HETATM    7  O   UNL     1     -10.931   5.723  69.144  1.00  0.00    -0.320 OA 
HETATM    8  O   UNL     1      -9.648   3.680  68.417  1.00  0.00    -0.163 OA 
BRANCH   6   9
HETATM    9  N   UNL     1      -8.640   5.350  70.089  1.00  0.00    -0.117 N  
HETATM   10  H   UNL     1      -8.615   4.747  70.912  1.00  0.00     0.000 HD 
BRANCH   9  11
HETATM   11  C   UNL     1      -7.793   6.476  69.961  1.00  0.00    -0.111 A  
HETATM   12  C   UNL     1      -8.126   7.763  70.403  1.00  0.00    -0.115 A  
HETATM   13  C   UNL     1      -7.036   8.634  70.261  1.00  0.00    -0.041 A  
HETATM   14  N   UNL     1      -6.647   6.114  69.353  1.00  0.00    -0.042 NA 
HETATM   15  N   UNL     1      -5.849   8.318  69.697  1.00  0.00    -0.026 NA 
HETATM   16  C   UNL     1      -5.724   7.068  69.254  1.00  0.00    -0.018 A  
BRANCH  12  17
HETATM   17  C   UNL     1      -9.470   8.210  70.921  1.00  0.00    -0.186 A  
HETATM   18  C   UNL     1     -10.328   9.071  70.217  1.00  0.00    -0.243 A  
HETATM   19  C   UNL     1     -11.614   9.411  70.659  1.00  0.00    -0.330 A  
HETATM   20  C   UNL     1     -11.269   8.077  72.613  1.00  0.00    -0.462 A  
HETATM   21  C   UNL     1      -9.972   7.770  72.166  1.00  0.00    -0.249 A  
HETATM   22 BR   UNL     1     -13.859   9.257  72.395  1.00  0.00    -0.417 Br 
HETATM   23  C   UNL     1     -12.092   8.884  71.845  1.00  0.00    -0.373 A  
ENDBRANCH  12  17
BRANCH  13  24
HETATM   24  O   UNL     1      -7.174   9.919  70.746  1.00  0.00    -0.305 OA 
BRANCH  24  25
HETATM   25  C   UNL     1      -6.716  10.991  69.921  1.00  0.00    -0.125 C  
BRANCH  25  26
HETATM   26  C   UNL     1      -7.758  11.184  68.819  1.00  0.00    -0.136 C  
BRANCH  26  27
HETATM   27  O   UNL     1      -7.939  12.572  68.554  1.00  0.00    -0.142 OA 
BRANCH  27  28
HETATM   28  C   UNL     1      -9.084  12.836  67.829  1.00  0.00    -0.197 A  
HETATM   29  N   UNL     1     -10.201  12.117  68.046  1.00  0.00    -0.195 NA 
HETATM   30  C   UNL     1     -11.274  12.445  67.292  1.00  0.00    -0.303 A  
HETATM   31  C   UNL     1     -11.263  13.447  66.350  1.00  0.00    -0.304 A  
HETATM   32  C   UNL     1     -10.068  14.112  66.209  1.00  0.00    -0.300 A  
HETATM   33 BR   UNL     1     -12.776  13.878  65.328  1.00  0.00    -0.422 Br 
HETATM   34  N   UNL     1      -8.964  13.827  66.933  1.00  0.00    -0.239 NA 
ENDBRANCH  27  28
ENDBRANCH  26  27
ENDBRANCH  25  26
ENDBRANCH  24  25
ENDBRANCH  13  24
ENDBRANCH   9  11
ENDBRANCH   6   9
ENDBRANCH   4   6
ENDBRANCH   3   4
ENDBRANCH   2   3
TORSDOF 11
ENDMDL
MODEL      128
REMARK 921   NORMALIZED FREE ENERGY PREDICTED BY IDOCK:   -4.69 KCAL/MOL
REMARK 922        TOTAL FREE ENERGY PREDICTED BY IDOCK:   -9.13 KCAL/MOL
REMARK 923 INTER-LIGAND FREE ENERGY PREDICTED BY IDOCK:   -7.72 KCAL/MOL
REMARK 924 INTRA-LIGAND FREE ENERGY PREDICTED BY IDOCK:   -1.41 KCAL/MOL
REMARK 927      BINDING AFFINITY PREDICTED BY RF-SCORE:    0.00 PKD
ROOT
HETATM    1  C   UNL     1      -9.161   3.381  63.402  1.00  0.00    -0.098 C  
HETATM    2  C   UNL     1      -9.277   4.827  62.947  1.00  0.00    -0.020 C  
ENDROOT
BRANCH   2   3
HETATM    3  C   UNL     1      -7.934   5.548  62.972  1.00  0.00    -0.099 C  
BRANCH   3   4
HETATM    4  N   UNL     1      -8.119   6.934  63.487  1.00  0.00    -0.301 N  
HETATM    5  H   UNL     1      -8.632   7.662  62.991  1.00  0.00     0.000 HD 
BRANCH   4   6
HETATM    6  S   UNL     1      -7.382   7.155  64.977  1.00  0.00    -0.089 S  
HETATM    7  O   UNL     1      -8.362   6.714  65.946  1.00  0.00    -0.125 OA 
HETATM    8  O   UNL     1      -6.060   6.590  64.928  1.00  0.00    -0.035 OA 
BRANCH   6   9
HETATM    9  N   UNL     1      -7.317   8.825  65.091  1.00  0.00    -0.087 N  
HETATM   10  H   UNL     1      -6.509   9.307  65.486  1.00  0.00     0.000 HD 
BRANCH   9  11
HETATM   11  C   UNL     1      -8.445   9.530  64.608  1.00  0.00    -0.166 A  
HETATM   12  C   UNL     1      -9.470  10.026  65.424  1.00  0.00    -0.310 A  
HETATM   13  C   UNL     1     -10.374  10.792  64.674  1.00  0.00    -0.324 A  
HETATM   14  N   UNL     1      -8.373   9.634  63.266  1.00  0.00    -0.158 NA 
HETATM   15  N   UNL     1     -10.331  10.966  63.334  1.00  0.00    -0.309 NA 
HETATM   16  C   UNL     1      -9.333  10.357  62.695  1.00  0.00    -0.310 A  
BRANCH  12  17
HETATM   17  C   UNL     1      -9.645   9.761  66.898  1.00  0.00    -0.228 A  
HETATM   18  C   UNL     1     -10.551   8.821  67.417  1.00  0.00    -0.304 A  
HETATM   19  C   UNL     1     -10.646   8.511  68.780  1.00  0.00    -0.162 A  
HETATM   20  C   UNL     1      -8.944  10.126  69.241  1.00  0.00    -0.193 A  
HETATM   21  C   UNL     1      -8.883  10.442  67.873  1.00  0.00    -0.125 A  
HETATM   22 BR   UNL     1      -9.869   8.661  71.509  1.00  0.00    -0.370 Br 
HETATM   23  C   UNL     1      -9.816   9.146  69.686  1.00  0.00    -0.180 A  
ENDBRANCH  12  17
BRANCH  13  24
HETATM   24  O   UNL     1     -11.389  11.433  65.354  1.00  0.00    -0.150 OA 
BRANCH  24  25
HETATM   25  C   UNL     1     -11.563  12.831  65.121  1.00  0.00    -0.338 C  
BRANCH  25  26
HETATM   26  C   UNL     1     -10.454  13.554  65.886  1.00  0.00    -0.292 C  
BRANCH  26  27
HETATM   27  O   UNL     1      -9.952  14.639  65.112  1.00  0.00    -0.358 OA 
BRANCH  27  28
HETATM   28  C   UNL     1     -10.039  15.851  65.767  1.00  0.00    -0.361 A  
HETATM   29  N   UNL     1     -10.403  16.958  65.094  1.00  0.00    -0.592 NA 
HETATM   30  C   UNL     1     -10.463  18.099  65.816  1.00  0.00    -0.207 A  
HETATM   31  C   UNL     1     -10.177  18.164  67.160  1.00  0.00    -0.367 A  
HETATM   32  C   UNL     1      -9.811  16.974  67.743  1.00  0.00    -0.271 A  
HETATM   33 BR   UNL     1     -10.279  19.767  68.130  1.00  0.00    -0.564 Br 
HETATM   34  N   UNL     1      -9.732  15.805  67.072  1.00  0.00    -0.225 NA 
ENDBRANCH  27  28
ENDBRANCH  26  27
ENDBRANCH  25  26
ENDBRANCH  24  25
ENDBRANCH  13  24
ENDBRANCH   9  11
ENDBRANCH   6   9
ENDBRANCH   4   6
ENDBRANCH   3   4
ENDBRANCH   2   3
TORSDOF 11
ENDMDL
MODEL      129
REMARK 921   NORMALIZED FREE ENERGY PREDICTED BY IDOCK:   -4.62 KCAL/MOL
REMARK 922        TOTAL FREE ENERGY PREDICTED BY IDOCK:   -9.01 KCAL/MOL
REMARK 923 INTER-LIGAND FREE ENERGY PREDICTED BY IDOCK:   -8.51 KCAL/MOL
REMARK 924 INTRA-LIGAND FREE ENERGY PREDICTED BY IDOCK:   -0.50 KCAL/MOL
REMARK 927      BINDING AFFINITY PREDICTED BY RF-SCORE:    0.00 PKD
ROOT
HETATM    1  C   UNL     1      -9.522   4.856  72.320  1.00  0.00    -0.173 C  
HETATM    2  C   UNL     1     -10.810   5.623  72.063  1.00  0.00    -0.300 C  
ENDROOT
BRANCH   2   3
HETATM    3  C   UNL     1     -10.721   6.496  70.817  1.00  0.00    -0.241 C  
BRANCH   3   4
HETATM    4  N   UNL     1     -12.008   7.221  70.620  1.00  0.00    -0.501 N  
HETATM    5  H   UNL     1     -12.770   6.880  70.035  1.00  0.00     0.000 HD 
BRANCH   4   6
HETATM    6  S   UNL     1     -12.056   8.663  71.475  1.00  0.00    -0.332 S  
HETATM    7  O   UNL     1     -13.034   8.444  72.520  1.00  0.00    -0.292 OA 
HETATM    8  O   UNL     1     -10.708   9.067  71.775  1.00  0.00    -0.338 OA 
BRANCH   6   9
HETATM    9  N   UNL     1     -12.763   9.702  70.369  1.00  0.00    -0.492 N  
HETATM   10  H   UNL     1     -13.766   9.890  70.372  1.00  0.00     0.000 HD 
BRANCH   9  11
HETATM   11  C   UNL     1     -11.892  10.305  69.431  1.00  0.00    -0.038 A  
HETATM   12  C   UNL     1     -11.564  11.667  69.424  1.00  0.00    -0.392 A  
HETATM   13  C   UNL     1     -10.578  11.936  68.464  1.00  0.00    -0.222 A  
HETATM   14  N   UNL     1     -11.447   9.374  68.564  1.00  0.00     0.344 NA 
HETATM   15  N   UNL     1     -10.065  11.036  67.594  1.00  0.00    -0.179 NA 
HETATM   16  C   UNL     1     -10.544   9.797  67.681  1.00  0.00    -0.276 A  
BRANCH  12  17
HETATM   17  C   UNL     1     -12.193  12.740  70.277  1.00  0.00    -0.351 A  
HETATM   18  C   UNL     1     -12.773  12.496  71.533  1.00  0.00    -0.325 A  
HETATM   19  C   UNL     1     -13.273  13.509  72.362  1.00  0.00    -0.577 A  
HETATM   20  C   UNL     1     -12.696  15.125  70.697  1.00  0.00    -0.451 A  
HETATM   21  C   UNL     1     -12.225  14.092  69.868  1.00  0.00    -0.416 A  
HETATM   22 BR   UNL     1     -13.783  16.203  73.106  1.00  0.00     0.029 Br 
HETATM   23  C   UNL     1     -13.203  14.827  71.952  1.00  0.00    -0.345 A  
ENDBRANCH  12  17
BRANCH  13  24
HETATM   24  O   UNL     1     -10.077  13.220  68.402  1.00  0.00    -0.238 OA 
BRANCH  24  25
HETATM   25  C   UNL     1      -8.819  13.410  67.753  1.00  0.00    -0.199 C  
BRANCH  25  26
HETATM   26  C   UNL     1      -7.829  13.873  68.822  1.00  0.00    -0.079 C  
BRANCH  26  27
HETATM   27  O   UNL     1      -7.062  14.970  68.335  1.00  0.00    -0.100 OA 
BRANCH  27  28
HETATM   28  C   UNL     1      -7.838  16.061  68.001  1.00  0.00    -0.137 A  
HETATM   29  N   UNL     1      -8.888  16.404  68.771  1.00  0.00    -0.236 NA 
HETATM   30  C   UNL     1      -9.589  17.488  68.368  1.00  0.00    -0.303 A  
HETATM   31  C   UNL     1      -9.280  18.220  67.246  1.00  0.00    -0.256 A  
HETATM   32  C   UNL     1      -8.192  17.776  66.533  1.00  0.00    -0.269 A  
HETATM   33 BR   UNL     1     -10.275  19.723  66.724  1.00  0.00    -0.624 Br 
HETATM   34  N   UNL     1      -7.454  16.701  66.886  1.00  0.00    -0.203 NA 
ENDBRANCH  27  28
ENDBRANCH  26  27
ENDBRANCH  25  26
ENDBRANCH  24  25
ENDBRANCH  13  24
ENDBRANCH   9  11
ENDBRANCH   6   9
ENDBRANCH   4   6
ENDBRANCH   3   4
ENDBRANCH   2   3
TORSDOF 11
ENDMDL
MODEL      130
REMARK 921   NORMALIZED FREE ENERGY PREDICTED BY IDOCK:   -4.62 KCAL/MOL
REMARK 922        TOTAL FREE ENERGY PREDICTED BY IDOCK:   -9.01 KCAL/MOL
REMARK 923 INTER-LIGAND FREE ENERGY PREDICTED BY IDOCK:   -7.71 KCAL/MOL
REMARK 924 INTRA-LIGAND FREE ENERGY PREDICTED BY IDOCK:   -1.30 KCAL/MOL
REMARK 927      BINDING AFFINITY PREDICTED BY RF-SCORE:    0.00 PKD
ROOT
HETATM    1  C   UNL     1      -8.573   2.114  66.957  1.00  0.00    -0.118 C  
HETATM    2  C   UNL     1      -7.937   2.938  65.850  1.00  0.00    -0.082 C  
ENDROOT
BRANCH   2   3
HETATM    3  C   UNL     1      -6.800   3.813  66.366  1.00  0.00    -0.057 C  
BRANCH   3   4
HETATM    4  N   UNL     1      -7.010   5.220  65.923  1.00  0.00    -0.065 N  
HETATM    5  H   UNL     1      -6.531   5.646  65.130  1.00  0.00     0.000 HD 
BRANCH   4   6
HETATM    6  S   UNL     1      -8.127   6.022  66.883  1.00  0.00    -0.105 S  
HETATM    7  O   UNL     1      -9.381   5.907  66.170  1.00  0.00    -0.160 OA 
HETATM    8  O   UNL     1      -7.984   5.564  68.239  1.00  0.00    -0.094 OA 
BRANCH   6   9
HETATM    9  N   UNL     1      -7.637   7.617  66.733  1.00  0.00    -0.096 N  
HETATM   10  H   UNL     1      -6.668   7.899  66.888  1.00  0.00     0.000 HD 
BRANCH   9  11
HETATM   11  C   UNL     1      -8.640   8.549  66.380  1.00  0.00    -0.125 A  
HETATM   12  C   UNL     1      -9.588   9.061  67.275  1.00  0.00    -0.206 A  
HETATM   13  C   UNL     1     -10.359  10.061  66.664  1.00  0.00    -0.213 A  
HETATM   14  N   UNL     1      -8.538   8.849  65.070  1.00  0.00    -0.176 NA 
HETATM   15  N   UNL     1     -10.274  10.433  65.368  1.00  0.00    -0.285 NA 
HETATM   16  C   UNL     1      -9.372   9.789  64.630  1.00  0.00    -0.256 A  
BRANCH  12  17
HETATM   17  C   UNL     1      -9.819   8.598  68.692  1.00  0.00    -0.180 A  
HETATM   18  C   UNL     1      -9.171   9.155  69.807  1.00  0.00    -0.179 A  
HETATM   19  C   UNL     1      -9.456   8.786  71.129  1.00  0.00    -0.306 A  
HETATM   20  C   UNL     1     -11.053   7.202  70.318  1.00  0.00    -0.303 A  
HETATM   21  C   UNL     1     -10.733   7.566  68.998  1.00  0.00    -0.148 A  
HETATM   22 BR   UNL     1     -10.880   7.401  73.160  1.00  0.00    -0.406 Br 
HETATM   23  C   UNL     1     -10.422   7.829  71.380  1.00  0.00    -0.208 A  
ENDBRANCH  12  17
BRANCH  13  24
HETATM   24  O   UNL     1     -11.274  10.733  67.449  1.00  0.00    -0.321 OA 
BRANCH  24  25
HETATM   25  C   UNL     1     -11.503  12.114  67.163  1.00  0.00    -0.346 C  
BRANCH  25  26
HETATM   26  C   UNL     1     -11.090  12.902  68.406  1.00  0.00    -0.262 C  
BRANCH  26  27
HETATM   27  O   UNL     1     -11.889  14.075  68.530  1.00  0.00    -0.332 OA 
BRANCH  27  28
HETATM   28  C   UNL     1     -12.088  14.453  69.843  1.00  0.00    -0.344 A  
HETATM   29  N   UNL     1     -13.000  13.813  70.598  1.00  0.00    -0.176 NA 
HETATM   30  C   UNL     1     -13.126  14.249  71.871  1.00  0.00    -0.365 A  
HETATM   31  C   UNL     1     -12.385  15.280  72.399  1.00  0.00    -0.373 A  
HETATM   32  C   UNL     1     -11.488  15.864  71.536  1.00  0.00    -0.410 A  
HETATM   33 BR   UNL     1     -12.585  15.852  74.176  1.00  0.00    -0.715 Br 
HETATM   34  N   UNL     1     -11.320  15.473  70.255  1.00  0.00    -0.300 NA 
ENDBRANCH  27  28
ENDBRANCH  26  27
ENDBRANCH  25  26
ENDBRANCH  24  25
ENDBRANCH  13  24
ENDBRANCH   9  11
ENDBRANCH   6   9
ENDBRANCH   4   6
ENDBRANCH   3   4
ENDBRANCH   2   3
TORSDOF 11
ENDMDL
MODEL      131
REMARK 921   NORMALIZED FREE ENERGY PREDICTED BY IDOCK:   -4.62 KCAL/MOL
REMARK 922        TOTAL FREE ENERGY PREDICTED BY IDOCK:   -9.01 KCAL/MOL
REMARK 923 INTER-LIGAND FREE ENERGY PREDICTED BY IDOCK:   -7.61 KCAL/MOL
REMARK 924 INTRA-LIGAND FREE ENERGY PREDICTED BY IDOCK:   -1.39 KCAL/MOL
REMARK 927      BINDING AFFINITY PREDICTED BY RF-SCORE:    0.00 PKD
ROOT
HETATM    1  C   UNL     1     -13.210   9.441  71.665  1.00  0.00    -0.470 C  
HETATM    2  C   UNL     1     -11.767   9.747  71.299  1.00  0.00    -0.472 C  
ENDROOT
BRANCH   2   3
HETATM    3  C   UNL     1     -10.822   8.617  71.691  1.00  0.00    -0.304 C  
BRANCH   3   4
HETATM    4  N   UNL     1      -9.810   8.414  70.616  1.00  0.00    -0.178 N  
HETATM    5  H   UNL     1      -9.010   9.028  70.463  1.00  0.00     0.000 HD 
BRANCH   4   6
HETATM    6  S   UNL     1     -10.142   7.058  69.687  1.00  0.00    -0.190 S  
HETATM    7  O   UNL     1      -9.304   6.015  70.239  1.00  0.00    -0.156 OA 
HETATM    8  O   UNL     1     -11.568   6.906  69.583  1.00  0.00    -0.201 OA 
BRANCH   6   9
HETATM    9  N   UNL     1      -9.473   7.475  68.208  1.00  0.00    -0.144 N  
HETATM   10  H   UNL     1      -9.865   7.142  67.327  1.00  0.00     0.000 HD 
BRANCH   9  11
HETATM   11  C   UNL     1      -8.336   8.315  68.251  1.00  0.00    -0.132 A  
HETATM   12  C   UNL     1      -8.271   9.582  67.656  1.00  0.00    -0.121 A  
HETATM   13  C   UNL     1      -7.069  10.224  67.983  1.00  0.00    -0.083 A  
HETATM   14  N   UNL     1      -7.348   7.706  68.935  1.00  0.00    -0.088 NA 
HETATM   15  N   UNL     1      -6.059   9.679  68.699  1.00  0.00    -0.043 NA 
HETATM   16  C   UNL     1      -6.249   8.432  69.125  1.00  0.00    -0.043 A  
BRANCH  12  17
HETATM   17  C   UNL     1      -9.305  10.193  66.742  1.00  0.00    -0.190 A  
HETATM   18  C   UNL     1     -10.279  11.109  67.173  1.00  0.00    -0.235 A  
HETATM   19  C   UNL     1     -11.178  11.744  66.305  1.00  0.00    -0.370 A  
HETATM   20  C   UNL     1     -10.226  10.538  64.474  1.00  0.00    -0.355 A  
HETATM   21  C   UNL     1      -9.351   9.891  65.363  1.00  0.00    -0.297 A  
HETATM   22 BR   UNL     1     -12.266  12.404  63.765  1.00  0.00    -0.654 Br 
HETATM   23  C   UNL     1     -11.126  11.478  64.950  1.00  0.00    -0.215 A  
ENDBRANCH  12  17
BRANCH  13  24
HETATM   24  O   UNL     1      -6.898  11.524  67.552  1.00  0.00    -0.083 OA 
BRANCH  24  25
HETATM   25  C   UNL     1      -7.065  12.567  68.512  1.00  0.00    -0.107 C  
BRANCH  25  26
HETATM   26  C   UNL     1      -7.774  13.720  67.801  1.00  0.00    -0.168 C  
BRANCH  26  27
HETATM   27  O   UNL     1      -8.204  14.691  68.751  1.00  0.00    -0.150 OA 
BRANCH  27  28
HETATM   28  C   UNL     1      -8.693  15.839  68.161  1.00  0.00    -0.173 A  
HETATM   29  N   UNL     1      -8.348  16.149  66.897  1.00  0.00    -0.210 NA 
HETATM   30  C   UNL     1      -8.876  17.290  66.401  1.00  0.00    -0.246 A  
HETATM   31  C   UNL     1      -9.717  18.112  67.114  1.00  0.00    -0.301 A  
HETATM   32  C   UNL     1      -9.996  17.701  68.396  1.00  0.00    -0.356 A  
HETATM   33 BR   UNL     1     -10.435  19.686  66.387  1.00  0.00    -0.624 Br 
HETATM   34  N   UNL     1      -9.498  16.572  68.945  1.00  0.00    -0.254 NA 
ENDBRANCH  27  28
ENDBRANCH  26  27
ENDBRANCH  25  26
ENDBRANCH  24  25
ENDBRANCH  13  24
ENDBRANCH   9  11
ENDBRANCH   6   9
ENDBRANCH   4   6
ENDBRANCH   3   4
ENDBRANCH   2   3
TORSDOF 11
ENDMDL
MODEL      132
REMARK 921   NORMALIZED FREE ENERGY PREDICTED BY IDOCK:   -4.60 KCAL/MOL
REMARK 922        TOTAL FREE ENERGY PREDICTED BY IDOCK:   -8.98 KCAL/MOL
REMARK 923 INTER-LIGAND FREE ENERGY PREDICTED BY IDOCK:   -6.75 KCAL/MOL
REMARK 924 INTRA-LIGAND FREE ENERGY PREDICTED BY IDOCK:   -2.23 KCAL/MOL
REMARK 927      BINDING AFFINITY PREDICTED BY RF-SCORE:    0.00 PKD
ROOT
HETATM    1  C   UNL     1      -8.403   9.692  62.662  1.00  0.00    -0.163 C  
HETATM    2  C   UNL     1      -9.268  10.942  62.721  1.00  0.00    -0.360 C  
ENDROOT
BRANCH   2   3
HETATM    3  C   UNL     1     -10.047  11.041  64.027  1.00  0.00    -0.350 C  
BRANCH   3   4
HETATM    4  N   UNL     1      -9.132  11.463  65.126  1.00  0.00    -0.393 N  
HETATM    5  H   UNL     1      -8.545  12.296  65.090  1.00  0.00     0.000 HD 
BRANCH   4   6
HETATM    6  S   UNL     1      -9.182  10.406  66.427  1.00  0.00    -0.166 S  
HETATM    7  O   UNL     1     -10.532   9.885  66.431  1.00  0.00    -0.205 OA 
HETATM    8  O   UNL     1      -8.037   9.537  66.362  1.00  0.00    -0.110 OA 
BRANCH   6   9
HETATM    9  N   UNL     1      -9.070  11.451  67.731  1.00  0.00    -0.154 N  
HETATM   10  H   UNL     1      -8.283  12.092  67.841  1.00  0.00     0.000 HD 
BRANCH   9  11
HETATM   11  C   UNL     1     -10.126  11.395  68.671  1.00  0.00    -0.210 A  
HETATM   12  C   UNL     1     -10.267  10.389  69.636  1.00  0.00    -0.245 A  
HETATM   13  C   UNL     1     -11.330  10.679  70.503  1.00  0.00    -0.267 A  
HETATM   14  N   UNL     1     -10.955  12.440  68.482  1.00  0.00    -0.232 NA 
HETATM   15  N   UNL     1     -12.170  11.732  70.389  1.00  0.00    -0.348 NA 
HETATM   16  C   UNL     1     -11.945  12.554  69.365  1.00  0.00    -0.256 A  
BRANCH  12  17
HETATM   17  C   UNL     1      -9.446   9.128  69.737  1.00  0.00    -0.191 A  
HETATM   18  C   UNL     1      -9.897   7.869  69.304  1.00  0.00    -0.177 A  
HETATM   19  C   UNL     1      -9.099   6.718  69.315  1.00  0.00    -0.139 A  
HETATM   20  C   UNL     1      -7.312   7.994  70.262  1.00  0.00    -0.060 A  
HETATM   21  C   UNL     1      -8.138   9.132  70.269  1.00  0.00    -0.156 A  
HETATM   22 BR   UNL     1      -6.683   5.269  69.691  1.00  0.00    -0.053 Br 
HETATM   23  C   UNL     1      -7.794   6.793  69.767  1.00  0.00    -0.115 A  
ENDBRANCH  12  17
BRANCH  13  24
HETATM   24  O   UNL     1     -11.535   9.830  71.572  1.00  0.00    -0.378 OA 
BRANCH  24  25
HETATM   25  C   UNL     1     -12.690   8.992  71.540  1.00  0.00    -0.339 C  
BRANCH  25  26
HETATM   26  C   UNL     1     -12.248   7.602  72.000  1.00  0.00    -0.293 C  
BRANCH  26  27
HETATM   27  O   UNL     1     -11.123   7.710  72.868  1.00  0.00    -0.352 OA 
BRANCH  27  28
HETATM   28  C   UNL     1     -10.315   6.591  72.840  1.00  0.00    -0.210 A  
HETATM   29  N   UNL     1      -9.092   6.627  73.401  1.00  0.00    -0.124 NA 
HETATM   30  C   UNL     1      -8.372   5.486  73.327  1.00  0.00    -0.117 A  
HETATM   31  C   UNL     1      -8.826   4.337  72.722  1.00  0.00    -0.104 A  
HETATM   32  C   UNL     1     -10.086   4.416  72.178  1.00  0.00    -0.195 A  
HETATM   33 BR   UNL     1      -7.798   2.769  72.646  1.00  0.00    -0.055 Br 
HETATM   34  N   UNL     1     -10.851   5.528  72.221  1.00  0.00    -0.234 NA 
ENDBRANCH  27  28
ENDBRANCH  26  27
ENDBRANCH  25  26
ENDBRANCH  24  25
ENDBRANCH  13  24
ENDBRANCH   9  11
ENDBRANCH   6   9
ENDBRANCH   4   6
ENDBRANCH   3   4
ENDBRANCH   2   3
TORSDOF 11
ENDMDL
MODEL      133
REMARK 921   NORMALIZED FREE ENERGY PREDICTED BY IDOCK:   -4.59 KCAL/MOL
REMARK 922        TOTAL FREE ENERGY PREDICTED BY IDOCK:   -8.96 KCAL/MOL
REMARK 923 INTER-LIGAND FREE ENERGY PREDICTED BY IDOCK:   -8.44 KCAL/MOL
REMARK 924 INTRA-LIGAND FREE ENERGY PREDICTED BY IDOCK:   -0.52 KCAL/MOL
REMARK 927      BINDING AFFINITY PREDICTED BY RF-SCORE:    0.00 PKD
ROOT
HETATM    1  C   UNL     1      -8.800  20.220  67.350  1.00  0.00    -0.442 C  
HETATM    2  C   UNL     1      -9.557  20.124  66.035  1.00  0.00    -0.380 C  
ENDROOT
BRANCH   2   3
HETATM    3  C   UNL     1     -10.766  19.202  66.134  1.00  0.00    -0.354 C  
BRANCH   3   4
HETATM    4  N   UNL     1     -10.352  17.892  66.712  1.00  0.00    -0.357 N  
HETATM    5  H   UNL     1      -9.986  17.777  67.657  1.00  0.00     0.000 HD 
BRANCH   4   6
HETATM    6  S   UNL     1     -10.560  16.632  65.626  1.00  0.00    -0.183 S  
HETATM    7  O   UNL     1     -11.383  17.182  64.570  1.00  0.00    -1.034 OA 
HETATM    8  O   UNL     1      -9.277  16.040  65.353  1.00  0.00    -0.292 OA 
BRANCH   6   9
HETATM    9  N   UNL     1     -11.534  15.580  66.492  1.00  0.00    -0.025 N  
HETATM   10  H   UNL     1     -12.203  15.915  67.186  1.00  0.00     0.000 HD 
BRANCH   9  11
HETATM   11  C   UNL     1     -11.378  14.203  66.207  1.00  0.00    -0.338 A  
HETATM   12  C   UNL     1     -10.411  13.382  66.801  1.00  0.00    -0.263 A  
HETATM   13  C   UNL     1     -10.592  12.045  66.420  1.00  0.00    -0.243 A  
HETATM   14  N   UNL     1     -12.287  13.826  65.287  1.00  0.00    -0.436 NA 
HETATM   15  N   UNL     1     -11.511  11.601  65.534  1.00  0.00    -0.179 NA 
HETATM   16  C   UNL     1     -12.305  12.526  64.997  1.00  0.00    -0.453 A  
BRANCH  12  17
HETATM   17  C   UNL     1      -9.282  13.835  67.694  1.00  0.00    -0.207 A  
HETATM   18  C   UNL     1      -7.951  13.415  67.538  1.00  0.00    -0.186 A  
HETATM   19  C   UNL     1      -6.890  13.908  68.310  1.00  0.00    -0.108 A  
HETATM   20  C   UNL     1      -8.438  15.268  69.523  1.00  0.00    -0.188 A  
HETATM   21  C   UNL     1      -9.491  14.742  68.757  1.00  0.00    -0.206 A  
HETATM   22 BR   UNL     1      -5.700  15.600  70.257  1.00  0.00    -0.122 Br 
HETATM   23  C   UNL     1      -7.136  14.859  69.283  1.00  0.00    -0.160 A  
ENDBRANCH  12  17
BRANCH  13  24
HETATM   24  O   UNL     1      -9.776  11.096  67.002  1.00  0.00    -0.182 OA 
BRANCH  24  25
HETATM   25  C   UNL     1     -10.370   9.854  67.380  1.00  0.00    -0.246 C  
BRANCH  25  26
HETATM   26  C   UNL     1      -9.809   9.490  68.755  1.00  0.00    -0.169 C  
BRANCH  26  27
HETATM   27  O   UNL     1      -9.321   8.151  68.745  1.00  0.00    -0.144 OA 
BRANCH  27  28
HETATM   28  C   UNL     1      -9.795   7.401  69.802  1.00  0.00    -0.171 A  
HETATM   29  N   UNL     1     -10.054   7.987  70.986  1.00  0.00    -0.185 NA 
HETATM   30  C   UNL     1     -10.516   7.175  71.962  1.00  0.00    -0.207 A  
HETATM   31  C   UNL     1     -10.723   5.826  71.795  1.00  0.00    -0.249 A  
HETATM   32  C   UNL     1     -10.421   5.333  70.547  1.00  0.00    -0.242 A  
HETATM   33 BR   UNL     1     -11.374   4.733  73.174  1.00  0.00    -0.333 Br 
HETATM   34  N   UNL     1      -9.955   6.095  69.535  1.00  0.00    -0.160 NA 
ENDBRANCH  27  28
ENDBRANCH  26  27
ENDBRANCH  25  26
ENDBRANCH  24  25
ENDBRANCH  13  24
ENDBRANCH   9  11
ENDBRANCH   6   9
ENDBRANCH   4   6
ENDBRANCH   3   4
ENDBRANCH   2   3
TORSDOF 11
ENDMDL
MODEL      134
REMARK 921   NORMALIZED FREE ENERGY PREDICTED BY IDOCK:   -4.58 KCAL/MOL
REMARK 922        TOTAL FREE ENERGY PREDICTED BY IDOCK:   -8.94 KCAL/MOL
REMARK 923 INTER-LIGAND FREE ENERGY PREDICTED BY IDOCK:   -7.54 KCAL/MOL
REMARK 924 INTRA-LIGAND FREE ENERGY PREDICTED BY IDOCK:   -1.39 KCAL/MOL
REMARK 927      BINDING AFFINITY PREDICTED BY RF-SCORE:    0.00 PKD
ROOT
HETATM    1  C   UNL     1      -7.687   4.462  66.166  1.00  0.00    -0.094 C  
HETATM    2  C   UNL     1      -7.135   5.522  65.226  1.00  0.00    -0.066 C  
ENDROOT
BRANCH   2   3
HETATM    3  C   UNL     1      -8.111   6.675  65.022  1.00  0.00    -0.124 C  
BRANCH   3   4
HETATM    4  N   UNL     1      -9.362   6.414  65.790  1.00  0.00    -0.377 N  
HETATM    5  H   UNL     1      -9.924   5.568  65.694  1.00  0.00     0.000 HD 
BRANCH   4   6
HETATM    6  S   UNL     1      -9.737   7.676  66.830  1.00  0.00    -0.224 S  
HETATM    7  O   UNL     1     -10.152   8.759  65.965  1.00  0.00    -0.228 OA 
HETATM    8  O   UNL     1     -10.588   7.176  67.876  1.00  0.00    -0.202 OA 
BRANCH   6   9
HETATM    9  N   UNL     1      -8.230   8.094  67.429  1.00  0.00    -0.121 N  
HETATM   10  H   UNL     1      -7.595   7.398  67.823  1.00  0.00     0.000 HD 
BRANCH   9  11
HETATM   11  C   UNL     1      -7.887   9.465  67.360  1.00  0.00    -0.102 A  
HETATM   12  C   UNL     1      -8.407  10.449  68.210  1.00  0.00    -0.119 A  
HETATM   13  C   UNL     1      -7.779  11.682  67.986  1.00  0.00    -0.121 A  
HETATM   14  N   UNL     1      -7.005   9.661  66.361  1.00  0.00    -0.087 NA 
HETATM   15  N   UNL     1      -6.859  11.930  67.027  1.00  0.00    -0.143 NA 
HETATM   16  C   UNL     1      -6.531  10.900  66.248  1.00  0.00    -0.129 A  
BRANCH  12  17
HETATM   17  C   UNL     1      -9.523  10.267  69.209  1.00  0.00    -0.230 A  
HETATM   18  C   UNL     1     -10.809  10.809  69.046  1.00  0.00    -0.278 A  
HETATM   19  C   UNL     1     -11.868  10.561  69.930  1.00  0.00    -0.358 A  
HETATM   20  C   UNL     1     -10.405   9.229  71.273  1.00  0.00    -0.397 A  
HETATM   21  C   UNL     1      -9.349   9.512  70.390  1.00  0.00    -0.311 A  
HETATM   22 BR   UNL     1     -13.115   9.326  72.165  1.00  0.00    -0.538 Br 
HETATM   23  C   UNL     1     -11.668   9.744  71.027  1.00  0.00    -0.370 A  
ENDBRANCH  12  17
BRANCH  13  24
HETATM   24  O   UNL     1      -8.113  12.733  68.816  1.00  0.00    -0.050 OA 
BRANCH  24  25
HETATM   25  C   UNL     1      -7.391  13.955  68.661  1.00  0.00    -0.117 C  
BRANCH  25  26
HETATM   26  C   UNL     1      -8.116  14.771  67.591  1.00  0.00    -0.170 C  
BRANCH  26  27
HETATM   27  O   UNL     1      -9.523  14.721  67.808  1.00  0.00    -0.200 OA 
BRANCH  27  28
HETATM   28  C   UNL     1     -10.205  14.123  66.766  1.00  0.00    -0.262 A  
HETATM   29  N   UNL     1      -9.702  14.165  65.518  1.00  0.00    -0.199 NA 
HETATM   30  C   UNL     1     -10.436  13.552  64.563  1.00  0.00    -0.407 A  
HETATM   31  C   UNL     1     -11.629  12.914  64.812  1.00  0.00    -0.331 A  
HETATM   32  C   UNL     1     -12.049  12.939  66.121  1.00  0.00    -0.393 A  
HETATM   33 BR   UNL     1     -12.616  12.068  63.458  1.00  0.00    -0.485 Br 
HETATM   34  N   UNL     1     -11.359  13.536  67.117  1.00  0.00    -0.309 NA 
ENDBRANCH  27  28
ENDBRANCH  26  27
ENDBRANCH  25  26
ENDBRANCH  24  25
ENDBRANCH  13  24
ENDBRANCH   9  11
ENDBRANCH   6   9
ENDBRANCH   4   6
ENDBRANCH   3   4
ENDBRANCH   2   3
TORSDOF 11
ENDMDL
MODEL      135
REMARK 921   NORMALIZED FREE ENERGY PREDICTED BY IDOCK:   -4.57 KCAL/MOL
REMARK 922        TOTAL FREE ENERGY PREDICTED BY IDOCK:   -8.93 KCAL/MOL
REMARK 923 INTER-LIGAND FREE ENERGY PREDICTED BY IDOCK:   -7.52 KCAL/MOL
REMARK 924 INTRA-LIGAND FREE ENERGY PREDICTED BY IDOCK:   -1.40 KCAL/MOL
REMARK 927      BINDING AFFINITY PREDICTED BY RF-SCORE:    0.00 PKD
ROOT
HETATM    1  C   UNL     1      -5.872  20.190  69.435  1.00  0.00    -0.343 C  
HETATM    2  C   UNL     1      -5.644  18.844  68.766  1.00  0.00    -0.204 C  
ENDROOT
BRANCH   2   3
HETATM    3  C   UNL     1      -6.346  17.709  69.502  1.00  0.00    -0.223 C  
BRANCH   3   4
HETATM    4  N   UNL     1      -5.375  16.610  69.769  1.00  0.00    -0.153 N  
HETATM    5  H   UNL     1      -4.379  16.756  69.931  1.00  0.00     0.000 HD 
BRANCH   4   6
HETATM    6  S   UNL     1      -6.115  15.105  69.774  1.00  0.00    -0.149 S  
HETATM    7  O   UNL     1      -5.209  14.247  70.508  1.00  0.00    -0.098 OA 
HETATM    8  O   UNL     1      -7.489  15.266  70.169  1.00  0.00    -0.036 OA 
BRANCH   6   9
HETATM    9  N   UNL     1      -6.001  14.654  68.165  1.00  0.00    -0.128 N  
HETATM   10  H   UNL     1      -5.230  14.962  67.573  1.00  0.00     0.000 HD 
BRANCH   9  11
HETATM   11  C   UNL     1      -7.035  13.822  67.673  1.00  0.00    -0.174 A  
HETATM   12  C   UNL     1      -8.221  14.298  67.101  1.00  0.00    -0.184 A  
HETATM   13  C   UNL     1      -8.985  13.240  66.588  1.00  0.00    -0.126 A  
HETATM   14  N   UNL     1      -6.699  12.530  67.850  1.00  0.00    -0.089 NA 
HETATM   15  N   UNL     1      -8.680  11.928  66.699  1.00  0.00    -0.195 NA 
HETATM   16  C   UNL     1      -7.551  11.640  67.345  1.00  0.00    -0.139 A  
BRANCH  12  17
HETATM   17  C   UNL     1      -8.680  15.735  67.061  1.00  0.00    -0.251 A  
HETATM   18  C   UNL     1      -9.719  16.242  67.860  1.00  0.00    -0.233 A  
HETATM   19  C   UNL     1     -10.081  17.595  67.888  1.00  0.00    -0.345 A  
HETATM   20  C   UNL     1      -8.402  18.053  66.247  1.00  0.00    -0.229 A  
HETATM   21  C   UNL     1      -8.073  16.687  66.213  1.00  0.00    -0.361 A  
HETATM   22 BR   UNL     1      -9.812  20.341  67.209  1.00  0.00    -0.591 Br 
HETATM   23  C   UNL     1      -9.397  18.504  67.101  1.00  0.00    -0.277 A  
ENDBRANCH  12  17
BRANCH  13  24
HETATM   24  O   UNL     1     -10.140  13.556  65.902  1.00  0.00    -0.293 OA 
BRANCH  24  25
HETATM   25  C   UNL     1     -11.375  13.481  66.615  1.00  0.00    -0.322 C  
BRANCH  25  26
HETATM   26  C   UNL     1     -11.700  11.997  66.791  1.00  0.00    -0.264 C  
BRANCH  26  27
HETATM   27  O   UNL     1     -12.173  11.754  68.114  1.00  0.00    -0.507 OA 
BRANCH  27  28
HETATM   28  C   UNL     1     -11.520  10.707  68.732  1.00  0.00    -0.262 A  
HETATM   29  N   UNL     1     -11.312  10.731  70.062  1.00  0.00    -0.303 NA 
HETATM   30  C   UNL     1     -10.667   9.663  70.581  1.00  0.00    -0.322 A  
HETATM   31  C   UNL     1     -10.233   8.597  69.828  1.00  0.00    -0.206 A  
HETATM   32  C   UNL     1     -10.494   8.681  68.481  1.00  0.00    -0.172 A  
HETATM   33 BR   UNL     1      -9.346   7.128  70.588  1.00  0.00    -0.157 Br 
HETATM   34  N   UNL     1     -11.133   9.722  67.906  1.00  0.00    -0.186 NA 
ENDBRANCH  27  28
ENDBRANCH  26  27
ENDBRANCH  25  26
ENDBRANCH  24  25
ENDBRANCH  13  24
ENDBRANCH   9  11
ENDBRANCH   6   9
ENDBRANCH   4   6
ENDBRANCH   3   4
ENDBRANCH   2   3
TORSDOF 11
ENDMDL
MODEL      136
REMARK 921   NORMALIZED FREE ENERGY PREDICTED BY IDOCK:   -4.57 KCAL/MOL
REMARK 922        TOTAL FREE ENERGY PREDICTED BY IDOCK:   -8.92 KCAL/MOL
REMARK 923 INTER-LIGAND FREE ENERGY PREDICTED BY IDOCK:   -7.97 KCAL/MOL
REMARK 924 INTRA-LIGAND FREE ENERGY PREDICTED BY IDOCK:   -0.95 KCAL/MOL
REMARK 927      BINDING AFFINITY PREDICTED BY RF-SCORE:    0.00 PKD
ROOT
HETATM    1  C   UNL     1     -13.838   9.180  72.369  1.00  0.00    -0.524 C  
HETATM    2  C   UNL     1     -14.177   7.893  71.636  1.00  0.00    -0.564 C  
ENDROOT
BRANCH   2   3
HETATM    3  C   UNL     1     -12.946   7.028  71.391  1.00  0.00    -0.340 C  
BRANCH   3   4
HETATM    4  N   UNL     1     -11.974   7.214  72.505  1.00  0.00    -0.500 N  
HETATM    5  H   UNL     1     -11.780   8.112  72.949  1.00  0.00     0.000 HD 
BRANCH   4   6
HETATM    6  S   UNL     1     -11.234   5.774  72.942  1.00  0.00    -0.249 S  
HETATM    7  O   UNL     1     -10.543   6.070  74.179  1.00  0.00    -0.260 OA 
HETATM    8  O   UNL     1     -12.201   4.712  72.854  1.00  0.00     0.071 OA 
BRANCH   6   9
HETATM    9  N   UNL     1     -10.056   5.613  71.763  1.00  0.00    -0.186 N  
HETATM   10  H   UNL     1      -9.827   4.708  71.350  1.00  0.00     0.000 HD 
BRANCH   9  11
HETATM   11  C   UNL     1      -9.397   6.802  71.371  1.00  0.00    -0.157 A  
HETATM   12  C   UNL     1      -9.157   7.165  70.039  1.00  0.00    -0.145 A  
HETATM   13  C   UNL     1      -8.610   8.454  69.967  1.00  0.00    -0.131 A  
HETATM   14  N   UNL     1      -9.042   7.505  72.465  1.00  0.00    -0.139 NA 
HETATM   15  N   UNL     1      -8.271   9.222  71.027  1.00  0.00    -0.304 NA 
HETATM   16  C   UNL     1      -8.492   8.694  72.230  1.00  0.00    -0.078 A  
BRANCH  12  17
HETATM   17  C   UNL     1      -9.391   6.305  68.823  1.00  0.00    -0.124 A  
HETATM   18  C   UNL     1     -10.591   6.302  68.091  1.00  0.00    -0.318 A  
HETATM   19  C   UNL     1     -10.772   5.571  66.910  1.00  0.00    -0.310 A  
HETATM   20  C   UNL     1      -8.547   4.721  67.121  1.00  0.00    -0.104 A  
HETATM   21  C   UNL     1      -8.394   5.440  68.319  1.00  0.00    -0.098 A  
HETATM   22 BR   UNL     1      -9.939   3.899  64.769  1.00  0.00    -0.194 Br 
HETATM   23  C   UNL     1      -9.734   4.805  66.411  1.00  0.00    -0.195 A  
ENDBRANCH  12  17
BRANCH  13  24
HETATM   24  O   UNL     1      -8.407   8.996  68.714  1.00  0.00    -0.119 OA 
BRANCH  24  25
HETATM   25  C   UNL     1      -9.496   9.697  68.112  1.00  0.00    -0.132 C  
BRANCH  25  26
HETATM   26  C   UNL     1      -9.183  11.189  68.222  1.00  0.00    -0.169 C  
BRANCH  26  27
HETATM   27  O   UNL     1     -10.298  11.957  67.779  1.00  0.00    -0.192 OA 
BRANCH  27  28
HETATM   28  C   UNL     1     -11.043  12.472  68.821  1.00  0.00    -0.270 A  
HETATM   29  N   UNL     1     -11.142  13.804  68.988  1.00  0.00    -0.256 NA 
HETATM   30  C   UNL     1     -11.893  14.217  70.033  1.00  0.00    -0.323 A  
HETATM   31  C   UNL     1     -12.532  13.359  70.897  1.00  0.00    -0.359 A  
HETATM   32  C   UNL     1     -12.357  12.020  70.635  1.00  0.00    -0.304 A  
HETATM   33 BR   UNL     1     -13.572  13.972  72.333  1.00  0.00    -0.693 Br 
HETATM   34  N   UNL     1     -11.618  11.549  69.607  1.00  0.00    -0.309 NA 
ENDBRANCH  27  28
ENDBRANCH  26  27
ENDBRANCH  25  26
ENDBRANCH  24  25
ENDBRANCH  13  24
ENDBRANCH   9  11
ENDBRANCH   6   9
ENDBRANCH   4   6
ENDBRANCH   3   4
ENDBRANCH   2   3
TORSDOF 11
ENDMDL
MODEL      137
REMARK 921   NORMALIZED FREE ENERGY PREDICTED BY IDOCK:   -4.57 KCAL/MOL
REMARK 922        TOTAL FREE ENERGY PREDICTED BY IDOCK:   -8.92 KCAL/MOL
REMARK 923 INTER-LIGAND FREE ENERGY PREDICTED BY IDOCK:   -7.36 KCAL/MOL
REMARK 924 INTRA-LIGAND FREE ENERGY PREDICTED BY IDOCK:   -1.55 KCAL/MOL
REMARK 927      BINDING AFFINITY PREDICTED BY RF-SCORE:    0.00 PKD
ROOT
HETATM    1  C   UNL     1     -12.137  12.128  63.868  1.00  0.00    -0.584 C  
HETATM    2  C   UNL     1     -11.451  13.436  64.230  1.00  0.00    -0.429 C  
ENDROOT
BRANCH   2   3
HETATM    3  C   UNL     1     -11.552  13.746  65.719  1.00  0.00    -0.331 C  
BRANCH   3   4
HETATM    4  N   UNL     1     -10.185  13.836  66.306  1.00  0.00    -0.290 N  
HETATM    5  H   UNL     1      -9.374  14.201  65.808  1.00  0.00     0.000 HD 
BRANCH   4   6
HETATM    6  S   UNL     1     -10.140  13.267  67.883  1.00  0.00    -0.241 S  
HETATM    7  O   UNL     1      -8.865  12.590  67.998  1.00  0.00    -0.174 OA 
HETATM    8  O   UNL     1     -10.510  14.336  68.772  1.00  0.00    -0.241 OA 
BRANCH   6   9
HETATM    9  N   UNL     1     -11.314  12.072  67.858  1.00  0.00    -0.282 N  
HETATM   10  H   UNL     1     -11.853  11.865  67.017  1.00  0.00     0.000 HD 
BRANCH   9  11
HETATM   11  C   UNL     1     -11.515  11.368  69.068  1.00  0.00    -0.300 A  
HETATM   12  C   UNL     1     -10.897  10.150  69.380  1.00  0.00    -0.274 A  
HETATM   13  C   UNL     1     -11.188   9.769  70.698  1.00  0.00    -0.334 A  
HETATM   14  N   UNL     1     -12.383  12.043  69.846  1.00  0.00    -0.135 NA 
HETATM   15  N   UNL     1     -12.018  10.426  71.539  1.00  0.00    -0.289 NA 
HETATM   16  C   UNL     1     -12.589  11.529  71.057  1.00  0.00    -0.357 A  
BRANCH  12  17
HETATM   17  C   UNL     1     -10.067   9.304  68.447  1.00  0.00    -0.215 A  
HETATM   18  C   UNL     1      -8.665   9.230  68.504  1.00  0.00    -0.128 A  
HETATM   19  C   UNL     1      -7.904   8.374  67.696  1.00  0.00    -0.107 A  
HETATM   20  C   UNL     1      -9.914   7.617  66.645  1.00  0.00    -0.284 A  
HETATM   21  C   UNL     1     -10.657   8.503  67.445  1.00  0.00    -0.304 A  
HETATM   22 BR   UNL     1      -7.528   6.319  65.770  1.00  0.00    -0.084 Br 
HETATM   23  C   UNL     1      -8.538   7.546  66.789  1.00  0.00    -0.127 A  
ENDBRANCH  12  17
BRANCH  13  24
HETATM   24  O   UNL     1     -10.570   8.637  71.190  1.00  0.00    -0.205 OA 
BRANCH  24  25
HETATM   25  C   UNL     1     -10.829   8.277  72.547  1.00  0.00    -0.351 C  
BRANCH  25  26
HETATM   26  C   UNL     1      -9.529   7.706  73.114  1.00  0.00    -0.243 C  
BRANCH  26  27
HETATM   27  O   UNL     1      -9.656   6.300  73.308  1.00  0.00    -0.145 OA 
BRANCH  27  28
HETATM   28  C   UNL     1      -9.376   5.574  72.168  1.00  0.00    -0.143 A  
HETATM   29  N   UNL     1     -10.119   4.496  71.855  1.00  0.00    -0.190 NA 
HETATM   30  C   UNL     1      -9.774   3.848  70.720  1.00  0.00    -0.185 A  
HETATM   31  C   UNL     1      -8.733   4.236  69.908  1.00  0.00    -0.070 A  
HETATM   32  C   UNL     1      -8.040   5.347  70.328  1.00  0.00    -0.097 A  
HETATM   33 BR   UNL     1      -8.290   3.313  68.336  1.00  0.00    -0.100 Br 
HETATM   34  N   UNL     1      -8.338   6.034  71.452  1.00  0.00    -0.126 NA 
ENDBRANCH  27  28
ENDBRANCH  26  27
ENDBRANCH  25  26
ENDBRANCH  24  25
ENDBRANCH  13  24
ENDBRANCH   9  11
ENDBRANCH   6   9
ENDBRANCH   4   6
ENDBRANCH   3   4
ENDBRANCH   2   3
TORSDOF 11
ENDMDL
MODEL      138
REMARK 921   NORMALIZED FREE ENERGY PREDICTED BY IDOCK:   -4.54 KCAL/MOL
REMARK 922        TOTAL FREE ENERGY PREDICTED BY IDOCK:   -8.88 KCAL/MOL
REMARK 923 INTER-LIGAND FREE ENERGY PREDICTED BY IDOCK:   -7.02 KCAL/MOL
REMARK 924 INTRA-LIGAND FREE ENERGY PREDICTED BY IDOCK:   -1.86 KCAL/MOL
REMARK 927      BINDING AFFINITY PREDICTED BY RF-SCORE:    0.00 PKD
ROOT
HETATM    1  C   UNL     1     -12.213  12.343  64.123  1.00  0.00    -0.558 C  
HETATM    2  C   UNL     1     -11.861  13.685  64.745  1.00  0.00    -0.414 C  
ENDROOT
BRANCH   2   3
HETATM    3  C   UNL     1     -12.410  13.824  66.160  1.00  0.00    -0.452 C  
BRANCH   3   4
HETATM    4  N   UNL     1     -11.282  13.908  67.130  1.00  0.00    -0.304 N  
HETATM    5  H   UNL     1     -10.500  14.557  67.041  1.00  0.00     0.000 HD 
BRANCH   4   6
HETATM    6  S   UNL     1     -11.449  12.809  68.386  1.00  0.00    -0.335 S  
HETATM    7  O   UNL     1     -11.818  13.610  69.534  1.00  0.00    -0.296 OA 
HETATM    8  O   UNL     1     -12.264  11.713  67.936  1.00  0.00    -0.560 OA 
BRANCH   6   9
HETATM    9  N   UNL     1      -9.867  12.319  68.635  1.00  0.00    -0.381 N  
HETATM   10  H   UNL     1      -9.273  12.754  69.342  1.00  0.00     0.000 HD 
BRANCH   9  11
HETATM   11  C   UNL     1      -9.401  11.268  67.810  1.00  0.00    -0.163 A  
HETATM   12  C   UNL     1      -9.346   9.924  68.204  1.00  0.00    -0.138 A  
HETATM   13  C   UNL     1      -8.969   9.106  67.130  1.00  0.00    -0.123 A  
HETATM   14  N   UNL     1      -9.022  11.763  66.616  1.00  0.00    -0.192 NA 
HETATM   15  N   UNL     1      -8.618   9.542  65.899  1.00  0.00    -0.128 NA 
HETATM   16  C   UNL     1      -8.647  10.860  65.713  1.00  0.00    -0.173 A  
BRANCH  12  17
HETATM   17  C   UNL     1      -9.600   9.390  69.592  1.00  0.00    -0.199 A  
HETATM   18  C   UNL     1     -10.879   9.071  70.081  1.00  0.00    -0.261 A  
HETATM   19  C   UNL     1     -11.102   8.489  71.336  1.00  0.00    -0.328 A  
HETATM   20  C   UNL     1      -8.748   8.546  71.754  1.00  0.00    -0.266 A  
HETATM   21  C   UNL     1      -8.547   9.154  70.503  1.00  0.00    -0.252 A  
HETATM   22 BR   UNL     1     -10.313   7.324  73.805  1.00  0.00    -0.267 Br 
HETATM   23  C   UNL     1     -10.028   8.199  72.157  1.00  0.00    -0.247 A  
ENDBRANCH  12  17
BRANCH  13  24
HETATM   24  O   UNL     1      -8.966   7.741  67.333  1.00  0.00    -0.123 OA 
BRANCH  24  25
HETATM   25  C   UNL     1     -10.078   6.995  66.839  1.00  0.00    -0.226 C  
BRANCH  25  26
HETATM   26  C   UNL     1      -9.557   5.605  66.472  1.00  0.00    -0.155 C  
BRANCH  26  27
HETATM   27  O   UNL     1      -8.143   5.554  66.637  1.00  0.00    -0.104 OA 
BRANCH  27  28
HETATM   28  C   UNL     1      -7.749   4.666  67.618  1.00  0.00    -0.086 A  
HETATM   29  N   UNL     1      -6.442   4.501  67.894  1.00  0.00    -0.040 NA 
HETATM   30  C   UNL     1      -6.150   3.613  68.871  1.00  0.00    -0.028 A  
HETATM   31  C   UNL     1      -7.103   2.901  69.561  1.00  0.00    -0.041 A  
HETATM   32  C   UNL     1      -8.405   3.145  69.192  1.00  0.00    -0.060 A  
HETATM   33 BR   UNL     1      -6.657   1.681  70.916  1.00  0.00    -0.024 Br 
HETATM   34  N   UNL     1      -8.756   4.020  68.225  1.00  0.00    -0.096 NA 
ENDBRANCH  27  28
ENDBRANCH  26  27
ENDBRANCH  25  26
ENDBRANCH  24  25
ENDBRANCH  13  24
ENDBRANCH   9  11
ENDBRANCH   6   9
ENDBRANCH   4   6
ENDBRANCH   3   4
ENDBRANCH   2   3
TORSDOF 11
ENDMDL
MODEL      139
REMARK 921   NORMALIZED FREE ENERGY PREDICTED BY IDOCK:   -4.54 KCAL/MOL
REMARK 922        TOTAL FREE ENERGY PREDICTED BY IDOCK:   -8.87 KCAL/MOL
REMARK 923 INTER-LIGAND FREE ENERGY PREDICTED BY IDOCK:   -8.18 KCAL/MOL
REMARK 924 INTRA-LIGAND FREE ENERGY PREDICTED BY IDOCK:   -0.69 KCAL/MOL
REMARK 927      BINDING AFFINITY PREDICTED BY RF-SCORE:    0.00 PKD
ROOT
HETATM    1  C   UNL     1      -5.503   7.699  71.146  1.00  0.00    -0.030 C  
HETATM    2  C   UNL     1      -6.700   6.866  70.714  1.00  0.00    -0.054 C  
ENDROOT
BRANCH   2   3
HETATM    3  C   UNL     1      -8.010   7.636  70.835  1.00  0.00    -0.094 C  
BRANCH   3   4
HETATM    4  N   UNL     1      -8.745   7.580  69.539  1.00  0.00    -0.137 N  
HETATM    5  H   UNL     1      -8.358   7.894  68.650  1.00  0.00     0.000 HD 
BRANCH   4   6
HETATM    6  S   UNL     1     -10.285   6.940  69.718  1.00  0.00    -0.202 S  
HETATM    7  O   UNL     1     -10.188   5.589  69.206  1.00  0.00    -0.199 OA 
HETATM    8  O   UNL     1     -10.747   7.211  71.053  1.00  0.00    -0.228 OA 
BRANCH   6   9
HETATM    9  N   UNL     1     -11.161   7.815  68.590  1.00  0.00    -0.401 N  
HETATM   10  H   UNL     1     -12.173   7.718  68.501  1.00  0.00     0.000 HD 
BRANCH   9  11
HETATM   11  C   UNL     1     -10.419   8.696  67.768  1.00  0.00    -0.224 A  
HETATM   12  C   UNL     1     -10.369  10.084  67.947  1.00  0.00    -0.249 A  
HETATM   13  C   UNL     1      -9.448  10.666  67.065  1.00  0.00    -0.164 A  
HETATM   14  N   UNL     1      -9.790   7.994  66.805  1.00  0.00    -0.235 NA 
HETATM   15  N   UNL     1      -8.758  10.009  66.106  1.00  0.00    -0.138 NA 
HETATM   16  C   UNL     1      -8.981   8.699  66.016  1.00  0.00    -0.184 A  
BRANCH  12  17
HETATM   17  C   UNL     1     -11.206  10.891  68.908  1.00  0.00    -0.327 A  
HETATM   18  C   UNL     1     -11.705  10.384  70.120  1.00  0.00    -0.394 A  
HETATM   19  C   UNL     1     -12.404  11.162  71.053  1.00  0.00    -0.487 A  
HETATM   20  C   UNL     1     -12.212  13.044  69.591  1.00  0.00    -0.219 A  
HETATM   21  C   UNL     1     -11.537  12.241  68.656  1.00  0.00    -0.372 A  
HETATM   22 BR   UNL     1     -13.480  13.578  72.092  1.00  0.00    -0.667 Br 
HETATM   23  C   UNL     1     -12.628  12.502  70.796  1.00  0.00    -0.212 A  
ENDBRANCH  12  17
BRANCH  13  24
HETATM   24  O   UNL     1      -9.211  12.021  67.187  1.00  0.00    -0.180 OA 
BRANCH  24  25
HETATM   25  C   UNL     1      -7.903  12.432  67.586  1.00  0.00    -0.163 C  
BRANCH  25  26
HETATM   26  C   UNL     1      -7.845  13.951  67.429  1.00  0.00    -0.161 C  
BRANCH  26  27
HETATM   27  O   UNL     1      -9.098  14.444  66.963  1.00  0.00    -0.214 OA 
BRANCH  27  28
HETATM   28  C   UNL     1      -9.201  15.818  67.054  1.00  0.00    -0.216 A  
HETATM   29  N   UNL     1      -8.259  16.604  66.500  1.00  0.00    -0.266 NA 
HETATM   30  C   UNL     1      -8.444  17.936  66.636  1.00  0.00    -0.258 A  
HETATM   31  C   UNL     1      -9.516  18.492  67.294  1.00  0.00    -0.288 A  
HETATM   32  C   UNL     1     -10.413  17.595  67.824  1.00  0.00    -0.378 A  
HETATM   33 BR   UNL     1      -9.740  20.349  67.455  1.00  0.00    -0.577 Br 
HETATM   34  N   UNL     1     -10.280  16.255  67.721  1.00  0.00    -0.263 NA 
ENDBRANCH  27  28
ENDBRANCH  26  27
ENDBRANCH  25  26
ENDBRANCH  24  25
ENDBRANCH  13  24
ENDBRANCH   9  11
ENDBRANCH   6   9
ENDBRANCH   4   6
ENDBRANCH   3   4
ENDBRANCH   2   3
TORSDOF 11
ENDMDL
MODEL      140
REMARK 921   NORMALIZED FREE ENERGY PREDICTED BY IDOCK:   -4.52 KCAL/MOL
REMARK 922        TOTAL FREE ENERGY PREDICTED BY IDOCK:   -8.84 KCAL/MOL
REMARK 923 INTER-LIGAND FREE ENERGY PREDICTED BY IDOCK:   -7.00 KCAL/MOL
REMARK 924 INTRA-LIGAND FREE ENERGY PREDICTED BY IDOCK:   -1.84 KCAL/MOL
REMARK 927      BINDING AFFINITY PREDICTED BY RF-SCORE:    0.00 PKD
ROOT
HETATM    1  C   UNL     1     -12.968  12.790  64.499  1.00  0.00    -0.210 C  
HETATM    2  C   UNL     1     -11.666  13.263  63.873  1.00  0.00    -0.486 C  
ENDROOT
BRANCH   2   3
HETATM    3  C   UNL     1     -10.749  13.934  64.889  1.00  0.00    -0.410 C  
BRANCH   3   4
HETATM    4  N   UNL     1     -10.770  13.166  66.166  1.00  0.00    -0.276 N  
HETATM    5  H   UNL     1     -10.694  12.151  66.222  1.00  0.00     0.000 HD 
BRANCH   4   6
HETATM    6  S   UNL     1     -10.934  14.170  67.500  1.00  0.00    -0.290 S  
HETATM    7  O   UNL     1     -10.285  15.406  67.117  1.00  0.00    -0.244 OA 
HETATM    8  O   UNL     1     -12.304  14.139  67.937  1.00  0.00    -0.233 OA 
BRANCH   6   9
HETATM    9  N   UNL     1      -9.930  13.431  68.619  1.00  0.00    -0.380 N  
HETATM   10  H   UNL     1      -9.862  13.760  69.582  1.00  0.00     0.000 HD 
BRANCH   9  11
HETATM   11  C   UNL     1      -9.181  12.324  68.153  1.00  0.00    -0.197 A  
HETATM   12  C   UNL     1      -9.514  10.987  68.406  1.00  0.00    -0.182 A  
HETATM   13  C   UNL     1      -8.663  10.122  67.703  1.00  0.00    -0.121 A  
HETATM   14  N   UNL     1      -8.118  12.761  67.449  1.00  0.00    -0.178 NA 
HETATM   15  N   UNL     1      -7.607  10.502  66.949  1.00  0.00    -0.106 NA 
HETATM   16  C   UNL     1      -7.380  11.813  66.877  1.00  0.00    -0.104 A  
BRANCH  12  17
HETATM   17  C   UNL     1     -10.595  10.497  69.336  1.00  0.00    -0.269 A  
HETATM   18  C   UNL     1     -10.338   9.796  70.527  1.00  0.00    -0.348 A  
HETATM   19  C   UNL     1     -11.340   9.423  71.434  1.00  0.00    -0.451 A  
HETATM   20  C   UNL     1     -12.979  10.389  69.986  1.00  0.00     0.117 A  
HETATM   21  C   UNL     1     -11.964  10.730  69.075  1.00  0.00    -0.258 A  
HETATM   22 BR   UNL     1     -13.996   9.341  72.438  1.00  0.00    -0.336 Br 
HETATM   23  C   UNL     1     -12.657   9.751  71.173  1.00  0.00    -0.345 A  
ENDBRANCH  12  17
BRANCH  13  24
HETATM   24  O   UNL     1      -8.927   8.769  67.771  1.00  0.00    -0.135 OA 
BRANCH  24  25
HETATM   25  C   UNL     1      -7.827   7.892  68.019  1.00  0.00    -0.127 C  
BRANCH  25  26
HETATM   26  C   UNL     1      -8.071   7.242  69.381  1.00  0.00    -0.130 C  
BRANCH  26  27
HETATM   27  O   UNL     1      -9.365   6.645  69.413  1.00  0.00    -0.147 OA 
BRANCH  27  28
HETATM   28  C   UNL     1      -9.621   5.985  70.599  1.00  0.00    -0.173 A  
HETATM   29  N   UNL     1     -10.891   5.780  70.996  1.00  0.00    -0.261 NA 
HETATM   30  C   UNL     1     -11.046   5.124  72.167  1.00  0.00    -0.059 A  
HETATM   31  C   UNL     1      -9.996   4.679  72.936  1.00  0.00    -0.150 A  
HETATM   32  C   UNL     1      -8.744   4.949  72.436  1.00  0.00    -0.123 A  
HETATM   33 BR   UNL     1     -10.254   3.765  74.555  1.00  0.00    -0.264 Br 
HETATM   34  N   UNL     1      -8.527   5.600  71.273  1.00  0.00    -0.126 NA 
ENDBRANCH  27  28
ENDBRANCH  26  27
ENDBRANCH  25  26
ENDBRANCH  24  25
ENDBRANCH  13  24
ENDBRANCH   9  11
ENDBRANCH   6   9
ENDBRANCH   4   6
ENDBRANCH   3   4
ENDBRANCH   2   3
TORSDOF 11
ENDMDL
MODEL      141
REMARK 921   NORMALIZED FREE ENERGY PREDICTED BY IDOCK:   -4.51 KCAL/MOL
REMARK 922        TOTAL FREE ENERGY PREDICTED BY IDOCK:   -8.82 KCAL/MOL
REMARK 923 INTER-LIGAND FREE ENERGY PREDICTED BY IDOCK:   -7.41 KCAL/MOL
REMARK 924 INTRA-LIGAND FREE ENERGY PREDICTED BY IDOCK:   -1.41 KCAL/MOL
REMARK 927      BINDING AFFINITY PREDICTED BY RF-SCORE:    0.00 PKD
ROOT
HETATM    1  C   UNL     1      -9.754  18.818  67.793  1.00  0.00    -0.356 C  
HETATM    2  C   UNL     1     -10.781  17.706  67.924  1.00  0.00    -0.341 C  
ENDROOT
BRANCH   2   3
HETATM    3  C   UNL     1     -10.178  16.331  67.662  1.00  0.00    -0.272 C  
BRANCH   3   4
HETATM    4  N   UNL     1     -11.262  15.310  67.610  1.00  0.00    -0.321 N  
HETATM    5  H   UNL     1     -12.042  15.339  66.954  1.00  0.00     0.000 HD 
BRANCH   4   6
HETATM    6  S   UNL     1     -11.048  14.106  68.758  1.00  0.00    -0.273 S  
HETATM    7  O   UNL     1      -9.627  13.831  68.748  1.00  0.00    -0.160 OA 
HETATM    8  O   UNL     1     -11.735  14.487  69.962  1.00  0.00    -0.271 OA 
BRANCH   6   9
HETATM    9  N   UNL     1     -11.793  12.793  68.031  1.00  0.00    -0.352 N  
HETATM   10  H   UNL     1     -12.767  12.554  68.221  1.00  0.00     0.000 HD 
BRANCH   9  11
HETATM   11  C   UNL     1     -10.996  12.035  67.141  1.00  0.00    -0.270 A  
HETATM   12  C   UNL     1     -10.386  10.819  67.473  1.00  0.00    -0.244 A  
HETATM   13  C   UNL     1      -9.779  10.244  66.348  1.00  0.00    -0.201 A  
HETATM   14  N   UNL     1     -10.919  12.667  65.953  1.00  0.00    -0.271 NA 
HETATM   15  N   UNL     1      -9.705  10.810  65.122  1.00  0.00    -0.243 NA 
HETATM   16  C   UNL     1     -10.269  12.010  64.995  1.00  0.00    -0.276 A  
BRANCH  12  17
HETATM   17  C   UNL     1     -10.322  10.198  68.847  1.00  0.00    -0.223 A  
HETATM   18  C   UNL     1     -11.446   9.710  69.533  1.00  0.00     0.002 A  
HETATM   19  C   UNL     1     -11.371   9.051  70.768  1.00  0.00    -0.329 A  
HETATM   20  C   UNL     1      -9.001   9.367  70.765  1.00  0.00    -0.254 A  
HETATM   21  C   UNL     1      -9.100  10.049  69.540  1.00  0.00    -0.236 A  
HETATM   22 BR   UNL     1     -10.021   7.880  72.977  1.00  0.00    -0.353 Br 
HETATM   23  C   UNL     1     -10.140   8.854  71.365  1.00  0.00    -0.309 A  
ENDBRANCH  12  17
BRANCH  13  24
HETATM   24  O   UNL     1      -9.219   8.991  66.492  1.00  0.00    -0.156 OA 
BRANCH  24  25
HETATM   25  C   UNL     1     -10.095   7.864  66.453  1.00  0.00    -0.079 C  
BRANCH  25  26
HETATM   26  C   UNL     1      -9.244   6.625  66.727  1.00  0.00    -0.149 C  
BRANCH  26  27
HETATM   27  O   UNL     1     -10.082   5.493  66.944  1.00  0.00    -0.160 OA 
BRANCH  27  28
HETATM   28  C   UNL     1     -10.020   5.020  68.240  1.00  0.00    -0.129 A  
HETATM   29  N   UNL     1     -10.645   5.682  69.231  1.00  0.00    -0.287 NA 
HETATM   30  C   UNL     1     -10.532   5.145  70.466  1.00  0.00    -0.208 A  
HETATM   31  C   UNL     1      -9.830   3.994  70.734  1.00  0.00    -0.163 A  
HETATM   32  C   UNL     1      -9.227   3.405  69.647  1.00  0.00    -0.154 A  
HETATM   33 BR   UNL     1      -9.702   3.276  72.463  1.00  0.00    -0.217 Br 
HETATM   34  N   UNL     1      -9.305   3.896  68.391  1.00  0.00    -0.156 NA 
ENDBRANCH  27  28
ENDBRANCH  26  27
ENDBRANCH  25  26
ENDBRANCH  24  25
ENDBRANCH  13  24
ENDBRANCH   9  11
ENDBRANCH   6   9
ENDBRANCH   4   6
ENDBRANCH   3   4
ENDBRANCH   2   3
TORSDOF 11
ENDMDL
MODEL      142
REMARK 921   NORMALIZED FREE ENERGY PREDICTED BY IDOCK:   -4.50 KCAL/MOL
REMARK 922        TOTAL FREE ENERGY PREDICTED BY IDOCK:   -8.80 KCAL/MOL
REMARK 923 INTER-LIGAND FREE ENERGY PREDICTED BY IDOCK:   -6.97 KCAL/MOL
REMARK 924 INTRA-LIGAND FREE ENERGY PREDICTED BY IDOCK:   -1.83 KCAL/MOL
REMARK 927      BINDING AFFINITY PREDICTED BY RF-SCORE:    0.00 PKD
ROOT
HETATM    1  C   UNL     1     -12.992  11.506  71.366  1.00  0.00    -0.450 C  
HETATM    2  C   UNL     1     -12.498  10.149  70.891  1.00  0.00    -0.455 C  
ENDROOT
BRANCH   2   3
HETATM    3  C   UNL     1     -12.374   9.149  72.035  1.00  0.00    -0.377 C  
BRANCH   3   4
HETATM    4  N   UNL     1     -11.050   8.467  71.962  1.00  0.00    -0.318 N  
HETATM    5  H   UNL     1     -10.201   8.907  71.610  1.00  0.00     0.000 HD 
BRANCH   4   6
HETATM    6  S   UNL     1     -11.124   6.890  72.529  1.00  0.00    -0.273 S  
HETATM    7  O   UNL     1     -10.860   6.992  73.948  1.00  0.00    -0.237 OA 
HETATM    8  O   UNL     1     -12.322   6.273  72.026  1.00  0.00    -0.328 OA 
BRANCH   6   9
HETATM    9  N   UNL     1      -9.760   6.206  71.838  1.00  0.00    -0.154 N  
HETATM   10  H   UNL     1      -9.626   5.196  71.798  1.00  0.00     0.000 HD 
BRANCH   9  11
HETATM   11  C   UNL     1      -8.805   7.109  71.313  1.00  0.00    -0.129 A  
HETATM   12  C   UNL     1      -8.564   7.289  69.945  1.00  0.00    -0.141 A  
HETATM   13  C   UNL     1      -7.663   8.343  69.734  1.00  0.00    -0.093 A  
HETATM   14  N   UNL     1      -8.179   7.744  72.323  1.00  0.00    -0.110 NA 
HETATM   15  N   UNL     1      -7.034   9.043  70.705  1.00  0.00    -0.076 NA 
HETATM   16  C   UNL     1      -7.316   8.690  71.959  1.00  0.00    -0.039 A  
BRANCH  12  17
HETATM   17  C   UNL     1      -9.132   6.459  68.821  1.00  0.00    -0.125 A  
HETATM   18  C   UNL     1     -10.470   6.533  68.398  1.00  0.00    -0.258 A  
HETATM   19  C   UNL     1     -10.971   5.829  67.295  1.00  0.00    -0.180 A  
HETATM   20  C   UNL     1      -8.813   4.854  66.967  1.00  0.00    -0.106 A  
HETATM   21  C   UNL     1      -8.336   5.547  68.093  1.00  0.00    -0.099 A  
HETATM   22 BR   UNL     1     -10.772   4.142  65.018  1.00  0.00     0.017 Br 
HETATM   23  C   UNL     1     -10.128   5.013  66.563  1.00  0.00    -0.248 A  
ENDBRANCH  12  17
BRANCH  13  24
HETATM   24  O   UNL     1      -7.399   8.710  68.430  1.00  0.00    -0.083 OA 
BRANCH  24  25
HETATM   25  C   UNL     1      -8.216   9.726  67.849  1.00  0.00    -0.113 C  
BRANCH  25  26
HETATM   26  C   UNL     1      -8.580   9.257  66.441  1.00  0.00    -0.131 C  
BRANCH  26  27
HETATM   27  O   UNL     1      -9.994   9.276  66.269  1.00  0.00    -0.269 OA 
BRANCH  27  28
HETATM   28  C   UNL     1     -10.477  10.525  65.932  1.00  0.00    -0.153 A  
HETATM   29  N   UNL     1     -11.395  11.127  66.711  1.00  0.00    -0.346 NA 
HETATM   30  C   UNL     1     -11.809  12.348  66.306  1.00  0.00    -0.364 A  
HETATM   31  C   UNL     1     -11.344  12.970  65.171  1.00  0.00    -0.291 A  
HETATM   32  C   UNL     1     -10.413  12.261  64.449  1.00  0.00    -0.325 A  
HETATM   33 BR   UNL     1     -11.938  14.671  64.644  1.00  0.00    -0.449 Br 
HETATM   34  N   UNL     1      -9.963  11.038  64.804  1.00  0.00    -0.270 NA 
ENDBRANCH  27  28
ENDBRANCH  26  27
ENDBRANCH  25  26
ENDBRANCH  24  25
ENDBRANCH  13  24
ENDBRANCH   9  11
ENDBRANCH   6   9
ENDBRANCH   4   6
ENDBRANCH   3   4
ENDBRANCH   2   3
TORSDOF 11
ENDMDL
MODEL      143
REMARK 921   NORMALIZED FREE ENERGY PREDICTED BY IDOCK:   -4.49 KCAL/MOL
REMARK 922        TOTAL FREE ENERGY PREDICTED BY IDOCK:   -8.80 KCAL/MOL
REMARK 923 INTER-LIGAND FREE ENERGY PREDICTED BY IDOCK:   -6.52 KCAL/MOL
REMARK 924 INTRA-LIGAND FREE ENERGY PREDICTED BY IDOCK:   -2.27 KCAL/MOL
REMARK 927      BINDING AFFINITY PREDICTED BY RF-SCORE:    0.00 PKD
ROOT
HETATM    1  C   UNL     1      -8.612   6.364  66.789  1.00  0.00    -0.113 C  
HETATM    2  C   UNL     1      -7.210   6.432  67.374  1.00  0.00    -0.082 C  
ENDROOT
BRANCH   2   3
HETATM    3  C   UNL     1      -7.203   7.005  68.786  1.00  0.00    -0.091 C  
BRANCH   3   4
HETATM    4  N   UNL     1      -7.145   8.493  68.724  1.00  0.00    -0.066 N  
HETATM    5  H   UNL     1      -7.067   9.024  67.857  1.00  0.00     0.000 HD 
BRANCH   4   6
HETATM    6  S   UNL     1      -7.224   9.190  70.247  1.00  0.00    -0.089 S  
HETATM    7  O   UNL     1      -7.751   8.151  71.105  1.00  0.00    -0.080 OA 
HETATM    8  O   UNL     1      -5.969   9.835  70.526  1.00  0.00    -0.055 OA 
BRANCH   6   9
HETATM    9  N   UNL     1      -8.448  10.316  70.053  1.00  0.00    -0.359 N  
HETATM   10  H   UNL     1      -8.700  10.971  70.794  1.00  0.00     0.000 HD 
BRANCH   9  11
HETATM   11  C   UNL     1      -9.114  10.308  68.805  1.00  0.00    -0.159 A  
HETATM   12  C   UNL     1      -8.860  11.222  67.773  1.00  0.00    -0.141 A  
HETATM   13  C   UNL     1      -9.576  10.877  66.617  1.00  0.00    -0.185 A  
HETATM   14  N   UNL     1     -10.013   9.306  68.777  1.00  0.00    -0.175 NA 
HETATM   15  N   UNL     1     -10.460   9.859  66.518  1.00  0.00    -0.181 NA 
HETATM   16  C   UNL     1     -10.645   9.133  67.618  1.00  0.00    -0.242 A  
BRANCH  12  17
HETATM   17  C   UNL     1      -7.987  12.449  67.861  1.00  0.00    -0.155 A  
HETATM   18  C   UNL     1      -8.481  13.738  68.122  1.00  0.00    -0.173 A  
HETATM   19  C   UNL     1      -7.658  14.859  68.294  1.00  0.00    -0.113 A  
HETATM   20  C   UNL     1      -5.742  13.485  67.899  1.00  0.00    -0.125 A  
HETATM   21  C   UNL     1      -6.585  12.378  67.702  1.00  0.00    -0.131 A  
HETATM   22 BR   UNL     1      -5.168  16.205  68.543  1.00  0.00    -0.099 Br 
HETATM   23  C   UNL     1      -6.285  14.720  68.212  1.00  0.00    -0.124 A  
ENDBRANCH  12  17
BRANCH  13  24
HETATM   24  O   UNL     1      -9.355  11.626  65.480  1.00  0.00    -0.222 OA 
BRANCH  24  25
HETATM   25  C   UNL     1     -10.345  11.576  64.451  1.00  0.00    -0.312 C  
BRANCH  25  26
HETATM   26  C   UNL     1     -10.900  12.992  64.295  1.00  0.00    -0.405 C  
BRANCH  26  27
HETATM   27  O   UNL     1     -11.757  13.304  65.389  1.00  0.00    -0.320 OA 
BRANCH  27  28
HETATM   28  C   UNL     1     -11.396  14.468  66.039  1.00  0.00    -0.341 A  
HETATM   29  N   UNL     1     -10.643  15.387  65.407  1.00  0.00    -0.380 NA 
HETATM   30  C   UNL     1     -10.339  16.495  66.119  1.00  0.00    -0.334 A  
HETATM   31  C   UNL     1     -10.755  16.706  67.413  1.00  0.00    -0.253 A  
HETATM   32  C   UNL     1     -11.514  15.699  67.960  1.00  0.00    -0.291 A  
HETATM   33 BR   UNL     1     -10.318  18.263  68.366  1.00  0.00    -0.318 Br 
HETATM   34  N   UNL     1     -11.848  14.570  67.298  1.00  0.00    -0.407 NA 
ENDBRANCH  27  28
ENDBRANCH  26  27
ENDBRANCH  25  26
ENDBRANCH  24  25
ENDBRANCH  13  24
ENDBRANCH   9  11
ENDBRANCH   6   9
ENDBRANCH   4   6
ENDBRANCH   3   4
ENDBRANCH   2   3
TORSDOF 11
ENDMDL
MODEL      144
REMARK 921   NORMALIZED FREE ENERGY PREDICTED BY IDOCK:   -4.49 KCAL/MOL
REMARK 922        TOTAL FREE ENERGY PREDICTED BY IDOCK:   -8.79 KCAL/MOL
REMARK 923 INTER-LIGAND FREE ENERGY PREDICTED BY IDOCK:   -7.10 KCAL/MOL
REMARK 924 INTRA-LIGAND FREE ENERGY PREDICTED BY IDOCK:   -1.69 KCAL/MOL
REMARK 927      BINDING AFFINITY PREDICTED BY RF-SCORE:    0.00 PKD
ROOT
HETATM    1  C   UNL     1      -7.494   6.485  65.975  1.00  0.00    -0.081 C  
HETATM    2  C   UNL     1      -8.024   5.090  66.266  1.00  0.00    -0.107 C  
ENDROOT
BRANCH   2   3
HETATM    3  C   UNL     1      -8.845   5.044  67.550  1.00  0.00    -0.102 C  
BRANCH   3   4
HETATM    4  N   UNL     1      -8.920   6.407  68.146  1.00  0.00    -0.117 N  
HETATM    5  H   UNL     1      -8.105   6.954  68.423  1.00  0.00     0.000 HD 
BRANCH   4   6
HETATM    6  S   UNL     1     -10.503   6.936  68.309  1.00  0.00    -0.216 S  
HETATM    7  O   UNL     1     -10.952   7.188  66.956  1.00  0.00    -0.369 OA 
HETATM    8  O   UNL     1     -11.205   6.034  69.182  1.00  0.00    -0.378 OA 
BRANCH   6   9
HETATM    9  N   UNL     1     -10.299   8.434  69.031  1.00  0.00    -0.218 N  
HETATM   10  H   UNL     1     -11.072   8.922  69.486  1.00  0.00     0.000 HD 
BRANCH   9  11
HETATM   11  C   UNL     1      -8.997   8.983  68.975  1.00  0.00    -0.140 A  
HETATM   12  C   UNL     1      -8.618  10.021  68.114  1.00  0.00    -0.118 A  
HETATM   13  C   UNL     1      -7.307  10.438  68.385  1.00  0.00    -0.085 A  
HETATM   14  N   UNL     1      -8.201   8.353  69.861  1.00  0.00    -0.119 NA 
HETATM   15  N   UNL     1      -6.476   9.872  69.288  1.00  0.00    -0.047 NA 
HETATM   16  C   UNL     1      -6.967   8.840  69.972  1.00  0.00    -0.043 A  
BRANCH  12  17
HETATM   17  C   UNL     1      -9.451  10.607  67.001  1.00  0.00    -0.187 A  
HETATM   18  C   UNL     1      -9.321  10.235  65.653  1.00  0.00    -0.241 A  
HETATM   19  C   UNL     1     -10.158  10.714  64.636  1.00  0.00    -0.417 A  
HETATM   20  C   UNL     1     -11.317  12.045  66.248  1.00  0.00    -0.415 A  
HETATM   21  C   UNL     1     -10.449  11.575  67.250  1.00  0.00    -0.246 A  
HETATM   22 BR   UNL     1     -12.370  12.165  63.598  1.00  0.00    -0.646 Br 
HETATM   23  C   UNL     1     -11.177  11.596  64.945  1.00  0.00    -0.222 A  
ENDBRANCH  12  17
BRANCH  13  24
HETATM   24  O   UNL     1      -6.822  11.523  67.684  1.00  0.00    -0.072 OA 
BRANCH  24  25
HETATM   25  C   UNL     1      -6.757  12.777  68.364  1.00  0.00    -0.087 C  
BRANCH  25  26
HETATM   26  C   UNL     1      -7.417  13.814  67.455  1.00  0.00    -0.169 C  
BRANCH  26  27
HETATM   27  O   UNL     1      -6.597  14.975  67.361  1.00  0.00    -0.260 OA 
BRANCH  27  28
HETATM   28  C   UNL     1      -7.327  16.146  67.330  1.00  0.00    -0.192 A  
HETATM   29  N   UNL     1      -7.365  16.889  66.208  1.00  0.00    -0.263 NA 
HETATM   30  C   UNL     1      -8.106  18.017  66.268  1.00  0.00    -0.224 A  
HETATM   31  C   UNL     1      -8.794  18.417  67.390  1.00  0.00    -0.257 A  
HETATM   32  C   UNL     1      -8.680  17.585  68.479  1.00  0.00    -0.282 A  
HETATM   33 BR   UNL     1      -9.818  19.988  67.432  1.00  0.00    -0.587 Br 
HETATM   34  N   UNL     1      -7.954  16.446  68.478  1.00  0.00    -0.192 NA 
ENDBRANCH  27  28
ENDBRANCH  26  27
ENDBRANCH  25  26
ENDBRANCH  24  25
ENDBRANCH  13  24
ENDBRANCH   9  11
ENDBRANCH   6   9
ENDBRANCH   4   6
ENDBRANCH   3   4
ENDBRANCH   2   3
TORSDOF 11
ENDMDL
MODEL      145
REMARK 921   NORMALIZED FREE ENERGY PREDICTED BY IDOCK:   -4.45 KCAL/MOL
REMARK 922        TOTAL FREE ENERGY PREDICTED BY IDOCK:   -8.73 KCAL/MOL
REMARK 923 INTER-LIGAND FREE ENERGY PREDICTED BY IDOCK:   -6.84 KCAL/MOL
REMARK 924 INTRA-LIGAND FREE ENERGY PREDICTED BY IDOCK:   -1.88 KCAL/MOL
REMARK 927      BINDING AFFINITY PREDICTED BY RF-SCORE:    0.00 PKD
ROOT
HETATM    1  C   UNL     1     -10.500   4.346  65.354  1.00  0.00    -0.219 C  
HETATM    2  C   UNL     1     -10.155   4.943  66.709  1.00  0.00    -0.269 C  
ENDROOT
BRANCH   2   3
HETATM    3  C   UNL     1      -9.756   3.878  67.723  1.00  0.00    -0.086 C  
BRANCH   3   4
HETATM    4  N   UNL     1      -9.491   4.516  69.043  1.00  0.00    -0.149 N  
HETATM    5  H   UNL     1     -10.222   4.797  69.697  1.00  0.00     0.000 HD 
BRANCH   4   6
HETATM    6  S   UNL     1      -7.851   4.718  69.327  1.00  0.00    -0.071 S  
HETATM    7  O   UNL     1      -7.548   3.813  70.416  1.00  0.00    -0.044 OA 
HETATM    8  O   UNL     1      -7.152   4.649  68.071  1.00  0.00    -0.059 OA 
BRANCH   6   9
HETATM    9  N   UNL     1      -7.794   6.266  69.963  1.00  0.00    -0.104 N  
HETATM   10  H   UNL     1      -6.972   6.862  69.855  1.00  0.00     0.000 HD 
BRANCH   9  11
HETATM   11  C   UNL     1      -8.947   6.700  70.657  1.00  0.00    -0.151 A  
HETATM   12  C   UNL     1      -9.890   7.594  70.133  1.00  0.00    -0.184 A  
HETATM   13  C   UNL     1     -10.985   7.726  70.999  1.00  0.00    -0.244 A  
HETATM   14  N   UNL     1      -8.983   6.131  71.878  1.00  0.00    -0.140 NA 
HETATM   15  N   UNL     1     -11.096   7.148  72.216  1.00  0.00    -0.244 NA 
HETATM   16  C   UNL     1     -10.071   6.388  72.600  1.00  0.00    -0.178 A  
BRANCH  12  17
HETATM   17  C   UNL     1      -9.766   8.369  68.844  1.00  0.00    -0.168 A  
HETATM   18  C   UNL     1      -8.842   9.409  68.648  1.00  0.00    -0.132 A  
HETATM   19  C   UNL     1      -8.667  10.064  67.422  1.00  0.00    -0.125 A  
HETATM   20  C   UNL     1     -10.395   8.709  66.477  1.00  0.00    -0.237 A  
HETATM   21  C   UNL     1     -10.575   8.083  67.723  1.00  0.00    -0.239 A  
HETATM   22 BR   UNL     1      -9.124  10.496  64.651  1.00  0.00    -0.271 Br 
HETATM   23  C   UNL     1      -9.426   9.688  66.329  1.00  0.00    -0.199 A  
ENDBRANCH  12  17
BRANCH  13  24
HETATM   24  O   UNL     1     -12.048   8.498  70.576  1.00  0.00    -0.065 OA 
BRANCH  24  25
HETATM   25  C   UNL     1     -12.648   9.377  71.528  1.00  0.00    -0.362 C  
BRANCH  25  26
HETATM   26  C   UNL     1     -12.771  10.746  70.858  1.00  0.00    -0.384 C  
BRANCH  26  27
HETATM   27  O   UNL     1     -12.537  10.627  69.457  1.00  0.00    -0.259 OA 
BRANCH  27  28
HETATM   28  C   UNL     1     -12.031  11.784  68.898  1.00  0.00    -0.271 A  
HETATM   29  N   UNL     1     -11.859  11.871  67.566  1.00  0.00    -0.597 NA 
HETATM   30  C   UNL     1     -11.360  13.041  67.108  1.00  0.00    -0.305 A  
HETATM   31  C   UNL     1     -11.036  14.100  67.922  1.00  0.00    -0.251 A  
HETATM   32  C   UNL     1     -11.248  13.898  69.266  1.00  0.00    -0.251 A  
HETATM   33 BR   UNL     1     -10.352  15.712  67.247  1.00  0.00    -0.282 Br 
HETATM   34  N   UNL     1     -11.742  12.752  69.781  1.00  0.00    -0.304 NA 
ENDBRANCH  27  28
ENDBRANCH  26  27
ENDBRANCH  25  26
ENDBRANCH  24  25
ENDBRANCH  13  24
ENDBRANCH   9  11
ENDBRANCH   6   9
ENDBRANCH   4   6
ENDBRANCH   3   4
ENDBRANCH   2   3
TORSDOF 11
ENDMDL
MODEL      146
REMARK 921   NORMALIZED FREE ENERGY PREDICTED BY IDOCK:   -4.44 KCAL/MOL
REMARK 922        TOTAL FREE ENERGY PREDICTED BY IDOCK:   -8.72 KCAL/MOL
REMARK 923 INTER-LIGAND FREE ENERGY PREDICTED BY IDOCK:   -6.86 KCAL/MOL
REMARK 924 INTRA-LIGAND FREE ENERGY PREDICTED BY IDOCK:   -1.85 KCAL/MOL
REMARK 927      BINDING AFFINITY PREDICTED BY RF-SCORE:    0.00 PKD
ROOT
HETATM    1  C   UNL     1      -9.801   9.666  65.710  1.00  0.00    -0.373 C  
HETATM    2  C   UNL     1      -9.138   9.164  66.983  1.00  0.00    -0.147 C  
ENDROOT
BRANCH   2   3
HETATM    3  C   UNL     1      -8.861   7.666  66.934  1.00  0.00    -0.131 C  
BRANCH   3   4
HETATM    4  N   UNL     1      -9.387   7.019  68.170  1.00  0.00    -0.126 N  
HETATM    5  H   UNL     1      -9.007   7.178  69.102  1.00  0.00     0.000 HD 
BRANCH   4   6
HETATM    6  S   UNL     1     -10.678   5.998  67.845  1.00  0.00    -0.274 S  
HETATM    7  O   UNL     1     -11.395   6.637  66.762  1.00  0.00    -0.270 OA 
HETATM    8  O   UNL     1     -10.185   4.651  67.733  1.00  0.00    -0.078 OA 
BRANCH   6   9
HETATM    9  N   UNL     1     -11.622   6.180  69.216  1.00  0.00    -0.366 N  
HETATM   10  H   UNL     1     -12.618   6.393  69.160  1.00  0.00     0.000 HD 
BRANCH   9  11
HETATM   11  C   UNL     1     -10.960   6.022  70.457  1.00  0.00    -0.319 A  
HETATM   12  C   UNL     1     -10.829   7.038  71.413  1.00  0.00    -0.253 A  
HETATM   13  C   UNL     1     -10.246   6.542  72.588  1.00  0.00    -0.186 A  
HETATM   14  N   UNL     1     -10.484   4.766  70.559  1.00  0.00    -0.115 NA 
HETATM   15  N   UNL     1      -9.787   5.282  72.764  1.00  0.00    -0.156 NA 
HETATM   16  C   UNL     1      -9.916   4.460  71.724  1.00  0.00    -0.186 A  
BRANCH  12  17
HETATM   17  C   UNL     1     -11.202   8.488  71.231  1.00  0.00    -0.321 A  
HETATM   18  C   UNL     1     -10.499   9.373  70.397  1.00  0.00    -0.311 A  
HETATM   19  C   UNL     1     -10.902  10.695  70.160  1.00  0.00    -0.224 A  
HETATM   20  C   UNL     1     -12.751  10.372  71.642  1.00  0.00    -0.560 A  
HETATM   21  C   UNL     1     -12.315   9.058  71.888  1.00  0.00    -0.455 A  
HETATM   22 BR   UNL     1     -12.652  12.924  70.367  1.00  0.00    -0.067 Br 
HETATM   23  C   UNL     1     -12.049  11.179  70.762  1.00  0.00    -0.357 A  
ENDBRANCH  12  17
BRANCH  13  24
HETATM   24  O   UNL     1     -10.140   7.401  73.663  1.00  0.00    -0.319 OA 
BRANCH  24  25
HETATM   25  C   UNL     1      -9.037   7.217  74.551  1.00  0.00    -0.152 C  
BRANCH  25  26
HETATM   26  C   UNL     1      -7.771   7.571  73.771  1.00  0.00    -0.123 C  
BRANCH  26  27
HETATM   27  O   UNL     1      -8.018   8.684  72.916  1.00  0.00    -0.381 OA 
BRANCH  27  28
HETATM   28  C   UNL     1      -7.348   8.595  71.712  1.00  0.00    -0.080 A  
HETATM   29  N   UNL     1      -6.990   7.392  71.226  1.00  0.00    -0.054 NA 
HETATM   30  C   UNL     1      -6.339   7.401  70.041  1.00  0.00    -0.027 A  
HETATM   31  C   UNL     1      -6.043   8.549  69.345  1.00  0.00    -0.037 A  
HETATM   32  C   UNL     1      -6.451   9.721  69.938  1.00  0.00    -0.062 A  
HETATM   33 BR   UNL     1      -5.144   8.520  67.697  1.00  0.00    -0.034 Br 
HETATM   34  N   UNL     1      -7.103   9.773  71.119  1.00  0.00    -0.316 NA 
ENDBRANCH  27  28
ENDBRANCH  26  27
ENDBRANCH  25  26
ENDBRANCH  24  25
ENDBRANCH  13  24
ENDBRANCH   9  11
ENDBRANCH   6   9
ENDBRANCH   4   6
ENDBRANCH   3   4
ENDBRANCH   2   3
TORSDOF 11
ENDMDL
MODEL      147
REMARK 921   NORMALIZED FREE ENERGY PREDICTED BY IDOCK:   -4.43 KCAL/MOL
REMARK 922        TOTAL FREE ENERGY PREDICTED BY IDOCK:   -8.69 KCAL/MOL
REMARK 923 INTER-LIGAND FREE ENERGY PREDICTED BY IDOCK:   -7.50 KCAL/MOL
REMARK 924 INTRA-LIGAND FREE ENERGY PREDICTED BY IDOCK:   -1.19 KCAL/MOL
REMARK 927      BINDING AFFINITY PREDICTED BY RF-SCORE:    0.00 PKD
ROOT
HETATM    1  C   UNL     1      -5.691   2.760  66.813  1.00  0.00    -0.022 C  
HETATM    2  C   UNL     1      -6.432   3.845  66.048  1.00  0.00    -0.037 C  
ENDROOT
BRANCH   2   3
HETATM    3  C   UNL     1      -7.273   4.725  66.966  1.00  0.00    -0.077 C  
BRANCH   3   4
HETATM    4  N   UNL     1      -8.414   5.301  66.200  1.00  0.00    -0.115 N  
HETATM    5  H   UNL     1      -8.349   6.141  65.626  1.00  0.00     0.000 HD 
BRANCH   4   6
HETATM    6  S   UNL     1      -9.819   4.406  66.396  1.00  0.00    -0.230 S  
HETATM    7  O   UNL     1     -10.187   3.994  65.058  1.00  0.00    -0.210 OA 
HETATM    8  O   UNL     1      -9.616   3.451  67.452  1.00  0.00    -0.208 OA 
BRANCH   6   9
HETATM    9  N   UNL     1     -10.922   5.581  66.853  1.00  0.00    -0.453 N  
HETATM   10  H   UNL     1     -11.924   5.394  66.889  1.00  0.00     0.000 HD 
BRANCH   9  11
HETATM   11  C   UNL     1     -10.385   6.847  67.186  1.00  0.00    -0.269 A  
HETATM   12  C   UNL     1      -9.970   7.211  68.474  1.00  0.00    -0.163 A  
HETATM   13  C   UNL     1      -9.361   8.474  68.461  1.00  0.00    -0.138 A  
HETATM   14  N   UNL     1     -10.348   7.626  66.088  1.00  0.00     0.372 NA 
HETATM   15  N   UNL     1      -9.258   9.283  67.383  1.00  0.00    -0.126 NA 
HETATM   16  C   UNL     1      -9.777   8.818  66.248  1.00  0.00    -0.272 A  
BRANCH  12  17
HETATM   17  C   UNL     1     -10.172   6.410  69.736  1.00  0.00    -0.226 A  
HETATM   18  C   UNL     1      -9.152   5.673  70.362  1.00  0.00    -0.164 A  
HETATM   19  C   UNL     1      -9.319   5.007  71.583  1.00  0.00    -0.188 A  
HETATM   20  C   UNL     1     -11.600   5.722  71.634  1.00  0.00    -0.086 A  
HETATM   21  C   UNL     1     -11.420   6.361  70.395  1.00  0.00    -0.458 A  
HETATM   22 BR   UNL     1     -10.742   4.251  73.924  1.00  0.00    -0.338 Br 
HETATM   23  C   UNL     1     -10.539   5.061  72.232  1.00  0.00    -0.206 A  
ENDBRANCH  12  17
BRANCH  13  24
HETATM   24  O   UNL     1      -8.808   8.931  69.640  1.00  0.00    -0.135 OA 
BRANCH  24  25
HETATM   25  C   UNL     1      -9.678   9.570  70.575  1.00  0.00    -0.263 C  
BRANCH  25  26
HETATM   26  C   UNL     1     -10.679  10.393  69.764  1.00  0.00    -0.278 C  
BRANCH  26  27
HETATM   27  O   UNL     1     -11.963  10.347  70.380  1.00  0.00    -0.275 OA 
BRANCH  27  28
HETATM   28  C   UNL     1     -12.394  11.585  70.814  1.00  0.00    -0.375 A  
HETATM   29  N   UNL     1     -12.004  12.700  70.169  1.00  0.00    -0.341 NA 
HETATM   30  C   UNL     1     -12.476  13.866  70.662  1.00  0.00    -0.366 A  
HETATM   31  C   UNL     1     -13.308  13.950  71.754  1.00  0.00    -0.381 A  
HETATM   32  C   UNL     1     -13.638  12.749  72.337  1.00  0.00    -0.407 A  
HETATM   33 BR   UNL     1     -13.949  15.589  72.404  1.00  0.00    -0.610 Br 
HETATM   34  N   UNL     1     -13.195  11.554  71.889  1.00  0.00    -0.456 NA 
ENDBRANCH  27  28
ENDBRANCH  26  27
ENDBRANCH  25  26
ENDBRANCH  24  25
ENDBRANCH  13  24
ENDBRANCH   9  11
ENDBRANCH   6   9
ENDBRANCH   4   6
ENDBRANCH   3   4
ENDBRANCH   2   3
TORSDOF 11
ENDMDL
MODEL      148
REMARK 921   NORMALIZED FREE ENERGY PREDICTED BY IDOCK:   -4.42 KCAL/MOL
REMARK 922        TOTAL FREE ENERGY PREDICTED BY IDOCK:   -8.69 KCAL/MOL
REMARK 923 INTER-LIGAND FREE ENERGY PREDICTED BY IDOCK:   -6.92 KCAL/MOL
REMARK 924 INTRA-LIGAND FREE ENERGY PREDICTED BY IDOCK:   -1.77 KCAL/MOL
REMARK 927      BINDING AFFINITY PREDICTED BY RF-SCORE:    0.00 PKD
ROOT
HETATM    1  C   UNL     1     -10.518   7.161  72.752  1.00  0.00    -0.278 C  
HETATM    2  C   UNL     1      -9.070   7.626  72.747  1.00  0.00    -0.217 C  
ENDROOT
BRANCH   2   3
HETATM    3  C   UNL     1      -8.357   7.272  71.447  1.00  0.00    -0.110 C  
BRANCH   3   4
HETATM    4  N   UNL     1      -9.250   6.434  70.597  1.00  0.00    -0.158 N  
HETATM    5  H   UNL     1      -9.668   5.555  70.903  1.00  0.00     0.000 HD 
BRANCH   4   6
HETATM    6  S   UNL     1      -9.488   7.108  69.080  1.00  0.00    -0.142 S  
HETATM    7  O   UNL     1      -8.430   6.558  68.259  1.00  0.00    -0.116 OA 
HETATM    8  O   UNL     1     -10.873   6.964  68.722  1.00  0.00    -0.221 OA 
BRANCH   6   9
HETATM    9  N   UNL     1      -9.099   8.715  69.346  1.00  0.00    -0.148 N  
HETATM   10  H   UNL     1      -8.206   8.993  69.753  1.00  0.00     0.000 HD 
BRANCH   9  11
HETATM   11  C   UNL     1     -10.079   9.665  68.974  1.00  0.00    -0.186 A  
HETATM   12  C   UNL     1     -10.233  10.169  67.676  1.00  0.00    -0.246 A  
HETATM   13  C   UNL     1     -11.369  10.987  67.591  1.00  0.00    -0.281 A  
HETATM   14  N   UNL     1     -10.817  10.001  70.050  1.00  0.00    -0.280 NA 
HETATM   15  N   UNL     1     -12.169  11.326  68.626  1.00  0.00    -0.542 NA 
HETATM   16  C   UNL     1     -11.836  10.823  69.814  1.00  0.00    -0.335 A  
BRANCH  12  17
HETATM   17  C   UNL     1      -9.304   9.934  66.511  1.00  0.00    -0.206 A  
HETATM   18  C   UNL     1      -9.405   8.832  65.645  1.00  0.00    -0.219 A  
HETATM   19  C   UNL     1      -8.599   8.665  64.511  1.00  0.00    -0.097 A  
HETATM   20  C   UNL     1      -7.460  10.696  65.049  1.00  0.00     0.071 A  
HETATM   21  C   UNL     1      -8.260  10.832  66.198  1.00  0.00    -0.163 A  
HETATM   22 BR   UNL     1      -6.629   9.450  62.621  1.00  0.00    -0.097 Br 
HETATM   23  C   UNL     1      -7.648   9.618  64.200  1.00  0.00    -0.128 A  
ENDBRANCH  12  17
BRANCH  13  24
HETATM   24  O   UNL     1     -11.712  11.481  66.349  1.00  0.00    -0.422 OA 
BRANCH  24  25
HETATM   25  C   UNL     1     -12.247  12.803  66.287  1.00  0.00    -0.219 C  
BRANCH  25  26
HETATM   26  C   UNL     1     -11.064  13.758  66.125  1.00  0.00    -0.296 C  
BRANCH  26  27
HETATM   27  O   UNL     1     -11.132  14.792  67.103  1.00  0.00    -0.314 OA 
BRANCH  27  28
HETATM   28  C   UNL     1      -9.935  15.461  67.260  1.00  0.00    -0.226 A  
HETATM   29  N   UNL     1      -8.948  15.301  66.358  1.00  0.00    -0.304 NA 
HETATM   30  C   UNL     1      -7.813  15.997  66.591  1.00  0.00    -0.231 A  
HETATM   31  C   UNL     1      -7.639  16.828  67.674  1.00  0.00    -0.167 A  
HETATM   32  C   UNL     1      -8.710  16.911  68.532  1.00  0.00    -0.251 A  
HETATM   33 BR   UNL     1      -6.049  17.783  67.959  1.00  0.00    -0.166 Br 
HETATM   34  N   UNL     1      -9.867  16.239  68.351  1.00  0.00    -0.224 NA 
ENDBRANCH  27  28
ENDBRANCH  26  27
ENDBRANCH  25  26
ENDBRANCH  24  25
ENDBRANCH  13  24
ENDBRANCH   9  11
ENDBRANCH   6   9
ENDBRANCH   4   6
ENDBRANCH   3   4
ENDBRANCH   2   3
TORSDOF 11
ENDMDL
MODEL      149
REMARK 921   NORMALIZED FREE ENERGY PREDICTED BY IDOCK:   -4.38 KCAL/MOL
REMARK 922        TOTAL FREE ENERGY PREDICTED BY IDOCK:   -8.61 KCAL/MOL
REMARK 923 INTER-LIGAND FREE ENERGY PREDICTED BY IDOCK:   -7.70 KCAL/MOL
REMARK 924 INTRA-LIGAND FREE ENERGY PREDICTED BY IDOCK:   -0.91 KCAL/MOL
REMARK 927      BINDING AFFINITY PREDICTED BY RF-SCORE:    0.00 PKD
ROOT
HETATM    1  C   UNL     1     -10.135  19.933  68.638  1.00  0.00    -0.518 C  
HETATM    2  C   UNL     1      -9.891  20.390  67.209  1.00  0.00    -0.597 C  
ENDROOT
BRANCH   2   3
HETATM    3  C   UNL     1     -10.166  19.285  66.196  1.00  0.00    -0.470 C  
BRANCH   3   4
HETATM    4  N   UNL     1     -10.103  17.958  66.872  1.00  0.00    -0.332 N  
HETATM    5  H   UNL     1     -10.778  17.641  67.568  1.00  0.00     0.000 HD 
BRANCH   4   6
HETATM    6  S   UNL     1      -8.793  17.049  66.353  1.00  0.00    -0.268 S  
HETATM    7  O   UNL     1      -9.375  15.884  65.722  1.00  0.00    -0.326 OA 
HETATM    8  O   UNL     1      -7.880  17.912  65.652  1.00  0.00    -0.534 OA 
BRANCH   6   9
HETATM    9  N   UNL     1      -8.134  16.528  67.802  1.00  0.00    -0.159 N  
HETATM   10  H   UNL     1      -7.920  17.176  68.561  1.00  0.00     0.000 HD 
BRANCH   9  11
HETATM   11  C   UNL     1      -7.889  15.139  67.914  1.00  0.00    -0.135 A  
HETATM   12  C   UNL     1      -8.814  14.216  68.419  1.00  0.00    -0.187 A  
HETATM   13  C   UNL     1      -8.336  12.906  68.278  1.00  0.00    -0.157 A  
HETATM   14  N   UNL     1      -6.647  14.861  67.472  1.00  0.00    -0.270 NA 
HETATM   15  N   UNL     1      -7.117  12.563  67.805  1.00  0.00    -0.111 NA 
HETATM   16  C   UNL     1      -6.325  13.570  67.440  1.00  0.00     0.062 A  
BRANCH  12  17
HETATM   17  C   UNL     1     -10.132  14.542  69.077  1.00  0.00    -0.187 A  
HETATM   18  C   UNL     1     -11.360  13.994  68.671  1.00  0.00    -0.307 A  
HETATM   19  C   UNL     1     -12.569  14.227  69.342  1.00  0.00     0.048 A  
HETATM   20  C   UNL     1     -11.414  15.648  70.879  1.00  0.00    -0.425 A  
HETATM   21  C   UNL     1     -10.217  15.424  70.177  1.00  0.00    -0.216 A  
HETATM   22 BR   UNL     1     -14.188  15.268  71.431  1.00  0.00    -0.516 Br 
HETATM   23  C   UNL     1     -12.584  15.031  70.466  1.00  0.00    -0.369 A  
ENDBRANCH  12  17
BRANCH  13  24
HETATM   24  O   UNL     1      -9.178  11.874  68.640  1.00  0.00    -0.160 OA 
BRANCH  24  25
HETATM   25  C   UNL     1      -8.750  10.541  68.359  1.00  0.00    -0.137 C  
BRANCH  25  26
HETATM   26  C   UNL     1      -8.592   9.829  69.703  1.00  0.00    -0.191 C  
BRANCH  26  27
HETATM   27  O   UNL     1      -9.744   9.035  69.975  1.00  0.00    -0.170 OA 
BRANCH  27  28
HETATM   28  C   UNL     1      -9.430   7.781  70.457  1.00  0.00    -0.163 A  
HETATM   29  N   UNL     1      -8.168   7.320  70.370  1.00  0.00    -0.123 NA 
HETATM   30  C   UNL     1      -7.952   6.083  70.869  1.00  0.00    -0.115 A  
HETATM   31  C   UNL     1      -8.937   5.310  71.438  1.00  0.00    -0.141 A  
HETATM   32  C   UNL     1     -10.189   5.878  71.469  1.00  0.00    -0.205 A  
HETATM   33 BR   UNL     1      -8.596   3.598  72.126  1.00  0.00    -0.109 Br 
HETATM   34  N   UNL     1     -10.464   7.108  70.985  1.00  0.00    -0.215 NA 
ENDBRANCH  27  28
ENDBRANCH  26  27
ENDBRANCH  25  26
ENDBRANCH  24  25
ENDBRANCH  13  24
ENDBRANCH   9  11
ENDBRANCH   6   9
ENDBRANCH   4   6
ENDBRANCH   3   4
ENDBRANCH   2   3
TORSDOF 11
ENDMDL
MODEL      150
REMARK 921   NORMALIZED FREE ENERGY PREDICTED BY IDOCK:   -4.37 KCAL/MOL
REMARK 922        TOTAL FREE ENERGY PREDICTED BY IDOCK:   -8.59 KCAL/MOL
REMARK 923 INTER-LIGAND FREE ENERGY PREDICTED BY IDOCK:   -7.35 KCAL/MOL
REMARK 924 INTRA-LIGAND FREE ENERGY PREDICTED BY IDOCK:   -1.24 KCAL/MOL
REMARK 927      BINDING AFFINITY PREDICTED BY RF-SCORE:    0.00 PKD
ROOT
HETATM    1  C   UNL     1      -8.727   3.513  70.556  1.00  0.00    -0.127 C  
HETATM    2  C   UNL     1      -8.445   2.503  69.455  1.00  0.00    -0.097 C  
ENDROOT
BRANCH   2   3
HETATM    3  C   UNL     1      -9.049   2.924  68.121  1.00  0.00    -0.177 C  
BRANCH   3   4
HETATM    4  N   UNL     1      -9.322   4.389  68.133  1.00  0.00    -0.137 N  
HETATM    5  H   UNL     1      -9.624   4.905  68.959  1.00  0.00     0.000 HD 
BRANCH   4   6
HETATM    6  S   UNL     1      -9.075   5.088  66.629  1.00  0.00    -0.123 S  
HETATM    7  O   UNL     1      -8.091   4.245  65.984  1.00  0.00    -0.101 OA 
HETATM    8  O   UNL     1     -10.353   5.355  66.027  1.00  0.00    -0.152 OA 
BRANCH   6   9
HETATM    9  N   UNL     1      -8.291   6.513  67.031  1.00  0.00    -0.112 N  
HETATM   10  H   UNL     1      -7.324   6.523  67.356  1.00  0.00     0.000 HD 
BRANCH   9  11
HETATM   11  C   UNL     1      -9.046   7.702  66.893  1.00  0.00    -0.144 A  
HETATM   12  C   UNL     1      -9.823   8.263  67.915  1.00  0.00    -0.207 A  
HETATM   13  C   UNL     1     -10.340   9.505  67.521  1.00  0.00    -0.248 A  
HETATM   14  N   UNL     1      -8.901   8.188  65.645  1.00  0.00    -0.153 NA 
HETATM   15  N   UNL     1     -10.194  10.063  66.298  1.00  0.00    -0.235 NA 
HETATM   16  C   UNL     1      -9.490   9.359  65.413  1.00  0.00    -0.253 A  
BRANCH  12  17
HETATM   17  C   UNL     1     -10.129   7.633  69.251  1.00  0.00    -0.190 A  
HETATM   18  C   UNL     1     -11.274   6.858  69.501  1.00  0.00    -0.246 A  
HETATM   19  C   UNL     1     -11.510   6.198  70.715  1.00  0.00    -0.321 A  
HETATM   20  C   UNL     1      -9.465   7.095  71.571  1.00  0.00    -0.161 A  
HETATM   21  C   UNL     1      -9.261   7.771  70.356  1.00  0.00    -0.156 A  
HETATM   22 BR   UNL     1     -10.847   5.330  73.338  1.00  0.00    -0.373 Br 
HETATM   23  C   UNL     1     -10.585   6.296  71.738  1.00  0.00    -0.225 A  
ENDBRANCH  12  17
BRANCH  13  24
HETATM   24  O   UNL     1     -11.048  10.231  68.457  1.00  0.00    -0.248 OA 
BRANCH  24  25
HETATM   25  C   UNL     1     -10.316  11.132  69.289  1.00  0.00    -0.120 C  
BRANCH  25  26
HETATM   26  C   UNL     1     -10.017  12.374  68.449  1.00  0.00    -0.210 C  
BRANCH  26  27
HETATM   27  O   UNL     1     -11.191  13.170  68.318  1.00  0.00    -0.244 OA 
BRANCH  27  28
HETATM   28  C   UNL     1     -11.524  13.831  69.483  1.00  0.00    -0.267 A  
HETATM   29  N   UNL     1     -10.894  14.973  69.815  1.00  0.00    -0.264 NA 
HETATM   30  C   UNL     1     -11.286  15.552  70.972  1.00  0.00    -0.376 A  
HETATM   31  C   UNL     1     -12.265  15.035  71.788  1.00  0.00    -0.350 A  
HETATM   32  C   UNL     1     -12.836  13.862  71.354  1.00  0.00    -0.361 A  
HETATM   33 BR   UNL     1     -12.787  15.873  73.384  1.00  0.00    -0.741 Br 
HETATM   34  N   UNL     1     -12.485  13.239  70.208  1.00  0.00    -0.235 NA 
ENDBRANCH  27  28
ENDBRANCH  26  27
ENDBRANCH  25  26
ENDBRANCH  24  25
ENDBRANCH  13  24
ENDBRANCH   9  11
ENDBRANCH   6   9
ENDBRANCH   4   6
ENDBRANCH   3   4
ENDBRANCH   2   3
TORSDOF 11
ENDMDL
MODEL      151
REMARK 921   NORMALIZED FREE ENERGY PREDICTED BY IDOCK:   -4.36 KCAL/MOL
REMARK 922        TOTAL FREE ENERGY PREDICTED BY IDOCK:   -8.58 KCAL/MOL
REMARK 923 INTER-LIGAND FREE ENERGY PREDICTED BY IDOCK:   -6.19 KCAL/MOL
REMARK 924 INTRA-LIGAND FREE ENERGY PREDICTED BY IDOCK:   -2.39 KCAL/MOL
REMARK 927      BINDING AFFINITY PREDICTED BY RF-SCORE:    0.00 PKD
ROOT
HETATM    1  C   UNL     1     -10.807  15.516  68.529  1.00  0.00    -0.272 C  
HETATM    2  C   UNL     1     -11.522  14.185  68.360  1.00  0.00    -0.334 C  
ENDROOT
BRANCH   2   3
HETATM    3  C   UNL     1     -12.071  14.001  66.950  1.00  0.00    -0.430 C  
BRANCH   3   4
HETATM    4  N   UNL     1     -10.960  13.643  66.023  1.00  0.00    -0.286 N  
HETATM    5  H   UNL     1     -10.238  14.296  65.720  1.00  0.00     0.000 HD 
BRANCH   4   6
HETATM    6  S   UNL     1     -11.038  12.040  65.537  1.00  0.00    -0.308 S  
HETATM    7  O   UNL     1     -11.579  11.331  66.677  1.00  0.00    -0.385 OA 
HETATM    8  O   UNL     1     -11.663  11.979  64.243  1.00  0.00    -0.352 OA 
BRANCH   6   9
HETATM    9  N   UNL     1      -9.418  11.624  65.442  1.00  0.00    -0.326 N  
HETATM   10  H   UNL     1      -8.971  11.400  64.552  1.00  0.00     0.000 HD 
BRANCH   9  11
HETATM   11  C   UNL     1      -8.705  11.600  66.663  1.00  0.00    -0.187 A  
HETATM   12  C   UNL     1      -8.376  10.429  67.359  1.00  0.00    -0.121 A  
HETATM   13  C   UNL     1      -7.555  10.718  68.458  1.00  0.00    -0.104 A  
HETATM   14  N   UNL     1      -8.410  12.860  67.040  1.00  0.00    -0.150 NA 
HETATM   15  N   UNL     1      -7.192  11.957  68.861  1.00  0.00    -0.112 NA 
HETATM   16  C   UNL     1      -7.658  12.971  68.133  1.00  0.00    -0.136 A  
BRANCH  12  17
HETATM   17  C   UNL     1      -8.855   9.035  67.037  1.00  0.00    -0.131 A  
HETATM   18  C   UNL     1     -10.058   8.495  67.520  1.00  0.00    -0.282 A  
HETATM   19  C   UNL     1     -10.544   7.235  67.146  1.00  0.00    -0.416 A  
HETATM   20  C   UNL     1      -8.602   6.916  65.788  1.00  0.00    -0.139 A  
HETATM   21  C   UNL     1      -8.118   8.170  66.198  1.00  0.00    -0.109 A  
HETATM   22 BR   UNL     1     -10.523   4.808  65.667  1.00  0.00    -0.164 Br 
HETATM   23  C   UNL     1      -9.825   6.461  66.253  1.00  0.00     0.009 A  
ENDBRANCH  12  17
BRANCH  13  24
HETATM   24  O   UNL     1      -7.064   9.655  69.188  1.00  0.00    -0.059 OA 
BRANCH  24  25
HETATM   25  C   UNL     1      -7.220   9.698  70.607  1.00  0.00    -0.103 C  
BRANCH  25  26
HETATM   26  C   UNL     1      -7.279   8.249  71.094  1.00  0.00    -0.065 C  
BRANCH  26  27
HETATM   27  O   UNL     1      -8.618   7.767  71.033  1.00  0.00    -0.124 OA 
BRANCH  27  28
HETATM   28  C   UNL     1      -8.722   6.554  70.382  1.00  0.00    -0.147 A  
HETATM   29  N   UNL     1      -7.766   6.167  69.517  1.00  0.00    -0.097 NA 
HETATM   30  C   UNL     1      -7.950   4.964  68.929  1.00  0.00    -0.076 A  
HETATM   31  C   UNL     1      -9.036   4.156  69.173  1.00  0.00    -0.110 A  
HETATM   32  C   UNL     1      -9.952   4.653  70.070  1.00  0.00    -0.232 A  
HETATM   33 BR   UNL     1      -9.252   2.488  68.341  1.00  0.00    -0.263 Br 
HETATM   34  N   UNL     1      -9.821   5.847  70.688  1.00  0.00    -0.178 NA 
ENDBRANCH  27  28
ENDBRANCH  26  27
ENDBRANCH  25  26
ENDBRANCH  24  25
ENDBRANCH  13  24
ENDBRANCH   9  11
ENDBRANCH   6   9
ENDBRANCH   4   6
ENDBRANCH   3   4
ENDBRANCH   2   3
TORSDOF 11
ENDMDL
MODEL      152
REMARK 921   NORMALIZED FREE ENERGY PREDICTED BY IDOCK:   -4.35 KCAL/MOL
REMARK 922        TOTAL FREE ENERGY PREDICTED BY IDOCK:   -8.56 KCAL/MOL
REMARK 923 INTER-LIGAND FREE ENERGY PREDICTED BY IDOCK:   -7.06 KCAL/MOL
REMARK 924 INTRA-LIGAND FREE ENERGY PREDICTED BY IDOCK:   -1.50 KCAL/MOL
REMARK 927      BINDING AFFINITY PREDICTED BY RF-SCORE:    0.00 PKD
ROOT
HETATM    1  C   UNL     1      -7.448   8.381  65.765  1.00  0.00    -0.077 C  
HETATM    2  C   UNL     1      -6.532   7.246  66.194  1.00  0.00    -0.045 C  
ENDROOT
BRANCH   2   3
HETATM    3  C   UNL     1      -6.404   7.152  67.710  1.00  0.00    -0.044 C  
BRANCH   3   4
HETATM    4  N   UNL     1      -6.945   8.391  68.336  1.00  0.00    -0.068 N  
HETATM    5  H   UNL     1      -6.519   9.312  68.238  1.00  0.00     0.000 HD 
BRANCH   4   6
HETATM    6  S   UNL     1      -8.338   8.091  69.222  1.00  0.00    -0.136 S  
HETATM    7  O   UNL     1      -9.137   7.229  68.379  1.00  0.00    -0.136 OA 
HETATM    8  O   UNL     1      -7.963   7.706  70.557  1.00  0.00    -0.097 OA 
BRANCH   6   9
HETATM    9  N   UNL     1      -9.084   9.590  69.218  1.00  0.00    -0.152 N  
HETATM   10  H   UNL     1     -10.093   9.690  69.335  1.00  0.00     0.000 HD 
BRANCH   9  11
HETATM   11  C   UNL     1      -8.238  10.711  69.042  1.00  0.00    -0.151 A  
HETATM   12  C   UNL     1      -8.458  11.722  68.099  1.00  0.00    -0.158 A  
HETATM   13  C   UNL     1      -7.528  12.760  68.256  1.00  0.00    -0.124 A  
HETATM   14  N   UNL     1      -7.208  10.639  69.908  1.00  0.00    -0.141 NA 
HETATM   15  N   UNL     1      -6.499  12.763  69.133  1.00  0.00    -0.104 NA 
HETATM   16  C   UNL     1      -6.384  11.685  69.907  1.00  0.00    -0.124 A  
BRANCH  12  17
HETATM   17  C   UNL     1      -9.506  11.718  67.013  1.00  0.00    -0.191 A  
HETATM   18  C   UNL     1     -10.828  12.153  67.206  1.00  0.00    -0.286 A  
HETATM   19  C   UNL     1     -11.772  12.234  66.173  1.00  0.00    -0.440 A  
HETATM   20  C   UNL     1     -10.140  11.383  64.647  1.00  0.00    -0.330 A  
HETATM   21  C   UNL     1      -9.216  11.282  65.701  1.00  0.00    -0.231 A  
HETATM   22 BR   UNL     1     -12.648  12.078  63.475  1.00  0.00    -0.485 Br 
HETATM   23  C   UNL     1     -11.412  11.876  64.887  1.00  0.00    -0.253 A  
ENDBRANCH  12  17
BRANCH  13  24
HETATM   24  O   UNL     1      -7.676  13.879  67.462  1.00  0.00    -0.162 OA 
BRANCH  24  25
HETATM   25  C   UNL     1      -7.856  15.136  68.116  1.00  0.00    -0.125 C  
BRANCH  25  26
HETATM   26  C   UNL     1      -9.349  15.461  68.056  1.00  0.00    -0.196 C  
BRANCH  26  27
HETATM   27  O   UNL     1      -9.716  16.277  69.165  1.00  0.00    -0.250 OA 
BRANCH  27  28
HETATM   28  C   UNL     1     -10.735  15.729  69.920  1.00  0.00    -0.328 A  
HETATM   29  N   UNL     1     -11.328  16.457  70.883  1.00  0.00    -0.305 NA 
HETATM   30  C   UNL     1     -12.316  15.841  71.569  1.00  0.00    -0.455 A  
HETATM   31  C   UNL     1     -12.718  14.548  71.327  1.00  0.00    -0.342 A  
HETATM   32  C   UNL     1     -12.039  13.897  70.324  1.00  0.00    -0.353 A  
HETATM   33 BR   UNL     1     -14.100  13.729  72.298  1.00  0.00    -0.542 Br 
HETATM   34  N   UNL     1     -11.044  14.462  69.606  1.00  0.00    -0.234 NA 
ENDBRANCH  27  28
ENDBRANCH  26  27
ENDBRANCH  25  26
ENDBRANCH  24  25
ENDBRANCH  13  24
ENDBRANCH   9  11
ENDBRANCH   6   9
ENDBRANCH   4   6
ENDBRANCH   3   4
ENDBRANCH   2   3
TORSDOF 11
ENDMDL
MODEL      153
REMARK 921   NORMALIZED FREE ENERGY PREDICTED BY IDOCK:   -4.35 KCAL/MOL
REMARK 922        TOTAL FREE ENERGY PREDICTED BY IDOCK:   -8.56 KCAL/MOL
REMARK 923 INTER-LIGAND FREE ENERGY PREDICTED BY IDOCK:   -7.17 KCAL/MOL
REMARK 924 INTRA-LIGAND FREE ENERGY PREDICTED BY IDOCK:   -1.40 KCAL/MOL
REMARK 927      BINDING AFFINITY PREDICTED BY RF-SCORE:    0.00 PKD
ROOT
HETATM    1  C   UNL     1     -10.582  16.995  69.034  1.00  0.00    -0.314 C  
HETATM    2  C   UNL     1     -11.751  16.030  68.912  1.00  0.00    -0.322 C  
ENDROOT
BRANCH   2   3
HETATM    3  C   UNL     1     -11.324  14.678  68.352  1.00  0.00    -0.292 C  
BRANCH   3   4
HETATM    4  N   UNL     1     -10.014  14.282  68.942  1.00  0.00    -0.349 N  
HETATM    5  H   UNL     1      -9.779  14.384  69.929  1.00  0.00     0.000 HD 
BRANCH   4   6
HETATM    6  S   UNL     1      -8.971  13.650  67.790  1.00  0.00    -0.208 S  
HETATM    7  O   UNL     1      -9.810  12.836  66.936  1.00  0.00    -0.226 OA 
HETATM    8  O   UNL     1      -8.164  14.717  67.262  1.00  0.00    -0.190 OA 
BRANCH   6   9
HETATM    9  N   UNL     1      -8.047  12.590  68.700  1.00  0.00    -0.316 N  
HETATM   10  H   UNL     1      -7.686  12.844  69.620  1.00  0.00     0.000 HD 
BRANCH   9  11
HETATM   11  C   UNL     1      -7.794  11.324  68.121  1.00  0.00    -0.127 A  
HETATM   12  C   UNL     1      -8.564  10.180  68.365  1.00  0.00    -0.119 A  
HETATM   13  C   UNL     1      -8.151   9.119  67.547  1.00  0.00    -0.104 A  
HETATM   14  N   UNL     1      -6.712  11.400  67.321  1.00  0.00    -0.100 NA 
HETATM   15  N   UNL     1      -7.100   9.148  66.697  1.00  0.00    -0.081 NA 
HETATM   16  C   UNL     1      -6.421  10.293  66.643  1.00  0.00    -0.076 A  
BRANCH  12  17
HETATM   17  C   UNL     1      -9.663  10.046  69.390  1.00  0.00    -0.240 A  
HETATM   18  C   UNL     1     -10.963  10.545  69.207  1.00  0.00    -0.291 A  
HETATM   19  C   UNL     1     -12.005  10.338  70.121  1.00  0.00    -0.313 A  
HETATM   20  C   UNL     1     -10.496   9.139  71.535  1.00  0.00    -0.422 A  
HETATM   21  C   UNL     1      -9.457   9.381  70.620  1.00  0.00    -0.325 A  
HETATM   22 BR   UNL     1     -13.195   9.239  72.455  1.00  0.00    -0.456 Br 
HETATM   23  C   UNL     1     -11.773   9.606  71.271  1.00  0.00    -0.382 A  
ENDBRANCH  12  17
BRANCH  13  24
HETATM   24  O   UNL     1      -8.879   7.948  67.600  1.00  0.00    -0.128 OA 
BRANCH  24  25
HETATM   25  C   UNL     1      -8.314   6.848  68.314  1.00  0.00    -0.123 C  
BRANCH  25  26
HETATM   26  C   UNL     1      -8.762   5.573  67.599  1.00  0.00    -0.107 C  
BRANCH  26  27
HETATM   27  O   UNL     1     -10.037   5.162  68.083  1.00  0.00    -0.160 OA 
BRANCH  27  28
HETATM   28  C   UNL     1     -10.027   4.861  69.430  1.00  0.00    -0.212 A  
HETATM   29  N   UNL     1     -10.527   5.737  70.322  1.00  0.00    -0.256 NA 
HETATM   30  C   UNL     1     -10.477   5.357  71.618  1.00  0.00    -0.227 A  
HETATM   31  C   UNL     1      -9.955   4.156  72.040  1.00  0.00    -0.180 A  
HETATM   32  C   UNL     1      -9.469   3.342  71.044  1.00  0.00    -0.157 A  
HETATM   33 BR   UNL     1      -9.911   3.661  73.849  1.00  0.00    -0.185 Br 
HETATM   34  N   UNL     1      -9.491   3.669  69.733  1.00  0.00    -0.182 NA 
ENDBRANCH  27  28
ENDBRANCH  26  27
ENDBRANCH  25  26
ENDBRANCH  24  25
ENDBRANCH  13  24
ENDBRANCH   9  11
ENDBRANCH   6   9
ENDBRANCH   4   6
ENDBRANCH   3   4
ENDBRANCH   2   3
TORSDOF 11
ENDMDL
MODEL      154
REMARK 921   NORMALIZED FREE ENERGY PREDICTED BY IDOCK:   -4.34 KCAL/MOL
REMARK 922        TOTAL FREE ENERGY PREDICTED BY IDOCK:   -8.55 KCAL/MOL
REMARK 923 INTER-LIGAND FREE ENERGY PREDICTED BY IDOCK:   -6.52 KCAL/MOL
REMARK 924 INTRA-LIGAND FREE ENERGY PREDICTED BY IDOCK:   -2.03 KCAL/MOL
REMARK 927      BINDING AFFINITY PREDICTED BY RF-SCORE:    0.00 PKD
ROOT
HETATM    1  C   UNL     1     -10.534   5.263  66.491  1.00  0.00    -0.354 C  
HETATM    2  C   UNL     1     -10.122   6.675  66.874  1.00  0.00    -0.258 C  
ENDROOT
BRANCH   2   3
HETATM    3  C   UNL     1      -9.140   7.278  65.877  1.00  0.00    -0.021 C  
BRANCH   3   4
HETATM    4  N   UNL     1      -8.584   8.547  66.426  1.00  0.00    -0.119 N  
HETATM    5  H   UNL     1      -9.095   9.170  67.051  1.00  0.00     0.000 HD 
BRANCH   4   6
HETATM    6  S   UNL     1      -7.018   8.830  65.896  1.00  0.00    -0.077 S  
HETATM    7  O   UNL     1      -6.658   7.644  65.149  1.00  0.00    -0.044 OA 
HETATM    8  O   UNL     1      -6.959  10.141  65.306  1.00  0.00    -0.126 OA 
BRANCH   6   9
HETATM    9  N   UNL     1      -6.149   8.775  67.326  1.00  0.00    -0.054 N  
HETATM   10  H   UNL     1      -5.146   8.961  67.354  1.00  0.00     0.000 HD 
BRANCH   9  11
HETATM   11  C   UNL     1      -6.883   8.457  68.493  1.00  0.00    -0.064 A  
HETATM   12  C   UNL     1      -7.497   9.407  69.319  1.00  0.00    -0.076 A  
HETATM   13  C   UNL     1      -8.259   8.781  70.315  1.00  0.00    -0.119 A  
HETATM   14  N   UNL     1      -6.887   7.122  68.675  1.00  0.00    -0.073 NA 
HETATM   15  N   UNL     1      -8.335   7.447  70.522  1.00  0.00    -0.130 NA 
HETATM   16  C   UNL     1      -7.624   6.684  69.693  1.00  0.00    -0.098 A  
BRANCH  12  17
HETATM   17  C   UNL     1      -7.348  10.905  69.221  1.00  0.00    -0.125 A  
HETATM   18  C   UNL     1      -6.343  11.632  69.882  1.00  0.00    -0.124 A  
HETATM   19  C   UNL     1      -6.152  13.010  69.715  1.00  0.00    -0.123 A  
HETATM   20  C   UNL     1      -8.022  13.067  68.227  1.00  0.00    -0.151 A  
HETATM   21  C   UNL     1      -8.216  11.689  68.429  1.00  0.00    -0.155 A  
HETATM   22 BR   UNL     1      -6.661  15.554  68.555  1.00  0.00    -0.114 Br 
HETATM   23  C   UNL     1      -6.977  13.718  68.861  1.00  0.00    -0.111 A  
ENDBRANCH  12  17
BRANCH  13  24
HETATM   24  O   UNL     1      -9.007   9.585  71.151  1.00  0.00    -0.249 OA 
BRANCH  24  25
HETATM   25  C   UNL     1     -10.411   9.335  71.230  1.00  0.00    -0.327 C  
BRANCH  25  26
HETATM   26  C   UNL     1     -11.053  10.002  70.014  1.00  0.00    -0.295 C  
BRANCH  26  27
HETATM   27  O   UNL     1     -12.427  10.275  70.275  1.00  0.00    -0.252 OA 
BRANCH  27  28
HETATM   28  C   UNL     1     -12.636  11.541  70.783  1.00  0.00    -0.298 A  
HETATM   29  N   UNL     1     -12.135  12.616  70.145  1.00  0.00    -0.334 NA 
HETATM   30  C   UNL     1     -12.391  13.815  70.714  1.00  0.00    -0.379 A  
HETATM   31  C   UNL     1     -13.114  13.969  71.873  1.00  0.00    -0.386 A  
HETATM   32  C   UNL     1     -13.572  12.804  72.442  1.00  0.00    -0.407 A  
HETATM   33 BR   UNL     1     -13.453  15.653  72.628  1.00  0.00    -0.673 Br 
HETATM   34  N   UNL     1     -13.347  11.578  71.920  1.00  0.00    -0.404 NA 
ENDBRANCH  27  28
ENDBRANCH  26  27
ENDBRANCH  25  26
ENDBRANCH  24  25
ENDBRANCH  13  24
ENDBRANCH   9  11
ENDBRANCH   6   9
ENDBRANCH   4   6
ENDBRANCH   3   4
ENDBRANCH   2   3
TORSDOF 11
ENDMDL
MODEL      155
REMARK 921   NORMALIZED FREE ENERGY PREDICTED BY IDOCK:   -4.33 KCAL/MOL
REMARK 922        TOTAL FREE ENERGY PREDICTED BY IDOCK:   -8.53 KCAL/MOL
REMARK 923 INTER-LIGAND FREE ENERGY PREDICTED BY IDOCK:   -6.74 KCAL/MOL
REMARK 924 INTRA-LIGAND FREE ENERGY PREDICTED BY IDOCK:   -1.80 KCAL/MOL
REMARK 927      BINDING AFFINITY PREDICTED BY RF-SCORE:    0.00 PKD
ROOT
HETATM    1  C   UNL     1     -11.654  15.424  64.485  1.00  0.00    -0.296 C  
HETATM    2  C   UNL     1     -11.594  14.087  65.207  1.00  0.00    -0.339 C  
ENDROOT
BRANCH   2   3
HETATM    3  C   UNL     1     -10.307  13.921  66.005  1.00  0.00    -0.305 C  
BRANCH   3   4
HETATM    4  N   UNL     1      -9.480  12.837  65.404  1.00  0.00    -0.456 N  
HETATM    5  H   UNL     1      -8.955  12.936  64.535  1.00  0.00     0.000 HD 
BRANCH   4   6
HETATM    6  S   UNL     1      -9.515  11.435  66.324  1.00  0.00    -0.215 S  
HETATM    7  O   UNL     1     -10.872  10.947  66.206  1.00  0.00    -0.219 OA 
HETATM    8  O   UNL     1      -8.385  10.620  65.968  1.00  0.00    -0.150 OA 
BRANCH   6   9
HETATM    9  N   UNL     1      -9.357  12.034  67.880  1.00  0.00    -0.183 N  
HETATM   10  H   UNL     1      -8.624  12.699  68.129  1.00  0.00     0.000 HD 
BRANCH   9  11
HETATM   11  C   UNL     1     -10.296  11.566  68.829  1.00  0.00    -0.196 A  
HETATM   12  C   UNL     1     -10.203  10.331  69.484  1.00  0.00    -0.261 A  
HETATM   13  C   UNL     1     -11.202  10.210  70.461  1.00  0.00    -0.336 A  
HETATM   14  N   UNL     1     -11.273  12.481  68.989  1.00  0.00    -0.264 NA 
HETATM   15  N   UNL     1     -12.183  11.111  70.694  1.00  0.00    -0.370 NA 
HETATM   16  C   UNL     1     -12.175  12.199  69.926  1.00  0.00    -0.170 A  
BRANCH  12  17
HETATM   17  C   UNL     1      -9.214   9.233  69.182  1.00  0.00    -0.149 A  
HETATM   18  C   UNL     1      -9.504   8.130  68.360  1.00  0.00    -0.146 A  
HETATM   19  C   UNL     1      -8.555   7.161  68.007  1.00  0.00    -0.128 A  
HETATM   20  C   UNL     1      -6.929   8.302  69.337  1.00  0.00    -0.050 A  
HETATM   21  C   UNL     1      -7.901   9.249  69.702  1.00  0.00    -0.090 A  
HETATM   22 BR   UNL     1      -5.953   6.023  67.922  1.00  0.00    -0.017 Br 
HETATM   23  C   UNL     1      -7.258   7.269  68.475  1.00  0.00    -0.094 A  
ENDBRANCH  12  17
BRANCH  13  24
HETATM   24  O   UNL     1     -11.182   9.087  71.262  1.00  0.00    -0.265 OA 
BRANCH  24  25
HETATM   25  C   UNL     1     -12.409   8.378  71.438  1.00  0.00    -0.299 C  
BRANCH  25  26
HETATM   26  C   UNL     1     -12.166   6.941  70.977  1.00  0.00    -0.377 C  
BRANCH  26  27
HETATM   27  O   UNL     1     -11.935   6.098  72.103  1.00  0.00    -0.331 OA 
BRANCH  27  28
HETATM   28  C   UNL     1     -10.609   6.063  72.484  1.00  0.00    -0.216 A  
HETATM   29  N   UNL     1     -10.282   6.021  73.789  1.00  0.00    -0.225 NA 
HETATM   30  C   UNL     1      -8.960   5.988  74.068  1.00  0.00    -0.127 A  
HETATM   31  C   UNL     1      -7.978   5.995  73.105  1.00  0.00    -0.108 A  
HETATM   32  C   UNL     1      -8.427   6.045  71.806  1.00  0.00    -0.127 A  
HETATM   33 BR   UNL     1      -6.152   5.940  73.534  1.00  0.00    -0.063 Br 
HETATM   34  N   UNL     1      -9.733   6.081  71.467  1.00  0.00    -0.163 NA 
ENDBRANCH  27  28
ENDBRANCH  26  27
ENDBRANCH  25  26
ENDBRANCH  24  25
ENDBRANCH  13  24
ENDBRANCH   9  11
ENDBRANCH   6   9
ENDBRANCH   4   6
ENDBRANCH   3   4
ENDBRANCH   2   3
TORSDOF 11
ENDMDL
MODEL      156
REMARK 921   NORMALIZED FREE ENERGY PREDICTED BY IDOCK:   -4.31 KCAL/MOL
REMARK 922        TOTAL FREE ENERGY PREDICTED BY IDOCK:   -8.50 KCAL/MOL
REMARK 923 INTER-LIGAND FREE ENERGY PREDICTED BY IDOCK:   -7.88 KCAL/MOL
REMARK 924 INTRA-LIGAND FREE ENERGY PREDICTED BY IDOCK:   -0.62 KCAL/MOL
REMARK 927      BINDING AFFINITY PREDICTED BY RF-SCORE:    0.00 PKD
ROOT
HETATM    1  C   UNL     1      -5.566  17.214  69.881  1.00  0.00    -0.225 C  
HETATM    2  C   UNL     1      -5.470  15.759  70.309  1.00  0.00    -0.156 C  
ENDROOT
BRANCH   2   3
HETATM    3  C   UNL     1      -6.709  14.961  69.920  1.00  0.00    -0.178 C  
BRANCH   3   4
HETATM    4  N   UNL     1      -7.434  15.664  68.825  1.00  0.00    -0.141 N  
HETATM    5  H   UNL     1      -8.026  16.483  68.966  1.00  0.00     0.000 HD 
BRANCH   4   6
HETATM    6  S   UNL     1      -7.163  14.951  67.331  1.00  0.00    -0.123 S  
HETATM    7  O   UNL     1      -6.091  15.723  66.739  1.00  0.00    -0.185 OA 
HETATM    8  O   UNL     1      -7.058  13.528  67.511  1.00  0.00    -0.161 OA 
BRANCH   6   9
HETATM    9  N   UNL     1      -8.557  15.350  66.494  1.00  0.00    -0.350 N  
HETATM   10  H   UNL     1      -8.527  15.829  65.594  1.00  0.00     0.000 HD 
BRANCH   9  11
HETATM   11  C   UNL     1      -9.780  14.986  67.106  1.00  0.00    -0.226 A  
HETATM   12  C   UNL     1     -10.464  13.791  66.846  1.00  0.00    -0.272 A  
HETATM   13  C   UNL     1     -11.567  13.654  67.700  1.00  0.00    -0.346 A  
HETATM   14  N   UNL     1     -10.170  15.958  67.952  1.00  0.00    -0.246 NA 
HETATM   15  N   UNL     1     -11.983  14.576  68.597  1.00  0.00    -0.312 NA 
HETATM   16  C   UNL     1     -11.266  15.696  68.662  1.00  0.00    -0.338 A  
BRANCH  12  17
HETATM   17  C   UNL     1     -10.126  12.784  65.774  1.00  0.00    -0.296 A  
HETATM   18  C   UNL     1     -10.561  12.891  64.443  1.00  0.00    -0.418 A  
HETATM   19  C   UNL     1     -10.170  12.004  63.430  1.00  0.00    -0.457 A  
HETATM   20  C   UNL     1      -8.896  10.771  65.034  1.00  0.00    -0.190 A  
HETATM   21  C   UNL     1      -9.321  11.655  66.041  1.00  0.00    -0.241 A  
HETATM   22 BR   UNL     1      -8.702   9.826  62.348  1.00  0.00    -0.265 Br 
HETATM   23  C   UNL     1      -9.311  10.962  63.726  1.00  0.00    -0.248 A  
ENDBRANCH  12  17
BRANCH  13  24
HETATM   24  O   UNL     1     -12.287  12.478  67.634  1.00  0.00    -0.295 OA 
BRANCH  24  25
HETATM   25  C   UNL     1     -11.995  11.468  68.601  1.00  0.00    -0.246 C  
BRANCH  25  26
HETATM   26  C   UNL     1     -10.702  11.882  69.304  1.00  0.00    -0.045 C  
BRANCH  26  27
HETATM   27  O   UNL     1      -9.708  10.876  69.134  1.00  0.00    -0.193 OA 
BRANCH  27  28
HETATM   28  C   UNL     1      -9.884   9.799  69.980  1.00  0.00    -0.251 A  
HETATM   29  N   UNL     1      -9.121   8.699  69.841  1.00  0.00    -0.148 NA 
HETATM   30  C   UNL     1      -9.362   7.697  70.715  1.00  0.00    -0.162 A  
HETATM   31  C   UNL     1     -10.320   7.759  71.700  1.00  0.00    -0.197 A  
HETATM   32  C   UNL     1     -11.043   8.927  71.746  1.00  0.00    -0.363 A  
HETATM   33 BR   UNL     1     -10.619   6.347  72.899  1.00  0.00    -0.280 Br 
HETATM   34  N   UNL     1     -10.848   9.962  70.899  1.00  0.00    -0.321 NA 
ENDBRANCH  27  28
ENDBRANCH  26  27
ENDBRANCH  25  26
ENDBRANCH  24  25
ENDBRANCH  13  24
ENDBRANCH   9  11
ENDBRANCH   6   9
ENDBRANCH   4   6
ENDBRANCH   3   4
ENDBRANCH   2   3
TORSDOF 11
ENDMDL
MODEL      157
REMARK 921   NORMALIZED FREE ENERGY PREDICTED BY IDOCK:   -4.31 KCAL/MOL
REMARK 922        TOTAL FREE ENERGY PREDICTED BY IDOCK:   -8.49 KCAL/MOL
REMARK 923 INTER-LIGAND FREE ENERGY PREDICTED BY IDOCK:   -6.71 KCAL/MOL
REMARK 924 INTRA-LIGAND FREE ENERGY PREDICTED BY IDOCK:   -1.78 KCAL/MOL
REMARK 927      BINDING AFFINITY PREDICTED BY RF-SCORE:    0.00 PKD
ROOT
HETATM    1  C   UNL     1     -11.843   6.532  71.843  1.00  0.00    -0.381 C  
HETATM    2  C   UNL     1     -12.098   7.997  72.161  1.00  0.00    -0.391 C  
ENDROOT
BRANCH   2   3
HETATM    3  C   UNL     1     -10.869   8.863  71.911  1.00  0.00    -0.363 C  
BRANCH   3   4
HETATM    4  N   UNL     1      -9.755   8.015  71.400  1.00  0.00    -0.160 N  
HETATM    5  H   UNL     1      -9.272   7.312  71.958  1.00  0.00     0.000 HD 
BRANCH   4   6
HETATM    6  S   UNL     1      -9.388   8.356  69.799  1.00  0.00    -0.158 S  
HETATM    7  O   UNL     1      -8.042   7.857  69.612  1.00  0.00    -0.113 OA 
HETATM    8  O   UNL     1     -10.479   7.917  68.971  1.00  0.00    -0.214 OA 
BRANCH   6   9
HETATM    9  N   UNL     1      -9.279  10.027  69.814  1.00  0.00    -0.310 N  
HETATM   10  H   UNL     1      -8.586  10.517  70.380  1.00  0.00     0.000 HD 
BRANCH   9  11
HETATM   11  C   UNL     1     -10.202  10.722  68.996  1.00  0.00    -0.213 A  
HETATM   12  C   UNL     1     -10.055  10.891  67.613  1.00  0.00    -0.206 A  
HETATM   13  C   UNL     1     -11.192  11.501  67.064  1.00  0.00    -0.300 A  
HETATM   14  N   UNL     1     -11.216  11.186  69.752  1.00  0.00    -0.260 NA 
HETATM   15  N   UNL     1     -12.256  11.950  67.765  1.00  0.00    -0.400 NA 
HETATM   16  C   UNL     1     -12.202  11.783  69.086  1.00  0.00    -0.108 A  
BRANCH  12  17
HETATM   17  C   UNL     1      -8.841  10.529  66.794  1.00  0.00    -0.139 A  
HETATM   18  C   UNL     1      -8.752   9.369  66.007  1.00  0.00    -0.171 A  
HETATM   19  C   UNL     1      -7.660   9.083  65.175  1.00  0.00    -0.098 A  
HETATM   20  C   UNL     1      -6.607  11.103  65.901  1.00  0.00     0.098 A  
HETATM   21  C   UNL     1      -7.698  11.359  66.750  1.00  0.00    -0.150 A  
HETATM   22 BR   UNL     1      -5.178   9.640  63.910  1.00  0.00    -0.068 Br 
HETATM   23  C   UNL     1      -6.603   9.971  65.103  1.00  0.00    -0.115 A  
ENDBRANCH  12  17
BRANCH  13  24
HETATM   24  O   UNL     1     -11.241  11.647  65.692  1.00  0.00    -0.292 OA 
BRANCH  24  25
HETATM   25  C   UNL     1     -11.555  12.940  65.175  1.00  0.00    -0.332 C  
BRANCH  25  26
HETATM   26  C   UNL     1     -10.260  13.753  65.185  1.00  0.00    -0.345 C  
BRANCH  26  27
HETATM   27  O   UNL     1     -10.530  15.098  65.569  1.00  0.00    -0.321 OA 
BRANCH  27  28
HETATM   28  C   UNL     1     -10.717  15.241  66.929  1.00  0.00    -0.313 A  
HETATM   29  N   UNL     1      -9.945  14.555  67.792  1.00  0.00    -0.223 NA 
HETATM   30  C   UNL     1     -10.197  14.758  69.104  1.00  0.00    -0.220 A  
HETATM   31  C   UNL     1     -11.176  15.606  69.568  1.00  0.00    -0.313 A  
HETATM   32  C   UNL     1     -11.907  16.250  68.598  1.00  0.00     0.024 A  
HETATM   33 BR   UNL     1     -11.491  15.867  71.400  1.00  0.00    -0.458 Br 
HETATM   34  N   UNL     1     -11.700  16.086  67.273  1.00  0.00     0.302 NA 
ENDBRANCH  27  28
ENDBRANCH  26  27
ENDBRANCH  25  26
ENDBRANCH  24  25
ENDBRANCH  13  24
ENDBRANCH   9  11
ENDBRANCH   6   9
ENDBRANCH   4   6
ENDBRANCH   3   4
ENDBRANCH   2   3
TORSDOF 11
ENDMDL
MODEL      158
REMARK 921   NORMALIZED FREE ENERGY PREDICTED BY IDOCK:   -4.31 KCAL/MOL
REMARK 922        TOTAL FREE ENERGY PREDICTED BY IDOCK:   -8.49 KCAL/MOL
REMARK 923 INTER-LIGAND FREE ENERGY PREDICTED BY IDOCK:   -6.11 KCAL/MOL
REMARK 924 INTRA-LIGAND FREE ENERGY PREDICTED BY IDOCK:   -2.38 KCAL/MOL
REMARK 927      BINDING AFFINITY PREDICTED BY RF-SCORE:    0.00 PKD
ROOT
HETATM    1  C   UNL     1      -9.760   3.997  66.667  1.00  0.00    -0.215 C  
HETATM    2  C   UNL     1      -8.401   4.285  66.048  1.00  0.00    -0.109 C  
ENDROOT
BRANCH   2   3
HETATM    3  C   UNL     1      -8.402   5.575  65.236  1.00  0.00    -0.144 C  
BRANCH   3   4
HETATM    4  N   UNL     1      -7.156   6.344  65.516  1.00  0.00    -0.063 N  
HETATM    5  H   UNL     1      -6.224   5.932  65.536  1.00  0.00     0.000 HD 
BRANCH   4   6
HETATM    6  S   UNL     1      -7.469   7.968  65.795  1.00  0.00    -0.083 S  
HETATM    7  O   UNL     1      -6.678   8.674  64.811  1.00  0.00    -0.068 OA 
HETATM    8  O   UNL     1      -8.892   8.155  65.895  1.00  0.00    -0.155 OA 
BRANCH   6   9
HETATM    9  N   UNL     1      -6.725   8.219  67.275  1.00  0.00    -0.062 N  
HETATM   10  H   UNL     1      -5.748   8.505  67.344  1.00  0.00     0.000 HD 
BRANCH   9  11
HETATM   11  C   UNL     1      -7.527   8.011  68.422  1.00  0.00    -0.103 A  
HETATM   12  C   UNL     1      -7.976   9.037  69.264  1.00  0.00    -0.096 A  
HETATM   13  C   UNL     1      -8.858   8.535  70.232  1.00  0.00    -0.148 A  
HETATM   14  N   UNL     1      -7.775   6.694  68.568  1.00  0.00    -0.104 NA 
HETATM   15  N   UNL     1      -9.176   7.232  70.402  1.00  0.00    -0.158 NA 
HETATM   16  C   UNL     1      -8.598   6.373  69.564  1.00  0.00    -0.133 A  
BRANCH  12  17
HETATM   17  C   UNL     1      -7.558  10.485  69.207  1.00  0.00    -0.134 A  
HETATM   18  C   UNL     1      -8.202  11.450  68.415  1.00  0.00    -0.151 A  
HETATM   19  C   UNL     1      -7.870  12.811  68.435  1.00  0.00    -0.132 A  
HETATM   20  C   UNL     1      -6.151  12.345  70.030  1.00  0.00    -0.123 A  
HETATM   21  C   UNL     1      -6.480  10.979  69.975  1.00  0.00    -0.144 A  
HETATM   22 BR   UNL     1      -6.478  15.103  69.375  1.00  0.00    -0.148 Br 
HETATM   23  C   UNL     1      -6.862  13.259  69.269  1.00  0.00    -0.031 A  
ENDBRANCH  12  17
BRANCH  13  24
HETATM   24  O   UNL     1      -9.464   9.441  71.077  1.00  0.00    -0.254 OA 
BRANCH  24  25
HETATM   25  C   UNL     1     -10.707   9.064  71.671  1.00  0.00    -0.371 C  
BRANCH  25  26
HETATM   26  C   UNL     1     -11.759  10.058  71.177  1.00  0.00    -0.387 C  
BRANCH  26  27
HETATM   27  O   UNL     1     -11.981   9.881  69.781  1.00  0.00    -0.051 OA 
BRANCH  27  28
HETATM   28  C   UNL     1     -11.821  11.047  69.060  1.00  0.00    -0.329 A  
HETATM   29  N   UNL     1     -11.830  12.237  69.690  1.00  0.00    -0.328 NA 
HETATM   30  C   UNL     1     -11.664  13.325  68.905  1.00  0.00    -0.327 A  
HETATM   31  C   UNL     1     -11.495  13.260  67.542  1.00  0.00    -0.322 A  
HETATM   32  C   UNL     1     -11.508  11.995  67.005  1.00  0.00    -0.338 A  
HETATM   33 BR   UNL     1     -11.261  14.795  66.487  1.00  0.00    -0.332 Br 
HETATM   34  N   UNL     1     -11.670  10.873  67.739  1.00  0.00    -0.565 NA 
ENDBRANCH  27  28
ENDBRANCH  26  27
ENDBRANCH  25  26
ENDBRANCH  24  25
ENDBRANCH  13  24
ENDBRANCH   9  11
ENDBRANCH   6   9
ENDBRANCH   4   6
ENDBRANCH   3   4
ENDBRANCH   2   3
TORSDOF 11
ENDMDL
MODEL      159
REMARK 921   NORMALIZED FREE ENERGY PREDICTED BY IDOCK:   -4.29 KCAL/MOL
REMARK 922        TOTAL FREE ENERGY PREDICTED BY IDOCK:   -8.46 KCAL/MOL
REMARK 923 INTER-LIGAND FREE ENERGY PREDICTED BY IDOCK:   -6.79 KCAL/MOL
REMARK 924 INTRA-LIGAND FREE ENERGY PREDICTED BY IDOCK:   -1.67 KCAL/MOL
REMARK 927      BINDING AFFINITY PREDICTED BY RF-SCORE:    0.00 PKD
ROOT
HETATM    1  C   UNL     1     -12.344  12.656  64.059  1.00  0.00    -0.528 C  
HETATM    2  C   UNL     1     -11.955  13.966  64.725  1.00  0.00    -0.426 C  
ENDROOT
BRANCH   2   3
HETATM    3  C   UNL     1     -12.551  14.102  66.121  1.00  0.00    -0.321 C  
BRANCH   3   4
HETATM    4  N   UNL     1     -11.614  14.863  66.994  1.00  0.00    -0.343 N  
HETATM    5  H   UNL     1     -11.265  15.797  66.779  1.00  0.00     0.000 HD 
BRANCH   4   6
HETATM    6  S   UNL     1     -11.200  14.003  68.373  1.00  0.00    -0.283 S  
HETATM    7  O   UNL     1      -9.760  13.871  68.311  1.00  0.00    -0.213 OA 
HETATM    8  O   UNL     1     -11.856  14.601  69.505  1.00  0.00    -0.295 OA 
BRANCH   6   9
HETATM    9  N   UNL     1     -11.833  12.488  68.043  1.00  0.00    -0.351 N  
HETATM   10  H   UNL     1     -12.383  12.305  67.203  1.00  0.00     0.000 HD 
BRANCH   9  11
HETATM   11  C   UNL     1     -11.564  11.476  68.995  1.00  0.00    -0.318 A  
HETATM   12  C   UNL     1     -10.566  10.504  68.847  1.00  0.00    -0.243 A  
HETATM   13  C   UNL     1     -10.452   9.729  70.010  1.00  0.00    -0.270 A  
HETATM   14  N   UNL     1     -12.409  11.598  70.037  1.00  0.00    -0.226 NA 
HETATM   15  N   UNL     1     -11.244   9.831  71.101  1.00  0.00    -0.370 NA 
HETATM   16  C   UNL     1     -12.199  10.758  71.048  1.00  0.00    -0.380 A  
BRANCH  12  17
HETATM   17  C   UNL     1      -9.739  10.254  67.611  1.00  0.00    -0.189 A  
HETATM   18  C   UNL     1     -10.189   9.501  66.513  1.00  0.00    -0.307 A  
HETATM   19  C   UNL     1      -9.454   9.349  65.329  1.00  0.00    -0.296 A  
HETATM   20  C   UNL     1      -7.698  10.667  66.276  1.00  0.00    -0.143 A  
HETATM   21  C   UNL     1      -8.438  10.785  67.466  1.00  0.00    -0.119 A  
HETATM   22 BR   UNL     1      -7.272   9.842  63.577  1.00  0.00    -0.127 Br 
HETATM   23  C   UNL     1      -8.221   9.961  65.205  1.00  0.00    -0.144 A  
ENDBRANCH  12  17
BRANCH  13  24
HETATM   24  O   UNL     1      -9.443   8.789  70.057  1.00  0.00    -0.161 OA 
BRANCH  24  25
HETATM   25  C   UNL     1      -8.851   8.515  71.328  1.00  0.00    -0.190 C  
BRANCH  25  26
HETATM   26  C   UNL     1      -7.368   8.869  71.216  1.00  0.00    -0.096 C  
BRANCH  26  27
HETATM   27  O   UNL     1      -6.589   7.681  71.105  1.00  0.00    -0.038 OA 
BRANCH  27  28
HETATM   28  C   UNL     1      -6.690   7.088  69.863  1.00  0.00    -0.049 A  
HETATM   29  N   UNL     1      -6.432   7.801  68.751  1.00  0.00    -0.043 NA 
HETATM   30  C   UNL     1      -6.555   7.137  67.579  1.00  0.00    -0.059 A  
HETATM   31  C   UNL     1      -6.919   5.814  67.489  1.00  0.00    -0.069 A  
HETATM   32  C   UNL     1      -7.163   5.186  68.687  1.00  0.00    -0.062 A  
HETATM   33 BR   UNL     1      -7.071   4.926  65.843  1.00  0.00    -0.069 Br 
HETATM   34  N   UNL     1      -7.058   5.798  69.887  1.00  0.00    -0.065 NA 
ENDBRANCH  27  28
ENDBRANCH  26  27
ENDBRANCH  25  26
ENDBRANCH  24  25
ENDBRANCH  13  24
ENDBRANCH   9  11
ENDBRANCH   6   9
ENDBRANCH   4   6
ENDBRANCH   3   4
ENDBRANCH   2   3
TORSDOF 11
ENDMDL
MODEL      160
REMARK 921   NORMALIZED FREE ENERGY PREDICTED BY IDOCK:   -4.27 KCAL/MOL
REMARK 922        TOTAL FREE ENERGY PREDICTED BY IDOCK:   -8.43 KCAL/MOL
REMARK 923 INTER-LIGAND FREE ENERGY PREDICTED BY IDOCK:   -6.35 KCAL/MOL
REMARK 924 INTRA-LIGAND FREE ENERGY PREDICTED BY IDOCK:   -2.08 KCAL/MOL
REMARK 927      BINDING AFFINITY PREDICTED BY RF-SCORE:    0.00 PKD
ROOT
HETATM    1  C   UNL     1     -12.804  13.951  65.299  1.00  0.00    -0.437 C  
HETATM    2  C   UNL     1     -12.171  13.053  64.249  1.00  0.00    -0.464 C  
ENDROOT
BRANCH   2   3
HETATM    3  C   UNL     1     -10.677  12.859  64.482  1.00  0.00    -0.371 C  
BRANCH   3   4
HETATM    4  N   UNL     1     -10.465  11.883  65.588  1.00  0.00    -0.252 N  
HETATM    5  H   UNL     1     -10.770  10.910  65.556  1.00  0.00     0.000 HD 
BRANCH   4   6
HETATM    6  S   UNL     1      -9.665  12.572  66.891  1.00  0.00    -0.238 S  
HETATM    7  O   UNL     1      -9.228  13.868  66.417  1.00  0.00    -0.242 OA 
HETATM    8  O   UNL     1     -10.487  12.435  68.064  1.00  0.00    -0.205 OA 
BRANCH   6   9
HETATM    9  N   UNL     1      -8.293  11.618  67.005  1.00  0.00    -0.163 N  
HETATM   10  H   UNL     1      -7.468  11.921  67.523  1.00  0.00     0.000 HD 
BRANCH   9  11
HETATM   11  C   UNL     1      -8.343  10.369  66.341  1.00  0.00    -0.139 A  
HETATM   12  C   UNL     1      -8.867   9.199  66.906  1.00  0.00    -0.137 A  
HETATM   13  C   UNL     1      -8.901   8.164  65.961  1.00  0.00    -0.172 A  
HETATM   14  N   UNL     1      -7.810  10.490  65.109  1.00  0.00    -0.118 NA 
HETATM   15  N   UNL     1      -8.419   8.237  64.700  1.00  0.00    -0.106 NA 
HETATM   16  C   UNL     1      -7.879   9.402  64.345  1.00  0.00    -0.123 A  
BRANCH  12  17
HETATM   17  C   UNL     1      -9.301   9.017  68.339  1.00  0.00    -0.143 A  
HETATM   18  C   UNL     1     -10.611   9.246  68.790  1.00  0.00    -0.220 A  
HETATM   19  C   UNL     1     -11.032   8.987  70.102  1.00  0.00    -0.256 A  
HETATM   20  C   UNL     1      -8.813   8.286  70.651  1.00  0.00    -0.151 A  
HETATM   21  C   UNL     1      -8.404   8.578  69.338  1.00  0.00    -0.119 A  
HETATM   22 BR   UNL     1     -10.719   8.032  72.760  1.00  0.00    -0.390 Br 
HETATM   23  C   UNL     1     -10.134   8.477  71.021  1.00  0.00    -0.205 A  
ENDBRANCH  12  17
BRANCH  13  24
HETATM   24  O   UNL     1      -9.484   6.971  66.338  1.00  0.00    -0.175 OA 
BRANCH  24  25
HETATM   25  C   UNL     1      -8.951   5.768  65.783  1.00  0.00    -0.135 C  
BRANCH  25  26
HETATM   26  C   UNL     1      -9.584   4.604  66.546  1.00  0.00    -0.182 C  
BRANCH  26  27
HETATM   27  O   UNL     1      -8.661   4.085  67.500  1.00  0.00    -0.099 OA 
BRANCH  27  28
HETATM   28  C   UNL     1      -9.139   4.143  68.794  1.00  0.00    -0.133 A  
HETATM   29  N   UNL     1     -10.070   5.055  69.131  1.00  0.00    -0.204 NA 
HETATM   30  C   UNL     1     -10.480   5.036  70.419  1.00  0.00    -0.167 A  
HETATM   31  C   UNL     1      -9.997   4.155  71.358  1.00  0.00    -0.153 A  
HETATM   32  C   UNL     1      -9.046   3.272  70.905  1.00  0.00    -0.112 A  
HETATM   33 BR   UNL     1     -10.597   4.157  73.136  1.00  0.00    -0.277 Br 
HETATM   34  N   UNL     1      -8.598   3.244  69.631  1.00  0.00    -0.061 NA 
ENDBRANCH  27  28
ENDBRANCH  26  27
ENDBRANCH  25  26
ENDBRANCH  24  25
ENDBRANCH  13  24
ENDBRANCH   9  11
ENDBRANCH   6   9
ENDBRANCH   4   6
ENDBRANCH   3   4
ENDBRANCH   2   3
TORSDOF 11
ENDMDL
MODEL      161
REMARK 921   NORMALIZED FREE ENERGY PREDICTED BY IDOCK:   -4.26 KCAL/MOL
REMARK 922        TOTAL FREE ENERGY PREDICTED BY IDOCK:   -8.41 KCAL/MOL
REMARK 923 INTER-LIGAND FREE ENERGY PREDICTED BY IDOCK:   -7.25 KCAL/MOL
REMARK 924 INTRA-LIGAND FREE ENERGY PREDICTED BY IDOCK:   -1.16 KCAL/MOL
REMARK 927      BINDING AFFINITY PREDICTED BY RF-SCORE:    0.00 PKD
ROOT
HETATM    1  C   UNL     1     -12.127  13.159  63.456  1.00  0.00    -0.585 C  
HETATM    2  C   UNL     1     -12.240  14.393  64.337  1.00  0.00    -0.481 C  
ENDROOT
BRANCH   2   3
HETATM    3  C   UNL     1     -12.379  14.035  65.812  1.00  0.00    -0.480 C  
BRANCH   3   4
HETATM    4  N   UNL     1     -11.079  14.257  66.506  1.00  0.00    -0.316 N  
HETATM    5  H   UNL     1     -10.262  14.679  66.065  1.00  0.00     0.000 HD 
BRANCH   4   6
HETATM    6  S   UNL     1     -11.118  13.731  68.098  1.00  0.00    -0.272 S  
HETATM    7  O   UNL     1      -9.739  13.437  68.427  1.00  0.00    -0.221 OA 
HETATM    8  O   UNL     1     -11.898  14.658  68.873  1.00  0.00    -0.305 OA 
BRANCH   6   9
HETATM    9  N   UNL     1     -11.900  12.256  67.960  1.00  0.00    -0.348 N  
HETATM   10  H   UNL     1     -12.728  12.139  67.374  1.00  0.00     0.000 HD 
BRANCH   9  11
HETATM   11  C   UNL     1     -11.350  11.184  68.701  1.00  0.00    -0.277 A  
HETATM   12  C   UNL     1     -10.348  10.330  68.222  1.00  0.00    -0.209 A  
HETATM   13  C   UNL     1      -9.916   9.456  69.230  1.00  0.00    -0.181 A  
HETATM   14  N   UNL     1     -11.941  11.119  69.910  1.00  0.00    -0.332 NA 
HETATM   15  N   UNL     1     -10.443   9.372  70.472  1.00  0.00    -0.252 NA 
HETATM   16  C   UNL     1     -11.447  10.204  70.741  1.00  0.00    -0.357 A  
BRANCH  12  17
HETATM   17  C   UNL     1      -9.810  10.287  66.813  1.00  0.00    -0.246 A  
HETATM   18  C   UNL     1     -10.624  10.318  65.668  1.00  0.00    -0.044 A  
HETATM   19  C   UNL     1     -10.118  10.370  64.363  1.00  0.00    -0.342 A  
HETATM   20  C   UNL     1      -7.897  10.308  65.246  1.00  0.00    -0.145 A  
HETATM   21  C   UNL     1      -8.424  10.228  66.547  1.00  0.00    -0.126 A  
HETATM   22 BR   UNL     1      -8.064  10.569  62.409  1.00  0.00    -0.239 Br 
HETATM   23  C   UNL     1      -8.750  10.397  64.159  1.00  0.00    -0.197 A  
ENDBRANCH  12  17
BRANCH  13  24
HETATM   24  O   UNL     1      -8.860   8.616  68.941  1.00  0.00    -0.136 OA 
BRANCH  24  25
HETATM   25  C   UNL     1      -7.842   8.469  69.931  1.00  0.00    -0.096 C  
BRANCH  25  26
HETATM   26  C   UNL     1      -7.362   9.875  70.292  1.00  0.00    -0.157 C  
BRANCH  26  27
HETATM   27  O   UNL     1      -6.365  10.304  69.369  1.00  0.00    -0.044 OA 
BRANCH  27  28
HETATM   28  C   UNL     1      -6.214  11.676  69.341  1.00  0.00    -0.100 A  
HETATM   29  N   UNL     1      -6.048  12.360  70.488  1.00  0.00    -0.196 NA 
HETATM   30  C   UNL     1      -5.907  13.699  70.365  1.00  0.00    -0.161 A  
HETATM   31  C   UNL     1      -5.926  14.358  69.158  1.00  0.00    -0.091 A  
HETATM   32  C   UNL     1      -6.107  13.560  68.053  1.00  0.00    -0.133 A  
HETATM   33 BR   UNL     1      -5.719  16.218  69.028  1.00  0.00    -0.129 Br 
HETATM   34  N   UNL     1      -6.255  12.219  68.115  1.00  0.00    -0.053 NA 
ENDBRANCH  27  28
ENDBRANCH  26  27
ENDBRANCH  25  26
ENDBRANCH  24  25
ENDBRANCH  13  24
ENDBRANCH   9  11
ENDBRANCH   6   9
ENDBRANCH   4   6
ENDBRANCH   3   4
ENDBRANCH   2   3
TORSDOF 11
ENDMDL
MODEL      162
REMARK 921   NORMALIZED FREE ENERGY PREDICTED BY IDOCK:   -4.26 KCAL/MOL
REMARK 922        TOTAL FREE ENERGY PREDICTED BY IDOCK:   -8.41 KCAL/MOL
REMARK 923 INTER-LIGAND FREE ENERGY PREDICTED BY IDOCK:   -6.38 KCAL/MOL
REMARK 924 INTRA-LIGAND FREE ENERGY PREDICTED BY IDOCK:   -2.04 KCAL/MOL
REMARK 927      BINDING AFFINITY PREDICTED BY RF-SCORE:    0.00 PKD
ROOT
HETATM    1  C   UNL     1     -12.786  11.331  71.546  1.00  0.00    -0.519 C  
HETATM    2  C   UNL     1     -13.584  10.075  71.859  1.00  0.00    -0.354 C  
ENDROOT
BRANCH   2   3
HETATM    3  C   UNL     1     -12.858   8.808  71.423  1.00  0.00    -0.280 C  
BRANCH   3   4
HETATM    4  N   UNL     1     -12.535   7.979  72.618  1.00  0.00    -0.593 N  
HETATM    5  H   UNL     1     -13.166   7.847  73.408  1.00  0.00     0.000 HD 
BRANCH   4   6
HETATM    6  S   UNL     1     -11.010   7.288  72.510  1.00  0.00    -0.305 S  
HETATM    7  O   UNL     1     -10.090   8.379  72.751  1.00  0.00    -0.286 OA 
HETATM    8  O   UNL     1     -10.988   6.091  73.307  1.00  0.00    -0.257 OA 
BRANCH   6   9
HETATM    9  N   UNL     1     -10.905   6.927  70.878  1.00  0.00    -0.237 N  
HETATM   10  H   UNL     1     -11.735   6.774  70.306  1.00  0.00     0.000 HD 
BRANCH   9  11
HETATM   11  C   UNL     1      -9.599   6.845  70.339  1.00  0.00    -0.169 A  
HETATM   12  C   UNL     1      -9.026   7.824  69.517  1.00  0.00    -0.142 A  
HETATM   13  C   UNL     1      -7.681   7.526  69.254  1.00  0.00    -0.112 A  
HETATM   14  N   UNL     1      -9.018   5.695  70.732  1.00  0.00    -0.142 NA 
HETATM   15  N   UNL     1      -7.033   6.410  69.655  1.00  0.00    -0.068 NA 
HETATM   16  C   UNL     1      -7.748   5.538  70.364  1.00  0.00    -0.085 A  
BRANCH  12  17
HETATM   17  C   UNL     1      -9.730   9.022  68.931  1.00  0.00    -0.166 A  
HETATM   18  C   UNL     1      -9.600  10.326  69.438  1.00  0.00    -0.237 A  
HETATM   19  C   UNL     1     -10.182  11.450  68.836  1.00  0.00    -0.184 A  
HETATM   20  C   UNL     1     -11.139  10.031  67.167  1.00  0.00    -0.065 A  
HETATM   21  C   UNL     1     -10.571   8.913  67.801  1.00  0.00    -0.266 A  
HETATM   22 BR   UNL     1     -11.627  12.821  66.811  1.00  0.00    -0.455 Br 
HETATM   23  C   UNL     1     -10.926  11.300  67.681  1.00  0.00    -0.259 A  
ENDBRANCH  12  17
BRANCH  13  24
HETATM   24  O   UNL     1      -6.948   8.450  68.536  1.00  0.00    -0.066 OA 
BRANCH  24  25
HETATM   25  C   UNL     1      -7.209   8.559  67.136  1.00  0.00    -0.080 C  
BRANCH  25  26
HETATM   26  C   UNL     1      -6.662   7.292  66.479  1.00  0.00    -0.060 C  
BRANCH  26  27
HETATM   27  O   UNL     1      -7.700   6.620  65.771  1.00  0.00    -0.085 OA 
BRANCH  27  28
HETATM   28  C   UNL     1      -8.134   5.478  66.411  1.00  0.00    -0.105 A  
HETATM   29  N   UNL     1      -9.390   5.408  66.892  1.00  0.00    -0.123 NA 
HETATM   30  C   UNL     1      -9.728   4.251  67.502  1.00  0.00    -0.148 A  
HETATM   31  C   UNL     1      -8.869   3.186  67.643  1.00  0.00    -0.135 A  
HETATM   32  C   UNL     1      -7.611   3.369  67.120  1.00  0.00    -0.078 A  
HETATM   33 BR   UNL     1      -9.380   1.591  68.492  1.00  0.00    -0.236 Br 
HETATM   34  N   UNL     1      -7.217   4.503  66.501  1.00  0.00    -0.078 NA 
ENDBRANCH  27  28
ENDBRANCH  26  27
ENDBRANCH  25  26
ENDBRANCH  24  25
ENDBRANCH  13  24
ENDBRANCH   9  11
ENDBRANCH   6   9
ENDBRANCH   4   6
ENDBRANCH   3   4
ENDBRANCH   2   3
TORSDOF 11
ENDMDL
MODEL      163
REMARK 921   NORMALIZED FREE ENERGY PREDICTED BY IDOCK:   -4.24 KCAL/MOL
REMARK 922        TOTAL FREE ENERGY PREDICTED BY IDOCK:   -8.38 KCAL/MOL
REMARK 923 INTER-LIGAND FREE ENERGY PREDICTED BY IDOCK:   -5.84 KCAL/MOL
REMARK 924 INTRA-LIGAND FREE ENERGY PREDICTED BY IDOCK:   -2.54 KCAL/MOL
REMARK 927      BINDING AFFINITY PREDICTED BY RF-SCORE:    0.00 PKD
ROOT
HETATM    1  C   UNL     1      -9.907   9.660  65.720  1.00  0.00    -0.373 C  
HETATM    2  C   UNL     1      -8.876   8.873  66.512  1.00  0.00    -0.160 C  
ENDROOT
BRANCH   2   3
HETATM    3  C   UNL     1      -8.840   7.404  66.108  1.00  0.00    -0.160 C  
BRANCH   3   4
HETATM    4  N   UNL     1      -8.978   6.547  67.320  1.00  0.00    -0.114 N  
HETATM    5  H   UNL     1      -8.258   6.450  68.035  1.00  0.00     0.000 HD 
BRANCH   4   6
HETATM    6  S   UNL     1     -10.459   5.761  67.369  1.00  0.00    -0.262 S  
HETATM    7  O   UNL     1     -11.438   6.795  67.114  1.00  0.00    -0.210 OA 
HETATM    8  O   UNL     1     -10.381   4.577  66.555  1.00  0.00    -0.238 OA 
BRANCH   6   9
HETATM    9  N   UNL     1     -10.593   5.366  68.991  1.00  0.00    -0.192 N  
HETATM   10  H   UNL     1     -11.481   5.080  69.404  1.00  0.00     0.000 HD 
BRANCH   9  11
HETATM   11  C   UNL     1      -9.405   5.452  69.756  1.00  0.00    -0.142 A  
HETATM   12  C   UNL     1      -9.176   6.416  70.746  1.00  0.00    -0.161 A  
HETATM   13  C   UNL     1      -7.972   6.162  71.418  1.00  0.00    -0.113 A  
HETATM   14  N   UNL     1      -8.551   4.481  69.376  1.00  0.00    -0.080 NA 
HETATM   15  N   UNL     1      -7.095   5.180  71.110  1.00  0.00    -0.061 NA 
HETATM   16  C   UNL     1      -7.427   4.396  70.085  1.00  0.00    -0.046 A  
BRANCH  12  17
HETATM   17  C   UNL     1     -10.049   7.608  71.051  1.00  0.00    -0.196 A  
HETATM   18  C   UNL     1      -9.923   8.850  70.407  1.00  0.00    -0.230 A  
HETATM   19  C   UNL     1     -10.795   9.925  70.627  1.00  0.00    -0.400 A  
HETATM   20  C   UNL     1     -11.984   8.604  72.226  1.00  0.00    -0.438 A  
HETATM   21  C   UNL     1     -11.083   7.547  72.012  1.00  0.00    -0.288 A  
HETATM   22 BR   UNL     1     -13.079  11.195  71.741  1.00  0.00    -0.432 Br 
HETATM   23  C   UNL     1     -11.844   9.786  71.516  1.00  0.00    -0.399 A  
ENDBRANCH  12  17
BRANCH  13  24
HETATM   24  O   UNL     1      -7.653   6.969  72.491  1.00  0.00    -0.088 OA 
BRANCH  24  25
HETATM   25  C   UNL     1      -6.290   7.001  72.914  1.00  0.00    -0.057 C  
BRANCH  25  26
HETATM   26  C   UNL     1      -5.642   8.215  72.247  1.00  0.00    -0.039 C  
BRANCH  26  27
HETATM   27  O   UNL     1      -6.642   9.159  71.874  1.00  0.00    -0.249 OA 
BRANCH  27  28
HETATM   28  C   UNL     1      -6.448   9.672  70.607  1.00  0.00    -0.105 A  
HETATM   29  N   UNL     1      -6.775  10.950  70.338  1.00  0.00    -0.265 NA 
HETATM   30  C   UNL     1      -6.549  11.366  69.073  1.00  0.00    -0.086 A  
HETATM   31  C   UNL     1      -6.019  10.562  68.090  1.00  0.00    -0.043 A  
HETATM   32  C   UNL     1      -5.729   9.275  68.475  1.00  0.00    -0.041 A  
HETATM   33 BR   UNL     1      -5.714  11.180  66.345  1.00  0.00    -0.143 Br 
HETATM   34  N   UNL     1      -5.933   8.803  69.724  1.00  0.00    -0.028 NA 
ENDBRANCH  27  28
ENDBRANCH  26  27
ENDBRANCH  25  26
ENDBRANCH  24  25
ENDBRANCH  13  24
ENDBRANCH   9  11
ENDBRANCH   6   9
ENDBRANCH   4   6
ENDBRANCH   3   4
ENDBRANCH   2   3
TORSDOF 11
ENDMDL
MODEL      164
REMARK 921   NORMALIZED FREE ENERGY PREDICTED BY IDOCK:   -4.23 KCAL/MOL
REMARK 922        TOTAL FREE ENERGY PREDICTED BY IDOCK:   -8.37 KCAL/MOL
REMARK 923 INTER-LIGAND FREE ENERGY PREDICTED BY IDOCK:   -7.32 KCAL/MOL
REMARK 924 INTRA-LIGAND FREE ENERGY PREDICTED BY IDOCK:   -1.05 KCAL/MOL
REMARK 927      BINDING AFFINITY PREDICTED BY RF-SCORE:    0.00 PKD
ROOT
HETATM    1  C   UNL     1      -8.706   3.054  70.308  1.00  0.00    -0.131 C  
HETATM    2  C   UNL     1      -8.407   1.997  69.257  1.00  0.00    -0.073 C  
ENDROOT
BRANCH   2   3
HETATM    3  C   UNL     1      -9.114   2.282  67.937  1.00  0.00    -0.179 C  
BRANCH   3   4
HETATM    4  N   UNL     1      -9.462   3.729  67.857  1.00  0.00    -0.182 N  
HETATM    5  H   UNL     1      -9.812   4.275  68.643  1.00  0.00     0.000 HD 
BRANCH   4   6
HETATM    6  S   UNL     1      -9.212   4.352  66.320  1.00  0.00    -0.154 S  
HETATM    7  O   UNL     1      -8.439   3.341  65.630  1.00  0.00    -0.101 OA 
HETATM    8  O   UNL     1     -10.467   4.827  65.803  1.00  0.00    -0.270 OA 
BRANCH   6   9
HETATM    9  N   UNL     1      -8.167   5.625  66.625  1.00  0.00    -0.105 N  
HETATM   10  H   UNL     1      -7.263   5.484  67.077  1.00  0.00     0.000 HD 
BRANCH   9  11
HETATM   11  C   UNL     1      -8.609   6.907  66.220  1.00  0.00    -0.136 A  
HETATM   12  C   UNL     1      -9.348   7.776  67.033  1.00  0.00    -0.196 A  
HETATM   13  C   UNL     1      -9.519   9.018  66.405  1.00  0.00    -0.226 A  
HETATM   14  N   UNL     1      -8.214   7.143  64.954  1.00  0.00    -0.109 NA 
HETATM   15  N   UNL     1      -9.111   9.326  65.153  1.00  0.00    -0.219 NA 
HETATM   16  C   UNL     1      -8.490   8.357  64.483  1.00  0.00    -0.060 A  
BRANCH  12  17
HETATM   17  C   UNL     1      -9.942   7.450  68.380  1.00  0.00    -0.177 A  
HETATM   18  C   UNL     1     -11.157   6.764  68.550  1.00  0.00    -0.217 A  
HETATM   19  C   UNL     1     -11.659   6.382  69.801  1.00  0.00    -0.397 A  
HETATM   20  C   UNL     1      -9.769   7.407  70.847  1.00  0.00    -0.169 A  
HETATM   21  C   UNL     1      -9.295   7.806  69.585  1.00  0.00    -0.153 A  
HETATM   22 BR   UNL     1     -11.564   6.081  72.625  1.00  0.00    -0.212 Br 
HETATM   23  C   UNL     1     -10.944   6.680  70.946  1.00  0.00    -0.268 A  
ENDBRANCH  12  17
BRANCH  13  24
HETATM   24  O   UNL     1     -10.145  10.018  67.121  1.00  0.00    -0.191 OA 
BRANCH  24  25
HETATM   25  C   UNL     1     -10.025  11.356  66.635  1.00  0.00    -0.208 C  
BRANCH  25  26
HETATM   26  C   UNL     1     -11.159  11.571  65.633  1.00  0.00    -0.199 C  
BRANCH  26  27
HETATM   27  O   UNL     1     -12.162  12.407  66.202  1.00  0.00    -0.635 OA 
BRANCH  27  28
HETATM   28  C   UNL     1     -11.679  13.645  66.578  1.00  0.00    -0.382 A  
HETATM   29  N   UNL     1     -11.790  14.054  67.855  1.00  0.00    -0.363 NA 
HETATM   30  C   UNL     1     -11.287  15.278  68.131  1.00  0.00    -0.338 A  
HETATM   31  C   UNL     1     -10.693  16.086  67.190  1.00  0.00    -0.283 A  
HETATM   32  C   UNL     1     -10.640  15.570  65.918  1.00  0.00    -0.339 A  
HETATM   33 BR   UNL     1     -10.001  17.778  67.615  1.00  0.00    -0.338 Br 
HETATM   34  N   UNL     1     -11.125  14.355  65.583  1.00  0.00    -0.312 NA 
ENDBRANCH  27  28
ENDBRANCH  26  27
ENDBRANCH  25  26
ENDBRANCH  24  25
ENDBRANCH  13  24
ENDBRANCH   9  11
ENDBRANCH   6   9
ENDBRANCH   4   6
ENDBRANCH   3   4
ENDBRANCH   2   3
TORSDOF 11
ENDMDL
MODEL      165
REMARK 921   NORMALIZED FREE ENERGY PREDICTED BY IDOCK:   -4.22 KCAL/MOL
REMARK 922        TOTAL FREE ENERGY PREDICTED BY IDOCK:   -8.35 KCAL/MOL
REMARK 923 INTER-LIGAND FREE ENERGY PREDICTED BY IDOCK:   -7.81 KCAL/MOL
REMARK 924 INTRA-LIGAND FREE ENERGY PREDICTED BY IDOCK:   -0.54 KCAL/MOL
REMARK 927      BINDING AFFINITY PREDICTED BY RF-SCORE:    0.00 PKD
ROOT
HETATM    1  C   UNL     1     -10.111  19.941  68.645  1.00  0.00    -0.518 C  
HETATM    2  C   UNL     1      -9.830  20.373  67.214  1.00  0.00    -0.597 C  
ENDROOT
BRANCH   2   3
HETATM    3  C   UNL     1     -10.122  19.264  66.211  1.00  0.00    -0.442 C  
BRANCH   3   4
HETATM    4  N   UNL     1     -10.103  17.944  66.903  1.00  0.00    -0.332 N  
HETATM    5  H   UNL     1     -10.764  17.672  67.630  1.00  0.00     0.000 HD 
BRANCH   4   6
HETATM    6  S   UNL     1      -8.865  16.959  66.346  1.00  0.00    -0.285 S  
HETATM    7  O   UNL     1      -9.535  15.821  65.751  1.00  0.00    -0.335 OA 
HETATM    8  O   UNL     1      -7.935  17.763  65.599  1.00  0.00    -0.532 OA 
BRANCH   6   9
HETATM    9  N   UNL     1      -8.179  16.416  67.774  1.00  0.00    -0.153 N  
HETATM   10  H   UNL     1      -7.910  17.058  68.520  1.00  0.00     0.000 HD 
BRANCH   9  11
HETATM   11  C   UNL     1      -7.994  15.018  67.888  1.00  0.00    -0.138 A  
HETATM   12  C   UNL     1      -8.932  14.144  68.453  1.00  0.00    -0.189 A  
HETATM   13  C   UNL     1      -8.524  12.811  68.300  1.00  0.00    -0.161 A  
HETATM   14  N   UNL     1      -6.793  14.678  67.381  1.00  0.00    -0.261 NA 
HETATM   15  N   UNL     1      -7.351  12.408  67.764  1.00  0.00    -0.110 NA 
HETATM   16  C   UNL     1      -6.534  13.373  67.345  1.00  0.00     0.001 A  
BRANCH  12  17
HETATM   17  C   UNL     1     -10.195  14.537  69.178  1.00  0.00    -0.172 A  
HETATM   18  C   UNL     1     -11.473  14.077  68.820  1.00  0.00    -0.327 A  
HETATM   19  C   UNL     1     -12.632  14.371  69.552  1.00  0.00    -0.034 A  
HETATM   20  C   UNL     1     -11.319  15.681  71.061  1.00  0.00    -0.426 A  
HETATM   21  C   UNL     1     -10.173  15.398  70.298  1.00  0.00    -0.134 A  
HETATM   22 BR   UNL     1     -14.084  15.464  71.736  1.00  0.00    -0.621 Br 
HETATM   23  C   UNL     1     -12.544  15.149  70.692  1.00  0.00    -0.395 A  
ENDBRANCH  12  17
BRANCH  13  24
HETATM   24  O   UNL     1      -9.392  11.823  68.719  1.00  0.00    -0.130 OA 
BRANCH  24  25
HETATM   25  C   UNL     1      -8.840  10.541  69.019  1.00  0.00    -0.169 C  
BRANCH  25  26
HETATM   26  C   UNL     1      -9.868   9.801  69.876  1.00  0.00    -0.243 C  
BRANCH  26  27
HETATM   27  O   UNL     1     -10.527   8.806  69.098  1.00  0.00    -0.222 OA 
BRANCH  27  28
HETATM   28  C   UNL     1      -9.755   8.346  68.050  1.00  0.00    -0.158 A  
HETATM   29  N   UNL     1      -8.661   7.601  68.294  1.00  0.00    -0.124 NA 
HETATM   30  C   UNL     1      -7.967   7.193  67.207  1.00  0.00    -0.111 A  
HETATM   31  C   UNL     1      -8.327   7.500  65.916  1.00  0.00    -0.139 A  
HETATM   32  C   UNL     1      -9.459   8.270  65.786  1.00  0.00     0.029 A  
HETATM   33 BR   UNL     1      -7.341   6.908  64.433  1.00  0.00    -0.096 Br 
HETATM   34  N   UNL     1     -10.191   8.707  66.834  1.00  0.00    -0.283 NA 
ENDBRANCH  27  28
ENDBRANCH  26  27
ENDBRANCH  25  26
ENDBRANCH  24  25
ENDBRANCH  13  24
ENDBRANCH   9  11
ENDBRANCH   6   9
ENDBRANCH   4   6
ENDBRANCH   3   4
ENDBRANCH   2   3
TORSDOF 11
ENDMDL
MODEL      166
REMARK 921   NORMALIZED FREE ENERGY PREDICTED BY IDOCK:   -4.20 KCAL/MOL
REMARK 922        TOTAL FREE ENERGY PREDICTED BY IDOCK:   -8.32 KCAL/MOL
REMARK 923 INTER-LIGAND FREE ENERGY PREDICTED BY IDOCK:   -7.39 KCAL/MOL
REMARK 924 INTRA-LIGAND FREE ENERGY PREDICTED BY IDOCK:   -0.92 KCAL/MOL
REMARK 927      BINDING AFFINITY PREDICTED BY RF-SCORE:    0.00 PKD
ROOT
HETATM    1  C   UNL     1     -10.141  19.954  68.770  1.00  0.00    -0.487 C  
HETATM    2  C   UNL     1     -10.043  19.502  67.321  1.00  0.00    -0.523 C  
ENDROOT
BRANCH   2   3
HETATM    3  C   UNL     1     -10.906  18.278  67.041  1.00  0.00    -0.164 C  
BRANCH   3   4
HETATM    4  N   UNL     1     -10.164  17.043  67.422  1.00  0.00    -0.306 N  
HETATM    5  H   UNL     1      -9.840  16.841  68.367  1.00  0.00     0.000 HD 
BRANCH   4   6
HETATM    6  S   UNL     1      -9.922  16.025  66.111  1.00  0.00    -0.349 S  
HETATM    7  O   UNL     1     -10.408  16.769  64.968  1.00  0.00    -0.631 OA 
HETATM    8  O   UNL     1      -8.579  15.513  66.163  1.00  0.00    -0.265 OA 
BRANCH   6   9
HETATM    9  N   UNL     1     -11.039  14.811  66.400  1.00  0.00    -0.336 N  
HETATM   10  H   UNL     1     -11.679  14.846  67.195  1.00  0.00     0.000 HD 
BRANCH   9  11
HETATM   11  C   UNL     1     -11.046  13.735  65.482  1.00  0.00    -0.298 A  
HETATM   12  C   UNL     1     -10.282  12.570  65.631  1.00  0.00    -0.287 A  
HETATM   13  C   UNL     1     -10.604  11.635  64.636  1.00  0.00    -0.312 A  
HETATM   14  N   UNL     1     -11.883  14.014  64.464  1.00  0.00    -0.414 NA 
HETATM   15  N   UNL     1     -11.464  11.842  63.614  1.00  0.00    -0.447 NA 
HETATM   16  C   UNL     1     -12.050  13.038  63.574  1.00  0.00    -0.542 A  
BRANCH  12  17
HETATM   17  C   UNL     1      -9.216  12.328  66.670  1.00  0.00    -0.208 A  
HETATM   18  C   UNL     1      -7.866  12.091  66.358  1.00  0.00     0.240 A  
HETATM   19  C   UNL     1      -6.862  11.959  67.327  1.00  0.00    -0.142 A  
HETATM   20  C   UNL     1      -8.510  12.238  69.038  1.00  0.00     0.387 A  
HETATM   21  C   UNL     1      -9.506  12.341  68.052  1.00  0.00    -0.206 A  
HETATM   22 BR   UNL     1      -5.825  11.988  69.972  1.00  0.00    -0.162 Br 
HETATM   23  C   UNL     1      -7.186  12.065  68.668  1.00  0.00    -0.110 A  
ENDBRANCH  12  17
BRANCH  13  24
HETATM   24  O   UNL     1     -10.005  10.393  64.706  1.00  0.00    -0.314 OA 
BRANCH  24  25
HETATM   25  C   UNL     1     -10.382   9.536  65.784  1.00  0.00     0.118 C  
BRANCH  25  26
HETATM   26  C   UNL     1      -9.221   8.568  66.013  1.00  0.00    -0.202 C  
BRANCH  26  27
HETATM   27  O   UNL     1      -8.568   8.869  67.243  1.00  0.00    -0.117 OA 
BRANCH  27  28
HETATM   28  C   UNL     1      -9.119   8.202  68.319  1.00  0.00    -0.135 A  
HETATM   29  N   UNL     1     -10.065   8.797  69.070  1.00  0.00    -0.193 NA 
HETATM   30  C   UNL     1     -10.549   8.069  70.101  1.00  0.00    -0.237 A  
HETATM   31  C   UNL     1     -10.125   6.794  70.397  1.00  0.00    -0.183 A  
HETATM   32  C   UNL     1      -9.151   6.289  69.568  1.00  0.00    -0.137 A  
HETATM   33 BR   UNL     1     -10.826   5.813  71.835  1.00  0.00    -0.308 Br 
HETATM   34  N   UNL     1      -8.631   6.969  68.524  1.00  0.00    -0.124 NA 
ENDBRANCH  27  28
ENDBRANCH  26  27
ENDBRANCH  25  26
ENDBRANCH  24  25
ENDBRANCH  13  24
ENDBRANCH   9  11
ENDBRANCH   6   9
ENDBRANCH   4   6
ENDBRANCH   3   4
ENDBRANCH   2   3
TORSDOF 11
ENDMDL
MODEL      167
REMARK 921   NORMALIZED FREE ENERGY PREDICTED BY IDOCK:   -4.20 KCAL/MOL
REMARK 922        TOTAL FREE ENERGY PREDICTED BY IDOCK:   -8.31 KCAL/MOL
REMARK 923 INTER-LIGAND FREE ENERGY PREDICTED BY IDOCK:   -6.53 KCAL/MOL
REMARK 924 INTRA-LIGAND FREE ENERGY PREDICTED BY IDOCK:   -1.79 KCAL/MOL
REMARK 927      BINDING AFFINITY PREDICTED BY RF-SCORE:    0.00 PKD
ROOT
HETATM    1  C   UNL     1     -12.234  14.547  64.278  1.00  0.00    -0.441 C  
HETATM    2  C   UNL     1     -12.243  13.215  63.545  1.00  0.00    -0.552 C  
ENDROOT
BRANCH   2   3
HETATM    3  C   UNL     1     -12.156  12.031  64.502  1.00  0.00    -0.255 C  
BRANCH   3   4
HETATM    4  N   UNL     1     -10.793  11.432  64.435  1.00  0.00    -0.342 N  
HETATM    5  H   UNL     1     -10.407  10.985  63.604  1.00  0.00     0.000 HD 
BRANCH   4   6
HETATM    6  S   UNL     1      -9.969  11.579  65.888  1.00  0.00    -0.241 S  
HETATM    7  O   UNL     1      -9.806  13.004  66.081  1.00  0.00    -0.273 OA 
HETATM    8  O   UNL     1     -10.615  10.752  66.872  1.00  0.00    -0.241 OA 
BRANCH   6   9
HETATM    9  N   UNL     1      -8.457  10.975  65.496  1.00  0.00    -0.336 N  
HETATM   10  H   UNL     1      -8.165  10.843  64.527  1.00  0.00     0.000 HD 
BRANCH   9  11
HETATM   11  C   UNL     1      -7.608  10.658  66.582  1.00  0.00    -0.129 A  
HETATM   12  C   UNL     1      -7.326   9.353  67.005  1.00  0.00    -0.087 A  
HETATM   13  C   UNL     1      -6.352   9.357  68.014  1.00  0.00    -0.057 A  
HETATM   14  N   UNL     1      -7.134  11.794  67.132  1.00  0.00    -0.139 NA 
HETATM   15  N   UNL     1      -5.810  10.461  68.576  1.00  0.00    -0.041 NA 
HETATM   16  C   UNL     1      -6.248  11.630  68.112  1.00  0.00    -0.046 A  
BRANCH  12  17
HETATM   17  C   UNL     1      -7.989   8.091  66.510  1.00  0.00    -0.102 A  
HETATM   18  C   UNL     1      -7.492   7.318  65.447  1.00  0.00    -0.087 A  
HETATM   19  C   UNL     1      -8.058   6.099  65.050  1.00  0.00    -0.133 A  
HETATM   20  C   UNL     1      -9.730   6.351  66.740  1.00  0.00    -0.199 A  
HETATM   21  C   UNL     1      -9.165   7.585  67.106  1.00  0.00    -0.161 A  
HETATM   22 BR   UNL     1      -9.865   3.916  65.258  1.00  0.00    -0.153 Br 
HETATM   23  C   UNL     1      -9.161   5.604  65.722  1.00  0.00    -0.128 A  
ENDBRANCH  12  17
BRANCH  13  24
HETATM   24  O   UNL     1      -5.893   8.137  68.467  1.00  0.00    -0.038 OA 
BRANCH  24  25
HETATM   25  C   UNL     1      -5.761   7.962  69.878  1.00  0.00    -0.023 C  
BRANCH  25  26
HETATM   26  C   UNL     1      -7.099   7.430  70.391  1.00  0.00    -0.064 C  
BRANCH  26  27
HETATM   27  O   UNL     1      -7.484   8.129  71.571  1.00  0.00    -0.068 OA 
BRANCH  27  28
HETATM   28  C   UNL     1      -8.808   8.519  71.556  1.00  0.00    -0.199 A  
HETATM   29  N   UNL     1      -9.261   9.334  70.585  1.00  0.00    -0.253 NA 
HETATM   30  C   UNL     1     -10.571   9.661  70.649  1.00  0.00    -0.319 A  
HETATM   31  C   UNL     1     -11.421   9.209  71.631  1.00  0.00    -0.381 A  
HETATM   32  C   UNL     1     -10.850   8.387  72.573  1.00  0.00    -0.305 A  
HETATM   33 BR   UNL     1     -13.237   9.681  71.681  1.00  0.00    -0.522 Br 
HETATM   34  N   UNL     1      -9.548   8.027  72.561  1.00  0.00    -0.213 NA 
ENDBRANCH  27  28
ENDBRANCH  26  27
ENDBRANCH  25  26
ENDBRANCH  24  25
ENDBRANCH  13  24
ENDBRANCH   9  11
ENDBRANCH   6   9
ENDBRANCH   4   6
ENDBRANCH   3   4
ENDBRANCH   2   3
TORSDOF 11
ENDMDL
MODEL      168
REMARK 921   NORMALIZED FREE ENERGY PREDICTED BY IDOCK:   -4.18 KCAL/MOL
REMARK 922        TOTAL FREE ENERGY PREDICTED BY IDOCK:   -8.28 KCAL/MOL
REMARK 923 INTER-LIGAND FREE ENERGY PREDICTED BY IDOCK:   -6.74 KCAL/MOL
REMARK 924 INTRA-LIGAND FREE ENERGY PREDICTED BY IDOCK:   -1.55 KCAL/MOL
REMARK 927      BINDING AFFINITY PREDICTED BY RF-SCORE:    0.00 PKD
ROOT
HETATM    1  C   UNL     1      -9.334  10.226  62.613  1.00  0.00    -0.335 C  
HETATM    2  C   UNL     1      -8.317   9.192  63.067  1.00  0.00    -0.196 C  
ENDROOT
BRANCH   2   3
HETATM    3  C   UNL     1      -8.648   8.623  64.442  1.00  0.00    -0.042 C  
BRANCH   3   4
HETATM    4  N   UNL     1      -9.699   9.458  65.089  1.00  0.00    -0.449 N  
HETATM    5  H   UNL     1     -10.220  10.192  64.609  1.00  0.00     0.000 HD 
BRANCH   4   6
HETATM    6  S   UNL     1      -9.924   9.049  66.700  1.00  0.00    -0.287 S  
HETATM    7  O   UNL     1     -10.421  10.257  67.325  1.00  0.00    -0.221 OA 
HETATM    8  O   UNL     1     -10.652   7.810  66.765  1.00  0.00    -0.331 OA 
BRANCH   6   9
HETATM    9  N   UNL     1      -8.349   8.849  67.233  1.00  0.00    -0.104 N  
HETATM   10  H   UNL     1      -7.889   7.939  67.224  1.00  0.00     0.000 HD 
BRANCH   9  11
HETATM   11  C   UNL     1      -7.693  10.014  67.697  1.00  0.00    -0.091 A  
HETATM   12  C   UNL     1      -7.532  10.340  69.050  1.00  0.00    -0.097 A  
HETATM   13  C   UNL     1      -6.727  11.479  69.194  1.00  0.00    -0.108 A  
HETATM   14  N   UNL     1      -7.266  10.742  66.646  1.00  0.00    -0.127 NA 
HETATM   15  N   UNL     1      -6.236  12.225  68.180  1.00  0.00    -0.053 NA 
HETATM   16  C   UNL     1      -6.550  11.822  66.949  1.00  0.00    -0.114 A  
BRANCH  12  17
HETATM   17  C   UNL     1      -8.158   9.625  70.221  1.00  0.00    -0.206 A  
HETATM   18  C   UNL     1      -9.524   9.706  70.542  1.00  0.00    -0.243 A  
HETATM   19  C   UNL     1     -10.119   8.968  71.574  1.00  0.00    -0.409 A  
HETATM   20  C   UNL     1      -7.985   8.027  72.101  1.00  0.00    -0.154 A  
HETATM   21  C   UNL     1      -7.402   8.797  71.079  1.00  0.00    -0.096 A  
HETATM   22 BR   UNL     1     -10.163   7.035  73.656  1.00  0.00    -0.411 Br 
HETATM   23  C   UNL     1      -9.349   8.105  72.332  1.00  0.00    -0.240 A  
ENDBRANCH  12  17
BRANCH  13  24
HETATM   24  O   UNL     1      -6.393  11.870  70.475  1.00  0.00    -0.216 OA 
BRANCH  24  25
HETATM   25  C   UNL     1      -5.326  12.806  70.625  1.00  0.00    -0.157 C  
BRANCH  25  26
HETATM   26  C   UNL     1      -5.951  14.130  71.065  1.00  0.00    -0.187 C  
BRANCH  26  27
HETATM   27  O   UNL     1      -5.652  15.151  70.117  1.00  0.00    -0.117 OA 
BRANCH  27  28
HETATM   28  C   UNL     1      -6.784  15.719  69.566  1.00  0.00    -0.187 A  
HETATM   29  N   UNL     1      -7.913  14.996  69.447  1.00  0.00    -0.192 NA 
HETATM   30  C   UNL     1      -8.971  15.633  68.899  1.00  0.00    -0.221 A  
HETATM   31  C   UNL     1      -8.934  16.941  68.475  1.00  0.00    -0.254 A  
HETATM   32  C   UNL     1      -7.729  17.581  68.639  1.00  0.00    -0.275 A  
HETATM   33 BR   UNL     1     -10.428  17.794  67.724  1.00  0.00    -0.396 Br 
HETATM   34  N   UNL     1      -6.639  16.995  69.180  1.00  0.00    -0.219 NA 
ENDBRANCH  27  28
ENDBRANCH  26  27
ENDBRANCH  25  26
ENDBRANCH  24  25
ENDBRANCH  13  24
ENDBRANCH   9  11
ENDBRANCH   6   9
ENDBRANCH   4   6
ENDBRANCH   3   4
ENDBRANCH   2   3
TORSDOF 11
ENDMDL
MODEL      169
REMARK 921   NORMALIZED FREE ENERGY PREDICTED BY IDOCK:   -4.18 KCAL/MOL
REMARK 922        TOTAL FREE ENERGY PREDICTED BY IDOCK:   -8.28 KCAL/MOL
REMARK 923 INTER-LIGAND FREE ENERGY PREDICTED BY IDOCK:   -6.73 KCAL/MOL
REMARK 924 INTRA-LIGAND FREE ENERGY PREDICTED BY IDOCK:   -1.55 KCAL/MOL
REMARK 927      BINDING AFFINITY PREDICTED BY RF-SCORE:    0.00 PKD
ROOT
HETATM    1  C   UNL     1     -10.896  16.750  68.387  1.00  0.00    -0.355 C  
HETATM    2  C   UNL     1     -10.347  15.534  69.117  1.00  0.00    -0.237 C  
ENDROOT
BRANCH   2   3
HETATM    3  C   UNL     1      -8.868  15.683  69.453  1.00  0.00    -0.257 C  
BRANCH   3   4
HETATM    4  N   UNL     1      -8.165  14.393  69.204  1.00  0.00    -0.349 N  
HETATM    5  H   UNL     1      -8.420  13.510  69.646  1.00  0.00     0.000 HD 
BRANCH   4   6
HETATM    6  S   UNL     1      -6.904  14.564  68.111  1.00  0.00    -0.143 S  
HETATM    7  O   UNL     1      -7.471  15.300  67.002  1.00  0.00    -0.198 OA 
HETATM    8  O   UNL     1      -5.742  15.036  68.816  1.00  0.00    -0.083 OA 
BRANCH   6   9
HETATM    9  N   UNL     1      -6.687  12.991  67.579  1.00  0.00    -0.169 N  
HETATM   10  H   UNL     1      -6.205  12.780  66.705  1.00  0.00     0.000 HD 
BRANCH   9  11
HETATM   11  C   UNL     1      -7.209  11.972  68.410  1.00  0.00    -0.092 A  
HETATM   12  C   UNL     1      -8.385  11.261  68.137  1.00  0.00    -0.143 A  
HETATM   13  C   UNL     1      -8.569  10.229  69.069  1.00  0.00    -0.162 A  
HETATM   14  N   UNL     1      -6.410  11.808  69.482  1.00  0.00    -0.111 NA 
HETATM   15  N   UNL     1      -7.779   9.990  70.140  1.00  0.00    -0.173 NA 
HETATM   16  C   UNL     1      -6.743  10.811  70.299  1.00  0.00    -0.045 A  
BRANCH  12  17
HETATM   17  C   UNL     1      -9.374  11.559  67.038  1.00  0.00    -0.185 A  
HETATM   18  C   UNL     1     -10.209  12.689  67.028  1.00  0.00    -0.233 A  
HETATM   19  C   UNL     1     -11.060  13.010  65.961  1.00  0.00    -0.301 A  
HETATM   20  C   UNL     1     -10.341  11.034  64.823  1.00  0.00    -0.389 A  
HETATM   21  C   UNL     1      -9.515  10.714  65.915  1.00  0.00    -0.239 A  
HETATM   22 BR   UNL     1     -12.165  12.675  63.365  1.00  0.00    -0.518 Br 
HETATM   23  C   UNL     1     -11.098  12.194  64.846  1.00  0.00    -0.319 A  
ENDBRANCH  12  17
BRANCH  13  24
HETATM   24  O   UNL     1      -9.635   9.374  68.876  1.00  0.00    -0.151 OA 
BRANCH  24  25
HETATM   25  C   UNL     1      -9.547   8.067  69.445  1.00  0.00    -0.160 C  
BRANCH  25  26
HETATM   26  C   UNL     1     -10.820   7.850  70.263  1.00  0.00    -0.241 C  
BRANCH  26  27
HETATM   27  O   UNL     1     -11.268   6.504  70.122  1.00  0.00    -0.313 OA 
BRANCH  27  28
HETATM   28  C   UNL     1     -10.848   5.688  71.153  1.00  0.00    -0.218 A  
HETATM   29  N   UNL     1     -10.905   6.124  72.426  1.00  0.00    -0.230 NA 
HETATM   30  C   UNL     1     -10.475   5.257  73.369  1.00  0.00    -0.232 A  
HETATM   31  C   UNL     1      -9.999   3.998  73.085  1.00  0.00    -0.141 A  
HETATM   32  C   UNL     1      -9.981   3.661  71.753  1.00  0.00    -0.140 A  
HETATM   33 BR   UNL     1      -9.417   2.820  74.425  1.00  0.00    -0.120 Br 
HETATM   34  N   UNL     1     -10.397   4.485  70.767  1.00  0.00    -0.084 NA 
ENDBRANCH  27  28
ENDBRANCH  26  27
ENDBRANCH  25  26
ENDBRANCH  24  25
ENDBRANCH  13  24
ENDBRANCH   9  11
ENDBRANCH   6   9
ENDBRANCH   4   6
ENDBRANCH   3   4
ENDBRANCH   2   3
TORSDOF 11
ENDMDL
MODEL      170
REMARK 921   NORMALIZED FREE ENERGY PREDICTED BY IDOCK:   -4.17 KCAL/MOL
REMARK 922        TOTAL FREE ENERGY PREDICTED BY IDOCK:   -8.26 KCAL/MOL
REMARK 923 INTER-LIGAND FREE ENERGY PREDICTED BY IDOCK:   -6.30 KCAL/MOL
REMARK 924 INTRA-LIGAND FREE ENERGY PREDICTED BY IDOCK:   -1.96 KCAL/MOL
REMARK 927      BINDING AFFINITY PREDICTED BY RF-SCORE:    0.00 PKD
ROOT
HETATM    1  C   UNL     1     -12.672  13.115  65.101  1.00  0.00    -0.468 C  
HETATM    2  C   UNL     1     -11.553  13.992  64.564  1.00  0.00    -0.403 C  
ENDROOT
BRANCH   2   3
HETATM    3  C   UNL     1     -10.774  14.679  65.680  1.00  0.00    -0.332 C  
BRANCH   3   4
HETATM    4  N   UNL     1     -11.361  14.312  67.000  1.00  0.00    -0.326 N  
HETATM    5  H   UNL     1     -11.999  13.529  67.142  1.00  0.00     0.000 HD 
BRANCH   4   6
HETATM    6  S   UNL     1     -10.848  15.338  68.223  1.00  0.00    -0.273 S  
HETATM    7  O   UNL     1     -10.024  16.325  67.560  1.00  0.00    -0.240 OA 
HETATM    8  O   UNL     1     -11.986  15.714  69.019  1.00  0.00    -0.374 OA 
BRANCH   6   9
HETATM    9  N   UNL     1      -9.808  14.353  69.092  1.00  0.00    -0.406 N  
HETATM   10  H   UNL     1     -10.098  13.891  69.954  1.00  0.00     0.000 HD 
BRANCH   9  11
HETATM   11  C   UNL     1      -8.505  14.199  68.563  1.00  0.00    -0.157 A  
HETATM   12  C   UNL     1      -8.059  13.052  67.893  1.00  0.00    -0.158 A  
HETATM   13  C   UNL     1      -6.774  13.250  67.370  1.00  0.00    -0.073 A  
HETATM   14  N   UNL     1      -7.781  15.308  68.810  1.00  0.00    -0.135 NA 
HETATM   15  N   UNL     1      -6.016  14.355  67.550  1.00  0.00    -0.348 NA 
HETATM   16  C   UNL     1      -6.560  15.326  68.281  1.00  0.00    -0.112 A  
BRANCH  12  17
HETATM   17  C   UNL     1      -8.803  11.745  67.769  1.00  0.00    -0.163 A  
HETATM   18  C   UNL     1      -9.481  11.343  66.606  1.00  0.00    -0.206 A  
HETATM   19  C   UNL     1     -10.091  10.090  66.463  1.00  0.00    -0.296 A  
HETATM   20  C   UNL     1      -9.436   9.541  68.696  1.00  0.00    -0.143 A  
HETATM   21  C   UNL     1      -8.853  10.814  68.830  1.00  0.00    -0.154 A  
HETATM   22 BR   UNL     1     -10.772   7.455  67.280  1.00  0.00    -0.341 Br 
HETATM   23  C   UNL     1     -10.039   9.179  67.503  1.00  0.00    -0.228 A  
ENDBRANCH  12  17
BRANCH  13  24
HETATM   24  O   UNL     1      -6.234  12.242  66.596  1.00  0.00    -0.130 OA 
BRANCH  24  25
HETATM   25  C   UNL     1      -5.440  11.255  67.254  1.00  0.00    -0.056 C  
BRANCH  25  26
HETATM   26  C   UNL     1      -5.662   9.936  66.513  1.00  0.00    -0.053 C  
BRANCH  26  27
HETATM   27  O   UNL     1      -6.253   8.978  67.387  1.00  0.00    -0.057 OA 
BRANCH  27  28
HETATM   28  C   UNL     1      -6.813   7.911  66.713  1.00  0.00    -0.072 A  
HETATM   29  N   UNL     1      -6.952   6.721  67.328  1.00  0.00    -0.072 NA 
HETATM   30  C   UNL     1      -7.511   5.735  66.592  1.00  0.00    -0.084 A  
HETATM   31  C   UNL     1      -7.925   5.898  65.291  1.00  0.00    -0.115 A  
HETATM   32  C   UNL     1      -7.730   7.152  64.762  1.00  0.00    -0.115 A  
HETATM   33 BR   UNL     1      -8.704   4.505  64.304  1.00  0.00    -0.148 Br 
HETATM   34  N   UNL     1      -7.176   8.175  65.449  1.00  0.00    -0.067 NA 
ENDBRANCH  27  28
ENDBRANCH  26  27
ENDBRANCH  25  26
ENDBRANCH  24  25
ENDBRANCH  13  24
ENDBRANCH   9  11
ENDBRANCH   6   9
ENDBRANCH   4   6
ENDBRANCH   3   4
ENDBRANCH   2   3
TORSDOF 11
ENDMDL
MODEL      171
REMARK 921   NORMALIZED FREE ENERGY PREDICTED BY IDOCK:   -4.17 KCAL/MOL
REMARK 922        TOTAL FREE ENERGY PREDICTED BY IDOCK:   -8.26 KCAL/MOL
REMARK 923 INTER-LIGAND FREE ENERGY PREDICTED BY IDOCK:   -6.72 KCAL/MOL
REMARK 924 INTRA-LIGAND FREE ENERGY PREDICTED BY IDOCK:   -1.54 KCAL/MOL
REMARK 927      BINDING AFFINITY PREDICTED BY RF-SCORE:    0.00 PKD
ROOT
HETATM    1  C   UNL     1     -10.983   6.070  72.339  1.00  0.00    -0.303 C  
HETATM    2  C   UNL     1     -11.194   6.348  70.859  1.00  0.00    -0.384 C  
ENDROOT
BRANCH   2   3
HETATM    3  C   UNL     1     -10.525   5.302  69.976  1.00  0.00    -0.281 C  
BRANCH   3   4
HETATM    4  N   UNL     1      -9.191   4.949  70.540  1.00  0.00    -0.135 N  
HETATM    5  H   UNL     1      -8.977   4.942  71.537  1.00  0.00     0.000 HD 
BRANCH   4   6
HETATM    6  S   UNL     1      -8.082   4.566  69.341  1.00  0.00    -0.064 S  
HETATM    7  O   UNL     1      -7.433   3.360  69.806  1.00  0.00    -0.045 OA 
HETATM    8  O   UNL     1      -8.743   4.625  68.065  1.00  0.00    -0.102 OA 
BRANCH   6   9
HETATM    9  N   UNL     1      -6.961   5.801  69.494  1.00  0.00    -0.061 N  
HETATM   10  H   UNL     1      -5.989   5.685  69.205  1.00  0.00     0.000 HD 
BRANCH   9  11
HETATM   11  C   UNL     1      -7.438   7.014  70.046  1.00  0.00    -0.090 A  
HETATM   12  C   UNL     1      -7.893   8.098  69.285  1.00  0.00    -0.110 A  
HETATM   13  C   UNL     1      -8.425   9.098  70.112  1.00  0.00    -0.176 A  
HETATM   14  N   UNL     1      -7.375   6.955  71.390  1.00  0.00    -0.080 NA 
HETATM   15  N   UNL     1      -8.427   9.077  71.464  1.00  0.00    -0.342 NA 
HETATM   16  C   UNL     1      -7.881   8.004  72.035  1.00  0.00    -0.105 A  
BRANCH  12  17
HETATM   17  C   UNL     1      -7.801   8.239  67.786  1.00  0.00    -0.114 A  
HETATM   18  C   UNL     1      -6.848   9.041  67.137  1.00  0.00    -0.074 A  
HETATM   19  C   UNL     1      -6.706   9.097  65.743  1.00  0.00    -0.072 A  
HETATM   20  C   UNL     1      -8.530   7.567  65.520  1.00  0.00    -0.129 A  
HETATM   21  C   UNL     1      -8.674   7.546  66.918  1.00  0.00    -0.131 A  
HETATM   22 BR   UNL     1      -7.280   8.326  63.069  1.00  0.00    -0.101 Br 
HETATM   23  C   UNL     1      -7.531   8.332  64.940  1.00  0.00    -0.092 A  
ENDBRANCH  12  17
BRANCH  13  24
HETATM   24  O   UNL     1      -9.006  10.192  69.504  1.00  0.00    -0.192 OA 
BRANCH  24  25
HETATM   25  C   UNL     1     -10.289  10.011  68.903  1.00  0.00    -0.202 C  
BRANCH  25  26
HETATM   26  C   UNL     1     -11.273  10.890  69.675  1.00  0.00    -0.282 C  
BRANCH  26  27
HETATM   27  O   UNL     1     -12.360  11.264  68.833  1.00  0.00    -0.485 OA 
BRANCH  27  28
HETATM   28  C   UNL     1     -12.034  12.281  67.957  1.00  0.00    -0.187 A  
HETATM   29  N   UNL     1     -11.844  13.532  68.416  1.00  0.00    -0.360 NA 
HETATM   30  C   UNL     1     -11.526  14.462  67.488  1.00  0.00    -0.349 A  
HETATM   31  C   UNL     1     -11.397  14.185  66.147  1.00  0.00    -0.337 A  
HETATM   32  C   UNL     1     -11.619  12.876  65.791  1.00  0.00    -0.368 A  
HETATM   33 BR   UNL     1     -10.948  15.504  64.889  1.00  0.00    -0.406 Br 
HETATM   34  N   UNL     1     -11.940  11.904  66.673  1.00  0.00    -0.564 NA 
ENDBRANCH  27  28
ENDBRANCH  26  27
ENDBRANCH  25  26
ENDBRANCH  24  25
ENDBRANCH  13  24
ENDBRANCH   9  11
ENDBRANCH   6   9
ENDBRANCH   4   6
ENDBRANCH   3   4
ENDBRANCH   2   3
TORSDOF 11
ENDMDL
MODEL      172
REMARK 921   NORMALIZED FREE ENERGY PREDICTED BY IDOCK:   -4.12 KCAL/MOL
REMARK 922        TOTAL FREE ENERGY PREDICTED BY IDOCK:   -8.19 KCAL/MOL
REMARK 923 INTER-LIGAND FREE ENERGY PREDICTED BY IDOCK:   -6.72 KCAL/MOL
REMARK 924 INTRA-LIGAND FREE ENERGY PREDICTED BY IDOCK:   -1.47 KCAL/MOL
REMARK 927      BINDING AFFINITY PREDICTED BY RF-SCORE:    0.00 PKD
ROOT
HETATM    1  C   UNL     1     -12.477  13.327  63.471  1.00  0.00    -0.328 C  
HETATM    2  C   UNL     1     -12.201  14.626  64.211  1.00  0.00    -0.432 C  
ENDROOT
BRANCH   2   3
HETATM    3  C   UNL     1     -11.897  14.394  65.686  1.00  0.00    -0.355 C  
BRANCH   3   4
HETATM    4  N   UNL     1     -12.272  13.002  66.063  1.00  0.00    -0.432 N  
HETATM    5  H   UNL     1     -13.014  12.469  65.610  1.00  0.00     0.000 HD 
BRANCH   4   6
HETATM    6  S   UNL     1     -11.329  12.414  67.319  1.00  0.00    -0.344 S  
HETATM    7  O   UNL     1     -11.429  13.415  68.359  1.00  0.00    -0.273 OA 
HETATM    8  O   UNL     1     -11.679  11.039  67.556  1.00  0.00    -0.565 OA 
BRANCH   6   9
HETATM    9  N   UNL     1      -9.784  12.539  66.684  1.00  0.00    -0.236 N  
HETATM   10  H   UNL     1      -9.189  13.346  66.870  1.00  0.00     0.000 HD 
BRANCH   9  11
HETATM   11  C   UNL     1      -9.351  11.462  65.875  1.00  0.00    -0.228 A  
HETATM   12  C   UNL     1      -8.416  10.500  66.280  1.00  0.00    -0.150 A  
HETATM   13  C   UNL     1      -8.294   9.489  65.317  1.00  0.00    -0.139 A  
HETATM   14  N   UNL     1      -9.967  11.518  64.678  1.00  0.00    -0.251 NA 
HETATM   15  N   UNL     1      -8.916   9.470  64.117  1.00  0.00    -0.225 NA 
HETATM   16  C   UNL     1      -9.713  10.505  63.853  1.00  0.00    -0.325 A  
BRANCH  12  17
HETATM   17  C   UNL     1      -7.595  10.531  67.545  1.00  0.00    -0.093 A  
HETATM   18  C   UNL     1      -6.278  11.018  67.605  1.00  0.00    -0.052 A  
HETATM   19  C   UNL     1      -5.551  11.131  68.798  1.00  0.00    -0.039 A  
HETATM   20  C   UNL     1      -7.408  10.211  69.990  1.00  0.00    -0.172 A  
HETATM   21  C   UNL     1      -8.111  10.080  68.780  1.00  0.00    -0.106 A  
HETATM   22 BR   UNL     1      -5.198  10.998  71.614  1.00  0.00     0.131 Br 
HETATM   23  C   UNL     1      -6.134  10.754  69.994  1.00  0.00    -0.107 A  
ENDBRANCH  12  17
BRANCH  13  24
HETATM   24  O   UNL     1      -7.481   8.414  65.615  1.00  0.00    -0.078 OA 
BRANCH  24  25
HETATM   25  C   UNL     1      -8.079   7.117  65.632  1.00  0.00    -0.133 C  
BRANCH  25  26
HETATM   26  C   UNL     1      -8.474   6.825  67.080  1.00  0.00    -0.120 C  
BRANCH  26  27
HETATM   27  O   UNL     1      -9.892   6.842  67.213  1.00  0.00    -0.135 OA 
BRANCH  27  28
HETATM   28  C   UNL     1     -10.307   6.906  68.528  1.00  0.00    -0.186 A  
HETATM   29  N   UNL     1     -10.860   5.828  69.115  1.00  0.00    -0.309 NA 
HETATM   30  C   UNL     1     -11.234   5.981  70.405  1.00  0.00    -0.310 A  
HETATM   31  C   UNL     1     -11.076   7.152  71.109  1.00  0.00    -0.254 A  
HETATM   32  C   UNL     1     -10.506   8.189  70.408  1.00  0.00    -0.215 A  
HETATM   33 BR   UNL     1     -11.603   7.323  72.902  1.00  0.00    -0.061 Br 
HETATM   34  N   UNL     1     -10.113   8.094  69.120  1.00  0.00    -0.197 NA 
ENDBRANCH  27  28
ENDBRANCH  26  27
ENDBRANCH  25  26
ENDBRANCH  24  25
ENDBRANCH  13  24
ENDBRANCH   9  11
ENDBRANCH   6   9
ENDBRANCH   4   6
ENDBRANCH   3   4
ENDBRANCH   2   3
TORSDOF 11
ENDMDL
MODEL      173
REMARK 921   NORMALIZED FREE ENERGY PREDICTED BY IDOCK:   -4.09 KCAL/MOL
REMARK 922        TOTAL FREE ENERGY PREDICTED BY IDOCK:   -8.14 KCAL/MOL
REMARK 923 INTER-LIGAND FREE ENERGY PREDICTED BY IDOCK:   -6.60 KCAL/MOL
REMARK 924 INTRA-LIGAND FREE ENERGY PREDICTED BY IDOCK:   -1.54 KCAL/MOL
REMARK 927      BINDING AFFINITY PREDICTED BY RF-SCORE:    0.00 PKD
ROOT
HETATM    1  C   UNL     1      -8.459   6.407  67.429  1.00  0.00    -0.108 C  
HETATM    2  C   UNL     1      -8.414   7.877  67.042  1.00  0.00    -0.124 C  
ENDROOT
BRANCH   2   3
HETATM    3  C   UNL     1      -7.041   8.493  67.281  1.00  0.00    -0.076 C  
BRANCH   3   4
HETATM    4  N   UNL     1      -7.034   9.211  68.587  1.00  0.00    -0.062 N  
HETATM    5  H   UNL     1      -7.261   8.772  69.480  1.00  0.00     0.000 HD 
BRANCH   4   6
HETATM    6  S   UNL     1      -6.610  10.824  68.416  1.00  0.00    -0.056 S  
HETATM    7  O   UNL     1      -5.410  10.980  69.211  1.00  0.00    -0.041 OA 
HETATM    8  O   UNL     1      -6.641  11.165  67.019  1.00  0.00    -0.088 OA 
BRANCH   6   9
HETATM    9  N   UNL     1      -7.838  11.599  69.251  1.00  0.00    -0.352 N  
HETATM   10  H   UNL     1      -7.684  12.021  70.167  1.00  0.00     0.000 HD 
BRANCH   9  11
HETATM   11  C   UNL     1      -9.101  11.635  68.614  1.00  0.00    -0.100 A  
HETATM   12  C   UNL     1      -9.624  12.764  67.969  1.00  0.00    -0.217 A  
HETATM   13  C   UNL     1     -10.828  12.452  67.320  1.00  0.00    -0.243 A  
HETATM   14  N   UNL     1      -9.704  10.437  68.735  1.00  0.00    -0.174 NA 
HETATM   15  N   UNL     1     -11.459  11.258  67.372  1.00  0.00    -0.513 NA 
HETATM   16  C   UNL     1     -10.866  10.311  68.097  1.00  0.00    -0.265 A  
BRANCH  12  17
HETATM   17  C   UNL     1      -9.036  14.153  67.982  1.00  0.00    -0.183 A  
HETATM   18  C   UNL     1      -7.974  14.556  67.155  1.00  0.00    -0.167 A  
HETATM   19  C   UNL     1      -7.492  15.871  67.104  1.00  0.00    -0.262 A  
HETATM   20  C   UNL     1      -9.083  16.494  68.777  1.00  0.00    -0.256 A  
HETATM   21  C   UNL     1      -9.534  15.164  68.833  1.00  0.00    -0.213 A  
HETATM   22 BR   UNL     1      -7.494  18.636  67.760  1.00  0.00    -0.247 Br 
HETATM   23  C   UNL     1      -8.072  16.844  67.897  1.00  0.00    -0.188 A  
ENDBRANCH  12  17
BRANCH  13  24
HETATM   24  O   UNL     1     -11.417  13.437  66.555  1.00  0.00    -0.317 OA 
BRANCH  24  25
HETATM   25  C   UNL     1     -12.325  13.027  65.532  1.00  0.00    -0.472 C  
BRANCH  25  26
HETATM   26  C   UNL     1     -11.617  13.244  64.194  1.00  0.00    -0.405 C  
BRANCH  26  27
HETATM   27  O   UNL     1     -10.205  13.247  64.381  1.00  0.00    -0.392 OA 
BRANCH  27  28
HETATM   28  C   UNL     1      -9.605  12.079  63.953  1.00  0.00    -0.041 A  
HETATM   29  N   UNL     1      -9.251  11.936  62.663  1.00  0.00    -0.012 NA 
HETATM   30  C   UNL     1      -8.668  10.762  62.334  1.00  0.00    -0.289 A  
HETATM   31  C   UNL     1      -8.435   9.750  63.236  1.00  0.00    -0.181 A  
HETATM   32  C   UNL     1      -8.842  10.003  64.525  1.00  0.00    -0.205 A  
HETATM   33 BR   UNL     1      -7.617   8.135  62.742  1.00  0.00    -0.128 Br 
HETATM   34  N   UNL     1      -9.430  11.156  64.911  1.00  0.00    -0.221 NA 
ENDBRANCH  27  28
ENDBRANCH  26  27
ENDBRANCH  25  26
ENDBRANCH  24  25
ENDBRANCH  13  24
ENDBRANCH   9  11
ENDBRANCH   6   9
ENDBRANCH   4   6
ENDBRANCH   3   4
ENDBRANCH   2   3
TORSDOF 11
ENDMDL
MODEL      174
REMARK 921   NORMALIZED FREE ENERGY PREDICTED BY IDOCK:   -4.09 KCAL/MOL
REMARK 922        TOTAL FREE ENERGY PREDICTED BY IDOCK:   -8.14 KCAL/MOL
REMARK 923 INTER-LIGAND FREE ENERGY PREDICTED BY IDOCK:   -7.70 KCAL/MOL
REMARK 924 INTRA-LIGAND FREE ENERGY PREDICTED BY IDOCK:   -0.43 KCAL/MOL
REMARK 927      BINDING AFFINITY PREDICTED BY RF-SCORE:    0.00 PKD
ROOT
HETATM    1  C   UNL     1      -6.583  19.613  69.650  1.00  0.00    -0.365 C  
HETATM    2  C   UNL     1      -5.323  18.820  69.343  1.00  0.00    -0.206 C  
ENDROOT
BRANCH   2   3
HETATM    3  C   UNL     1      -5.634  17.398  68.892  1.00  0.00    -0.161 C  
BRANCH   3   4
HETATM    4  N   UNL     1      -5.189  16.432  69.937  1.00  0.00    -0.141 N  
HETATM    5  H   UNL     1      -4.470  16.634  70.630  1.00  0.00     0.000 HD 
BRANCH   4   6
HETATM    6  S   UNL     1      -6.013  14.974  69.837  1.00  0.00    -0.145 S  
HETATM    7  O   UNL     1      -5.151  14.015  70.494  1.00  0.00    -0.093 OA 
HETATM    8  O   UNL     1      -7.372  15.181  70.259  1.00  0.00     0.018 OA 
BRANCH   6   9
HETATM    9  N   UNL     1      -5.937  14.641  68.198  1.00  0.00    -0.128 N  
HETATM   10  H   UNL     1      -5.186  15.003  67.609  1.00  0.00     0.000 HD 
BRANCH   9  11
HETATM   11  C   UNL     1      -6.972  13.830  67.675  1.00  0.00    -0.174 A  
HETATM   12  C   UNL     1      -8.157  14.329  67.120  1.00  0.00    -0.154 A  
HETATM   13  C   UNL     1      -8.922  13.292  66.568  1.00  0.00    -0.054 A  
HETATM   14  N   UNL     1      -6.638  12.531  67.805  1.00  0.00    -0.105 NA 
HETATM   15  N   UNL     1      -8.620  11.976  66.631  1.00  0.00    -0.174 NA 
HETATM   16  C   UNL     1      -7.492  11.663  67.267  1.00  0.00    -0.143 A  
BRANCH  12  17
HETATM   17  C   UNL     1      -8.612  15.767  67.132  1.00  0.00    -0.226 A  
HETATM   18  C   UNL     1      -9.500  16.294  68.086  1.00  0.00    -0.215 A  
HETATM   19  C   UNL     1      -9.849  17.649  68.150  1.00  0.00    -0.318 A  
HETATM   20  C   UNL     1      -8.471  18.070  66.242  1.00  0.00    -0.214 A  
HETATM   21  C   UNL     1      -8.155  16.702  66.177  1.00  0.00    -0.273 A  
HETATM   22 BR   UNL     1      -9.692  20.382  67.386  1.00  0.00    -0.577 Br 
HETATM   23  C   UNL     1      -9.305  18.540  67.243  1.00  0.00    -0.280 A  
ENDBRANCH  12  17
BRANCH  13  24
HETATM   24  O   UNL     1     -10.076  13.636  65.893  1.00  0.00    -0.298 OA 
BRANCH  24  25
HETATM   25  C   UNL     1     -11.264  13.818  66.664  1.00  0.00    -0.318 C  
BRANCH  25  26
HETATM   26  C   UNL     1     -11.873  12.433  66.883  1.00  0.00    -0.307 C  
BRANCH  26  27
HETATM   27  O   UNL     1     -11.353  11.854  68.077  1.00  0.00    -0.244 OA 
BRANCH  27  28
HETATM   28  C   UNL     1     -11.785  12.500  69.218  1.00  0.00    -0.321 A  
HETATM   29  N   UNL     1     -12.379  11.803  70.204  1.00  0.00    -0.234 NA 
HETATM   30  C   UNL     1     -12.767  12.517  71.284  1.00  0.00    -0.252 A  
HETATM   31  C   UNL     1     -12.584  13.875  71.405  1.00  0.00    -0.361 A  
HETATM   32  C   UNL     1     -11.971  14.484  70.335  1.00  0.00    -0.318 A  
HETATM   33 BR   UNL     1     -13.131  14.831  72.924  1.00  0.00    -0.634 Br 
HETATM   34  N   UNL     1     -11.563  13.823  69.230  1.00  0.00    -0.291 NA 
ENDBRANCH  27  28
ENDBRANCH  26  27
ENDBRANCH  25  26
ENDBRANCH  24  25
ENDBRANCH  13  24
ENDBRANCH   9  11
ENDBRANCH   6   9
ENDBRANCH   4   6
ENDBRANCH   3   4
ENDBRANCH   2   3
TORSDOF 11
ENDMDL
MODEL      175
REMARK 921   NORMALIZED FREE ENERGY PREDICTED BY IDOCK:   -4.07 KCAL/MOL
REMARK 922        TOTAL FREE ENERGY PREDICTED BY IDOCK:   -8.10 KCAL/MOL
REMARK 923 INTER-LIGAND FREE ENERGY PREDICTED BY IDOCK:   -6.26 KCAL/MOL
REMARK 924 INTRA-LIGAND FREE ENERGY PREDICTED BY IDOCK:   -1.84 KCAL/MOL
REMARK 927      BINDING AFFINITY PREDICTED BY RF-SCORE:    0.00 PKD
ROOT
HETATM    1  C   UNL     1      -6.071   3.857  67.092  1.00  0.00    -0.025 C  
HETATM    2  C   UNL     1      -6.336   4.952  66.072  1.00  0.00    -0.039 C  
ENDROOT
BRANCH   2   3
HETATM    3  C   UNL     1      -7.121   6.115  66.667  1.00  0.00    -0.072 C  
BRANCH   3   4
HETATM    4  N   UNL     1      -8.363   6.338  65.874  1.00  0.00    -0.135 N  
HETATM    5  H   UNL     1      -8.372   6.662  64.907  1.00  0.00     0.000 HD 
BRANCH   4   6
HETATM    6  S   UNL     1      -9.746   5.996  66.760  1.00  0.00    -0.160 S  
HETATM    7  O   UNL     1     -10.536   5.141  65.900  1.00  0.00    -0.206 OA 
HETATM    8  O   UNL     1      -9.357   5.586  68.083  1.00  0.00    -0.108 OA 
BRANCH   6   9
HETATM    9  N   UNL     1     -10.517   7.482  66.794  1.00  0.00    -0.476 N  
HETATM   10  H   UNL     1     -11.524   7.564  66.937  1.00  0.00     0.000 HD 
BRANCH   9  11
HETATM   11  C   UNL     1      -9.693   8.619  66.613  1.00  0.00    -0.247 A  
HETATM   12  C   UNL     1      -8.924   9.202  67.629  1.00  0.00    -0.130 A  
HETATM   13  C   UNL     1      -8.115  10.224  67.115  1.00  0.00    -0.121 A  
HETATM   14  N   UNL     1      -9.775   9.039  65.336  1.00  0.00    -0.048 NA 
HETATM   15  N   UNL     1      -8.123  10.662  65.836  1.00  0.00    -0.158 NA 
HETATM   16  C   UNL     1      -8.974  10.051  65.012  1.00  0.00    -0.199 A  
BRANCH  12  17
HETATM   17  C   UNL     1      -8.965   8.846  69.095  1.00  0.00    -0.140 A  
HETATM   18  C   UNL     1      -8.062   7.959  69.705  1.00  0.00    -0.116 A  
HETATM   19  C   UNL     1      -8.044   7.703  71.083  1.00  0.00    -0.098 A  
HETATM   20  C   UNL     1      -9.902   9.183  71.358  1.00  0.00    -0.354 A  
HETATM   21  C   UNL     1      -9.921   9.406  69.970  1.00  0.00    -0.253 A  
HETATM   22 BR   UNL     1      -8.865   8.079  73.777  1.00  0.00    -0.253 Br 
HETATM   23  C   UNL     1      -8.948   8.343  71.910  1.00  0.00    -0.214 A  
ENDBRANCH  12  17
BRANCH  13  24
HETATM   24  O   UNL     1      -7.224  10.831  67.976  1.00  0.00    -0.084 OA 
BRANCH  24  25
HETATM   25  C   UNL     1      -7.736  11.821  68.870  1.00  0.00    -0.041 C  
BRANCH  25  26
HETATM   26  C   UNL     1      -7.845  13.124  68.079  1.00  0.00    -0.147 C  
BRANCH  26  27
HETATM   27  O   UNL     1      -9.161  13.659  68.196  1.00  0.00    -0.185 OA 
BRANCH  27  28
HETATM   28  C   UNL     1      -9.935  13.431  67.076  1.00  0.00    -0.246 A  
HETATM   29  N   UNL     1      -9.738  14.156  65.960  1.00  0.00    -0.296 NA 
HETATM   30  C   UNL     1     -10.540  13.862  64.912  1.00  0.00    -0.419 A  
HETATM   31  C   UNL     1     -11.510  12.888  64.947  1.00  0.00    -0.315 A  
HETATM   32  C   UNL     1     -11.627  12.214  66.140  1.00  0.00    -0.354 A  
HETATM   33 BR   UNL     1     -12.600  12.505  63.468  1.00  0.00    -0.386 Br 
HETATM   34  N   UNL     1     -10.855  12.465  67.219  1.00  0.00    -0.236 NA 
ENDBRANCH  27  28
ENDBRANCH  26  27
ENDBRANCH  25  26
ENDBRANCH  24  25
ENDBRANCH  13  24
ENDBRANCH   9  11
ENDBRANCH   6   9
ENDBRANCH   4   6
ENDBRANCH   3   4
ENDBRANCH   2   3
TORSDOF 11
ENDMDL
MODEL      176
REMARK 921   NORMALIZED FREE ENERGY PREDICTED BY IDOCK:   -4.05 KCAL/MOL
REMARK 922        TOTAL FREE ENERGY PREDICTED BY IDOCK:   -8.07 KCAL/MOL
REMARK 923 INTER-LIGAND FREE ENERGY PREDICTED BY IDOCK:   -8.80 KCAL/MOL
REMARK 924 INTRA-LIGAND FREE ENERGY PREDICTED BY IDOCK:    0.73 KCAL/MOL
REMARK 927      BINDING AFFINITY PREDICTED BY RF-SCORE:    0.00 PKD
ROOT
HETATM    1  C   UNL     1     -10.429  20.565  68.618  1.00  0.00     0.105 C  
HETATM    2  C   UNL     1      -9.552  19.877  67.584  1.00  0.00    -0.493 C  
ENDROOT
BRANCH   2   3
HETATM    3  C   UNL     1     -10.101  20.032  66.170  1.00  0.00    -0.475 C  
BRANCH   3   4
HETATM    4  N   UNL     1     -10.669  18.734  65.708  1.00  0.00    -0.365 N  
HETATM    5  H   UNL     1     -11.330  18.644  64.936  1.00  0.00     0.000 HD 
BRANCH   4   6
HETATM    6  S   UNL     1     -10.095  17.440  66.607  1.00  0.00    -0.326 S  
HETATM    7  O   UNL     1      -8.713  17.767  66.889  1.00  0.00    -0.234 OA 
HETATM    8  O   UNL     1     -11.033  17.154  67.659  1.00  0.00    -0.285 OA 
BRANCH   6   9
HETATM    9  N   UNL     1     -10.071  16.209  65.472  1.00  0.00    -0.323 N  
HETATM   10  H   UNL     1      -9.609  16.317  64.569  1.00  0.00     0.000 HD 
BRANCH   9  11
HETATM   11  C   UNL     1     -10.728  15.010  65.836  1.00  0.00    -0.331 A  
HETATM   12  C   UNL     1     -10.326  14.182  66.892  1.00  0.00    -0.269 A  
HETATM   13  C   UNL     1     -11.250  13.146  67.091  1.00  0.00    -0.294 A  
HETATM   14  N   UNL     1     -11.775  14.799  65.013  1.00  0.00    -0.372 NA 
HETATM   15  N   UNL     1     -12.338  12.909  66.325  1.00  0.00    -0.476 NA 
HETATM   16  C   UNL     1     -12.534  13.746  65.308  1.00  0.00    -0.480 A  
BRANCH  12  17
HETATM   17  C   UNL     1      -9.059  14.317  67.700  1.00  0.00    -0.192 A  
HETATM   18  C   UNL     1      -8.954  15.112  68.854  1.00  0.00    -0.206 A  
HETATM   19  C   UNL     1      -7.803  15.163  69.653  1.00  0.00    -0.125 A  
HETATM   20  C   UNL     1      -6.723  13.644  68.155  1.00  0.00    -0.122 A  
HETATM   21  C   UNL     1      -7.877  13.628  67.351  1.00  0.00    -0.162 A  
HETATM   22 BR   UNL     1      -5.186  14.388  70.441  1.00  0.00    -0.109 Br 
HETATM   23  C   UNL     1      -6.700  14.401  69.315  1.00  0.00    -0.126 A  
ENDBRANCH  12  17
BRANCH  13  24
HETATM   24  O   UNL     1     -11.044  12.301  68.163  1.00  0.00    -0.212 OA 
BRANCH  24  25
HETATM   25  C   UNL     1     -10.411  11.047  67.906  1.00  0.00    -0.192 C  
BRANCH  25  26
HETATM   26  C   UNL     1     -11.123  10.002  68.765  1.00  0.00    -0.173 C  
BRANCH  26  27
HETATM   27  O   UNL     1     -11.309  10.500  70.087  1.00  0.00    -0.279 OA 
BRANCH  27  28
HETATM   28  C   UNL     1     -11.005   9.568  71.059  1.00  0.00    -0.353 A  
HETATM   29  N   UNL     1      -9.722   9.340  71.397  1.00  0.00    -0.257 NA 
HETATM   30  C   UNL     1      -9.519   8.412  72.359  1.00  0.00    -0.295 A  
HETATM   31  C   UNL     1     -10.535   7.722  72.978  1.00  0.00    -0.369 A  
HETATM   32  C   UNL     1     -11.804   8.032  72.550  1.00  0.00    -0.361 A  
HETATM   33 BR   UNL     1     -10.212   6.446  74.315  1.00  0.00    -0.326 Br 
HETATM   34  N   UNL     1     -12.068   8.948  71.593  1.00  0.00    -0.323 NA 
ENDBRANCH  27  28
ENDBRANCH  26  27
ENDBRANCH  25  26
ENDBRANCH  24  25
ENDBRANCH  13  24
ENDBRANCH   9  11
ENDBRANCH   6   9
ENDBRANCH   4   6
ENDBRANCH   3   4
ENDBRANCH   2   3
TORSDOF 11
ENDMDL
MODEL      177
REMARK 921   NORMALIZED FREE ENERGY PREDICTED BY IDOCK:   -4.03 KCAL/MOL
REMARK 922        TOTAL FREE ENERGY PREDICTED BY IDOCK:   -8.04 KCAL/MOL
REMARK 923 INTER-LIGAND FREE ENERGY PREDICTED BY IDOCK:   -6.69 KCAL/MOL
REMARK 924 INTRA-LIGAND FREE ENERGY PREDICTED BY IDOCK:   -1.36 KCAL/MOL
REMARK 927      BINDING AFFINITY PREDICTED BY RF-SCORE:    0.00 PKD
ROOT
HETATM    1  C   UNL     1     -11.590  15.827  66.670  1.00  0.00     0.366 C  
HETATM    2  C   UNL     1     -10.812  15.819  65.363  1.00  0.00    -0.376 C  
ENDROOT
BRANCH   2   3
HETATM    3  C   UNL     1     -10.055  14.513  65.153  1.00  0.00    -0.327 C  
BRANCH   3   4
HETATM    4  N   UNL     1     -10.877  13.584  64.327  1.00  0.00    -0.535 N  
HETATM    5  H   UNL     1     -11.264  13.823  63.414  1.00  0.00     0.000 HD 
BRANCH   4   6
HETATM    6  S   UNL     1     -11.092  12.099  65.077  1.00  0.00    -0.329 S  
HETATM    7  O   UNL     1     -12.471  12.101  65.517  1.00  0.00    -0.517 OA 
HETATM    8  O   UNL     1     -10.575  11.068  64.217  1.00  0.00    -0.357 OA 
BRANCH   6   9
HETATM    9  N   UNL     1     -10.151  12.262  66.452  1.00  0.00    -0.222 N  
HETATM   10  H   UNL     1      -9.222  12.683  66.422  1.00  0.00     0.000 HD 
BRANCH   9  11
HETATM   11  C   UNL     1     -10.717  11.784  67.658  1.00  0.00    -0.214 A  
HETATM   12  C   UNL     1     -10.509  10.496  68.168  1.00  0.00    -0.217 A  
HETATM   13  C   UNL     1     -11.087  10.365  69.438  1.00  0.00    -0.254 A  
HETATM   14  N   UNL     1     -11.476  12.748  68.215  1.00  0.00    -0.290 NA 
HETATM   15  N   UNL     1     -11.824  11.310  70.065  1.00  0.00    -0.337 NA 
HETATM   16  C   UNL     1     -11.994  12.455  69.406  1.00  0.00    -0.260 A  
BRANCH  12  17
HETATM   17  C   UNL     1      -9.809   9.360  67.464  1.00  0.00    -0.220 A  
HETATM   18  C   UNL     1      -8.436   9.358  67.166  1.00  0.00    -0.128 A  
HETATM   19  C   UNL     1      -7.772   8.263  66.595  1.00  0.00    -0.093 A  
HETATM   20  C   UNL     1      -9.846   7.075  66.519  1.00  0.00    -0.175 A  
HETATM   21  C   UNL     1     -10.499   8.194  67.066  1.00  0.00    -0.396 A  
HETATM   22 BR   UNL     1      -7.572   5.599  65.628  1.00  0.00    -0.089 Br 
HETATM   23  C   UNL     1      -8.478   7.111  66.302  1.00  0.00    -0.138 A  
ENDBRANCH  12  17
BRANCH  13  24
HETATM   24  O   UNL     1     -10.882   9.181  70.117  1.00  0.00    -0.228 OA 
BRANCH  24  25
HETATM   25  C   UNL     1     -11.127   9.173  71.524  1.00  0.00    -0.365 C  
BRANCH  25  26
HETATM   26  C   UNL     1      -9.844   8.686  72.198  1.00  0.00    -0.317 C  
BRANCH  26  27
HETATM   27  O   UNL     1      -8.715   9.004  71.389  1.00  0.00    -0.258 OA 
BRANCH  27  28
HETATM   28  C   UNL     1      -7.900   7.914  71.154  1.00  0.00    -0.086 A  
HETATM   29  N   UNL     1      -7.177   7.383  72.157  1.00  0.00    -0.067 NA 
HETATM   30  C   UNL     1      -6.410   6.318  71.835  1.00  0.00    -0.043 A  
HETATM   31  C   UNL     1      -6.345   5.781  70.570  1.00  0.00    -0.032 A  
HETATM   32  C   UNL     1      -7.121   6.407  69.624  1.00  0.00    -0.073 A  
HETATM   33 BR   UNL     1      -5.272   4.296  70.165  1.00  0.00    -0.004 Br 
HETATM   34  N   UNL     1      -7.906   7.474  69.886  1.00  0.00    -0.105 NA 
ENDBRANCH  27  28
ENDBRANCH  26  27
ENDBRANCH  25  26
ENDBRANCH  24  25
ENDBRANCH  13  24
ENDBRANCH   9  11
ENDBRANCH   6   9
ENDBRANCH   4   6
ENDBRANCH   3   4
ENDBRANCH   2   3
TORSDOF 11
ENDMDL
MODEL      178
REMARK 921   NORMALIZED FREE ENERGY PREDICTED BY IDOCK:   -4.02 KCAL/MOL
REMARK 922        TOTAL FREE ENERGY PREDICTED BY IDOCK:   -8.02 KCAL/MOL
REMARK 923 INTER-LIGAND FREE ENERGY PREDICTED BY IDOCK:   -7.54 KCAL/MOL
REMARK 924 INTRA-LIGAND FREE ENERGY PREDICTED BY IDOCK:   -0.48 KCAL/MOL
REMARK 927      BINDING AFFINITY PREDICTED BY RF-SCORE:    0.00 PKD
ROOT
HETATM    1  C   UNL     1     -10.484  16.460  67.117  1.00  0.00    -0.297 C  
HETATM    2  C   UNL     1      -9.917  16.184  65.733  1.00  0.00    -0.370 C  
ENDROOT
BRANCH   2   3
HETATM    3  C   UNL     1      -9.981  14.705  65.370  1.00  0.00    -0.330 C  
BRANCH   3   4
HETATM    4  N   UNL     1     -11.355  14.363  64.903  1.00  0.00    -0.361 N  
HETATM    5  H   UNL     1     -11.783  14.749  64.061  1.00  0.00     0.000 HD 
BRANCH   4   6
HETATM    6  S   UNL     1     -12.112  13.270  65.924  1.00  0.00    -0.447 S  
HETATM    7  O   UNL     1     -12.908  14.085  66.817  1.00  0.00    -0.037 OA 
HETATM    8  O   UNL     1     -12.701  12.225  65.129  1.00  0.00    -0.571 OA 
BRANCH   6   9
HETATM    9  N   UNL     1     -10.828  12.687  66.827  1.00  0.00    -0.246 N  
HETATM   10  H   UNL     1      -9.862  12.777  66.510  1.00  0.00     0.000 HD 
BRANCH   9  11
HETATM   11  C   UNL     1     -11.157  12.062  68.053  1.00  0.00    -0.241 A  
HETATM   12  C   UNL     1     -10.707  10.791  68.434  1.00  0.00    -0.255 A  
HETATM   13  C   UNL     1     -11.088  10.504  69.752  1.00  0.00    -0.295 A  
HETATM   14  N   UNL     1     -11.962  12.870  68.771  1.00  0.00    -0.298 NA 
HETATM   15  N   UNL     1     -11.859  11.292  70.535  1.00  0.00    -0.348 NA 
HETATM   16  C   UNL     1     -12.272  12.435  69.990  1.00  0.00    -0.194 A  
BRANCH  12  17
HETATM   17  C   UNL     1      -9.956   9.813  67.565  1.00  0.00    -0.230 A  
HETATM   18  C   UNL     1     -10.508   8.610  67.093  1.00  0.00    -0.360 A  
HETATM   19  C   UNL     1      -9.840   7.749  66.212  1.00  0.00    -0.111 A  
HETATM   20  C   UNL     1      -7.953   9.218  66.242  1.00  0.00    -0.107 A  
HETATM   21  C   UNL     1      -8.629  10.055  67.147  1.00  0.00    -0.128 A  
HETATM   22 BR   UNL     1      -7.709   6.970  64.501  1.00  0.00    -0.116 Br 
HETATM   23  C   UNL     1      -8.573   8.074  65.764  1.00  0.00    -0.153 A  
ENDBRANCH  12  17
BRANCH  13  24
HETATM   24  O   UNL     1     -10.633   9.325  70.308  1.00  0.00    -0.206 OA 
BRANCH  24  25
HETATM   25  C   UNL     1     -11.202   8.917  71.553  1.00  0.00    -0.326 C  
BRANCH  25  26
HETATM   26  C   UNL     1     -10.146   8.081  72.275  1.00  0.00    -0.246 C  
BRANCH  26  27
HETATM   27  O   UNL     1      -9.346   7.379  71.327  1.00  0.00    -0.153 OA 
BRANCH  27  28
HETATM   28  C   UNL     1      -9.503   6.009  71.402  1.00  0.00    -0.156 A  
HETATM   29  N   UNL     1      -9.023   5.220  70.424  1.00  0.00    -0.125 NA 
HETATM   30  C   UNL     1      -9.221   3.892  70.582  1.00  0.00    -0.127 A  
HETATM   31  C   UNL     1      -9.870   3.343  71.663  1.00  0.00    -0.152 A  
HETATM   32  C   UNL     1     -10.324   4.244  72.598  1.00  0.00    -0.178 A  
HETATM   33 BR   UNL     1     -10.119   1.493  71.849  1.00  0.00    -0.201 Br 
HETATM   34  N   UNL     1     -10.156   5.580  72.493  1.00  0.00    -0.173 NA 
ENDBRANCH  27  28
ENDBRANCH  26  27
ENDBRANCH  25  26
ENDBRANCH  24  25
ENDBRANCH  13  24
ENDBRANCH   9  11
ENDBRANCH   6   9
ENDBRANCH   4   6
ENDBRANCH   3   4
ENDBRANCH   2   3
TORSDOF 11
ENDMDL
MODEL      179
REMARK 921   NORMALIZED FREE ENERGY PREDICTED BY IDOCK:   -3.98 KCAL/MOL
REMARK 922        TOTAL FREE ENERGY PREDICTED BY IDOCK:   -7.96 KCAL/MOL
REMARK 923 INTER-LIGAND FREE ENERGY PREDICTED BY IDOCK:   -6.44 KCAL/MOL
REMARK 924 INTRA-LIGAND FREE ENERGY PREDICTED BY IDOCK:   -1.52 KCAL/MOL
REMARK 927      BINDING AFFINITY PREDICTED BY RF-SCORE:    0.00 PKD
ROOT
HETATM    1  C   UNL     1     -11.258  15.794  70.533  1.00  0.00    -0.392 C  
HETATM    2  C   UNL     1     -12.110  14.821  71.332  1.00  0.00    -0.401 C  
ENDROOT
BRANCH   2   3
HETATM    3  C   UNL     1     -12.298  13.493  70.607  1.00  0.00    -0.358 C  
BRANCH   3   4
HETATM    4  N   UNL     1     -11.055  13.148  69.861  1.00  0.00    -0.448 N  
HETATM    5  H   UNL     1     -10.135  13.066  70.294  1.00  0.00     0.000 HD 
BRANCH   4   6
HETATM    6  S   UNL     1     -11.347  12.913  68.226  1.00  0.00    -0.315 S  
HETATM    7  O   UNL     1     -12.063  11.657  68.154  1.00  0.00    -0.577 OA 
HETATM    8  O   UNL     1     -11.889  14.125  67.674  1.00  0.00    -0.360 OA 
BRANCH   6   9
HETATM    9  N   UNL     1      -9.807  12.619  67.635  1.00  0.00    -0.206 N  
HETATM   10  H   UNL     1      -8.987  13.102  68.004  1.00  0.00     0.000 HD 
BRANCH   9  11
HETATM   11  C   UNL     1      -9.708  11.665  66.596  1.00  0.00    -0.202 A  
HETATM   12  C   UNL     1      -9.302  10.337  66.784  1.00  0.00    -0.187 A  
HETATM   13  C   UNL     1      -9.433   9.605  65.595  1.00  0.00    -0.255 A  
HETATM   14  N   UNL     1     -10.053  12.234  65.424  1.00  0.00    -0.269 NA 
HETATM   15  N   UNL     1      -9.813  10.111  64.401  1.00  0.00    -0.300 NA 
HETATM   16  C   UNL     1     -10.089  11.414  64.376  1.00  0.00    -0.291 A  
BRANCH  12  17
HETATM   17  C   UNL     1      -8.747   9.745  68.055  1.00  0.00    -0.118 A  
HETATM   18  C   UNL     1      -9.542   9.141  69.044  1.00  0.00    -0.156 A  
HETATM   19  C   UNL     1      -9.015   8.511  70.179  1.00  0.00    -0.148 A  
HETATM   20  C   UNL     1      -6.813   9.091  69.451  1.00  0.00    -0.049 A  
HETATM   21  C   UNL     1      -7.362   9.743  68.333  1.00  0.00    -0.078 A  
HETATM   22 BR   UNL     1      -6.926   7.527  71.835  1.00  0.00    -0.064 Br 
HETATM   23  C   UNL     1      -7.645   8.461  70.362  1.00  0.00    -0.072 A  
ENDBRANCH  12  17
BRANCH  13  24
HETATM   24  O   UNL     1      -9.166   8.251  65.643  1.00  0.00    -0.130 OA 
BRANCH  24  25
HETATM   25  C   UNL     1      -8.034   7.774  64.915  1.00  0.00    -0.139 C  
BRANCH  25  26
HETATM   26  C   UNL     1      -8.160   6.252  64.839  1.00  0.00    -0.130 C  
BRANCH  26  27
HETATM   27  O   UNL     1      -9.254   5.812  65.639  1.00  0.00    -0.126 OA 
BRANCH  27  28
HETATM   28  C   UNL     1      -8.891   4.849  66.560  1.00  0.00    -0.112 A  
HETATM   29  N   UNL     1      -9.569   4.731  67.717  1.00  0.00    -0.146 NA 
HETATM   30  C   UNL     1      -9.145   3.761  68.556  1.00  0.00    -0.142 A  
HETATM   31  C   UNL     1      -8.088   2.925  68.282  1.00  0.00    -0.061 A  
HETATM   32  C   UNL     1      -7.465   3.139  67.075  1.00  0.00    -0.074 A  
HETATM   33 BR   UNL     1      -7.534   1.584  69.472  1.00  0.00    -0.038 Br 
HETATM   34  N   UNL     1      -7.844   4.093  66.197  1.00  0.00    -0.094 NA 
ENDBRANCH  27  28
ENDBRANCH  26  27
ENDBRANCH  25  26
ENDBRANCH  24  25
ENDBRANCH  13  24
ENDBRANCH   9  11
ENDBRANCH   6   9
ENDBRANCH   4   6
ENDBRANCH   3   4
ENDBRANCH   2   3
TORSDOF 11
ENDMDL
MODEL      180
REMARK 921   NORMALIZED FREE ENERGY PREDICTED BY IDOCK:   -3.98 KCAL/MOL
REMARK 922        TOTAL FREE ENERGY PREDICTED BY IDOCK:   -7.95 KCAL/MOL
REMARK 923 INTER-LIGAND FREE ENERGY PREDICTED BY IDOCK:   -6.62 KCAL/MOL
REMARK 924 INTRA-LIGAND FREE ENERGY PREDICTED BY IDOCK:   -1.33 KCAL/MOL
REMARK 927      BINDING AFFINITY PREDICTED BY RF-SCORE:    0.00 PKD
ROOT
HETATM    1  C   UNL     1     -10.391  16.241  68.171  1.00  0.00    -0.277 C  
HETATM    2  C   UNL     1     -11.428  15.141  68.014  1.00  0.00    -0.355 C  
ENDROOT
BRANCH   2   3
HETATM    3  C   UNL     1     -10.789  13.770  67.831  1.00  0.00    -0.244 C  
BRANCH   3   4
HETATM    4  N   UNL     1      -9.671  13.604  68.802  1.00  0.00    -0.405 N  
HETATM    5  H   UNL     1      -9.755  13.778  69.803  1.00  0.00     0.000 HD 
BRANCH   4   6
HETATM    6  S   UNL     1      -8.258  13.098  68.053  1.00  0.00    -0.169 S  
HETATM    7  O   UNL     1      -8.697  12.284  66.940  1.00  0.00    -0.196 OA 
HETATM    8  O   UNL     1      -7.401  14.238  67.864  1.00  0.00    -0.121 OA 
BRANCH   6   9
HETATM    9  N   UNL     1      -7.617  12.048  69.190  1.00  0.00    -0.331 N  
HETATM   10  H   UNL     1      -7.416  12.345  70.145  1.00  0.00     0.000 HD 
BRANCH   9  11
HETATM   11  C   UNL     1      -7.369  10.726  68.750  1.00  0.00    -0.104 A  
HETATM   12  C   UNL     1      -8.236   9.648  68.972  1.00  0.00    -0.113 A  
HETATM   13  C   UNL     1      -7.785   8.501  68.304  1.00  0.00    -0.102 A  
HETATM   14  N   UNL     1      -6.187  10.677  68.105  1.00  0.00    -0.057 NA 
HETATM   15  N   UNL     1      -6.630   8.404  67.608  1.00  0.00    -0.057 NA 
HETATM   16  C   UNL     1      -5.879   9.503  67.560  1.00  0.00    -0.044 A  
BRANCH  12  17
HETATM   17  C   UNL     1      -9.468   9.659  69.842  1.00  0.00    -0.260 A  
HETATM   18  C   UNL     1     -10.682  10.258  69.465  1.00  0.00    -0.280 A  
HETATM   19  C   UNL     1     -11.850  10.186  70.236  1.00  0.00    -0.342 A  
HETATM   20  C   UNL     1     -10.657   8.932  71.886  1.00  0.00    -0.419 A  
HETATM   21  C   UNL     1      -9.489   9.040  71.112  1.00  0.00    -0.348 A  
HETATM   22 BR   UNL     1     -13.435   9.308  72.425  1.00  0.00    -0.487 Br 
HETATM   23  C   UNL     1     -11.840   9.494  71.433  1.00  0.00    -0.389 A  
ENDBRANCH  12  17
BRANCH  13  24
HETATM   24  O   UNL     1      -8.586   7.378  68.344  1.00  0.00    -0.124 OA 
BRANCH  24  25
HETATM   25  C   UNL     1      -8.017   6.178  68.867  1.00  0.00    -0.101 C  
BRANCH  25  26
HETATM   26  C   UNL     1      -8.032   5.147  67.738  1.00  0.00    -0.095 C  
BRANCH  26  27
HETATM   27  O   UNL     1      -9.263   4.428  67.748  1.00  0.00    -0.120 OA 
BRANCH  27  28
HETATM   28  C   UNL     1      -9.628   3.972  66.498  1.00  0.00    -0.205 A  
HETATM   29  N   UNL     1      -8.969   2.942  65.935  1.00  0.00    -0.142 NA 
HETATM   30  C   UNL     1      -9.397   2.562  64.711  1.00  0.00    -0.127 A  
HETATM   31  C   UNL     1     -10.438   3.168  64.047  1.00  0.00    -0.149 A  
HETATM   32  C   UNL     1     -11.033   4.213  64.712  1.00  0.00    -0.023 A  
HETATM   33 BR   UNL     1     -11.006   2.607  62.348  1.00  0.00    -0.140 Br 
HETATM   34  N   UNL     1     -10.649   4.637  65.936  1.00  0.00    -0.294 NA 
ENDBRANCH  27  28
ENDBRANCH  26  27
ENDBRANCH  25  26
ENDBRANCH  24  25
ENDBRANCH  13  24
ENDBRANCH   9  11
ENDBRANCH   6   9
ENDBRANCH   4   6
ENDBRANCH   3   4
ENDBRANCH   2   3
TORSDOF 11
ENDMDL
MODEL      181
REMARK 921   NORMALIZED FREE ENERGY PREDICTED BY IDOCK:   -3.96 KCAL/MOL
REMARK 922        TOTAL FREE ENERGY PREDICTED BY IDOCK:   -7.92 KCAL/MOL
REMARK 923 INTER-LIGAND FREE ENERGY PREDICTED BY IDOCK:   -6.17 KCAL/MOL
REMARK 924 INTRA-LIGAND FREE ENERGY PREDICTED BY IDOCK:   -1.75 KCAL/MOL
REMARK 927      BINDING AFFINITY PREDICTED BY RF-SCORE:    0.00 PKD
ROOT
HETATM    1  C   UNL     1      -9.861   4.573  66.735  1.00  0.00    -0.242 C  
HETATM    2  C   UNL     1      -8.549   4.925  66.052  1.00  0.00    -0.119 C  
ENDROOT
BRANCH   2   3
HETATM    3  C   UNL     1      -8.640   6.228  65.267  1.00  0.00    -0.061 C  
BRANCH   3   4
HETATM    4  N   UNL     1      -7.313   6.906  65.265  1.00  0.00    -0.080 N  
HETATM    5  H   UNL     1      -6.428   6.425  65.110  1.00  0.00     0.000 HD 
BRANCH   4   6
HETATM    6  S   UNL     1      -7.447   8.553  65.549  1.00  0.00    -0.087 S  
HETATM    7  O   UNL     1      -6.314   9.142  64.868  1.00  0.00    -0.065 OA 
HETATM    8  O   UNL     1      -8.797   8.963  65.265  1.00  0.00    -0.191 OA 
BRANCH   6   9
HETATM    9  N   UNL     1      -7.122   8.653  67.189  1.00  0.00    -0.075 N  
HETATM   10  H   UNL     1      -6.171   8.597  67.554  1.00  0.00     0.000 HD 
BRANCH   9  11
HETATM   11  C   UNL     1      -8.241   8.820  68.040  1.00  0.00    -0.118 A  
HETATM   12  C   UNL     1      -8.724  10.063  68.468  1.00  0.00    -0.123 A  
HETATM   13  C   UNL     1      -9.918   9.911  69.187  1.00  0.00    -0.198 A  
HETATM   14  N   UNL     1      -8.745   7.614  68.366  1.00  0.00    -0.128 NA 
HETATM   15  N   UNL     1     -10.494   8.731  69.510  1.00  0.00    -0.218 NA 
HETATM   16  C   UNL     1      -9.861   7.635  69.092  1.00  0.00    -0.171 A  
BRANCH  12  17
HETATM   17  C   UNL     1      -8.062  11.401  68.252  1.00  0.00    -0.143 A  
HETATM   18  C   UNL     1      -8.521  12.357  67.331  1.00  0.00    -0.179 A  
HETATM   19  C   UNL     1      -7.959  13.634  67.199  1.00  0.00    -0.060 A  
HETATM   20  C   UNL     1      -6.364  13.081  68.891  1.00  0.00    -0.093 A  
HETATM   21  C   UNL     1      -6.923  11.795  68.989  1.00  0.00    -0.107 A  
HETATM   22 BR   UNL     1      -6.203  15.753  67.902  1.00  0.00    -0.173 Br 
HETATM   23  C   UNL     1      -6.898  14.002  68.005  1.00  0.00    -0.145 A  
ENDBRANCH  12  17
BRANCH  13  24
HETATM   24  O   UNL     1     -10.573  11.056  69.593  1.00  0.00    -0.193 OA 
BRANCH  24  25
HETATM   25  C   UNL     1     -11.824  11.358  68.976  1.00  0.00    -0.348 C  
BRANCH  25  26
HETATM   26  C   UNL     1     -12.101  12.840  69.227  1.00  0.00    -0.172 C  
BRANCH  26  27
HETATM   27  O   UNL     1     -12.000  13.570  68.007  1.00  0.00    -0.355 OA 
BRANCH  27  28
HETATM   28  C   UNL     1     -11.428  14.815  68.173  1.00  0.00    -0.323 A  
HETATM   29  N   UNL     1     -11.470  15.423  69.373  1.00  0.00    -0.300 NA 
HETATM   30  C   UNL     1     -10.882  16.639  69.443  1.00  0.00    -0.295 A  
HETATM   31  C   UNL     1     -10.269  17.250  68.375  1.00  0.00    -0.358 A  
HETATM   32  C   UNL     1     -10.291  16.540  67.197  1.00  0.00    -0.298 A  
HETATM   33 BR   UNL     1      -9.458  18.937  68.514  1.00  0.00    -0.436 Br 
HETATM   34  N   UNL     1     -10.863  15.324  67.068  1.00  0.00    -0.318 NA 
ENDBRANCH  27  28
ENDBRANCH  26  27
ENDBRANCH  25  26
ENDBRANCH  24  25
ENDBRANCH  13  24
ENDBRANCH   9  11
ENDBRANCH   6   9
ENDBRANCH   4   6
ENDBRANCH   3   4
ENDBRANCH   2   3
TORSDOF 11
ENDMDL
MODEL      182
REMARK 921   NORMALIZED FREE ENERGY PREDICTED BY IDOCK:   -3.96 KCAL/MOL
REMARK 922        TOTAL FREE ENERGY PREDICTED BY IDOCK:   -7.92 KCAL/MOL
REMARK 923 INTER-LIGAND FREE ENERGY PREDICTED BY IDOCK:   -6.38 KCAL/MOL
REMARK 924 INTRA-LIGAND FREE ENERGY PREDICTED BY IDOCK:   -1.54 KCAL/MOL
REMARK 927      BINDING AFFINITY PREDICTED BY RF-SCORE:    0.00 PKD
ROOT
HETATM    1  C   UNL     1      -5.904   3.789  63.174  1.00  0.00    -0.014 C  
HETATM    2  C   UNL     1      -6.840   3.025  64.097  1.00  0.00    -0.037 C  
ENDROOT
BRANCH   2   3
HETATM    3  C   UNL     1      -6.342   3.010  65.537  1.00  0.00    -0.031 C  
BRANCH   3   4
HETATM    4  N   UNL     1      -7.311   2.270  66.395  1.00  0.00    -0.060 N  
HETATM    5  H   UNL     1      -7.938   1.544  66.050  1.00  0.00     0.000 HD 
BRANCH   4   6
HETATM    6  S   UNL     1      -7.248   2.773  67.994  1.00  0.00    -0.049 S  
HETATM    7  O   UNL     1      -6.800   1.612  68.732  1.00  0.00    -0.029 OA 
HETATM    8  O   UNL     1      -6.545   4.026  68.057  1.00  0.00    -0.040 OA 
BRANCH   6   9
HETATM    9  N   UNL     1      -8.870   2.976  68.360  1.00  0.00    -0.107 N  
HETATM   10  H   UNL     1      -9.359   2.352  69.004  1.00  0.00     0.000 HD 
BRANCH   9  11
HETATM   11  C   UNL     1      -9.524   4.059  67.728  1.00  0.00    -0.178 A  
HETATM   12  C   UNL     1      -9.789   5.288  68.347  1.00  0.00    -0.208 A  
HETATM   13  C   UNL     1     -10.323   6.202  67.429  1.00  0.00    -0.211 A  
HETATM   14  N   UNL     1      -9.847   3.718  66.465  1.00  0.00    -0.124 NA 
HETATM   15  N   UNL     1     -10.630   5.931  66.140  1.00  0.00     0.026 NA 
HETATM   16  C   UNL     1     -10.389   4.687  65.729  1.00  0.00    -0.264 A  
BRANCH  12  17
HETATM   17  C   UNL     1      -9.590   5.612  69.807  1.00  0.00    -0.206 A  
HETATM   18  C   UNL     1      -8.393   6.125  70.334  1.00  0.00    -0.125 A  
HETATM   19  C   UNL     1      -8.242   6.512  71.672  1.00  0.00    -0.112 A  
HETATM   20  C   UNL     1     -10.498   5.843  72.096  1.00  0.00    -0.250 A  
HETATM   21  C   UNL     1     -10.621   5.435  70.756  1.00  0.00    -0.293 A  
HETATM   22 BR   UNL     1      -9.144   7.010  74.320  1.00  0.00    -0.243 Br 
HETATM   23  C   UNL     1      -9.310   6.397  72.543  1.00  0.00    -0.145 A  
ENDBRANCH  12  17
BRANCH  13  24
HETATM   24  O   UNL     1     -10.546   7.493  67.865  1.00  0.00    -0.219 OA 
BRANCH  24  25
HETATM   25  C   UNL     1     -10.489   8.539  66.894  1.00  0.00    -0.275 C  
BRANCH  25  26
HETATM   26  C   UNL     1     -10.392   9.857  67.663  1.00  0.00    -0.225 C  
BRANCH  26  27
HETATM   27  O   UNL     1     -11.591  10.609  67.497  1.00  0.00    -0.482 OA 
BRANCH  27  28
HETATM   28  C   UNL     1     -11.367  11.865  66.969  1.00  0.00    -0.329 A  
HETATM   29  N   UNL     1     -12.249  12.403  66.107  1.00  0.00    -0.609 NA 
HETATM   30  C   UNL     1     -11.950  13.637  65.644  1.00  0.00    -0.395 A  
HETATM   31  C   UNL     1     -10.820  14.332  66.007  1.00  0.00    -0.303 A  
HETATM   32  C   UNL     1      -9.987  13.685  66.889  1.00  0.00    -0.260 A  
HETATM   33 BR   UNL     1     -10.442  16.048  65.347  1.00  0.00    -0.375 Br 
HETATM   34  N   UNL     1     -10.234  12.453  67.384  1.00  0.00    -0.207 NA 
ENDBRANCH  27  28
ENDBRANCH  26  27
ENDBRANCH  25  26
ENDBRANCH  24  25
ENDBRANCH  13  24
ENDBRANCH   9  11
ENDBRANCH   6   9
ENDBRANCH   4   6
ENDBRANCH   3   4
ENDBRANCH   2   3
TORSDOF 11
ENDMDL
MODEL      183
REMARK 921   NORMALIZED FREE ENERGY PREDICTED BY IDOCK:   -3.95 KCAL/MOL
REMARK 922        TOTAL FREE ENERGY PREDICTED BY IDOCK:   -7.90 KCAL/MOL
REMARK 923 INTER-LIGAND FREE ENERGY PREDICTED BY IDOCK:   -6.61 KCAL/MOL
REMARK 924 INTRA-LIGAND FREE ENERGY PREDICTED BY IDOCK:   -1.30 KCAL/MOL
REMARK 927      BINDING AFFINITY PREDICTED BY RF-SCORE:    0.00 PKD
ROOT
HETATM    1  C   UNL     1     -10.241   2.083  73.524  1.00  0.00    -0.173 C  
HETATM    2  C   UNL     1      -9.580   2.160  72.157  1.00  0.00    -0.182 C  
ENDROOT
BRANCH   2   3
HETATM    3  C   UNL     1      -8.457   3.189  72.119  1.00  0.00    -0.074 C  
BRANCH   3   4
HETATM    4  N   UNL     1      -8.426   3.848  70.782  1.00  0.00    -0.070 N  
HETATM    5  H   UNL     1      -8.284   3.350  69.904  1.00  0.00     0.000 HD 
BRANCH   4   6
HETATM    6  S   UNL     1      -8.652   5.507  70.894  1.00  0.00    -0.129 S  
HETATM    7  O   UNL     1     -10.073   5.702  70.699  1.00  0.00    -0.188 OA 
HETATM    8  O   UNL     1      -7.977   5.988  72.069  1.00  0.00    -0.105 OA 
BRANCH   6   9
HETATM    9  N   UNL     1      -7.899   6.056  69.502  1.00  0.00    -0.097 N  
HETATM   10  H   UNL     1      -7.192   5.502  69.018  1.00  0.00     0.000 HD 
BRANCH   9  11
HETATM   11  C   UNL     1      -8.299   7.331  69.036  1.00  0.00    -0.126 A  
HETATM   12  C   UNL     1      -9.013   7.546  67.850  1.00  0.00    -0.131 A  
HETATM   13  C   UNL     1      -9.379   8.894  67.728  1.00  0.00    -0.141 A  
HETATM   14  N   UNL     1      -7.882   8.279  69.898  1.00  0.00    -0.100 NA 
HETATM   15  N   UNL     1      -9.025   9.882  68.580  1.00  0.00    -0.125 NA 
HETATM   16  C   UNL     1      -8.274   9.520  69.620  1.00  0.00    -0.141 A  
BRANCH  12  17
HETATM   17  C   UNL     1      -9.327   6.513  66.797  1.00  0.00    -0.179 A  
HETATM   18  C   UNL     1      -8.471   6.210  65.725  1.00  0.00    -0.147 A  
HETATM   19  C   UNL     1      -8.723   5.187  64.801  1.00  0.00    -0.133 A  
HETATM   20  C   UNL     1     -10.775   4.705  65.930  1.00  0.00    -0.171 A  
HETATM   21  C   UNL     1     -10.518   5.754  66.830  1.00  0.00    -0.350 A  
HETATM   22 BR   UNL     1     -10.157   2.972  63.748  1.00  0.00    -0.183 Br 
HETATM   23  C   UNL     1      -9.863   4.415  64.928  1.00  0.00    -0.133 A  
ENDBRANCH  12  17
BRANCH  13  24
HETATM   24  O   UNL     1     -10.175   9.248  66.658  1.00  0.00    -0.256 OA 
BRANCH  24  25
HETATM   25  C   UNL     1      -9.552   9.921  65.563  1.00  0.00    -0.277 C  
BRANCH  25  26
HETATM   26  C   UNL     1      -9.740  11.421  65.795  1.00  0.00    -0.233 C  
BRANCH  26  27
HETATM   27  O   UNL     1     -11.127  11.732  65.881  1.00  0.00    -0.309 OA 
BRANCH  27  28
HETATM   28  C   UNL     1     -11.428  12.550  66.952  1.00  0.00    -0.353 A  
HETATM   29  N   UNL     1     -11.754  12.012  68.142  1.00  0.00    -0.391 NA 
HETATM   30  C   UNL     1     -12.031  12.888  69.133  1.00  0.00    -0.259 A  
HETATM   31  C   UNL     1     -11.992  14.254  68.974  1.00  0.00    -0.325 A  
HETATM   32  C   UNL     1     -11.653  14.692  67.716  1.00  0.00    -0.359 A  
HETATM   33 BR   UNL     1     -12.377  15.438  70.378  1.00  0.00    -0.449 Br 
HETATM   34  N   UNL     1     -11.367  13.864  66.688  1.00  0.00    -0.320 NA 
ENDBRANCH  27  28
ENDBRANCH  26  27
ENDBRANCH  25  26
ENDBRANCH  24  25
ENDBRANCH  13  24
ENDBRANCH   9  11
ENDBRANCH   6   9
ENDBRANCH   4   6
ENDBRANCH   3   4
ENDBRANCH   2   3
TORSDOF 11
ENDMDL
MODEL      184
REMARK 921   NORMALIZED FREE ENERGY PREDICTED BY IDOCK:   -3.90 KCAL/MOL
REMARK 922        TOTAL FREE ENERGY PREDICTED BY IDOCK:   -7.83 KCAL/MOL
REMARK 923 INTER-LIGAND FREE ENERGY PREDICTED BY IDOCK:   -7.54 KCAL/MOL
REMARK 924 INTRA-LIGAND FREE ENERGY PREDICTED BY IDOCK:   -0.28 KCAL/MOL
REMARK 927      BINDING AFFINITY PREDICTED BY RF-SCORE:    0.00 PKD
ROOT
HETATM    1  C   UNL     1      -9.832  16.196  67.428  1.00  0.00    -0.238 C  
HETATM    2  C   UNL     1      -8.843  15.261  66.750  1.00  0.00    -0.302 C  
ENDROOT
BRANCH   2   3
HETATM    3  C   UNL     1      -7.736  14.811  67.696  1.00  0.00    -0.182 C  
BRANCH   3   4
HETATM    4  N   UNL     1      -7.988  13.409  68.132  1.00  0.00    -0.139 N  
HETATM    5  H   UNL     1      -8.917  12.997  68.220  1.00  0.00     0.000 HD 
BRANCH   4   6
HETATM    6  S   UNL     1      -6.564  12.586  68.462  1.00  0.00    -0.084 S  
HETATM    7  O   UNL     1      -5.632  13.036  67.451  1.00  0.00    -0.297 OA 
HETATM    8  O   UNL     1      -6.274  12.709  69.865  1.00  0.00    -0.132 OA 
BRANCH   6   9
HETATM    9  N   UNL     1      -6.971  11.010  68.069  1.00  0.00    -0.068 N  
HETATM   10  H   UNL     1      -6.501  10.504  67.317  1.00  0.00     0.000 HD 
BRANCH   9  11
HETATM   11  C   UNL     1      -8.002  10.420  68.837  1.00  0.00    -0.123 A  
HETATM   12  C   UNL     1      -9.336  10.321  68.418  1.00  0.00    -0.143 A  
HETATM   13  C   UNL     1     -10.089   9.570  69.332  1.00  0.00    -0.198 A  
HETATM   14  N   UNL     1      -7.502   9.986  70.010  1.00  0.00    -0.164 NA 
HETATM   15  N   UNL     1      -9.632   9.075  70.504  1.00  0.00    -0.201 NA 
HETATM   16  C   UNL     1      -8.355   9.327  70.790  1.00  0.00    -0.186 A  
BRANCH  12  17
HETATM   17  C   UNL     1      -9.936  10.959  67.190  1.00  0.00    -0.221 A  
HETATM   18  C   UNL     1      -9.582  10.603  65.877  1.00  0.00    -0.253 A  
HETATM   19  C   UNL     1     -10.207  11.131  64.740  1.00  0.00    -0.365 A  
HETATM   20  C   UNL     1     -11.582  12.485  66.152  1.00  0.00    -0.448 A  
HETATM   21  C   UNL     1     -10.924  11.964  67.280  1.00  0.00    -0.319 A  
HETATM   22 BR   UNL     1     -12.142  12.690  63.361  1.00  0.00    -0.542 Br 
HETATM   23  C   UNL     1     -11.230  12.050  64.885  1.00  0.00    -0.320 A  
ENDBRANCH  12  17
BRANCH  13  24
HETATM   24  O   UNL     1     -11.403   9.298  69.010  1.00  0.00     0.072 OA 
BRANCH  24  25
HETATM   25  C   UNL     1     -12.420   9.975  69.750  1.00  0.00     0.343 C  
BRANCH  25  26
HETATM   26  C   UNL     1     -11.750  11.155  70.455  1.00  0.00    -0.293 C  
BRANCH  26  27
HETATM   27  O   UNL     1     -12.240  12.383  69.925  1.00  0.00    -0.248 OA 
BRANCH  27  28
HETATM   28  C   UNL     1     -12.319  13.383  70.874  1.00  0.00    -0.353 A  
HETATM   29  N   UNL     1     -11.542  14.477  70.768  1.00  0.00    -0.249 NA 
HETATM   30  C   UNL     1     -11.688  15.404  71.741  1.00  0.00    -0.416 A  
HETATM   31  C   UNL     1     -12.566  15.273  72.792  1.00  0.00    -0.391 A  
HETATM   32  C   UNL     1     -13.304  14.113  72.802  1.00  0.00    -0.519 A  
HETATM   33 BR   UNL     1     -12.744  16.587  74.120  1.00  0.00    -0.128 Br 
HETATM   34  N   UNL     1     -13.201  13.152  71.859  1.00  0.00    -0.437 NA 
ENDBRANCH  27  28
ENDBRANCH  26  27
ENDBRANCH  25  26
ENDBRANCH  24  25
ENDBRANCH  13  24
ENDBRANCH   9  11
ENDBRANCH   6   9
ENDBRANCH   4   6
ENDBRANCH   3   4
ENDBRANCH   2   3
TORSDOF 11
ENDMDL
MODEL      185
REMARK 921   NORMALIZED FREE ENERGY PREDICTED BY IDOCK:   -3.90 KCAL/MOL
REMARK 922        TOTAL FREE ENERGY PREDICTED BY IDOCK:   -7.82 KCAL/MOL
REMARK 923 INTER-LIGAND FREE ENERGY PREDICTED BY IDOCK:   -6.54 KCAL/MOL
REMARK 924 INTRA-LIGAND FREE ENERGY PREDICTED BY IDOCK:   -1.28 KCAL/MOL
REMARK 927      BINDING AFFINITY PREDICTED BY RF-SCORE:    0.00 PKD
ROOT
HETATM    1  C   UNL     1      -6.077   3.324  72.261  1.00  0.00    -0.013 C  
HETATM    2  C   UNL     1      -5.478   4.708  72.448  1.00  0.00    -0.007 C  
ENDROOT
BRANCH   2   3
HETATM    3  C   UNL     1      -6.463   5.681  73.085  1.00  0.00    -0.067 C  
BRANCH   3   4
HETATM    4  N   UNL     1      -6.063   7.081  72.767  1.00  0.00    -0.052 N  
HETATM    5  H   UNL     1      -5.126   7.454  72.917  1.00  0.00     0.000 HD 
BRANCH   4   6
HETATM    6  S   UNL     1      -7.336   7.970  72.133  1.00  0.00    -0.097 S  
HETATM    7  O   UNL     1      -8.461   7.675  72.995  1.00  0.00    -0.121 OA 
HETATM    8  O   UNL     1      -6.890   9.319  71.907  1.00  0.00    -0.306 OA 
BRANCH   6   9
HETATM    9  N   UNL     1      -7.625   7.183  70.684  1.00  0.00    -0.091 N  
HETATM   10  H   UNL     1      -7.694   6.166  70.627  1.00  0.00     0.000 HD 
BRANCH   9  11
HETATM   11  C   UNL     1      -7.770   8.006  69.542  1.00  0.00    -0.103 A  
HETATM   12  C   UNL     1      -8.962   8.646  69.180  1.00  0.00    -0.142 A  
HETATM   13  C   UNL     1      -8.757   9.495  68.084  1.00  0.00    -0.120 A  
HETATM   14  N   UNL     1      -6.600   8.065  68.876  1.00  0.00    -0.048 NA 
HETATM   15  N   UNL     1      -7.598   9.627  67.400  1.00  0.00    -0.094 NA 
HETATM   16  C   UNL     1      -6.578   8.885  67.827  1.00  0.00    -0.061 A  
BRANCH  12  17
HETATM   17  C   UNL     1     -10.314   8.443  69.819  1.00  0.00    -0.216 A  
HETATM   18  C   UNL     1     -10.928   7.187  69.958  1.00  0.00    -0.287 A  
HETATM   19  C   UNL     1     -12.140   6.991  70.633  1.00  0.00    -0.332 A  
HETATM   20  C   UNL     1     -12.260   9.343  71.051  1.00  0.00    -0.354 A  
HETATM   21  C   UNL     1     -11.058   9.522  70.346  1.00  0.00    -0.330 A  
HETATM   22 BR   UNL     1     -14.367   7.799  72.203  1.00  0.00    -0.350 Br 
HETATM   23  C   UNL     1     -12.787   8.071  71.206  1.00  0.00    -0.199 A  
ENDBRANCH  12  17
BRANCH  13  24
HETATM   24  O   UNL     1      -9.819  10.274  67.668  1.00  0.00    -0.164 OA 
BRANCH  24  25
HETATM   25  C   UNL     1      -9.681  10.978  66.434  1.00  0.00    -0.201 C  
BRANCH  25  26
HETATM   26  C   UNL     1     -10.464  12.284  66.574  1.00  0.00    -0.227 C  
BRANCH  26  27
HETATM   27  O   UNL     1      -9.776  13.175  67.448  1.00  0.00    -0.212 OA 
BRANCH  27  28
HETATM   28  C   UNL     1     -10.600  13.721  68.412  1.00  0.00    -0.253 A  
HETATM   29  N   UNL     1     -10.653  15.056  68.576  1.00  0.00    -0.230 NA 
HETATM   30  C   UNL     1     -11.487  15.502  69.542  1.00  0.00    -0.333 A  
HETATM   31  C   UNL     1     -12.251  14.672  70.329  1.00  0.00    -0.331 A  
HETATM   32  C   UNL     1     -12.113  13.328  70.077  1.00  0.00    -0.315 A  
HETATM   33 BR   UNL     1     -13.404  15.331  71.656  1.00  0.00    -0.604 Br 
HETATM   34  N   UNL     1     -11.295  12.825  69.127  1.00  0.00    -0.280 NA 
ENDBRANCH  27  28
ENDBRANCH  26  27
ENDBRANCH  25  26
ENDBRANCH  24  25
ENDBRANCH  13  24
ENDBRANCH   9  11
ENDBRANCH   6   9
ENDBRANCH   4   6
ENDBRANCH   3   4
ENDBRANCH   2   3
TORSDOF 11
ENDMDL
MODEL      186
REMARK 921   NORMALIZED FREE ENERGY PREDICTED BY IDOCK:   -3.90 KCAL/MOL
REMARK 922        TOTAL FREE ENERGY PREDICTED BY IDOCK:   -7.82 KCAL/MOL
REMARK 923 INTER-LIGAND FREE ENERGY PREDICTED BY IDOCK:   -6.80 KCAL/MOL
REMARK 924 INTRA-LIGAND FREE ENERGY PREDICTED BY IDOCK:   -1.01 KCAL/MOL
REMARK 927      BINDING AFFINITY PREDICTED BY RF-SCORE:    0.00 PKD
ROOT
HETATM    1  C   UNL     1     -13.948   8.645  72.394  1.00  0.00    -0.435 C  
HETATM    2  C   UNL     1     -13.850   7.515  71.381  1.00  0.00    -0.439 C  
ENDROOT
BRANCH   2   3
HETATM    3  C   UNL     1     -12.440   6.945  71.290  1.00  0.00    -0.361 C  
BRANCH   3   4
HETATM    4  N   UNL     1     -11.715   7.194  72.568  1.00  0.00    -0.460 N  
HETATM    5  H   UNL     1     -11.695   8.094  73.046  1.00  0.00     0.000 HD 
BRANCH   4   6
HETATM    6  S   UNL     1     -10.934   5.818  73.127  1.00  0.00    -0.252 S  
HETATM    7  O   UNL     1     -10.272   6.235  74.344  1.00  0.00    -0.319 OA 
HETATM    8  O   UNL     1     -11.863   4.720  73.110  1.00  0.00    -0.257 OA 
BRANCH   6   9
HETATM    9  N   UNL     1      -9.733   5.607  71.979  1.00  0.00    -0.154 N  
HETATM   10  H   UNL     1      -9.558   4.701  71.543  1.00  0.00     0.000 HD 
BRANCH   9  11
HETATM   11  C   UNL     1      -8.976   6.755  71.646  1.00  0.00    -0.136 A  
HETATM   12  C   UNL     1      -8.792   7.224  70.339  1.00  0.00    -0.150 A  
HETATM   13  C   UNL     1      -8.112   8.450  70.342  1.00  0.00    -0.109 A  
HETATM   14  N   UNL     1      -8.469   7.303  72.768  1.00  0.00    -0.109 NA 
HETATM   15  N   UNL     1      -7.616   9.068  71.438  1.00  0.00    -0.293 NA 
HETATM   16  C   UNL     1      -7.809   8.447  72.600  1.00  0.00    -0.085 A  
BRANCH  12  17
HETATM   17  C   UNL     1      -9.205   6.519  69.071  1.00  0.00    -0.130 A  
HETATM   18  C   UNL     1      -8.455   5.494  68.471  1.00  0.00    -0.100 A  
HETATM   19  C   UNL     1      -8.887   4.779  67.345  1.00  0.00    -0.106 A  
HETATM   20  C   UNL     1     -10.870   6.114  67.288  1.00  0.00    -0.438 A  
HETATM   21  C   UNL     1     -10.406   6.838  68.400  1.00  0.00    -0.214 A  
HETATM   22 BR   UNL     1     -10.744   4.047  65.323  1.00  0.00     0.236 Br 
HETATM   23  C   UNL     1     -10.112   5.073  66.776  1.00  0.00    -0.239 A  
ENDBRANCH  12  17
BRANCH  13  24
HETATM   24  O   UNL     1      -7.940   9.091  69.132  1.00  0.00    -0.097 OA 
BRANCH  24  25
HETATM   25  C   UNL     1      -8.070  10.513  69.112  1.00  0.00    -0.152 C  
BRANCH  25  26
HETATM   26  C   UNL     1      -9.424  10.829  68.476  1.00  0.00    -0.181 C  
BRANCH  26  27
HETATM   27  O   UNL     1      -9.238  11.578  67.278  1.00  0.00    -0.164 OA 
BRANCH  27  28
HETATM   28  C   UNL     1      -9.541  12.916  67.429  1.00  0.00    -0.203 A  
HETATM   29  N   UNL     1      -8.823  13.850  66.778  1.00  0.00    -0.196 NA 
HETATM   30  C   UNL     1      -9.193  15.134  66.985  1.00  0.00    -0.223 A  
HETATM   31  C   UNL     1     -10.234  15.503  67.803  1.00  0.00    -0.243 A  
HETATM   32  C   UNL     1     -10.894  14.467  68.422  1.00  0.00    -0.243 A  
HETATM   33 BR   UNL     1     -10.721  17.297  68.059  1.00  0.00    -0.308 Br 
HETATM   34  N   UNL     1     -10.570  13.167  68.254  1.00  0.00    -0.241 NA 
ENDBRANCH  27  28
ENDBRANCH  26  27
ENDBRANCH  25  26
ENDBRANCH  24  25
ENDBRANCH  13  24
ENDBRANCH   9  11
ENDBRANCH   6   9
ENDBRANCH   4   6
ENDBRANCH   3   4
ENDBRANCH   2   3
TORSDOF 11
ENDMDL
MODEL      187
REMARK 921   NORMALIZED FREE ENERGY PREDICTED BY IDOCK:   -3.89 KCAL/MOL
REMARK 922        TOTAL FREE ENERGY PREDICTED BY IDOCK:   -7.81 KCAL/MOL
REMARK 923 INTER-LIGAND FREE ENERGY PREDICTED BY IDOCK:   -7.03 KCAL/MOL
REMARK 924 INTRA-LIGAND FREE ENERGY PREDICTED BY IDOCK:   -0.78 KCAL/MOL
REMARK 927      BINDING AFFINITY PREDICTED BY RF-SCORE:    0.00 PKD
ROOT
HETATM    1  C   UNL     1      -5.943   3.835  71.787  1.00  0.00    -0.013 C  
HETATM    2  C   UNL     1      -5.237   4.970  72.511  1.00  0.00    -0.008 C  
ENDROOT
BRANCH   2   3
HETATM    3  C   UNL     1      -6.219   5.950  73.140  1.00  0.00    -0.058 C  
BRANCH   3   4
HETATM    4  N   UNL     1      -5.556   7.271  73.331  1.00  0.00    -0.045 N  
HETATM    5  H   UNL     1      -4.604   7.386  73.677  1.00  0.00     0.000 HD 
BRANCH   4   6
HETATM    6  S   UNL     1      -6.562   8.546  72.911  1.00  0.00    -0.017 S  
HETATM    7  O   UNL     1      -7.626   8.519  73.891  1.00  0.00    -0.340 OA 
HETATM    8  O   UNL     1      -5.757   9.720  72.701  1.00  0.00    -0.302 OA 
BRANCH   6   9
HETATM    9  N   UNL     1      -7.226   8.008  71.470  1.00  0.00    -0.066 N  
HETATM   10  H   UNL     1      -7.401   7.018  71.295  1.00  0.00     0.000 HD 
BRANCH   9  11
HETATM   11  C   UNL     1      -7.529   9.002  70.511  1.00  0.00    -0.098 A  
HETATM   12  C   UNL     1      -8.827   9.438  70.215  1.00  0.00    -0.269 A  
HETATM   13  C   UNL     1      -8.796  10.521  69.325  1.00  0.00    -0.122 A  
HETATM   14  N   UNL     1      -6.391   9.443  69.940  1.00  0.00    -0.042 NA 
HETATM   15  N   UNL     1      -7.684  11.033  68.751  1.00  0.00    -0.127 NA 
HETATM   16  C   UNL     1      -6.533  10.449  69.080  1.00  0.00    -0.048 A  
BRANCH  12  17
HETATM   17  C   UNL     1     -10.111   8.828  70.719  1.00  0.00    -0.261 A  
HETATM   18  C   UNL     1     -11.014   9.499  71.561  1.00  0.00    -0.369 A  
HETATM   19  C   UNL     1     -12.248   8.963  71.953  1.00  0.00    -0.445 A  
HETATM   20  C   UNL     1     -11.753   6.978  70.716  1.00  0.00    -0.394 A  
HETATM   21  C   UNL     1     -10.507   7.521  70.357  1.00  0.00    -0.227 A  
HETATM   22 BR   UNL     1     -14.329   7.029  71.942  1.00  0.00    -0.335 Br 
HETATM   23  C   UNL     1     -12.627   7.713  71.501  1.00  0.00    -0.343 A  
ENDBRANCH  12  17
BRANCH  13  24
HETATM   24  O   UNL     1      -9.996  11.129  69.012  1.00  0.00    -0.199 OA 
BRANCH  24  25
HETATM   25  C   UNL     1     -10.003  12.066  67.935  1.00  0.00    -0.197 C  
BRANCH  25  26
HETATM   26  C   UNL     1     -10.669  13.340  68.455  1.00  0.00    -0.257 C  
BRANCH  26  27
HETATM   27  O   UNL     1      -9.679  14.258  68.911  1.00  0.00    -0.201 OA 
BRANCH  27  28
HETATM   28  C   UNL     1      -9.852  15.530  68.402  1.00  0.00    -0.210 A  
HETATM   29  N   UNL     1     -10.439  16.483  69.150  1.00  0.00    -0.296 NA 
HETATM   30  C   UNL     1     -10.564  17.698  68.572  1.00  0.00    -0.280 A  
HETATM   31  C   UNL     1     -10.132  17.982  67.297  1.00  0.00    -0.342 A  
HETATM   32  C   UNL     1      -9.553  16.932  66.623  1.00  0.00    -0.267 A  
HETATM   33 BR   UNL     1     -10.318  19.685  66.531  1.00  0.00    -0.643 Br 
HETATM   34  N   UNL     1      -9.401  15.698  67.150  1.00  0.00    -0.213 NA 
ENDBRANCH  27  28
ENDBRANCH  26  27
ENDBRANCH  25  26
ENDBRANCH  24  25
ENDBRANCH  13  24
ENDBRANCH   9  11
ENDBRANCH   6   9
ENDBRANCH   4   6
ENDBRANCH   3   4
ENDBRANCH   2   3
TORSDOF 11
ENDMDL
MODEL      188
REMARK 921   NORMALIZED FREE ENERGY PREDICTED BY IDOCK:   -3.87 KCAL/MOL
REMARK 922        TOTAL FREE ENERGY PREDICTED BY IDOCK:   -7.77 KCAL/MOL
REMARK 923 INTER-LIGAND FREE ENERGY PREDICTED BY IDOCK:   -6.07 KCAL/MOL
REMARK 924 INTRA-LIGAND FREE ENERGY PREDICTED BY IDOCK:   -1.70 KCAL/MOL
REMARK 927      BINDING AFFINITY PREDICTED BY RF-SCORE:    0.00 PKD
ROOT
HETATM    1  C   UNL     1     -12.310  12.345  64.407  1.00  0.00    -0.532 C  
HETATM    2  C   UNL     1     -11.045  13.136  64.116  1.00  0.00    -0.426 C  
ENDROOT
BRANCH   2   3
HETATM    3  C   UNL     1     -10.417  13.704  65.383  1.00  0.00    -0.324 C  
BRANCH   3   4
HETATM    4  N   UNL     1     -10.953  12.984  66.574  1.00  0.00    -0.282 N  
HETATM    5  H   UNL     1     -11.244  12.007  66.565  1.00  0.00     0.000 HD 
BRANCH   4   6
HETATM    6  S   UNL     1     -11.020  13.971  67.928  1.00  0.00    -0.253 S  
HETATM    7  O   UNL     1     -10.379  15.204  67.522  1.00  0.00    -0.238 OA 
HETATM    8  O   UNL     1     -12.362  13.953  68.447  1.00  0.00    -0.261 OA 
BRANCH   6   9
HETATM    9  N   UNL     1      -9.961  13.203  68.974  1.00  0.00    -0.409 N  
HETATM   10  H   UNL     1     -10.217  12.991  69.939  1.00  0.00     0.000 HD 
BRANCH   9  11
HETATM   11  C   UNL     1      -8.694  12.865  68.444  1.00  0.00    -0.119 A  
HETATM   12  C   UNL     1      -8.260  11.552  68.219  1.00  0.00    -0.152 A  
HETATM   13  C   UNL     1      -7.020  11.544  67.565  1.00  0.00    -0.102 A  
HETATM   14  N   UNL     1      -7.989  13.989  68.205  1.00  0.00    -0.137 NA 
HETATM   15  N   UNL     1      -6.286  12.638  67.263  1.00  0.00    -0.232 NA 
HETATM   16  C   UNL     1      -6.808  13.811  67.618  1.00  0.00    -0.175 A  
BRANCH  12  17
HETATM   17  C   UNL     1      -8.970  10.292  68.648  1.00  0.00    -0.144 A  
HETATM   18  C   UNL     1      -8.819   9.708  69.917  1.00  0.00    -0.240 A  
HETATM   19  C   UNL     1      -9.550   8.590  70.343  1.00  0.00    -0.189 A  
HETATM   20  C   UNL     1     -10.625   8.508  68.209  1.00  0.00    -0.173 A  
HETATM   21  C   UNL     1      -9.863   9.613  67.790  1.00  0.00    -0.192 A  
HETATM   22 BR   UNL     1     -11.533   6.571  70.098  1.00  0.00    -0.455 Br 
HETATM   23  C   UNL     1     -10.476   8.012  69.494  1.00  0.00    -0.226 A  
ENDBRANCH  12  17
BRANCH  13  24
HETATM   24  O   UNL     1      -6.504  10.322  67.184  1.00  0.00    -0.066 OA 
BRANCH  24  25
HETATM   25  C   UNL     1      -5.415   9.797  67.943  1.00  0.00    -0.039 C  
BRANCH  25  26
HETATM   26  C   UNL     1      -5.477   8.274  67.822  1.00  0.00    -0.035 C  
BRANCH  26  27
HETATM   27  O   UNL     1      -6.294   7.734  68.857  1.00  0.00    -0.035 OA 
BRANCH  27  28
HETATM   28  C   UNL     1      -7.014   6.628  68.450  1.00  0.00    -0.080 A  
HETATM   29  N   UNL     1      -7.604   6.615  67.241  1.00  0.00    -0.098 NA 
HETATM   30  C   UNL     1      -8.286   5.491  66.926  1.00  0.00    -0.105 A  
HETATM   31  C   UNL     1      -8.393   4.406  67.765  1.00  0.00    -0.098 A  
HETATM   32  C   UNL     1      -7.755   4.532  68.977  1.00  0.00    -0.070 A  
HETATM   33 BR   UNL     1      -9.344   2.860  67.289  1.00  0.00    -0.116 Br 
HETATM   34  N   UNL     1      -7.061   5.630  69.346  1.00  0.00    -0.063 NA 
ENDBRANCH  27  28
ENDBRANCH  26  27
ENDBRANCH  25  26
ENDBRANCH  24  25
ENDBRANCH  13  24
ENDBRANCH   9  11
ENDBRANCH   6   9
ENDBRANCH   4   6
ENDBRANCH   3   4
ENDBRANCH   2   3
TORSDOF 11
ENDMDL
MODEL      189
REMARK 921   NORMALIZED FREE ENERGY PREDICTED BY IDOCK:   -3.86 KCAL/MOL
REMARK 922        TOTAL FREE ENERGY PREDICTED BY IDOCK:   -7.75 KCAL/MOL
REMARK 923 INTER-LIGAND FREE ENERGY PREDICTED BY IDOCK:   -5.83 KCAL/MOL
REMARK 924 INTRA-LIGAND FREE ENERGY PREDICTED BY IDOCK:   -1.92 KCAL/MOL
REMARK 927      BINDING AFFINITY PREDICTED BY RF-SCORE:    0.00 PKD
ROOT
HETATM    1  C   UNL     1      -8.457   8.985  62.332  1.00  0.00    -0.213 C  
HETATM    2  C   UNL     1      -8.355  10.408  62.856  1.00  0.00    -0.180 C  
ENDROOT
BRANCH   2   3
HETATM    3  C   UNL     1      -8.928  10.546  64.262  1.00  0.00    -0.216 C  
BRANCH   3   4
HETATM    4  N   UNL     1      -7.868  11.033  65.189  1.00  0.00    -0.349 N  
HETATM    5  H   UNL     1      -7.682  12.018  65.375  1.00  0.00     0.000 HD 
BRANCH   4   6
HETATM    6  S   UNL     1      -7.017   9.770  65.892  1.00  0.00    -0.107 S  
HETATM    7  O   UNL     1      -7.907   8.631  65.810  1.00  0.00    -0.094 OA 
HETATM    8  O   UNL     1      -5.693   9.736  65.332  1.00  0.00    -0.056 OA 
BRANCH   6   9
HETATM    9  N   UNL     1      -6.977  10.228  67.503  1.00  0.00    -0.084 N  
HETATM   10  H   UNL     1      -6.190   9.996  68.109  1.00  0.00     0.000 HD 
BRANCH   9  11
HETATM   11  C   UNL     1      -8.096  10.955  67.974  1.00  0.00    -0.119 A  
HETATM   12  C   UNL     1      -9.120  10.403  68.755  1.00  0.00    -0.165 A  
HETATM   13  C   UNL     1     -10.013  11.397  69.178  1.00  0.00     0.019 A  
HETATM   14  N   UNL     1      -8.017  12.232  67.552  1.00  0.00    -0.155 NA 
HETATM   15  N   UNL     1      -9.962  12.700  68.821  1.00  0.00    -0.085 NA 
HETATM   16  C   UNL     1      -8.967  13.046  68.006  1.00  0.00    -0.199 A  
BRANCH  12  17
HETATM   17  C   UNL     1      -9.305   8.941  69.080  1.00  0.00    -0.148 A  
HETATM   18  C   UNL     1     -10.232   8.111  68.428  1.00  0.00    -0.240 A  
HETATM   19  C   UNL     1     -10.337   6.734  68.669  1.00  0.00    -0.202 A  
HETATM   20  C   UNL     1      -8.603   6.911  70.306  1.00  0.00    -0.140 A  
HETATM   21  C   UNL     1      -8.532   8.295  70.070  1.00  0.00    -0.123 A  
HETATM   22 BR   UNL     1      -9.565   4.264  69.843  1.00  0.00    -0.288 Br 
HETATM   23  C   UNL     1      -9.497   6.133  69.588  1.00  0.00    -0.145 A  
ENDBRANCH  12  17
BRANCH  13  24
HETATM   24  O   UNL     1     -11.025  11.025  70.040  1.00  0.00    -0.216 OA 
BRANCH  24  25
HETATM   25  C   UNL     1     -12.296  10.708  69.472  1.00  0.00    -0.083 C  
BRANCH  25  26
HETATM   26  C   UNL     1     -13.150  10.110  70.590  1.00  0.00    -0.210 C  
BRANCH  26  27
HETATM   27  O   UNL     1     -12.369   9.955  71.772  1.00  0.00    -0.383 OA 
BRANCH  27  28
HETATM   28  C   UNL     1     -12.098   8.634  72.066  1.00  0.00    -0.375 A  
HETATM   29  N   UNL     1     -12.756   7.650  71.424  1.00  0.00    -0.338 NA 
HETATM   30  C   UNL     1     -12.425   6.388  71.775  1.00  0.00    -0.143 A  
HETATM   31  C   UNL     1     -11.478   6.086  72.727  1.00  0.00    -0.208 A  
HETATM   32  C   UNL     1     -10.874   7.169  73.321  1.00  0.00    -0.338 A  
HETATM   33 BR   UNL     1     -11.041   4.319  73.182  1.00  0.00    -0.268 Br 
HETATM   34  N   UNL     1     -11.164   8.451  73.012  1.00  0.00     0.018 NA 
ENDBRANCH  27  28
ENDBRANCH  26  27
ENDBRANCH  25  26
ENDBRANCH  24  25
ENDBRANCH  13  24
ENDBRANCH   9  11
ENDBRANCH   6   9
ENDBRANCH   4   6
ENDBRANCH   3   4
ENDBRANCH   2   3
TORSDOF 11
ENDMDL
MODEL      190
REMARK 921   NORMALIZED FREE ENERGY PREDICTED BY IDOCK:   -3.85 KCAL/MOL
REMARK 922        TOTAL FREE ENERGY PREDICTED BY IDOCK:   -7.73 KCAL/MOL
REMARK 923 INTER-LIGAND FREE ENERGY PREDICTED BY IDOCK:   -6.13 KCAL/MOL
REMARK 924 INTRA-LIGAND FREE ENERGY PREDICTED BY IDOCK:   -1.60 KCAL/MOL
REMARK 927      BINDING AFFINITY PREDICTED BY RF-SCORE:    0.00 PKD
ROOT
HETATM    1  C   UNL     1     -11.662  15.097  68.796  1.00  0.00    -0.366 C  
HETATM    2  C   UNL     1     -11.180  14.380  67.545  1.00  0.00    -0.329 C  
ENDROOT
BRANCH   2   3
HETATM    3  C   UNL     1      -9.859  14.941  67.034  1.00  0.00    -0.237 C  
BRANCH   3   4
HETATM    4  N   UNL     1      -9.057  13.849  66.411  1.00  0.00    -0.476 N  
HETATM    5  H   UNL     1      -9.253  13.452  65.493  1.00  0.00     0.000 HD 
BRANCH   4   6
HETATM    6  S   UNL     1      -7.797  13.351  67.399  1.00  0.00    -0.110 S  
HETATM    7  O   UNL     1      -6.817  14.413  67.316  1.00  0.00    -0.241 OA 
HETATM    8  O   UNL     1      -8.340  12.922  68.660  1.00  0.00    -0.091 OA 
BRANCH   6   9
HETATM    9  N   UNL     1      -7.171  12.056  66.542  1.00  0.00    -0.365 N  
HETATM   10  H   UNL     1      -6.189  12.016  66.267  1.00  0.00     0.000 HD 
BRANCH   9  11
HETATM   11  C   UNL     1      -8.081  11.020  66.221  1.00  0.00    -0.159 A  
HETATM   12  C   UNL     1      -8.356   9.929  67.055  1.00  0.00    -0.121 A  
HETATM   13  C   UNL     1      -9.394   9.149  66.526  1.00  0.00    -0.190 A  
HETATM   14  N   UNL     1      -8.618  11.251  65.007  1.00  0.00     0.110 NA 
HETATM   15  N   UNL     1      -9.999   9.353  65.334  1.00  0.00    -0.123 NA 
HETATM   16  C   UNL     1      -9.562  10.393  64.625  1.00  0.00    -0.300 A  
BRANCH  12  17
HETATM   17  C   UNL     1      -7.631   9.573  68.329  1.00  0.00    -0.078 A  
HETATM   18  C   UNL     1      -6.295   9.140  68.368  1.00  0.00    -0.054 A  
HETATM   19  C   UNL     1      -5.596   8.899  69.559  1.00  0.00    -0.034 A  
HETATM   20  C   UNL     1      -7.562   9.462  70.798  1.00  0.00    -0.138 A  
HETATM   21  C   UNL     1      -8.254   9.671  69.593  1.00  0.00    -0.148 A  
HETATM   22 BR   UNL     1      -5.263   8.867  72.381  1.00  0.00    -0.060 Br 
HETATM   23  C   UNL     1      -6.227   9.092  70.774  1.00  0.00    -0.053 A  
ENDBRANCH  12  17
BRANCH  13  24
HETATM   24  O   UNL     1      -9.849   8.088  67.283  1.00  0.00    -0.164 OA 
BRANCH  24  25
HETATM   25  C   UNL     1      -9.632   6.771  66.776  1.00  0.00    -0.166 C  
BRANCH  25  26
HETATM   26  C   UNL     1     -10.891   5.961  67.084  1.00  0.00    -0.285 C  
BRANCH  26  27
HETATM   27  O   UNL     1     -10.610   4.977  68.075  1.00  0.00    -0.028 OA 
BRANCH  27  28
HETATM   28  C   UNL     1     -10.607   5.492  69.356  1.00  0.00    -0.279 A  
HETATM   29  N   UNL     1     -11.567   6.354  69.739  1.00  0.00    -0.412 NA 
HETATM   30  C   UNL     1     -11.486   6.805  71.011  1.00  0.00    -0.324 A  
HETATM   31  C   UNL     1     -10.497   6.429  71.890  1.00  0.00    -0.209 A  
HETATM   32  C   UNL     1      -9.567   5.549  71.390  1.00  0.00    -0.154 A  
HETATM   33 BR   UNL     1     -10.423   7.072  73.651  1.00  0.00    -0.375 Br 
HETATM   34  N   UNL     1      -9.597   5.065  70.129  1.00  0.00    -0.171 NA 
ENDBRANCH  27  28
ENDBRANCH  26  27
ENDBRANCH  25  26
ENDBRANCH  24  25
ENDBRANCH  13  24
ENDBRANCH   9  11
ENDBRANCH   6   9
ENDBRANCH   4   6
ENDBRANCH   3   4
ENDBRANCH   2   3
TORSDOF 11
ENDMDL
MODEL      191
REMARK 921   NORMALIZED FREE ENERGY PREDICTED BY IDOCK:   -3.81 KCAL/MOL
REMARK 922        TOTAL FREE ENERGY PREDICTED BY IDOCK:   -7.67 KCAL/MOL
REMARK 923 INTER-LIGAND FREE ENERGY PREDICTED BY IDOCK:   -6.40 KCAL/MOL
REMARK 924 INTRA-LIGAND FREE ENERGY PREDICTED BY IDOCK:   -1.27 KCAL/MOL
REMARK 927      BINDING AFFINITY PREDICTED BY RF-SCORE:    0.00 PKD
ROOT
HETATM    1  C   UNL     1     -12.277  15.073  64.000  1.00  0.00    -0.117 C  
HETATM    2  C   UNL     1     -12.074  13.574  64.146  1.00  0.00    -0.488 C  
ENDROOT
BRANCH   2   3
HETATM    3  C   UNL     1     -12.135  13.124  65.601  1.00  0.00    -0.449 C  
BRANCH   3   4
HETATM    4  N   UNL     1     -10.856  12.453  65.972  1.00  0.00    -0.265 N  
HETATM    5  H   UNL     1     -10.539  11.571  65.572  1.00  0.00     0.000 HD 
BRANCH   4   6
HETATM    6  S   UNL     1     -10.001  13.322  67.124  1.00  0.00    -0.242 S  
HETATM    7  O   UNL     1     -10.104  14.703  66.701  1.00  0.00    -0.261 OA 
HETATM    8  O   UNL     1     -10.426  12.899  68.432  1.00  0.00    -0.241 OA 
BRANCH   6   9
HETATM    9  N   UNL     1      -8.424  12.847  66.822  1.00  0.00    -0.411 N  
HETATM   10  H   UNL     1      -8.042  12.818  65.876  1.00  0.00     0.000 HD 
BRANCH   9  11
HETATM   11  C   UNL     1      -7.652  12.487  67.952  1.00  0.00    -0.133 A  
HETATM   12  C   UNL     1      -7.530  11.178  68.436  1.00  0.00    -0.102 A  
HETATM   13  C   UNL     1      -6.595  11.120  69.479  1.00  0.00    -0.126 A  
HETATM   14  N   UNL     1      -7.074  13.587  68.474  1.00  0.00    -0.100 NA 
HETATM   15  N   UNL     1      -5.954  12.181  70.018  1.00  0.00    -0.149 NA 
HETATM   16  C   UNL     1      -6.244  13.370  69.492  1.00  0.00    -0.114 A  
BRANCH  12  17
HETATM   17  C   UNL     1      -8.310   9.976  67.967  1.00  0.00    -0.117 A  
HETATM   18  C   UNL     1      -7.792   9.005  67.093  1.00  0.00    -0.099 A  
HETATM   19  C   UNL     1      -8.487   7.843  66.732  1.00  0.00    -0.129 A  
HETATM   20  C   UNL     1     -10.336   8.560  68.068  1.00  0.00    -0.272 A  
HETATM   21  C   UNL     1      -9.634   9.733  68.396  1.00  0.00    -0.157 A  
HETATM   22 BR   UNL     1     -10.647   6.000  66.846  1.00  0.00    -0.393 Br 
HETATM   23  C   UNL     1      -9.749   7.610  67.248  1.00  0.00    -0.169 A  
ENDBRANCH  12  17
BRANCH  13  24
HETATM   24  O   UNL     1      -6.289   9.878  69.998  1.00  0.00    -0.053 OA 
BRANCH  24  25
HETATM   25  C   UNL     1      -7.053   9.419  71.113  1.00  0.00     0.008 C  
BRANCH  25  26
HETATM   26  C   UNL     1      -6.060   8.892  72.149  1.00  0.00    -0.061 C  
BRANCH  26  27
HETATM   27  O   UNL     1      -6.695   8.774  73.419  1.00  0.00    -0.302 OA 
BRANCH  27  28
HETATM   28  C   UNL     1      -7.749   7.881  73.411  1.00  0.00    -0.149 A  
HETATM   29  N   UNL     1      -9.001   8.313  73.646  1.00  0.00    -0.200 NA 
HETATM   30  C   UNL     1      -9.969   7.370  73.616  1.00  0.00    -0.328 A  
HETATM   31  C   UNL     1      -9.728   6.040  73.364  1.00  0.00    -0.158 A  
HETATM   32  C   UNL     1      -8.411   5.711  73.143  1.00  0.00    -0.118 A  
HETATM   33 BR   UNL     1     -11.101   4.761  73.324  1.00  0.00    -0.425 Br 
HETATM   34  N   UNL     1      -7.402   6.609  73.162  1.00  0.00    -0.084 NA 
ENDBRANCH  27  28
ENDBRANCH  26  27
ENDBRANCH  25  26
ENDBRANCH  24  25
ENDBRANCH  13  24
ENDBRANCH   9  11
ENDBRANCH   6   9
ENDBRANCH   4   6
ENDBRANCH   3   4
ENDBRANCH   2   3
TORSDOF 11
ENDMDL
MODEL      192
REMARK 921   NORMALIZED FREE ENERGY PREDICTED BY IDOCK:   -3.80 KCAL/MOL
REMARK 922        TOTAL FREE ENERGY PREDICTED BY IDOCK:   -7.67 KCAL/MOL
REMARK 923 INTER-LIGAND FREE ENERGY PREDICTED BY IDOCK:   -6.88 KCAL/MOL
REMARK 924 INTRA-LIGAND FREE ENERGY PREDICTED BY IDOCK:   -0.78 KCAL/MOL
REMARK 927      BINDING AFFINITY PREDICTED BY RF-SCORE:    0.00 PKD
ROOT
HETATM    1  C   UNL     1      -9.391  19.316  68.109  1.00  0.00    -0.400 C  
HETATM    2  C   UNL     1     -10.560  18.450  67.666  1.00  0.00    -0.437 C  
ENDROOT
BRANCH   2   3
HETATM    3  C   UNL     1     -10.685  17.182  68.502  1.00  0.00    -0.326 C  
BRANCH   3   4
HETATM    4  N   UNL     1      -9.754  16.143  67.978  1.00  0.00    -0.227 N  
HETATM    5  H   UNL     1      -8.889  15.866  68.442  1.00  0.00     0.000 HD 
BRANCH   4   6
HETATM    6  S   UNL     1     -10.297  15.482  66.535  1.00  0.00    -0.297 S  
HETATM    7  O   UNL     1     -11.508  16.210  66.225  1.00  0.00     0.255 OA 
HETATM    8  O   UNL     1      -9.195  15.419  65.612  1.00  0.00    -0.250 OA 
BRANCH   6   9
HETATM    9  N   UNL     1     -10.770  13.947  67.010  1.00  0.00    -0.282 N  
HETATM   10  H   UNL     1     -11.245  13.780  67.898  1.00  0.00     0.000 HD 
BRANCH   9  11
HETATM   11  C   UNL     1     -10.474  12.895  66.111  1.00  0.00    -0.269 A  
HETATM   12  C   UNL     1      -9.410  11.999  66.273  1.00  0.00    -0.228 A  
HETATM   13  C   UNL     1      -9.456  10.991  65.299  1.00  0.00    -0.223 A  
HETATM   14  N   UNL     1     -11.360  12.904  65.096  1.00  0.00    -0.291 NA 
HETATM   15  N   UNL     1     -10.344  10.925  64.282  1.00  0.00    -0.363 NA 
HETATM   16  C   UNL     1     -11.246  11.903  64.225  1.00  0.00    -0.357 A  
BRANCH  12  17
HETATM   17  C   UNL     1      -8.314  12.091  67.305  1.00  0.00    -0.176 A  
HETATM   18  C   UNL     1      -7.329  13.093  67.306  1.00  0.00    -0.057 A  
HETATM   19  C   UNL     1      -6.368  13.230  68.318  1.00  0.00    -0.099 A  
HETATM   20  C   UNL     1      -7.276  11.305  69.407  1.00  0.00    -0.063 A  
HETATM   21  C   UNL     1      -8.213  11.168  68.369  1.00  0.00    -0.144 A  
HETATM   22 BR   UNL     1      -5.140  12.589  70.799  1.00  0.00    -0.144 Br 
HETATM   23  C   UNL     1      -6.366  12.350  69.384  1.00  0.00    -0.119 A  
ENDBRANCH  12  17
BRANCH  13  24
HETATM   24  O   UNL     1      -8.528   9.973  65.385  1.00  0.00    -0.138 OA 
BRANCH  24  25
HETATM   25  C   UNL     1      -9.010   8.660  65.675  1.00  0.00    -0.182 C  
BRANCH  25  26
HETATM   26  C   UNL     1     -10.302   8.825  66.476  1.00  0.00    -0.184 C  
BRANCH  26  27
HETATM   27  O   UNL     1     -10.116   8.350  67.806  1.00  0.00    -0.183 OA 
BRANCH  27  28
HETATM   28  C   UNL     1     -10.790   9.105  68.745  1.00  0.00    -0.060 A  
HETATM   29  N   UNL     1     -10.733   8.771  70.047  1.00  0.00    -0.227 NA 
HETATM   30  C   UNL     1     -11.422   9.568  70.894  1.00  0.00    -0.334 A  
HETATM   31  C   UNL     1     -12.149  10.663  70.487  1.00  0.00    -0.355 A  
HETATM   32  C   UNL     1     -12.140  10.906  69.134  1.00  0.00    -0.221 A  
HETATM   33 BR   UNL     1     -13.086  11.750  71.696  1.00  0.00    -0.314 Br 
HETATM   34  N   UNL     1     -11.472  10.145  68.241  1.00  0.00    -0.182 NA 
ENDBRANCH  27  28
ENDBRANCH  26  27
ENDBRANCH  25  26
ENDBRANCH  24  25
ENDBRANCH  13  24
ENDBRANCH   9  11
ENDBRANCH   6   9
ENDBRANCH   4   6
ENDBRANCH   3   4
ENDBRANCH   2   3
TORSDOF 11
ENDMDL
MODEL      193
REMARK 921   NORMALIZED FREE ENERGY PREDICTED BY IDOCK:   -3.80 KCAL/MOL
REMARK 922        TOTAL FREE ENERGY PREDICTED BY IDOCK:   -7.66 KCAL/MOL
REMARK 923 INTER-LIGAND FREE ENERGY PREDICTED BY IDOCK:   -5.89 KCAL/MOL
REMARK 924 INTRA-LIGAND FREE ENERGY PREDICTED BY IDOCK:   -1.77 KCAL/MOL
REMARK 927      BINDING AFFINITY PREDICTED BY RF-SCORE:    0.00 PKD
ROOT
HETATM    1  C   UNL     1     -10.593   5.405  69.656  1.00  0.00    -0.328 C  
HETATM    2  C   UNL     1     -11.265   6.277  68.608  1.00  0.00    -0.328 C  
ENDROOT
BRANCH   2   3
HETATM    3  C   UNL     1     -10.503   6.279  67.287  1.00  0.00    -0.254 C  
BRANCH   3   4
HETATM    4  N   UNL     1      -9.068   5.965  67.536  1.00  0.00    -0.107 N  
HETATM    5  H   UNL     1      -8.710   5.594  68.416  1.00  0.00     0.000 HD 
BRANCH   4   6
HETATM    6  S   UNL     1      -8.110   6.295  66.199  1.00  0.00    -0.121 S  
HETATM    7  O   UNL     1      -7.617   5.004  65.767  1.00  0.00    -0.084 OA 
HETATM    8  O   UNL     1      -8.839   7.161  65.311  1.00  0.00     0.009 OA 
BRANCH   6   9
HETATM    9  N   UNL     1      -6.811   7.096  66.888  1.00  0.00    -0.069 N  
HETATM   10  H   UNL     1      -6.099   6.603  67.428  1.00  0.00     0.000 HD 
BRANCH   9  11
HETATM   11  C   UNL     1      -6.756   8.494  66.679  1.00  0.00    -0.068 A  
HETATM   12  C   UNL     1      -7.228   9.445  67.593  1.00  0.00    -0.083 A  
HETATM   13  C   UNL     1      -6.913  10.743  67.167  1.00  0.00    -0.091 A  
HETATM   14  N   UNL     1      -6.195   8.751  65.481  1.00  0.00    -0.052 NA 
HETATM   15  N   UNL     1      -6.315  11.060  65.996  1.00  0.00    -0.102 NA 
HETATM   16  C   UNL     1      -6.001  10.038  65.202  1.00  0.00    -0.104 A  
BRANCH  12  17
HETATM   17  C   UNL     1      -8.014   9.163  68.849  1.00  0.00    -0.099 A  
HETATM   18  C   UNL     1      -9.376   9.471  69.000  1.00  0.00    -0.155 A  
HETATM   19  C   UNL     1     -10.125   9.124  70.133  1.00  0.00    -0.233 A  
HETATM   20  C   UNL     1      -8.165   8.161  71.105  1.00  0.00    -0.123 A  
HETATM   21  C   UNL     1      -7.424   8.542  69.972  1.00  0.00    -0.060 A  
HETATM   22 BR   UNL     1     -10.546   7.882  72.653  1.00  0.00    -0.423 Br 
HETATM   23  C   UNL     1      -9.520   8.440  71.171  1.00  0.00    -0.179 A  
ENDBRANCH  12  17
BRANCH  13  24
HETATM   24  O   UNL     1      -7.225  11.789  68.012  1.00  0.00    -0.075 OA 
BRANCH  24  25
HETATM   25  C   UNL     1      -7.965  12.882  67.467  1.00  0.00    -0.178 C  
BRANCH  25  26
HETATM   26  C   UNL     1      -9.442  12.492  67.519  1.00  0.00    -0.185 C  
BRANCH  26  27
HETATM   27  O   UNL     1     -10.111  13.239  68.531  1.00  0.00    -0.239 OA 
BRANCH  27  28
HETATM   28  C   UNL     1     -10.219  14.581  68.224  1.00  0.00    -0.234 A  
HETATM   29  N   UNL     1     -10.707  14.963  67.029  1.00  0.00    -0.300 NA 
HETATM   30  C   UNL     1     -10.778  16.296  66.817  1.00  0.00    -0.204 A  
HETATM   31  C   UNL     1     -10.385  17.236  67.740  1.00  0.00    -0.356 A  
HETATM   32  C   UNL     1      -9.897  16.732  68.923  1.00  0.00    -0.264 A  
HETATM   33 BR   UNL     1     -10.506  19.079  67.410  1.00  0.00    -0.569 Br 
HETATM   34  N   UNL     1      -9.802  15.412  69.191  1.00  0.00    -0.231 NA 
ENDBRANCH  27  28
ENDBRANCH  26  27
ENDBRANCH  25  26
ENDBRANCH  24  25
ENDBRANCH  13  24
ENDBRANCH   9  11
ENDBRANCH   6   9
ENDBRANCH   4   6
ENDBRANCH   3   4
ENDBRANCH   2   3
TORSDOF 11
ENDMDL
MODEL      194
REMARK 921   NORMALIZED FREE ENERGY PREDICTED BY IDOCK:   -3.79 KCAL/MOL
REMARK 922        TOTAL FREE ENERGY PREDICTED BY IDOCK:   -7.64 KCAL/MOL
REMARK 923 INTER-LIGAND FREE ENERGY PREDICTED BY IDOCK:   -6.26 KCAL/MOL
REMARK 924 INTRA-LIGAND FREE ENERGY PREDICTED BY IDOCK:   -1.38 KCAL/MOL
REMARK 927      BINDING AFFINITY PREDICTED BY RF-SCORE:    0.00 PKD
ROOT
HETATM    1  C   UNL     1      -7.891   5.200  62.963  1.00  0.00    -0.080 C  
HETATM    2  C   UNL     1      -6.699   5.949  63.538  1.00  0.00    -0.036 C  
ENDROOT
BRANCH   2   3
HETATM    3  C   UNL     1      -7.085   7.325  64.068  1.00  0.00    -0.071 C  
BRANCH   3   4
HETATM    4  N   UNL     1      -8.558   7.384  64.283  1.00  0.00    -0.324 N  
HETATM    5  H   UNL     1      -9.232   6.811  63.775  1.00  0.00     0.000 HD 
BRANCH   4   6
HETATM    6  S   UNL     1      -8.978   8.504  65.458  1.00  0.00    -0.078 S  
HETATM    7  O   UNL     1      -9.066   9.766  64.755  1.00  0.00    -0.210 OA 
HETATM    8  O   UNL     1     -10.083   7.985  66.219  1.00  0.00    -0.173 OA 
BRANCH   6   9
HETATM    9  N   UNL     1      -7.588   8.572  66.389  1.00  0.00    -0.090 N  
HETATM   10  H   UNL     1      -7.125   7.728  66.729  1.00  0.00     0.000 HD 
BRANCH   9  11
HETATM   11  C   UNL     1      -7.091   9.865  66.679  1.00  0.00    -0.087 A  
HETATM   12  C   UNL     1      -7.583  10.685  67.702  1.00  0.00    -0.092 A  
HETATM   13  C   UNL     1      -6.802  11.844  67.828  1.00  0.00    -0.094 A  
HETATM   14  N   UNL     1      -6.095  10.169  65.823  1.00  0.00    -0.088 NA 
HETATM   15  N   UNL     1      -5.768  12.183  67.026  1.00  0.00    -0.257 NA 
HETATM   16  C   UNL     1      -5.479  11.327  66.047  1.00  0.00    -0.065 A  
BRANCH  12  17
HETATM   17  C   UNL     1      -8.807  10.425  68.544  1.00  0.00    -0.142 A  
HETATM   18  C   UNL     1      -8.797   9.638  69.708  1.00  0.00    -0.224 A  
HETATM   19  C   UNL     1      -9.915   9.474  70.538  1.00  0.00    -0.335 A  
HETATM   20  C   UNL     1     -11.188  10.851  69.055  1.00  0.00    -0.327 A  
HETATM   21  C   UNL     1     -10.064  10.981  68.221  1.00  0.00    -0.191 A  
HETATM   22 BR   UNL     1     -12.579   9.975  71.388  1.00  0.00    -0.556 Br 
HETATM   23  C   UNL     1     -11.101  10.110  70.222  1.00  0.00    -0.317 A  
ENDBRANCH  12  17
BRANCH  13  24
HETATM   24  O   UNL     1      -7.101  12.708  68.861  1.00  0.00    -0.100 OA 
BRANCH  24  25
HETATM   25  C   UNL     1      -6.108  13.665  69.233  1.00  0.00    -0.095 C  
BRANCH  25  26
HETATM   26  C   UNL     1      -6.714  15.050  69.007  1.00  0.00    -0.116 C  
BRANCH  26  27
HETATM   27  O   UNL     1      -6.564  15.433  67.643  1.00  0.00    -0.146 OA 
BRANCH  27  28
HETATM   28  C   UNL     1      -7.415  16.456  67.276  1.00  0.00    -0.169 A  
HETATM   29  N   UNL     1      -6.915  17.642  66.883  1.00  0.00    -0.172 NA 
HETATM   30  C   UNL     1      -7.822  18.584  66.540  1.00  0.00    -0.258 A  
HETATM   31  C   UNL     1      -9.181  18.380  66.579  1.00  0.00    -0.296 A  
HETATM   32  C   UNL     1      -9.579  17.134  67.001  1.00  0.00    -0.260 A  
HETATM   33 BR   UNL     1     -10.409  19.712  66.088  1.00  0.00    -0.633 Br 
HETATM   34  N   UNL     1      -8.720  16.155  67.356  1.00  0.00    -0.177 NA 
ENDBRANCH  27  28
ENDBRANCH  26  27
ENDBRANCH  25  26
ENDBRANCH  24  25
ENDBRANCH  13  24
ENDBRANCH   9  11
ENDBRANCH   6   9
ENDBRANCH   4   6
ENDBRANCH   3   4
ENDBRANCH   2   3
TORSDOF 11
ENDMDL
MODEL      195
REMARK 921   NORMALIZED FREE ENERGY PREDICTED BY IDOCK:   -3.79 KCAL/MOL
REMARK 922        TOTAL FREE ENERGY PREDICTED BY IDOCK:   -7.64 KCAL/MOL
REMARK 923 INTER-LIGAND FREE ENERGY PREDICTED BY IDOCK:   -6.16 KCAL/MOL
REMARK 924 INTRA-LIGAND FREE ENERGY PREDICTED BY IDOCK:   -1.48 KCAL/MOL
REMARK 927      BINDING AFFINITY PREDICTED BY RF-SCORE:    0.00 PKD
ROOT
HETATM    1  C   UNL     1     -10.553  16.431  67.359  1.00  0.00    -0.306 C  
HETATM    2  C   UNL     1     -10.335  15.418  68.472  1.00  0.00    -0.226 C  
ENDROOT
BRANCH   2   3
HETATM    3  C   UNL     1      -8.968  15.570  69.128  1.00  0.00    -0.256 C  
BRANCH   3   4
HETATM    4  N   UNL     1      -8.236  14.273  69.068  1.00  0.00    -0.325 N  
HETATM    5  H   UNL     1      -8.531  13.429  69.558  1.00  0.00     0.000 HD 
BRANCH   4   6
HETATM    6  S   UNL     1      -6.869  14.367  68.100  1.00  0.00    -0.142 S  
HETATM    7  O   UNL     1      -7.243  15.246  67.013  1.00  0.00    -0.171 OA 
HETATM    8  O   UNL     1      -5.729  14.638  68.934  1.00  0.00    -0.084 OA 
BRANCH   6   9
HETATM    9  N   UNL     1      -6.789  12.821  67.459  1.00  0.00    -0.148 N  
HETATM   10  H   UNL     1      -6.391  12.641  66.536  1.00  0.00     0.000 HD 
BRANCH   9  11
HETATM   11  C   UNL     1      -7.305  11.781  68.267  1.00  0.00    -0.095 A  
HETATM   12  C   UNL     1      -8.496  11.094  67.998  1.00  0.00    -0.135 A  
HETATM   13  C   UNL     1      -8.671  10.033  68.899  1.00  0.00    -0.146 A  
HETATM   14  N   UNL     1      -6.483  11.572  69.314  1.00  0.00    -0.092 NA 
HETATM   15  N   UNL     1      -7.861   9.749  69.943  1.00  0.00    -0.144 NA 
HETATM   16  C   UNL     1      -6.810  10.552  70.105  1.00  0.00    -0.141 A  
BRANCH  12  17
HETATM   17  C   UNL     1      -9.506  11.440  66.933  1.00  0.00    -0.193 A  
HETATM   18  C   UNL     1      -9.354  11.101  65.578  1.00  0.00    -0.247 A  
HETATM   19  C   UNL     1     -10.335  11.342  64.607  1.00  0.00    -0.362 A  
HETATM   20  C   UNL     1     -11.710  12.353  66.282  1.00  0.00    -0.457 A  
HETATM   21  C   UNL     1     -10.702  12.127  67.235  1.00  0.00    -0.264 A  
HETATM   22 BR   UNL     1     -12.891  12.178  63.690  1.00  0.00    -0.308 Br 
HETATM   23  C   UNL     1     -11.527  11.942  64.972  1.00  0.00    -0.244 A  
ENDBRANCH  12  17
BRANCH  13  24
HETATM   24  O   UNL     1      -9.752   9.198  68.703  1.00  0.00    -0.151 OA 
BRANCH  24  25
HETATM   25  C   UNL     1      -9.591   8.108  67.794  1.00  0.00    -0.151 C  
BRANCH  25  26
HETATM   26  C   UNL     1      -9.993   6.838  68.544  1.00  0.00    -0.149 C  
BRANCH  26  27
HETATM   27  O   UNL     1     -10.775   5.998  67.699  1.00  0.00    -0.248 OA 
BRANCH  27  28
HETATM   28  C   UNL     1     -10.011   5.100  66.981  1.00  0.00    -0.196 A  
HETATM   29  N   UNL     1     -10.523   4.496  65.893  1.00  0.00    -0.268 NA 
HETATM   30  C   UNL     1      -9.703   3.634  65.251  1.00  0.00    -0.144 A  
HETATM   31  C   UNL     1      -8.416   3.364  65.656  1.00  0.00    -0.109 A  
HETATM   32  C   UNL     1      -7.999   4.034  66.782  1.00  0.00    -0.097 A  
HETATM   33 BR   UNL     1      -7.305   2.166  64.733  1.00  0.00    -0.063 Br 
HETATM   34  N   UNL     1      -8.774   4.905  67.464  1.00  0.00    -0.104 NA 
ENDBRANCH  27  28
ENDBRANCH  26  27
ENDBRANCH  25  26
ENDBRANCH  24  25
ENDBRANCH  13  24
ENDBRANCH   9  11
ENDBRANCH   6   9
ENDBRANCH   4   6
ENDBRANCH   3   4
ENDBRANCH   2   3
TORSDOF 11
ENDMDL
MODEL      196
REMARK 921   NORMALIZED FREE ENERGY PREDICTED BY IDOCK:   -3.77 KCAL/MOL
REMARK 922        TOTAL FREE ENERGY PREDICTED BY IDOCK:   -7.61 KCAL/MOL
REMARK 923 INTER-LIGAND FREE ENERGY PREDICTED BY IDOCK:   -6.52 KCAL/MOL
REMARK 924 INTRA-LIGAND FREE ENERGY PREDICTED BY IDOCK:   -1.09 KCAL/MOL
REMARK 927      BINDING AFFINITY PREDICTED BY RF-SCORE:    0.00 PKD
ROOT
HETATM    1  C   UNL     1     -10.365   8.118  69.055  1.00  0.00    -0.229 C  
HETATM    2  C   UNL     1      -8.951   8.145  69.614  1.00  0.00    -0.154 C  
ENDROOT
BRANCH   2   3
HETATM    3  C   UNL     1      -7.897   8.112  68.513  1.00  0.00    -0.118 C  
BRANCH   3   4
HETATM    4  N   UNL     1      -8.246   9.101  67.455  1.00  0.00    -0.107 N  
HETATM    5  H   UNL     1      -8.975   8.956  66.757  1.00  0.00     0.000 HD 
BRANCH   4   6
HETATM    6  S   UNL     1      -7.298  10.482  67.547  1.00  0.00    -0.093 S  
HETATM    7  O   UNL     1      -6.176  10.108  68.381  1.00  0.00    -0.048 OA 
HETATM    8  O   UNL     1      -7.111  11.004  66.220  1.00  0.00    -0.135 OA 
BRANCH   6   9
HETATM    9  N   UNL     1      -8.256  11.504  68.465  1.00  0.00    -0.150 N  
HETATM   10  H   UNL     1      -9.023  11.152  69.038  1.00  0.00     0.000 HD 
BRANCH   9  11
HETATM   11  C   UNL     1      -7.942  12.882  68.401  1.00  0.00    -0.137 A  
HETATM   12  C   UNL     1      -8.641  13.812  67.621  1.00  0.00    -0.187 A  
HETATM   13  C   UNL     1      -8.183  15.113  67.870  1.00  0.00    -0.146 A  
HETATM   14  N   UNL     1      -6.880  13.141  69.189  1.00  0.00    -0.092 NA 
HETATM   15  N   UNL     1      -7.151  15.439  68.680  1.00  0.00    -0.112 NA 
HETATM   16  C   UNL     1      -6.539  14.424  69.288  1.00  0.00    -0.122 A  
BRANCH  12  17
HETATM   17  C   UNL     1      -9.712  13.500  66.606  1.00  0.00    -0.281 A  
HETATM   18  C   UNL     1      -9.496  13.519  65.217  1.00  0.00     0.312 A  
HETATM   19  C   UNL     1     -10.467  13.139  64.281  1.00  0.00    -0.410 A  
HETATM   20  C   UNL     1     -12.002  12.735  66.069  1.00  0.00    -0.491 A  
HETATM   21  C   UNL     1     -11.024  13.146  66.992  1.00  0.00    -0.289 A  
HETATM   22 BR   UNL     1     -12.987  12.110  63.464  1.00  0.00    -0.086 Br 
HETATM   23  C   UNL     1     -11.710  12.718  64.715  1.00  0.00    -0.352 A  
ENDBRANCH  12  17
BRANCH  13  24
HETATM   24  O   UNL     1      -8.842  16.155  67.250  1.00  0.00    -0.180 OA 
BRANCH  24  25
HETATM   25  C   UNL     1     -10.135  16.509  67.743  1.00  0.00    -0.264 C  
BRANCH  25  26
HETATM   26  C   UNL     1      -9.920  17.489  68.897  1.00  0.00    -0.313 C  
BRANCH  26  27
HETATM   27  O   UNL     1     -10.136  18.825  68.450  1.00  0.00    -0.365 OA 
BRANCH  27  28
HETATM   28  C   UNL     1      -9.002  19.400  67.913  1.00  0.00    -0.319 A  
HETATM   29  N   UNL     1      -7.956  19.700  68.706  1.00  0.00    -0.322 NA 
HETATM   30  C   UNL     1      -6.889  20.258  68.094  1.00  0.00    -0.289 A  
HETATM   31  C   UNL     1      -6.837  20.521  66.744  1.00  0.00    -0.272 A  
HETATM   32  C   UNL     1      -7.962  20.179  66.033  1.00  0.00    -0.204 A  
HETATM   33 BR   UNL     1      -5.332  21.292  65.930  1.00  0.00    -0.221 Br 
HETATM   34  N   UNL     1      -9.058  19.619  66.591  1.00  0.00    -0.343 NA 
ENDBRANCH  27  28
ENDBRANCH  26  27
ENDBRANCH  25  26
ENDBRANCH  24  25
ENDBRANCH  13  24
ENDBRANCH   9  11
ENDBRANCH   6   9
ENDBRANCH   4   6
ENDBRANCH   3   4
ENDBRANCH   2   3
TORSDOF 11
ENDMDL
MODEL      197
REMARK 921   NORMALIZED FREE ENERGY PREDICTED BY IDOCK:   -3.76 KCAL/MOL
REMARK 922        TOTAL FREE ENERGY PREDICTED BY IDOCK:   -7.60 KCAL/MOL
REMARK 923 INTER-LIGAND FREE ENERGY PREDICTED BY IDOCK:   -6.83 KCAL/MOL
REMARK 924 INTRA-LIGAND FREE ENERGY PREDICTED BY IDOCK:   -0.77 KCAL/MOL
REMARK 927      BINDING AFFINITY PREDICTED BY RF-SCORE:    0.00 PKD
ROOT
HETATM    1  C   UNL     1     -13.436   9.817  72.070  1.00  0.00    -0.498 C  
HETATM    2  C   UNL     1     -13.859   8.391  71.757  1.00  0.00    -0.458 C  
ENDROOT
BRANCH   2   3
HETATM    3  C   UNL     1     -12.677   7.429  71.749  1.00  0.00    -0.334 C  
BRANCH   3   4
HETATM    4  N   UNL     1     -11.495   8.092  71.129  1.00  0.00    -0.272 N  
HETATM    5  H   UNL     1     -11.159   9.019  71.391  1.00  0.00     0.000 HD 
BRANCH   4   6
HETATM    6  S   UNL     1     -10.781   7.135  69.952  1.00  0.00    -0.244 S  
HETATM    7  O   UNL     1      -9.358   7.265  70.178  1.00  0.00    -0.155 OA 
HETATM    8  O   UNL     1     -11.431   5.851  69.943  1.00  0.00    -0.309 OA 
BRANCH   6   9
HETATM    9  N   UNL     1     -11.123   7.989  68.552  1.00  0.00    -0.344 N  
HETATM   10  H   UNL     1     -11.628   7.567  67.773  1.00  0.00     0.000 HD 
BRANCH   9  11
HETATM   11  C   UNL     1     -10.671   9.329  68.511  1.00  0.00    -0.142 A  
HETATM   12  C   UNL     1      -9.643   9.787  67.677  1.00  0.00    -0.169 A  
HETATM   13  C   UNL     1      -9.515  11.181  67.765  1.00  0.00    -0.168 A  
HETATM   14  N   UNL     1     -11.372  10.071  69.392  1.00  0.00    -0.185 NA 
HETATM   15  N   UNL     1     -10.218  11.981  68.598  1.00  0.00    -0.205 NA 
HETATM   16  C   UNL     1     -11.104  11.375  69.386  1.00  0.00    -0.241 A  
BRANCH  12  17
HETATM   17  C   UNL     1      -8.739   8.933  66.823  1.00  0.00    -0.130 A  
HETATM   18  C   UNL     1      -7.547   8.354  67.290  1.00  0.00    -0.097 A  
HETATM   19  C   UNL     1      -6.758   7.487  66.523  1.00  0.00    -0.058 A  
HETATM   20  C   UNL     1      -8.282   7.751  64.700  1.00  0.00    -0.080 A  
HETATM   21  C   UNL     1      -9.045   8.641  65.476  1.00  0.00    -0.190 A  
HETATM   22 BR   UNL     1      -6.144   5.919  64.234  1.00  0.00    -0.026 Br 
HETATM   23  C   UNL     1      -7.148   7.164  65.236  1.00  0.00    -0.060 A  
ENDBRANCH  12  17
BRANCH  13  24
HETATM   24  O   UNL     1      -8.608  11.796  66.926  1.00  0.00    -0.167 OA 
BRANCH  24  25
HETATM   25  C   UNL     1      -8.688  13.215  66.790  1.00  0.00    -0.085 C  
BRANCH  25  26
HETATM   26  C   UNL     1      -7.559  13.809  67.634  1.00  0.00    -0.181 C  
BRANCH  26  27
HETATM   27  O   UNL     1      -7.082  15.011  67.035  1.00  0.00    -0.184 OA 
BRANCH  27  28
HETATM   28  C   UNL     1      -7.987  16.049  67.122  1.00  0.00    -0.201 A  
HETATM   29  N   UNL     1      -8.985  16.002  68.024  1.00  0.00    -0.186 NA 
HETATM   30  C   UNL     1      -9.822  17.064  68.038  1.00  0.00    -0.275 A  
HETATM   31  C   UNL     1      -9.694  18.145  67.198  1.00  0.00    -0.301 A  
HETATM   32  C   UNL     1      -8.642  18.084  66.314  1.00  0.00    -0.176 A  
HETATM   33 BR   UNL     1     -10.873  19.604  67.254  1.00  0.00    -0.401 Br 
HETATM   34  N   UNL     1      -7.775  17.050  66.253  1.00  0.00    -0.308 NA 
ENDBRANCH  27  28
ENDBRANCH  26  27
ENDBRANCH  25  26
ENDBRANCH  24  25
ENDBRANCH  13  24
ENDBRANCH   9  11
ENDBRANCH   6   9
ENDBRANCH   4   6
ENDBRANCH   3   4
ENDBRANCH   2   3
TORSDOF 11
ENDMDL
MODEL      198
REMARK 921   NORMALIZED FREE ENERGY PREDICTED BY IDOCK:   -3.76 KCAL/MOL
REMARK 922        TOTAL FREE ENERGY PREDICTED BY IDOCK:   -7.59 KCAL/MOL
REMARK 923 INTER-LIGAND FREE ENERGY PREDICTED BY IDOCK:   -6.41 KCAL/MOL
REMARK 924 INTRA-LIGAND FREE ENERGY PREDICTED BY IDOCK:   -1.19 KCAL/MOL
REMARK 927      BINDING AFFINITY PREDICTED BY RF-SCORE:    0.00 PKD
ROOT
HETATM    1  C   UNL     1      -7.560  19.478  69.405  1.00  0.00    -0.145 C  
HETATM    2  C   UNL     1      -6.115  19.033  69.246  1.00  0.00    -0.283 C  
ENDROOT
BRANCH   2   3
HETATM    3  C   UNL     1      -5.993  17.763  68.412  1.00  0.00    -0.172 C  
BRANCH   3   4
HETATM    4  N   UNL     1      -5.205  16.745  69.163  1.00  0.00    -0.128 N  
HETATM    5  H   UNL     1      -4.223  16.855  69.414  1.00  0.00     0.000 HD 
BRANCH   4   6
HETATM    6  S   UNL     1      -6.125  15.395  69.546  1.00  0.00    -0.140 S  
HETATM    7  O   UNL     1      -5.265  14.584  70.380  1.00  0.00    -0.098 OA 
HETATM    8  O   UNL     1      -7.420  15.831  69.994  1.00  0.00     0.034 OA 
BRANCH   6   9
HETATM    9  N   UNL     1      -6.232  14.614  68.068  1.00  0.00    -0.143 N  
HETATM   10  H   UNL     1      -5.539  14.757  67.332  1.00  0.00     0.000 HD 
BRANCH   9  11
HETATM   11  C   UNL     1      -7.336  13.746  67.898  1.00  0.00    -0.153 A  
HETATM   12  C   UNL     1      -8.585  14.150  67.409  1.00  0.00    -0.219 A  
HETATM   13  C   UNL     1      -9.428  13.044  67.226  1.00  0.00    -0.224 A  
HETATM   14  N   UNL     1      -6.996  12.500  68.282  1.00  0.00    -0.081 NA 
HETATM   15  N   UNL     1      -9.128  11.767  67.554  1.00  0.00    -0.171 NA 
HETATM   16  C   UNL     1      -7.923  11.566  68.085  1.00  0.00    -0.136 A  
BRANCH  12  17
HETATM   17  C   UNL     1      -9.025  15.569  67.146  1.00  0.00    -0.232 A  
HETATM   18  C   UNL     1      -8.420  16.407  66.194  1.00  0.00    -0.329 A  
HETATM   19  C   UNL     1      -8.890  17.692  65.889  1.00  0.00     0.088 A  
HETATM   20  C   UNL     1     -10.609  17.429  67.529  1.00  0.00    -0.330 A  
HETATM   21  C   UNL     1     -10.106  16.154  67.842  1.00  0.00    -0.244 A  
HETATM   22 BR   UNL     1     -10.702  19.873  66.060  1.00  0.00    -0.319 Br 
HETATM   23  C   UNL     1     -10.006  18.186  66.538  1.00  0.00    -0.374 A  
ENDBRANCH  12  17
BRANCH  13  24
HETATM   24  O   UNL     1     -10.664  13.268  66.655  1.00  0.00    -0.277 OA 
BRANCH  24  25
HETATM   25  C   UNL     1     -11.426  12.128  66.257  1.00  0.00    -0.374 C  
BRANCH  25  26
HETATM   26  C   UNL     1     -11.531  12.170  64.732  1.00  0.00    -0.322 C  
BRANCH  26  27
HETATM   27  O   UNL     1     -10.242  12.364  64.158  1.00  0.00    -0.344 OA 
BRANCH  27  28
HETATM   28  C   UNL     1      -9.600  11.176  63.868  1.00  0.00    -0.254 A  
HETATM   29  N   UNL     1      -9.677  10.140  64.724  1.00  0.00    -0.315 NA 
HETATM   30  C   UNL     1      -9.019   9.018  64.358  1.00  0.00     0.016 A  
HETATM   31  C   UNL     1      -8.303   8.903  63.189  1.00  0.00    -0.185 A  
HETATM   32  C   UNL     1      -8.288  10.025  62.394  1.00  0.00    -0.151 A  
HETATM   33 BR   UNL     1      -7.409   7.324  62.712  1.00  0.00    -0.097 Br 
HETATM   34  N   UNL     1      -8.925  11.173  62.709  1.00  0.00    -0.302 NA 
ENDBRANCH  27  28
ENDBRANCH  26  27
ENDBRANCH  25  26
ENDBRANCH  24  25
ENDBRANCH  13  24
ENDBRANCH   9  11
ENDBRANCH   6   9
ENDBRANCH   4   6
ENDBRANCH   3   4
ENDBRANCH   2   3
TORSDOF 11
ENDMDL
MODEL      199
REMARK 921   NORMALIZED FREE ENERGY PREDICTED BY IDOCK:   -3.75 KCAL/MOL
REMARK 922        TOTAL FREE ENERGY PREDICTED BY IDOCK:   -7.57 KCAL/MOL
REMARK 923 INTER-LIGAND FREE ENERGY PREDICTED BY IDOCK:   -6.27 KCAL/MOL
REMARK 924 INTRA-LIGAND FREE ENERGY PREDICTED BY IDOCK:   -1.31 KCAL/MOL
REMARK 927      BINDING AFFINITY PREDICTED BY RF-SCORE:    0.00 PKD
ROOT
HETATM    1  C   UNL     1     -12.674  11.297  70.843  1.00  0.00    -0.412 C  
HETATM    2  C   UNL     1     -13.203  12.256  71.898  1.00  0.00    -0.481 C  
ENDROOT
BRANCH   2   3
HETATM    3  C   UNL     1     -12.804  13.699  71.616  1.00  0.00    -0.338 C  
BRANCH   3   4
HETATM    4  N   UNL     1     -11.863  13.743  70.461  1.00  0.00    -0.497 N  
HETATM    5  H   UNL     1     -11.562  12.919  69.940  1.00  0.00     0.000 HD 
BRANCH   4   6
HETATM    6  S   UNL     1     -11.357  15.305  70.120  1.00  0.00    -0.316 S  
HETATM    7  O   UNL     1     -12.169  16.152  70.967  1.00  0.00    -0.349 OA 
HETATM    8  O   UNL     1      -9.920  15.346  70.164  1.00  0.00    -0.258 OA 
BRANCH   6   9
HETATM    9  N   UNL     1     -11.916  15.520  68.555  1.00  0.00    -0.536 N  
HETATM   10  H   UNL     1     -12.443  16.349  68.281  1.00  0.00     0.000 HD 
BRANCH   9  11
HETATM   11  C   UNL     1     -11.616  14.486  67.636  1.00  0.00    -0.378 A  
HETATM   12  C   UNL     1     -10.463  14.451  66.842  1.00  0.00    -0.269 A  
HETATM   13  C   UNL     1     -10.381  13.242  66.137  1.00  0.00    -0.290 A  
HETATM   14  N   UNL     1     -12.603  13.569  67.649  1.00  0.00     0.263 NA 
HETATM   15  N   UNL     1     -11.319  12.268  66.141  1.00  0.00    -0.336 NA 
HETATM   16  C   UNL     1     -12.397  12.494  66.891  1.00  0.00     0.396 A  
BRANCH  12  17
HETATM   17  C   UNL     1      -9.447  15.556  66.693  1.00  0.00    -0.281 A  
HETATM   18  C   UNL     1      -9.771  16.862  66.286  1.00  0.00    -0.301 A  
HETATM   19  C   UNL     1      -8.840  17.908  66.239  1.00  0.00    -0.189 A  
HETATM   20  C   UNL     1      -7.136  16.395  66.961  1.00  0.00    -0.259 A  
HETATM   21  C   UNL     1      -8.078  15.352  66.976  1.00  0.00    -0.265 A  
HETATM   22 BR   UNL     1      -6.294  19.104  66.642  1.00  0.00    -0.201 Br 
HETATM   23  C   UNL     1      -7.528  17.676  66.608  1.00  0.00    -0.235 A  
ENDBRANCH  12  17
BRANCH  13  24
HETATM   24  O   UNL     1      -9.248  13.014  65.383  1.00  0.00     0.271 OA 
BRANCH  24  25
HETATM   25  C   UNL     1      -8.710  11.691  65.380  1.00  0.00     0.258 C  
BRANCH  25  26
HETATM   26  C   UNL     1      -8.131  11.441  66.772  1.00  0.00    -0.161 C  
BRANCH  26  27
HETATM   27  O   UNL     1      -9.041  10.664  67.547  1.00  0.00    -0.139 OA 
BRANCH  27  28
HETATM   28  C   UNL     1      -8.852   9.305  67.394  1.00  0.00    -0.117 A  
HETATM   29  N   UNL     1      -7.660   8.752  67.685  1.00  0.00    -0.096 NA 
HETATM   30  C   UNL     1      -7.567   7.416  67.507  1.00  0.00    -0.106 A  
HETATM   31  C   UNL     1      -8.605   6.634  67.057  1.00  0.00    -0.113 A  
HETATM   32  C   UNL     1      -9.774   7.305  66.786  1.00  0.00    -0.198 A  
HETATM   33 BR   UNL     1      -8.439   4.779  66.829  1.00  0.00    -0.104 Br 
HETATM   34  N   UNL     1      -9.925   8.638  66.944  1.00  0.00    -0.233 NA 
ENDBRANCH  27  28
ENDBRANCH  26  27
ENDBRANCH  25  26
ENDBRANCH  24  25
ENDBRANCH  13  24
ENDBRANCH   9  11
ENDBRANCH   6   9
ENDBRANCH   4   6
ENDBRANCH   3   4
ENDBRANCH   2   3
TORSDOF 11
ENDMDL
MODEL      200
REMARK 921   NORMALIZED FREE ENERGY PREDICTED BY IDOCK:   -3.70 KCAL/MOL
REMARK 922        TOTAL FREE ENERGY PREDICTED BY IDOCK:   -7.50 KCAL/MOL
REMARK 923 INTER-LIGAND FREE ENERGY PREDICTED BY IDOCK:   -5.60 KCAL/MOL
REMARK 924 INTRA-LIGAND FREE ENERGY PREDICTED BY IDOCK:   -1.90 KCAL/MOL
REMARK 927      BINDING AFFINITY PREDICTED BY RF-SCORE:    0.00 PKD
ROOT
HETATM    1  C   UNL     1      -5.680   9.393  69.182  1.00  0.00    -0.035 C  
HETATM    2  C   UNL     1      -5.939   8.079  69.901  1.00  0.00    -0.022 C  
ENDROOT
BRANCH   2   3
HETATM    3  C   UNL     1      -5.969   8.247  71.415  1.00  0.00    -0.037 C  
BRANCH   3   4
HETATM    4  N   UNL     1      -7.022   7.367  71.997  1.00  0.00    -0.062 N  
HETATM    5  H   UNL     1      -7.423   6.563  71.515  1.00  0.00     0.000 HD 
BRANCH   4   6
HETATM    6  S   UNL     1      -7.470   7.856  73.537  1.00  0.00    -0.149 S  
HETATM    7  O   UNL     1      -7.398   6.656  74.344  1.00  0.00    -0.098 OA 
HETATM    8  O   UNL     1      -6.730   9.041  73.880  1.00  0.00    -0.347 OA 
BRANCH   6   9
HETATM    9  N   UNL     1      -9.096   8.200  73.336  1.00  0.00    -0.263 N  
HETATM   10  H   UNL     1      -9.711   8.382  74.130  1.00  0.00     0.000 HD 
BRANCH   9  11
HETATM   11  C   UNL     1      -9.571   8.224  72.003  1.00  0.00    -0.248 A  
HETATM   12  C   UNL     1     -10.205   7.144  71.375  1.00  0.00    -0.203 A  
HETATM   13  C   UNL     1     -10.679   7.514  70.108  1.00  0.00    -0.239 A  
HETATM   14  N   UNL     1      -9.310   9.425  71.451  1.00  0.00    -0.245 NA 
HETATM   15  N   UNL     1     -10.484   8.716  69.520  1.00  0.00    -0.219 NA 
HETATM   16  C   UNL     1      -9.789   9.608  70.223  1.00  0.00    -0.266 A  
BRANCH  12  17
HETATM   17  C   UNL     1     -10.340   5.745  71.924  1.00  0.00    -0.263 A  
HETATM   18  C   UNL     1      -9.493   4.683  71.564  1.00  0.00    -0.214 A  
HETATM   19  C   UNL     1      -9.563   3.410  72.145  1.00  0.00    -0.206 A  
HETATM   20  C   UNL     1     -11.404   4.146  73.481  1.00  0.00    -0.297 A  
HETATM   21  C   UNL     1     -11.336   5.409  72.867  1.00  0.00    -0.365 A  
HETATM   22 BR   UNL     1     -10.536   1.474  73.984  1.00  0.00    -0.176 Br 
HETATM   23  C   UNL     1     -10.502   3.156  73.127  1.00  0.00    -0.165 A  
ENDBRANCH  12  17
BRANCH  13  24
HETATM   24  O   UNL     1     -11.416   6.585  69.403  1.00  0.00    -0.355 OA 
BRANCH  24  25
HETATM   25  C   UNL     1     -11.077   6.374  68.032  1.00  0.00    -0.267 C  
BRANCH  25  26
HETATM   26  C   UNL     1      -9.704   5.701  68.009  1.00  0.00    -0.126 C  
BRANCH  26  27
HETATM   27  O   UNL     1      -9.854   4.288  67.915  1.00  0.00    -0.140 OA 
BRANCH  27  28
HETATM   28  C   UNL     1      -8.938   3.707  67.060  1.00  0.00    -0.144 A  
HETATM   29  N   UNL     1      -8.841   2.367  66.984  1.00  0.00    -0.125 NA 
HETATM   30  C   UNL     1      -7.919   1.887  66.119  1.00  0.00    -0.078 A  
HETATM   31  C   UNL     1      -7.109   2.689  65.348  1.00  0.00    -0.057 A  
HETATM   32  C   UNL     1      -7.291   4.042  65.512  1.00  0.00    -0.076 A  
HETATM   33 BR   UNL     1      -5.845   1.984  64.154  1.00  0.00    -0.010 Br 
HETATM   34  N   UNL     1      -8.195   4.578  66.360  1.00  0.00    -0.106 NA 
ENDBRANCH  27  28
ENDBRANCH  26  27
ENDBRANCH  25  26
ENDBRANCH  24  25
ENDBRANCH  13  24
ENDBRANCH   9  11
ENDBRANCH   6   9
ENDBRANCH   4   6
ENDBRANCH   3   4
ENDBRANCH   2   3
TORSDOF 11
ENDMDL
MODEL      201
REMARK 921   NORMALIZED FREE ENERGY PREDICTED BY IDOCK:   -3.62 KCAL/MOL
REMARK 922        TOTAL FREE ENERGY PREDICTED BY IDOCK:   -7.36 KCAL/MOL
REMARK 923 INTER-LIGAND FREE ENERGY PREDICTED BY IDOCK:   -5.86 KCAL/MOL
REMARK 924 INTRA-LIGAND FREE ENERGY PREDICTED BY IDOCK:   -1.51 KCAL/MOL
REMARK 927      BINDING AFFINITY PREDICTED BY RF-SCORE:    0.00 PKD
ROOT
HETATM    1  C   UNL     1      -6.209   7.624  68.337  1.00  0.00    -0.036 C  
HETATM    2  C   UNL     1      -6.630   6.826  69.561  1.00  0.00    -0.048 C  
ENDROOT
BRANCH   2   3
HETATM    3  C   UNL     1      -5.766   7.141  70.777  1.00  0.00    -0.027 C  
BRANCH   3   4
HETATM    4  N   UNL     1      -6.486   6.743  72.020  1.00  0.00    -0.053 N  
HETATM    5  H   UNL     1      -6.829   5.800  72.203  1.00  0.00     0.000 HD 
BRANCH   4   6
HETATM    6  S   UNL     1      -6.666   8.028  73.082  1.00  0.00    -0.099 S  
HETATM    7  O   UNL     1      -6.268   7.504  74.371  1.00  0.00    -0.080 OA 
HETATM    8  O   UNL     1      -6.039   9.191  72.512  1.00  0.00    -0.239 OA 
BRANCH   6   9
HETATM    9  N   UNL     1      -8.331   8.208  73.134  1.00  0.00    -0.193 N  
HETATM   10  H   UNL     1      -8.838   8.270  74.017  1.00  0.00     0.000 HD 
BRANCH   9  11
HETATM   11  C   UNL     1      -8.993   8.270  71.885  1.00  0.00    -0.187 A  
HETATM   12  C   UNL     1      -9.875   7.290  71.414  1.00  0.00    -0.191 A  
HETATM   13  C   UNL     1     -10.473   7.696  70.212  1.00  0.00    -0.224 A  
HETATM   14  N   UNL     1      -8.636   9.398  71.239  1.00  0.00    -0.263 NA 
HETATM   15  N   UNL     1     -10.186   8.833  69.539  1.00  0.00    -0.203 NA 
HETATM   16  C   UNL     1      -9.262   9.621  70.086  1.00  0.00    -0.246 A  
BRANCH  12  17
HETATM   17  C   UNL     1     -10.141   5.948  72.050  1.00  0.00    -0.223 A  
HETATM   18  C   UNL     1     -11.053   5.752  73.100  1.00  0.00    -0.288 A  
HETATM   19  C   UNL     1     -11.365   4.490  73.625  1.00  0.00    -0.288 A  
HETATM   20  C   UNL     1      -9.809   3.498  72.106  1.00  0.00    -0.238 A  
HETATM   21  C   UNL     1      -9.489   4.774  71.611  1.00  0.00    -0.206 A  
HETATM   22 BR   UNL     1     -11.252   1.653  73.737  1.00  0.00    -0.277 Br 
HETATM   23  C   UNL     1     -10.762   3.362  73.102  1.00  0.00    -0.169 A  
ENDBRANCH  12  17
BRANCH  13  24
HETATM   24  O   UNL     1     -11.445   6.878  69.671  1.00  0.00    -0.232 OA 
BRANCH  24  25
HETATM   25  C   UNL     1     -11.022   5.852  68.772  1.00  0.00    -0.241 C  
BRANCH  25  26
HETATM   26  C   UNL     1     -10.878   6.497  67.394  1.00  0.00    -0.373 C  
BRANCH  26  27
HETATM   27  O   UNL     1      -9.511   6.492  66.991  1.00  0.00    -0.129 OA 
BRANCH  27  28
HETATM   28  C   UNL     1      -9.216   7.490  66.084  1.00  0.00    -0.105 A  
HETATM   29  N   UNL     1      -9.864   8.668  66.141  1.00  0.00    -0.244 NA 
HETATM   30  C   UNL     1      -9.508   9.586  65.215  1.00  0.00    -0.258 A  
HETATM   31  C   UNL     1      -8.547   9.366  64.255  1.00  0.00    -0.196 A  
HETATM   32  C   UNL     1      -7.955   8.126  64.288  1.00  0.00    -0.144 A  
HETATM   33 BR   UNL     1      -8.076  10.669  62.990  1.00  0.00    -0.025 Br 
HETATM   34  N   UNL     1      -8.269   7.170  65.188  1.00  0.00    -0.132 NA 
ENDBRANCH  27  28
ENDBRANCH  26  27
ENDBRANCH  25  26
ENDBRANCH  24  25
ENDBRANCH  13  24
ENDBRANCH   9  11
ENDBRANCH   6   9
ENDBRANCH   4   6
ENDBRANCH   3   4
ENDBRANCH   2   3
TORSDOF 11
ENDMDL
MODEL      202
REMARK 921   NORMALIZED FREE ENERGY PREDICTED BY IDOCK:   -3.61 KCAL/MOL
REMARK 922        TOTAL FREE ENERGY PREDICTED BY IDOCK:   -7.34 KCAL/MOL
REMARK 923 INTER-LIGAND FREE ENERGY PREDICTED BY IDOCK:   -5.97 KCAL/MOL
REMARK 924 INTRA-LIGAND FREE ENERGY PREDICTED BY IDOCK:   -1.37 KCAL/MOL
REMARK 927      BINDING AFFINITY PREDICTED BY RF-SCORE:    0.00 PKD
ROOT
HETATM    1  C   UNL     1     -10.845  14.530  68.894  1.00  0.00    -0.262 C  
HETATM    2  C   UNL     1     -11.485  13.298  68.275  1.00  0.00    -0.351 C  
ENDROOT
BRANCH   2   3
HETATM    3  C   UNL     1     -11.650  13.431  66.766  1.00  0.00    -0.365 C  
BRANCH   3   4
HETATM    4  N   UNL     1     -10.341  13.188  66.095  1.00  0.00    -0.278 N  
HETATM    5  H   UNL     1      -9.546  13.824  66.150  1.00  0.00     0.000 HD 
BRANCH   4   6
HETATM    6  S   UNL     1     -10.332  11.746  65.239  1.00  0.00    -0.285 S  
HETATM    7  O   UNL     1     -11.249  10.883  65.953  1.00  0.00     0.011 OA 
HETATM    8  O   UNL     1     -10.502  12.037  63.841  1.00  0.00    -0.327 OA 
BRANCH   6   9
HETATM    9  N   UNL     1      -8.791  11.166  65.549  1.00  0.00    -0.312 N  
HETATM   10  H   UNL     1      -8.169  10.861  64.799  1.00  0.00     0.000 HD 
BRANCH   9  11
HETATM   11  C   UNL     1      -8.401  11.121  66.908  1.00  0.00    -0.147 A  
HETATM   12  C   UNL     1      -8.388   9.955  67.684  1.00  0.00    -0.114 A  
HETATM   13  C   UNL     1      -7.827  10.204  68.945  1.00  0.00    -0.100 A  
HETATM   14  N   UNL     1      -8.058  12.357  67.321  1.00  0.00    -0.177 NA 
HETATM   15  N   UNL     1      -7.429  11.413  69.401  1.00  0.00    -0.006 NA 
HETATM   16  C   UNL     1      -7.583  12.436  68.562  1.00  0.00    -0.122 A  
BRANCH  12  17
HETATM   17  C   UNL     1      -8.936   8.609  67.282  1.00  0.00    -0.145 A  
HETATM   18  C   UNL     1     -10.304   8.291  67.292  1.00  0.00    -0.372 A  
HETATM   19  C   UNL     1     -10.817   7.071  66.831  1.00  0.00    -0.350 A  
HETATM   20  C   UNL     1      -8.590   6.344  66.351  1.00  0.00    -0.134 A  
HETATM   21  C   UNL     1      -8.093   7.563  66.844  1.00  0.00    -0.116 A  
HETATM   22 BR   UNL     1     -10.647   4.508  65.616  1.00  0.00    -0.099 Br 
HETATM   23  C   UNL     1      -9.955   6.111  66.331  1.00  0.00    -0.075 A  
ENDBRANCH  12  17
BRANCH  13  24
HETATM   24  O   UNL     1      -7.654   9.129  69.793  1.00  0.00    -0.068 OA 
BRANCH  24  25
HETATM   25  C   UNL     1      -7.714   9.378  71.198  1.00  0.00     0.101 C  
BRANCH  25  26
HETATM   26  C   UNL     1      -9.052   8.829  71.693  1.00  0.00    -0.244 C  
BRANCH  26  27
HETATM   27  O   UNL     1      -8.926   8.370  73.036  1.00  0.00    -0.238 OA 
BRANCH  27  28
HETATM   28  C   UNL     1      -9.381   7.078  73.205  1.00  0.00    -0.153 A  
HETATM   29  N   UNL     1      -8.609   6.166  73.826  1.00  0.00    -0.123 NA 
HETATM   30  C   UNL     1      -9.136   4.928  73.949  1.00  0.00    -0.112 A  
HETATM   31  C   UNL     1     -10.381   4.581  73.480  1.00  0.00    -0.188 A  
HETATM   32  C   UNL     1     -11.079   5.589  72.859  1.00  0.00    -0.299 A  
HETATM   33 BR   UNL     1     -11.081   2.851  73.676  1.00  0.00    -0.298 Br 
HETATM   34  N   UNL     1     -10.604   6.844  72.707  1.00  0.00    -0.224 NA 
ENDBRANCH  27  28
ENDBRANCH  26  27
ENDBRANCH  25  26
ENDBRANCH  24  25
ENDBRANCH  13  24
ENDBRANCH   9  11
ENDBRANCH   6   9
ENDBRANCH   4   6
ENDBRANCH   3   4
ENDBRANCH   2   3
TORSDOF 11
ENDMDL
MODEL      203
REMARK 921   NORMALIZED FREE ENERGY PREDICTED BY IDOCK:   -3.55 KCAL/MOL
REMARK 922        TOTAL FREE ENERGY PREDICTED BY IDOCK:   -7.25 KCAL/MOL
REMARK 923 INTER-LIGAND FREE ENERGY PREDICTED BY IDOCK:   -5.69 KCAL/MOL
REMARK 924 INTRA-LIGAND FREE ENERGY PREDICTED BY IDOCK:   -1.56 KCAL/MOL
REMARK 927      BINDING AFFINITY PREDICTED BY RF-SCORE:    0.00 PKD
ROOT
HETATM    1  C   UNL     1      -5.417   6.270  64.090  1.00  0.00    -0.018 C  
HETATM    2  C   UNL     1      -6.359   5.078  64.029  1.00  0.00    -0.022 C  
ENDROOT
BRANCH   2   3
HETATM    3  C   UNL     1      -7.413   5.121  65.130  1.00  0.00    -0.073 C  
BRANCH   3   4
HETATM    4  N   UNL     1      -7.999   3.764  65.315  1.00  0.00    -0.092 N  
HETATM    5  H   UNL     1      -8.533   3.271  64.599  1.00  0.00     0.000 HD 
BRANCH   4   6
HETATM    6  S   UNL     1      -7.678   3.142  66.839  1.00  0.00    -0.076 S  
HETATM    7  O   UNL     1      -7.303   1.763  66.607  1.00  0.00    -0.054 OA 
HETATM    8  O   UNL     1      -6.811   4.053  67.537  1.00  0.00    -0.049 OA 
BRANCH   6   9
HETATM    9  N   UNL     1      -9.201   3.112  67.533  1.00  0.00    -0.179 N  
HETATM   10  H   UNL     1      -9.682   2.236  67.740  1.00  0.00     0.000 HD 
BRANCH   9  11
HETATM   11  C   UNL     1      -9.785   4.369  67.817  1.00  0.00    -0.137 A  
HETATM   12  C   UNL     1      -9.745   4.989  69.073  1.00  0.00    -0.238 A  
HETATM   13  C   UNL     1     -10.288   6.280  69.007  1.00  0.00    -0.206 A  
HETATM   14  N   UNL     1     -10.375   4.855  66.707  1.00  0.00    -0.237 NA 
HETATM   15  N   UNL     1     -10.857   6.836  67.914  1.00  0.00    -0.249 NA 
HETATM   16  C   UNL     1     -10.885   6.080  66.818  1.00  0.00    -0.279 A  
BRANCH  12  17
HETATM   17  C   UNL     1      -9.243   4.375  70.356  1.00  0.00    -0.184 A  
HETATM   18  C   UNL     1     -10.041   3.594  71.209  1.00  0.00    -0.027 A  
HETATM   19  C   UNL     1      -9.548   2.949  72.351  1.00  0.00    -0.192 A  
HETATM   20  C   UNL     1      -7.387   3.873  71.911  1.00  0.00    -0.059 A  
HETATM   21  C   UNL     1      -7.907   4.534  70.784  1.00  0.00    -0.064 A  
HETATM   22 BR   UNL     1      -7.519   2.121  74.160  1.00  0.00    -0.034 Br 
HETATM   23  C   UNL     1      -8.210   3.067  72.681  1.00  0.00    -0.071 A  
ENDBRANCH  12  17
BRANCH  13  24
HETATM   24  O   UNL     1     -10.231   7.058  70.145  1.00  0.00    -0.190 OA 
BRANCH  24  25
HETATM   25  C   UNL     1      -9.178   8.019  70.239  1.00  0.00    -0.155 C  
BRANCH  25  26
HETATM   26  C   UNL     1      -9.836   9.389  70.407  1.00  0.00    -0.259 C  
BRANCH  26  27
HETATM   27  O   UNL     1     -11.242   9.238  70.583  1.00  0.00    -0.248 OA 
BRANCH  27  28
HETATM   28  C   UNL     1     -11.874  10.425  70.891  1.00  0.00    -0.377 A  
HETATM   29  N   UNL     1     -11.603  11.538  70.184  1.00  0.00    -0.286 NA 
HETATM   30  C   UNL     1     -12.271  12.654  70.555  1.00  0.00    -0.299 A  
HETATM   31  C   UNL     1     -13.179  12.689  71.587  1.00  0.00    -0.298 A  
HETATM   32  C   UNL     1     -13.373  11.497  72.243  1.00  0.00     0.008 A  
HETATM   33 BR   UNL     1     -14.091  14.257  72.067  1.00  0.00    -0.641 Br 
HETATM   34  N   UNL     1     -12.735  10.351  71.918  1.00  0.00    -0.406 NA 
ENDBRANCH  27  28
ENDBRANCH  26  27
ENDBRANCH  25  26
ENDBRANCH  24  25
ENDBRANCH  13  24
ENDBRANCH   9  11
ENDBRANCH   6   9
ENDBRANCH   4   6
ENDBRANCH   3   4
ENDBRANCH   2   3
TORSDOF 11
ENDMDL
MODEL      204
REMARK 921   NORMALIZED FREE ENERGY PREDICTED BY IDOCK:   -3.54 KCAL/MOL
REMARK 922        TOTAL FREE ENERGY PREDICTED BY IDOCK:   -7.24 KCAL/MOL
REMARK 923 INTER-LIGAND FREE ENERGY PREDICTED BY IDOCK:   -5.52 KCAL/MOL
REMARK 924 INTRA-LIGAND FREE ENERGY PREDICTED BY IDOCK:   -1.72 KCAL/MOL
REMARK 927      BINDING AFFINITY PREDICTED BY RF-SCORE:    0.00 PKD
ROOT
HETATM    1  C   UNL     1     -11.414  15.924  68.598  1.00  0.00    -0.391 C  
HETATM    2  C   UNL     1     -10.462  16.152  67.435  1.00  0.00    -0.310 C  
ENDROOT
BRANCH   2   3
HETATM    3  C   UNL     1      -9.040  16.438  67.904  1.00  0.00    -0.201 C  
BRANCH   3   4
HETATM    4  N   UNL     1      -8.084  15.568  67.162  1.00  0.00    -0.197 N  
HETATM    5  H   UNL     1      -7.735  15.773  66.226  1.00  0.00     0.000 HD 
BRANCH   4   6
HETATM    6  S   UNL     1      -7.650  14.211  68.047  1.00  0.00    -0.161 S  
HETATM    7  O   UNL     1      -6.273  14.441  68.429  1.00  0.00    -0.087 OA 
HETATM    8  O   UNL     1      -8.672  13.952  69.026  1.00  0.00     0.033 OA 
BRANCH   6   9
HETATM    9  N   UNL     1      -7.628  13.019  66.872  1.00  0.00    -0.368 N  
HETATM   10  H   UNL     1      -6.808  12.855  66.286  1.00  0.00     0.000 HD 
BRANCH   9  11
HETATM   11  C   UNL     1      -8.809  12.251  66.736  1.00  0.00    -0.195 A  
HETATM   12  C   UNL     1      -9.043  11.044  67.408  1.00  0.00    -0.143 A  
HETATM   13  C   UNL     1     -10.350  10.592  67.176  1.00  0.00    -0.228 A  
HETATM   14  N   UNL     1      -9.645  12.856  65.871  1.00  0.00    -0.182 NA 
HETATM   15  N   UNL     1     -11.247  11.178  66.351  1.00  0.00    -0.211 NA 
HETATM   16  C   UNL     1     -10.836  12.279  65.724  1.00  0.00    -0.278 A  
BRANCH  12  17
HETATM   17  C   UNL     1      -8.044  10.275  68.237  1.00  0.00    -0.107 A  
HETATM   18  C   UNL     1      -8.081  10.213  69.640  1.00  0.00    -0.178 A  
HETATM   19  C   UNL     1      -7.208   9.424  70.401  1.00  0.00    -0.111 A  
HETATM   20  C   UNL     1      -6.129   8.719  68.387  1.00  0.00    -0.050 A  
HETATM   21  C   UNL     1      -6.995   9.538  67.644  1.00  0.00    -0.080 A  
HETATM   22 BR   UNL     1      -5.141   7.512  70.778  1.00  0.00    -0.023 Br 
HETATM   23  C   UNL     1      -6.252   8.653  69.766  1.00  0.00    -0.035 A  
ENDBRANCH  12  17
BRANCH  13  24
HETATM   24  O   UNL     1     -10.767   9.462  67.850  1.00  0.00    -0.249 OA 
BRANCH  24  25
HETATM   25  C   UNL     1     -10.800   8.233  67.125  1.00  0.00    -0.024 C  
BRANCH  25  26
HETATM   26  C   UNL     1     -10.563   7.111  68.136  1.00  0.00    -0.192 C  
BRANCH  26  27
HETATM   27  O   UNL     1     -10.179   7.659  69.394  1.00  0.00    -0.195 OA 
BRANCH  27  28
HETATM   28  C   UNL     1     -10.253   6.742  70.423  1.00  0.00    -0.192 A  
HETATM   29  N   UNL     1      -9.132   6.172  70.903  1.00  0.00    -0.150 NA 
HETATM   30  C   UNL     1      -9.301   5.288  71.912  1.00  0.00    -0.141 A  
HETATM   31  C   UNL     1     -10.528   4.965  72.442  1.00  0.00    -0.209 A  
HETATM   32  C   UNL     1     -11.604   5.603  71.872  1.00  0.00    -0.026 A  
HETATM   33 BR   UNL     1     -10.720   3.737  73.849  1.00  0.00    -0.306 Br 
HETATM   34  N   UNL     1     -11.497   6.493  70.863  1.00  0.00    -0.332 NA 
ENDBRANCH  27  28
ENDBRANCH  26  27
ENDBRANCH  25  26
ENDBRANCH  24  25
ENDBRANCH  13  24
ENDBRANCH   9  11
ENDBRANCH   6   9
ENDBRANCH   4   6
ENDBRANCH   3   4
ENDBRANCH   2   3
TORSDOF 11
ENDMDL
MODEL      205
REMARK 921   NORMALIZED FREE ENERGY PREDICTED BY IDOCK:   -3.53 KCAL/MOL
REMARK 922        TOTAL FREE ENERGY PREDICTED BY IDOCK:   -7.22 KCAL/MOL
REMARK 923 INTER-LIGAND FREE ENERGY PREDICTED BY IDOCK:   -5.99 KCAL/MOL
REMARK 924 INTRA-LIGAND FREE ENERGY PREDICTED BY IDOCK:   -1.23 KCAL/MOL
REMARK 927      BINDING AFFINITY PREDICTED BY RF-SCORE:    0.00 PKD
ROOT
HETATM    1  C   UNL     1      -9.601  19.153  68.851  1.00  0.00    -0.447 C  
HETATM    2  C   UNL     1     -10.235  18.506  67.630  1.00  0.00    -0.417 C  
ENDROOT
BRANCH   2   3
HETATM    3  C   UNL     1     -10.887  17.169  67.961  1.00  0.00    -0.317 C  
BRANCH   3   4
HETATM    4  N   UNL     1      -9.894  16.071  67.787  1.00  0.00    -0.229 N  
HETATM    5  H   UNL     1      -9.186  15.828  68.480  1.00  0.00     0.000 HD 
BRANCH   4   6
HETATM    6  S   UNL     1     -10.078  15.283  66.318  1.00  0.00    -0.301 S  
HETATM    7  O   UNL     1     -11.202  15.936  65.683  1.00  0.00    -0.158 OA 
HETATM    8  O   UNL     1      -8.793  15.196  65.676  1.00  0.00     0.197 OA 
BRANCH   6   9
HETATM    9  N   UNL     1     -10.613  13.770  66.797  1.00  0.00    -0.272 N  
HETATM   10  H   UNL     1     -11.119  13.630  67.672  1.00  0.00     0.000 HD 
BRANCH   9  11
HETATM   11  C   UNL     1     -10.324  12.697  65.921  1.00  0.00    -0.276 A  
HETATM   12  C   UNL     1      -9.331  11.737  66.154  1.00  0.00    -0.236 A  
HETATM   13  C   UNL     1      -9.375  10.730  65.179  1.00  0.00    -0.217 A  
HETATM   14  N   UNL     1     -11.139  12.757  64.849  1.00  0.00    -0.283 NA 
HETATM   15  N   UNL     1     -10.196  10.714  64.105  1.00  0.00    -0.340 NA 
HETATM   16  C   UNL     1     -11.030  11.747  63.988  1.00  0.00    -0.384 A  
BRANCH  12  17
HETATM   17  C   UNL     1      -8.303  11.766  67.257  1.00  0.00    -0.162 A  
HETATM   18  C   UNL     1      -7.199  12.636  67.269  1.00  0.00    -0.106 A  
HETATM   19  C   UNL     1      -6.297  12.724  68.338  1.00  0.00    -0.078 A  
HETATM   20  C   UNL     1      -7.515  11.010  69.476  1.00  0.00    -0.031 A  
HETATM   21  C   UNL     1      -8.392  10.916  68.381  1.00  0.00    -0.136 A  
HETATM   22 BR   UNL     1      -5.328  12.115  70.939  1.00  0.00    -0.118 Br 
HETATM   23  C   UNL     1      -6.479  11.929  69.455  1.00  0.00    -0.119 A  
ENDBRANCH  12  17
BRANCH  13  24
HETATM   24  O   UNL     1      -8.520   9.657  65.328  1.00  0.00    -0.132 OA 
BRANCH  24  25
HETATM   25  C   UNL     1      -9.051   8.351  65.097  1.00  0.00     0.148 C  
BRANCH  25  26
HETATM   26  C   UNL     1      -9.025   7.615  66.437  1.00  0.00    -0.167 C  
BRANCH  26  27
HETATM   27  O   UNL     1      -9.785   6.413  66.350  1.00  0.00    -0.159 OA 
BRANCH  27  28
HETATM   28  C   UNL     1      -9.673   5.625  67.478  1.00  0.00    -0.124 A  
HETATM   29  N   UNL     1      -8.828   4.578  67.489  1.00  0.00    -0.105 NA 
HETATM   30  C   UNL     1      -8.783   3.864  68.636  1.00  0.00    -0.100 A  
HETATM   31  C   UNL     1      -9.541   4.159  69.746  1.00  0.00    -0.211 A  
HETATM   32  C   UNL     1     -10.373   5.245  69.620  1.00  0.00    -0.278 A  
HETATM   33 BR   UNL     1      -9.445   3.147  71.323  1.00  0.00    -0.225 Br 
HETATM   34  N   UNL     1     -10.461   5.995  68.499  1.00  0.00    -0.207 NA 
ENDBRANCH  27  28
ENDBRANCH  26  27
ENDBRANCH  25  26
ENDBRANCH  24  25
ENDBRANCH  13  24
ENDBRANCH   9  11
ENDBRANCH   6   9
ENDBRANCH   4   6
ENDBRANCH   3   4
ENDBRANCH   2   3
TORSDOF 11
ENDMDL
MODEL      206
REMARK 921   NORMALIZED FREE ENERGY PREDICTED BY IDOCK:   -3.51 KCAL/MOL
REMARK 922        TOTAL FREE ENERGY PREDICTED BY IDOCK:   -7.19 KCAL/MOL
REMARK 923 INTER-LIGAND FREE ENERGY PREDICTED BY IDOCK:   -6.32 KCAL/MOL
REMARK 924 INTRA-LIGAND FREE ENERGY PREDICTED BY IDOCK:   -0.87 KCAL/MOL
REMARK 927      BINDING AFFINITY PREDICTED BY RF-SCORE:    0.00 PKD
ROOT
HETATM    1  C   UNL     1      -9.749  19.653  68.709  1.00  0.00    -0.488 C  
HETATM    2  C   UNL     1     -10.016  19.088  67.323  1.00  0.00    -0.410 C  
ENDROOT
BRANCH   2   3
HETATM    3  C   UNL     1     -10.572  17.670  67.377  1.00  0.00    -0.318 C  
BRANCH   3   4
HETATM    4  N   UNL     1     -10.401  17.116  68.750  1.00  0.00    -0.335 N  
HETATM    5  H   UNL     1     -10.452  17.677  69.600  1.00  0.00     0.000 HD 
BRANCH   4   6
HETATM    6  S   UNL     1     -10.116  15.464  68.731  1.00  0.00    -0.222 S  
HETATM    7  O   UNL     1      -9.295  15.215  69.898  1.00  0.00    -0.117 OA 
HETATM    8  O   UNL     1     -11.365  14.781  68.527  1.00  0.00    -0.264 OA 
BRANCH   6   9
HETATM    9  N   UNL     1      -9.114  15.297  67.399  1.00  0.00    -0.188 N  
HETATM   10  H   UNL     1      -8.281  15.872  67.276  1.00  0.00     0.000 HD 
BRANCH   9  11
HETATM   11  C   UNL     1      -9.490  14.313  66.454  1.00  0.00    -0.275 A  
HETATM   12  C   UNL     1      -9.114  12.966  66.530  1.00  0.00    -0.138 A  
HETATM   13  C   UNL     1      -9.749  12.216  65.529  1.00  0.00    -0.181 A  
HETATM   14  N   UNL     1     -10.243  14.877  65.489  1.00  0.00    -0.347 NA 
HETATM   15  N   UNL     1     -10.546  12.718  64.560  1.00  0.00    -0.338 NA 
HETATM   16  C   UNL     1     -10.738  14.036  64.583  1.00  0.00    -0.399 A  
BRANCH  12  17
HETATM   17  C   UNL     1      -8.131  12.367  67.504  1.00  0.00    -0.173 A  
HETATM   18  C   UNL     1      -6.752  12.638  67.484  1.00  0.00    -0.156 A  
HETATM   19  C   UNL     1      -5.856  12.153  68.446  1.00  0.00    -0.053 A  
HETATM   20  C   UNL     1      -7.662  11.016  69.522  1.00  0.00     0.039 A  
HETATM   21  C   UNL     1      -8.541  11.489  68.532  1.00  0.00    -0.140 A  
HETATM   22 BR   UNL     1      -5.138  10.794  70.835  1.00  0.00    -0.099 Br 
HETATM   23  C   UNL     1      -6.323  11.367  69.482  1.00  0.00    -0.113 A  
ENDBRANCH  12  17
BRANCH  13  24
HETATM   24  O   UNL     1      -9.557  10.849  65.534  1.00  0.00    -0.198 OA 
BRANCH  24  25
HETATM   25  C   UNL     1     -10.658  10.027  65.925  1.00  0.00     0.071 C  
BRANCH  25  26
HETATM   26  C   UNL     1     -10.236   9.289  67.195  1.00  0.00    -0.257 C  
BRANCH  26  27
HETATM   27  O   UNL     1     -10.959   8.067  67.314  1.00  0.00    -0.175 OA 
BRANCH  27  28
HETATM   28  C   UNL     1     -10.137   6.959  67.348  1.00  0.00    -0.183 A  
HETATM   29  N   UNL     1     -10.610   5.755  66.975  1.00  0.00    -0.275 NA 
HETATM   30  C   UNL     1      -9.734   4.728  67.039  1.00  0.00    -0.186 A  
HETATM   31  C   UNL     1      -8.431   4.864  67.456  1.00  0.00    -0.104 A  
HETATM   32  C   UNL     1      -8.057   6.137  67.818  1.00  0.00    -0.113 A  
HETATM   33 BR   UNL     1      -7.243   3.413  67.524  1.00  0.00    -0.059 Br 
HETATM   34  N   UNL     1      -8.888   7.201  67.776  1.00  0.00    -0.124 NA 
ENDBRANCH  27  28
ENDBRANCH  26  27
ENDBRANCH  25  26
ENDBRANCH  24  25
ENDBRANCH  13  24
ENDBRANCH   9  11
ENDBRANCH   6   9
ENDBRANCH   4   6
ENDBRANCH   3   4
ENDBRANCH   2   3
TORSDOF 11
ENDMDL
MODEL      207
REMARK 921   NORMALIZED FREE ENERGY PREDICTED BY IDOCK:   -3.49 KCAL/MOL
REMARK 922        TOTAL FREE ENERGY PREDICTED BY IDOCK:   -7.16 KCAL/MOL
REMARK 923 INTER-LIGAND FREE ENERGY PREDICTED BY IDOCK:   -7.09 KCAL/MOL
REMARK 924 INTRA-LIGAND FREE ENERGY PREDICTED BY IDOCK:   -0.06 KCAL/MOL
REMARK 927      BINDING AFFINITY PREDICTED BY RF-SCORE:    0.00 PKD
ROOT
HETATM    1  C   UNL     1     -10.268   8.352  69.052  1.00  0.00    -0.217 C  
HETATM    2  C   UNL     1      -8.811   8.203  69.462  1.00  0.00    -0.143 C  
ENDROOT
BRANCH   2   3
HETATM    3  C   UNL     1      -7.865   8.318  68.272  1.00  0.00    -0.118 C  
BRANCH   3   4
HETATM    4  N   UNL     1      -8.188   9.546  67.492  1.00  0.00    -0.120 N  
HETATM    5  H   UNL     1      -8.977   9.622  66.851  1.00  0.00     0.000 HD 
BRANCH   4   6
HETATM    6  S   UNL     1      -7.100  10.786  67.792  1.00  0.00    -0.088 S  
HETATM    7  O   UNL     1      -6.080  10.192  68.630  1.00  0.00    -0.044 OA 
HETATM    8  O   UNL     1      -6.775  11.428  66.547  1.00  0.00    -0.131 OA 
BRANCH   6   9
HETATM    9  N   UNL     1      -7.993  11.804  68.778  1.00  0.00    -0.292 N  
HETATM   10  H   UNL     1      -8.627  11.443  69.492  1.00  0.00     0.000 HD 
BRANCH   9  11
HETATM   11  C   UNL     1      -7.820  13.192  68.565  1.00  0.00    -0.105 A  
HETATM   12  C   UNL     1      -8.616  13.960  67.705  1.00  0.00    -0.190 A  
HETATM   13  C   UNL     1      -8.289  15.320  67.808  1.00  0.00    -0.153 A  
HETATM   14  N   UNL     1      -6.785  13.638  69.303  1.00  0.00    -0.111 NA 
HETATM   15  N   UNL     1      -7.290  15.831  68.562  1.00  0.00    -0.120 NA 
HETATM   16  C   UNL     1      -6.574  14.952  69.261  1.00  0.00    -0.131 A  
BRANCH  12  17
HETATM   17  C   UNL     1      -9.656  13.438  66.746  1.00  0.00    -0.262 A  
HETATM   18  C   UNL     1     -10.782  12.698  67.147  1.00  0.00    -0.264 A  
HETATM   19  C   UNL     1     -11.794  12.293  66.266  1.00  0.00    -0.387 A  
HETATM   20  C   UNL     1     -10.593  13.303  64.461  1.00  0.00    -0.437 A  
HETATM   21  C   UNL     1      -9.575  13.676  65.356  1.00  0.00     0.073 A  
HETATM   22 BR   UNL     1     -13.116  12.172  63.754  1.00  0.00     0.052 Br 
HETATM   23  C   UNL     1     -11.709  12.627  64.926  1.00  0.00    -0.353 A  
ENDBRANCH  12  17
BRANCH  13  24
HETATM   24  O   UNL     1      -9.055  16.219  67.094  1.00  0.00    -0.196 OA 
BRANCH  24  25
HETATM   25  C   UNL     1     -10.464  16.218  67.324  1.00  0.00    -0.300 C  
BRANCH  25  26
HETATM   26  C   UNL     1     -10.766  17.392  68.256  1.00  0.00    -0.327 C  
BRANCH  26  27
HETATM   27  O   UNL     1     -10.305  17.103  69.572  1.00  0.00    -0.250 OA 
BRANCH  27  28
HETATM   28  C   UNL     1     -11.096  16.180  70.227  1.00  0.00    -0.369 A  
HETATM   29  N   UNL     1     -11.441  15.032  69.617  1.00  0.00    -0.276 NA 
HETATM   30  C   UNL     1     -12.215  14.188  70.334  1.00  0.00    -0.356 A  
HETATM   31  C   UNL     1     -12.646  14.452  71.613  1.00  0.00    -0.353 A  
HETATM   32  C   UNL     1     -12.238  15.657  72.136  1.00  0.00    -0.439 A  
HETATM   33 BR   UNL     1     -13.715  13.251  72.580  1.00  0.00    -0.458 Br 
HETATM   34  N   UNL     1     -11.465  16.539  71.466  1.00  0.00    -0.232 NA 
ENDBRANCH  27  28
ENDBRANCH  26  27
ENDBRANCH  25  26
ENDBRANCH  24  25
ENDBRANCH  13  24
ENDBRANCH   9  11
ENDBRANCH   6   9
ENDBRANCH   4   6
ENDBRANCH   3   4
ENDBRANCH   2   3
TORSDOF 11
ENDMDL
MODEL      208
REMARK 921   NORMALIZED FREE ENERGY PREDICTED BY IDOCK:   -3.48 KCAL/MOL
REMARK 922        TOTAL FREE ENERGY PREDICTED BY IDOCK:   -7.14 KCAL/MOL
REMARK 923 INTER-LIGAND FREE ENERGY PREDICTED BY IDOCK:   -5.39 KCAL/MOL
REMARK 924 INTRA-LIGAND FREE ENERGY PREDICTED BY IDOCK:   -1.75 KCAL/MOL
REMARK 927      BINDING AFFINITY PREDICTED BY RF-SCORE:    0.00 PKD
ROOT
HETATM    1  C   UNL     1     -10.846   4.191  64.756  1.00  0.00    -0.118 C  
HETATM    2  C   UNL     1      -9.617   3.607  65.434  1.00  0.00    -0.156 C  
ENDROOT
BRANCH   2   3
HETATM    3  C   UNL     1      -8.324   4.202  64.891  1.00  0.00    -0.106 C  
BRANCH   3   4
HETATM    4  N   UNL     1      -7.399   4.505  66.020  1.00  0.00    -0.076 N  
HETATM    5  H   UNL     1      -6.930   3.793  66.580  1.00  0.00     0.000 HD 
BRANCH   4   6
HETATM    6  S   UNL     1      -7.221   6.156  66.261  1.00  0.00    -0.073 S  
HETATM    7  O   UNL     1      -5.924   6.475  65.704  1.00  0.00    -0.031 OA 
HETATM    8  O   UNL     1      -8.417   6.820  65.819  1.00  0.00    -0.141 OA 
BRANCH   6   9
HETATM    9  N   UNL     1      -7.062   6.250  67.926  1.00  0.00    -0.082 N  
HETATM   10  H   UNL     1      -6.154   6.176  68.385  1.00  0.00     0.000 HD 
BRANCH   9  11
HETATM   11  C   UNL     1      -8.257   6.440  68.659  1.00  0.00    -0.121 A  
HETATM   12  C   UNL     1      -8.642   7.658  69.233  1.00  0.00    -0.136 A  
HETATM   13  C   UNL     1      -9.932   7.566  69.775  1.00  0.00    -0.186 A  
HETATM   14  N   UNL     1      -8.942   5.280  68.716  1.00  0.00    -0.108 NA 
HETATM   15  N   UNL     1     -10.683   6.442  69.825  1.00  0.00    -0.253 NA 
HETATM   16  C   UNL     1     -10.134   5.346  69.303  1.00  0.00    -0.231 A  
BRANCH  12  17
HETATM   17  C   UNL     1      -7.802   8.907  69.325  1.00  0.00    -0.096 A  
HETATM   18  C   UNL     1      -7.653   9.823  68.270  1.00  0.00    -0.081 A  
HETATM   19  C   UNL     1      -6.947  11.028  68.388  1.00  0.00    -0.071 A  
HETATM   20  C   UNL     1      -6.420  10.470  70.653  1.00  0.00    -0.002 A  
HETATM   21  C   UNL     1      -7.109   9.254  70.506  1.00  0.00    -0.100 A  
HETATM   22 BR   UNL     1      -5.492  13.027  69.789  1.00  0.00    -0.102 Br 
HETATM   23  C   UNL     1      -6.358  11.361  69.594  1.00  0.00    -0.127 A  
ENDBRANCH  12  17
BRANCH  13  24
HETATM   24  O   UNL     1     -10.494   8.716  70.292  1.00  0.00    -0.200 OA 
BRANCH  24  25
HETATM   25  C   UNL     1     -11.234   9.550  69.400  1.00  0.00    -0.035 C  
BRANCH  25  26
HETATM   26  C   UNL     1     -10.969  10.997  69.817  1.00  0.00    -0.193 C  
BRANCH  26  27
HETATM   27  O   UNL     1     -12.044  11.832  69.396  1.00  0.00    -0.292 OA 
BRANCH  27  28
HETATM   28  C   UNL     1     -11.636  12.846  68.553  1.00  0.00    -0.323 A  
HETATM   29  N   UNL     1     -11.936  12.797  67.242  1.00  0.00    -0.416 NA 
HETATM   30  C   UNL     1     -11.499  13.834  66.493  1.00  0.00    -0.348 A  
HETATM   31  C   UNL     1     -10.787  14.894  67.005  1.00  0.00    -0.315 A  
HETATM   32  C   UNL     1     -10.533  14.838  68.355  1.00  0.00    -0.243 A  
HETATM   33 BR   UNL     1     -10.203  16.319  65.933  1.00  0.00    -0.388 Br 
HETATM   34  N   UNL     1     -10.944  13.828  69.152  1.00  0.00    -0.237 NA 
ENDBRANCH  27  28
ENDBRANCH  26  27
ENDBRANCH  25  26
ENDBRANCH  24  25
ENDBRANCH  13  24
ENDBRANCH   9  11
ENDBRANCH   6   9
ENDBRANCH   4   6
ENDBRANCH   3   4
ENDBRANCH   2   3
TORSDOF 11
ENDMDL
MODEL      209
REMARK 921   NORMALIZED FREE ENERGY PREDICTED BY IDOCK:   -3.45 KCAL/MOL
REMARK 922        TOTAL FREE ENERGY PREDICTED BY IDOCK:   -7.08 KCAL/MOL
REMARK 923 INTER-LIGAND FREE ENERGY PREDICTED BY IDOCK:   -5.86 KCAL/MOL
REMARK 924 INTRA-LIGAND FREE ENERGY PREDICTED BY IDOCK:   -1.21 KCAL/MOL
REMARK 927      BINDING AFFINITY PREDICTED BY RF-SCORE:    0.00 PKD
ROOT
HETATM    1  C   UNL     1     -12.281  15.211  64.122  1.00  0.00    -0.182 C  
HETATM    2  C   UNL     1     -11.923  13.756  63.864  1.00  0.00    -0.414 C  
ENDROOT
BRANCH   2   3
HETATM    3  C   UNL     1     -12.563  12.817  64.881  1.00  0.00    -0.470 C  
BRANCH   3   4
HETATM    4  N   UNL     1     -11.509  11.987  65.530  1.00  0.00    -0.338 N  
HETATM    5  H   UNL     1     -11.194  11.086  65.173  1.00  0.00     0.000 HD 
BRANCH   4   6
HETATM    6  S   UNL     1     -10.902  12.712  66.915  1.00  0.00    -0.260 S  
HETATM    7  O   UNL     1     -11.662  13.936  67.058  1.00  0.00    -0.353 OA 
HETATM    8  O   UNL     1     -10.848  11.730  67.965  1.00  0.00    -0.195 OA 
BRANCH   6   9
HETATM    9  N   UNL     1      -9.363  13.159  66.431  1.00  0.00    -0.400 N  
HETATM   10  H   UNL     1      -9.188  13.588  65.521  1.00  0.00     0.000 HD 
BRANCH   9  11
HETATM   11  C   UNL     1      -8.319  12.910  67.353  1.00  0.00    -0.190 A  
HETATM   12  C   UNL     1      -7.430  11.831  67.261  1.00  0.00    -0.151 A  
HETATM   13  C   UNL     1      -6.429  11.928  68.237  1.00  0.00    -0.052 A  
HETATM   14  N   UNL     1      -8.328  13.855  68.313  1.00  0.00    -0.158 NA 
HETATM   15  N   UNL     1      -6.362  12.874  69.200  1.00  0.00    -0.100 NA 
HETATM   16  C   UNL     1      -7.334  13.785  69.196  1.00  0.00     0.019 A  
BRANCH  12  17
HETATM   17  C   UNL     1      -7.524  10.676  66.295  1.00  0.00    -0.137 A  
HETATM   18  C   UNL     1      -8.483   9.654  66.396  1.00  0.00    -0.128 A  
HETATM   19  C   UNL     1      -8.626   8.634  65.445  1.00  0.00    -0.206 A  
HETATM   20  C   UNL     1      -6.795   9.555  64.215  1.00  0.00    -0.101 A  
HETATM   21  C   UNL     1      -6.649  10.554  65.193  1.00  0.00    -0.037 A  
HETATM   22 BR   UNL     1      -8.051   7.296  63.005  1.00  0.00     0.026 Br 
HETATM   23  C   UNL     1      -7.798   8.607  64.338  1.00  0.00    -0.138 A  
ENDBRANCH  12  17
BRANCH  13  24
HETATM   24  O   UNL     1      -5.417  10.989  68.214  1.00  0.00    -0.040 OA 
BRANCH  24  25
HETATM   25  C   UNL     1      -5.721   9.676  68.685  1.00  0.00    -0.039 C  
BRANCH  25  26
HETATM   26  C   UNL     1      -5.535   9.690  70.202  1.00  0.00    -0.040 C  
BRANCH  26  27
HETATM   27  O   UNL     1      -6.743  10.095  70.840  1.00  0.00    -0.328 OA 
BRANCH  27  28
HETATM   28  C   UNL     1      -7.795   9.238  70.589  1.00  0.00    -0.158 A  
HETATM   29  N   UNL     1      -8.883   9.678  69.930  1.00  0.00    -0.205 NA 
HETATM   30  C   UNL     1      -9.862   8.769  69.727  1.00  0.00    -0.186 A  
HETATM   31  C   UNL     1      -9.789   7.464  70.154  1.00  0.00    -0.180 A  
HETATM   32  C   UNL     1      -8.635   7.125  70.820  1.00  0.00    -0.146 A  
HETATM   33 BR   UNL     1     -11.168   6.229  69.846  1.00  0.00    -0.498 Br 
HETATM   34  N   UNL     1      -7.624   7.990  71.053  1.00  0.00    -0.080 NA 
ENDBRANCH  27  28
ENDBRANCH  26  27
ENDBRANCH  25  26
ENDBRANCH  24  25
ENDBRANCH  13  24
ENDBRANCH   9  11
ENDBRANCH   6   9
ENDBRANCH   4   6
ENDBRANCH   3   4
ENDBRANCH   2   3
TORSDOF 11
ENDMDL
MODEL      210
REMARK 921   NORMALIZED FREE ENERGY PREDICTED BY IDOCK:   -3.44 KCAL/MOL
REMARK 922        TOTAL FREE ENERGY PREDICTED BY IDOCK:   -7.06 KCAL/MOL
REMARK 923 INTER-LIGAND FREE ENERGY PREDICTED BY IDOCK:   -5.65 KCAL/MOL
REMARK 924 INTRA-LIGAND FREE ENERGY PREDICTED BY IDOCK:   -1.42 KCAL/MOL
REMARK 927      BINDING AFFINITY PREDICTED BY RF-SCORE:    0.00 PKD
ROOT
HETATM    1  C   UNL     1      -5.362   6.161  64.176  1.00  0.00    -0.018 C  
HETATM    2  C   UNL     1      -6.423   5.074  64.226  1.00  0.00    -0.038 C  
ENDROOT
BRANCH   2   3
HETATM    3  C   UNL     1      -7.276   5.160  65.487  1.00  0.00    -0.068 C  
BRANCH   3   4
HETATM    4  N   UNL     1      -8.192   3.986  65.554  1.00  0.00    -0.104 N  
HETATM    5  H   UNL     1      -8.836   3.723  64.808  1.00  0.00     0.000 HD 
BRANCH   4   6
HETATM    6  S   UNL     1      -8.039   3.151  67.000  1.00  0.00    -0.080 S  
HETATM    7  O   UNL     1      -8.008   1.754  66.621  1.00  0.00    -0.069 OA 
HETATM    8  O   UNL     1      -6.981   3.748  67.770  1.00  0.00    -0.053 OA 
BRANCH   6   9
HETATM    9  N   UNL     1      -9.529   3.417  67.717  1.00  0.00    -0.200 N  
HETATM   10  H   UNL     1     -10.095   2.651  68.083  1.00  0.00     0.000 HD 
BRANCH   9  11
HETATM   11  C   UNL     1      -9.957   4.764  67.787  1.00  0.00    -0.112 A  
HETATM   12  C   UNL     1      -9.843   5.566  68.930  1.00  0.00    -0.213 A  
HETATM   13  C   UNL     1     -10.228   6.886  68.651  1.00  0.00    -0.173 A  
HETATM   14  N   UNL     1     -10.486   5.133  66.604  1.00  0.00    -0.279 NA 
HETATM   15  N   UNL     1     -10.727   7.324  67.473  1.00  0.00    -0.262 NA 
HETATM   16  C   UNL     1     -10.846   6.411  66.510  1.00  0.00    -0.031 A  
BRANCH  12  17
HETATM   17  C   UNL     1      -9.418   5.109  70.303  1.00  0.00    -0.233 A  
HETATM   18  C   UNL     1     -10.320   4.726  71.309  1.00  0.00    -0.184 A  
HETATM   19  C   UNL     1      -9.919   4.214  72.551  1.00  0.00    -0.222 A  
HETATM   20  C   UNL     1      -7.635   4.483  71.899  1.00  0.00    -0.083 A  
HETATM   21  C   UNL     1      -8.057   5.020  70.669  1.00  0.00    -0.094 A  
HETATM   22 BR   UNL     1      -8.030   3.285  74.459  1.00  0.00    -0.065 Br 
HETATM   23  C   UNL     1      -8.573   4.066  72.829  1.00  0.00    -0.100 A  
ENDBRANCH  12  17
BRANCH  13  24
HETATM   24  O   UNL     1     -10.078   7.823  69.653  1.00  0.00    -0.187 OA 
BRANCH  24  25
HETATM   25  C   UNL     1      -8.991   8.743  69.541  1.00  0.00    -0.145 C  
BRANCH  25  26
HETATM   26  C   UNL     1      -9.563  10.141  69.777  1.00  0.00    -0.177 C  
BRANCH  26  27
HETATM   27  O   UNL     1     -10.818  10.274  69.117  1.00  0.00    -0.209 OA 
BRANCH  27  28
HETATM   28  C   UNL     1     -10.821  11.273  68.164  1.00  0.00    -0.217 A  
HETATM   29  N   UNL     1     -11.904  12.056  68.010  1.00  0.00    -0.498 NA 
HETATM   30  C   UNL     1     -11.816  13.009  67.056  1.00  0.00    -0.377 A  
HETATM   31  C   UNL     1     -10.704  13.198  66.269  1.00  0.00    -0.284 A  
HETATM   32  C   UNL     1      -9.659  12.337  66.510  1.00  0.00    -0.238 A  
HETATM   33 BR   UNL     1     -10.618  14.538  64.958  1.00  0.00    -0.458 Br 
HETATM   34  N   UNL     1      -9.690  11.367  67.448  1.00  0.00    -0.180 NA 
ENDBRANCH  27  28
ENDBRANCH  26  27
ENDBRANCH  25  26
ENDBRANCH  24  25
ENDBRANCH  13  24
ENDBRANCH   9  11
ENDBRANCH   6   9
ENDBRANCH   4   6
ENDBRANCH   3   4
ENDBRANCH   2   3
TORSDOF 11
ENDMDL
MODEL      211
REMARK 921   NORMALIZED FREE ENERGY PREDICTED BY IDOCK:   -3.42 KCAL/MOL
REMARK 922        TOTAL FREE ENERGY PREDICTED BY IDOCK:   -7.04 KCAL/MOL
REMARK 923 INTER-LIGAND FREE ENERGY PREDICTED BY IDOCK:   -6.12 KCAL/MOL
REMARK 924 INTRA-LIGAND FREE ENERGY PREDICTED BY IDOCK:   -0.92 KCAL/MOL
REMARK 927      BINDING AFFINITY PREDICTED BY RF-SCORE:    0.00 PKD
ROOT
HETATM    1  C   UNL     1      -9.411   3.799  69.924  1.00  0.00    -0.248 C  
HETATM    2  C   UNL     1     -10.383   4.780  70.560  1.00  0.00    -0.187 C  
ENDROOT
BRANCH   2   3
HETATM    3  C   UNL     1     -10.607   6.012  69.691  1.00  0.00    -0.300 C  
BRANCH   3   4
HETATM    4  N   UNL     1      -9.578   6.059  68.614  1.00  0.00    -0.123 N  
HETATM    5  H   UNL     1      -8.606   5.781  68.742  1.00  0.00     0.000 HD 
BRANCH   4   6
HETATM    6  S   UNL     1     -10.209   6.626  67.166  1.00  0.00    -0.244 S  
HETATM    7  O   UNL     1     -10.601   5.436  66.441  1.00  0.00    -0.280 OA 
HETATM    8  O   UNL     1     -11.145   7.680  67.451  1.00  0.00    -0.124 OA 
BRANCH   6   9
HETATM    9  N   UNL     1      -8.845   7.224  66.401  1.00  0.00    -0.144 N  
HETATM   10  H   UNL     1      -8.111   6.608  66.049  1.00  0.00     0.000 HD 
BRANCH   9  11
HETATM   11  C   UNL     1      -8.766   8.630  66.270  1.00  0.00    -0.143 A  
HETATM   12  C   UNL     1      -8.248   9.484  67.252  1.00  0.00    -0.114 A  
HETATM   13  C   UNL     1      -8.179  10.802  66.779  1.00  0.00    -0.135 A  
HETATM   14  N   UNL     1      -9.268   9.002  65.076  1.00  0.00    -0.129 NA 
HETATM   15  N   UNL     1      -8.628  11.228  65.577  1.00  0.00    -0.053 NA 
HETATM   16  C   UNL     1      -9.169  10.299  64.790  1.00  0.00    -0.241 A  
BRANCH  12  17
HETATM   17  C   UNL     1      -7.851   9.094  68.654  1.00  0.00    -0.097 A  
HETATM   18  C   UNL     1      -8.710   9.190  69.761  1.00  0.00    -0.155 A  
HETATM   19  C   UNL     1      -8.370   8.741  71.045  1.00  0.00    -0.208 A  
HETATM   20  C   UNL     1      -6.218   8.099  70.223  1.00  0.00    -0.032 A  
HETATM   21  C   UNL     1      -6.568   8.580  68.949  1.00  0.00    -0.053 A  
HETATM   22 BR   UNL     1      -6.704   7.470  72.964  1.00  0.00    -0.073 Br 
HETATM   23  C   UNL     1      -7.131   8.167  71.263  1.00  0.00    -0.061 A  
ENDBRANCH  12  17
BRANCH  13  24
HETATM   24  O   UNL     1      -7.596  11.747  67.598  1.00  0.00    -0.116 OA 
BRANCH  24  25
HETATM   25  C   UNL     1      -8.426  12.800  68.090  1.00  0.00    -0.177 C  
BRANCH  25  26
HETATM   26  C   UNL     1      -9.861  12.273  68.096  1.00  0.00    -0.212 C  
BRANCH  26  27
HETATM   27  O   UNL     1     -10.673  13.072  68.952  1.00  0.00    -0.232 OA 
BRANCH  27  28
HETATM   28  C   UNL     1     -10.621  14.416  68.638  1.00  0.00    -0.252 A  
HETATM   29  N   UNL     1     -10.325  15.321  69.589  1.00  0.00    -0.259 NA 
HETATM   30  C   UNL     1     -10.296  16.612  69.191  1.00  0.00    -0.326 A  
HETATM   31  C   UNL     1     -10.548  17.016  67.901  1.00  0.00    -0.365 A  
HETATM   32  C   UNL     1     -10.845  16.008  67.014  1.00  0.00    -0.227 A  
HETATM   33 BR   UNL     1     -10.490  18.820  67.385  1.00  0.00    -0.515 Br 
HETATM   34  N   UNL     1     -10.890  14.702  67.355  1.00  0.00    -0.291 NA 
ENDBRANCH  27  28
ENDBRANCH  26  27
ENDBRANCH  25  26
ENDBRANCH  24  25
ENDBRANCH  13  24
ENDBRANCH   9  11
ENDBRANCH   6   9
ENDBRANCH   4   6
ENDBRANCH   3   4
ENDBRANCH   2   3
TORSDOF 11
ENDMDL
MODEL      212
REMARK 921   NORMALIZED FREE ENERGY PREDICTED BY IDOCK:   -3.40 KCAL/MOL
REMARK 922        TOTAL FREE ENERGY PREDICTED BY IDOCK:   -7.00 KCAL/MOL
REMARK 923 INTER-LIGAND FREE ENERGY PREDICTED BY IDOCK:   -5.97 KCAL/MOL
REMARK 924 INTRA-LIGAND FREE ENERGY PREDICTED BY IDOCK:   -1.04 KCAL/MOL
REMARK 927      BINDING AFFINITY PREDICTED BY RF-SCORE:    0.00 PKD
ROOT
HETATM    1  C   UNL     1      -5.899   3.586  67.477  1.00  0.00    -0.023 C  
HETATM    2  C   UNL     1      -6.277   5.022  67.151  1.00  0.00    -0.035 C  
ENDROOT
BRANCH   2   3
HETATM    3  C   UNL     1      -7.544   5.461  67.875  1.00  0.00    -0.088 C  
BRANCH   3   4
HETATM    4  N   UNL     1      -8.456   6.148  66.916  1.00  0.00    -0.106 N  
HETATM    5  H   UNL     1      -8.147   6.836  66.229  1.00  0.00     0.000 HD 
BRANCH   4   6
HETATM    6  S   UNL     1     -10.049   5.657  67.101  1.00  0.00    -0.207 S  
HETATM    7  O   UNL     1     -10.477   5.274  65.773  1.00  0.00    -0.079 OA 
HETATM    8  O   UNL     1     -10.126   4.747  68.212  1.00  0.00    -0.123 OA 
BRANCH   6   9
HETATM    9  N   UNL     1     -10.821   7.101  67.453  1.00  0.00    -0.473 N  
HETATM   10  H   UNL     1     -11.760   7.127  67.854  1.00  0.00     0.000 HD 
BRANCH   9  11
HETATM   11  C   UNL     1     -10.100   8.283  67.164  1.00  0.00    -0.264 A  
HETATM   12  C   UNL     1      -9.327   8.982  68.100  1.00  0.00    -0.151 A  
HETATM   13  C   UNL     1      -8.628  10.030  67.485  1.00  0.00    -0.122 A  
HETATM   14  N   UNL     1     -10.282   8.620  65.872  1.00  0.00     0.222 NA 
HETATM   15  N   UNL     1      -8.738  10.389  66.186  1.00  0.00    -0.148 NA 
HETATM   16  C   UNL     1      -9.580   9.669  65.448  1.00  0.00    -0.291 A  
BRANCH  12  17
HETATM   17  C   UNL     1      -9.261   8.712  69.583  1.00  0.00    -0.157 A  
HETATM   18  C   UNL     1     -10.217   9.177  70.501  1.00  0.00    -0.288 A  
HETATM   19  C   UNL     1     -10.204   8.848  71.863  1.00  0.00    -0.403 A  
HETATM   20  C   UNL     1      -8.207   7.580  71.513  1.00  0.00    -0.105 A  
HETATM   21  C   UNL     1      -8.223   7.944  70.155  1.00  0.00    -0.125 A  
HETATM   22 BR   UNL     1      -9.245   7.493  74.170  1.00  0.00    -0.110 Br 
HETATM   23  C   UNL     1      -9.212   8.021  72.358  1.00  0.00    -0.202 A  
ENDBRANCH  12  17
BRANCH  13  24
HETATM   24  O   UNL     1      -7.743  10.752  68.259  1.00  0.00    -0.100 OA 
BRANCH  24  25
HETATM   25  C   UNL     1      -8.246  11.899  68.946  1.00  0.00     0.093 C  
BRANCH  25  26
HETATM   26  C   UNL     1      -8.524  12.967  67.888  1.00  0.00    -0.185 C  
BRANCH  26  27
HETATM   27  O   UNL     1      -9.835  13.497  68.059  1.00  0.00    -0.223 OA 
BRANCH  27  28
HETATM   28  C   UNL     1      -9.932  14.822  67.685  1.00  0.00    -0.226 A  
HETATM   29  N   UNL     1     -10.537  15.710  68.495  1.00  0.00    -0.248 NA 
HETATM   30  C   UNL     1     -10.584  16.985  68.048  1.00  0.00    -0.373 A  
HETATM   31  C   UNL     1     -10.056  17.388  66.843  1.00  0.00    -0.314 A  
HETATM   32  C   UNL     1      -9.467  16.396  66.096  1.00  0.00    -0.329 A  
HETATM   33 BR   UNL     1     -10.135  19.170  66.261  1.00  0.00    -0.522 Br 
HETATM   34  N   UNL     1      -9.391  15.107  66.490  1.00  0.00    -0.261 NA 
ENDBRANCH  27  28
ENDBRANCH  26  27
ENDBRANCH  25  26
ENDBRANCH  24  25
ENDBRANCH  13  24
ENDBRANCH   9  11
ENDBRANCH   6   9
ENDBRANCH   4   6
ENDBRANCH   3   4
ENDBRANCH   2   3
TORSDOF 11
ENDMDL
MODEL      213
REMARK 921   NORMALIZED FREE ENERGY PREDICTED BY IDOCK:   -3.37 KCAL/MOL
REMARK 922        TOTAL FREE ENERGY PREDICTED BY IDOCK:   -6.95 KCAL/MOL
REMARK 923 INTER-LIGAND FREE ENERGY PREDICTED BY IDOCK:   -5.78 KCAL/MOL
REMARK 924 INTRA-LIGAND FREE ENERGY PREDICTED BY IDOCK:   -1.17 KCAL/MOL
REMARK 927      BINDING AFFINITY PREDICTED BY RF-SCORE:    0.00 PKD
ROOT
HETATM    1  C   UNL     1      -5.466   1.469  68.856  1.00  0.00    -0.013 C  
HETATM    2  C   UNL     1      -5.359   2.936  68.472  1.00  0.00    -0.013 C  
ENDROOT
BRANCH   2   3
HETATM    3  C   UNL     1      -6.724   3.608  68.382  1.00  0.00    -0.046 C  
BRANCH   3   4
HETATM    4  N   UNL     1      -7.312   3.371  67.033  1.00  0.00    -0.066 N  
HETATM    5  H   UNL     1      -6.891   3.694  66.163  1.00  0.00     0.000 HD 
BRANCH   4   6
HETATM    6  S   UNL     1      -8.748   2.509  67.116  1.00  0.00    -0.133 S  
HETATM    7  O   UNL     1      -8.712   1.616  65.977  1.00  0.00    -0.107 OA 
HETATM    8  O   UNL     1      -8.916   2.017  68.457  1.00  0.00    -0.091 OA 
BRANCH   6   9
HETATM    9  N   UNL     1      -9.884   3.688  66.762  1.00  0.00    -0.383 N  
HETATM   10  H   UNL     1     -10.885   3.525  66.881  1.00  0.00     0.000 HD 
BRANCH   9  11
HETATM   11  C   UNL     1      -9.379   4.922  66.289  1.00  0.00    -0.149 A  
HETATM   12  C   UNL     1      -9.136   6.036  67.104  1.00  0.00    -0.113 A  
HETATM   13  C   UNL     1      -8.513   7.058  66.374  1.00  0.00    -0.130 A  
HETATM   14  N   UNL     1      -9.183   4.850  64.958  1.00  0.00    -0.137 NA 
HETATM   15  N   UNL     1      -8.253   7.028  65.047  1.00  0.00    -0.120 NA 
HETATM   16  C   UNL     1      -8.622   5.922  64.403  1.00  0.00     0.098 A  
BRANCH  12  17
HETATM   17  C   UNL     1      -9.518   6.180  68.556  1.00  0.00    -0.121 A  
HETATM   18  C   UNL     1      -8.587   6.381  69.589  1.00  0.00    -0.134 A  
HETATM   19  C   UNL     1      -8.952   6.607  70.923  1.00  0.00    -0.147 A  
HETATM   20  C   UNL     1     -11.252   6.392  70.306  1.00  0.00    -0.445 A  
HETATM   21  C   UNL     1     -10.865   6.140  68.979  1.00  0.00    -0.416 A  
HETATM   22 BR   UNL     1     -10.789   7.046  73.046  1.00  0.00    -0.353 Br 
HETATM   23  C   UNL     1     -10.289   6.643  71.271  1.00  0.00    -0.205 A  
ENDBRANCH  12  17
BRANCH  13  24
HETATM   24  O   UNL     1      -8.118   8.187  67.062  1.00  0.00    -0.106 OA 
BRANCH  24  25
HETATM   25  C   UNL     1      -8.993   9.316  67.040  1.00  0.00    -0.126 C  
BRANCH  25  26
HETATM   26  C   UNL     1      -8.510  10.235  65.918  1.00  0.00    -0.150 C  
BRANCH  26  27
HETATM   27  O   UNL     1      -9.620  10.891  65.311  1.00  0.00    -0.203 OA 
BRANCH  27  28
HETATM   28  C   UNL     1     -10.031  12.008  66.011  1.00  0.00    -0.234 A  
HETATM   29  N   UNL     1      -9.129  12.767  66.660  1.00  0.00    -0.216 NA 
HETATM   30  C   UNL     1      -9.621  13.842  67.316  1.00  0.00    -0.237 A  
HETATM   31  C   UNL     1     -10.956  14.171  67.342  1.00  0.00    -0.299 A  
HETATM   32  C   UNL     1     -11.787  13.323  66.649  1.00  0.00    -0.395 A  
HETATM   33 BR   UNL     1     -11.599  15.677  68.259  1.00  0.00    -0.258 Br 
HETATM   34  N   UNL     1     -11.353  12.235  65.977  1.00  0.00    -0.334 NA 
ENDBRANCH  27  28
ENDBRANCH  26  27
ENDBRANCH  25  26
ENDBRANCH  24  25
ENDBRANCH  13  24
ENDBRANCH   9  11
ENDBRANCH   6   9
ENDBRANCH   4   6
ENDBRANCH   3   4
ENDBRANCH   2   3
TORSDOF 11
ENDMDL
MODEL      214
REMARK 921   NORMALIZED FREE ENERGY PREDICTED BY IDOCK:   -3.36 KCAL/MOL
REMARK 922        TOTAL FREE ENERGY PREDICTED BY IDOCK:   -6.93 KCAL/MOL
REMARK 923 INTER-LIGAND FREE ENERGY PREDICTED BY IDOCK:   -5.58 KCAL/MOL
REMARK 924 INTRA-LIGAND FREE ENERGY PREDICTED BY IDOCK:   -1.35 KCAL/MOL
REMARK 927      BINDING AFFINITY PREDICTED BY RF-SCORE:    0.00 PKD
ROOT
HETATM    1  C   UNL     1      -9.714   8.991  65.856  1.00  0.00    -0.306 C  
HETATM    2  C   UNL     1      -8.646   8.072  66.428  1.00  0.00    -0.155 C  
ENDROOT
BRANCH   2   3
HETATM    3  C   UNL     1      -8.737   6.661  65.859  1.00  0.00    -0.137 C  
BRANCH   3   4
HETATM    4  N   UNL     1      -8.584   5.667  66.958  1.00  0.00    -0.110 N  
HETATM    5  H   UNL     1      -8.118   5.863  67.844  1.00  0.00     0.000 HD 
BRANCH   4   6
HETATM    6  S   UNL     1      -9.268   4.186  66.568  1.00  0.00    -0.170 S  
HETATM    7  O   UNL     1     -10.603   4.504  66.108  1.00  0.00    -0.254 OA 
HETATM    8  O   UNL     1      -8.342   3.450  65.749  1.00  0.00    -0.100 OA 
BRANCH   6   9
HETATM    9  N   UNL     1      -9.439   3.472  68.073  1.00  0.00    -0.182 N  
HETATM   10  H   UNL     1     -10.204   2.829  68.280  1.00  0.00     0.000 HD 
BRANCH   9  11
HETATM   11  C   UNL     1      -8.462   3.809  69.040  1.00  0.00    -0.073 A  
HETATM   12  C   UNL     1      -8.726   4.555  70.196  1.00  0.00    -0.112 A  
HETATM   13  C   UNL     1      -7.593   4.608  71.021  1.00  0.00    -0.072 A  
HETATM   14  N   UNL     1      -7.267   3.311  68.668  1.00  0.00    -0.049 NA 
HETATM   15  N   UNL     1      -6.380   4.093  70.721  1.00  0.00    -0.022 NA 
HETATM   16  C   UNL     1      -6.277   3.482  69.542  1.00  0.00    -0.028 A  
BRANCH  12  17
HETATM   17  C   UNL     1     -10.016   5.262  70.527  1.00  0.00    -0.299 A  
HETATM   18  C   UNL     1     -10.570   5.306  71.817  1.00  0.00    -0.268 A  
HETATM   19  C   UNL     1     -11.720   6.041  72.139  1.00  0.00    -0.335 A  
HETATM   20  C   UNL     1     -11.896   6.721  69.854  1.00  0.00    -0.208 A  
HETATM   21  C   UNL     1     -10.758   5.956  69.545  1.00  0.00    -0.414 A  
HETATM   22 BR   UNL     1     -13.849   7.844  71.606  1.00  0.00    -0.441 Br 
HETATM   23  C   UNL     1     -12.361   6.773  71.158  1.00  0.00    -0.333 A  
ENDBRANCH  12  17
BRANCH  13  24
HETATM   24  O   UNL     1      -7.723   5.226  72.248  1.00  0.00    -0.097 OA 
BRANCH  24  25
HETATM   25  C   UNL     1      -6.612   5.983  72.730  1.00  0.00    -0.065 C  
BRANCH  25  26
HETATM   26  C   UNL     1      -6.436   7.171  71.783  1.00  0.00    -0.047 C  
BRANCH  26  27
HETATM   27  O   UNL     1      -7.222   8.273  72.230  1.00  0.00    -0.090 OA 
BRANCH  27  28
HETATM   28  C   UNL     1      -7.668   9.069  71.194  1.00  0.00    -0.110 A  
HETATM   29  N   UNL     1      -8.872   8.841  70.637  1.00  0.00    -0.164 NA 
HETATM   30  C   UNL     1      -9.226   9.671  69.631  1.00  0.00    -0.211 A  
HETATM   31  C   UNL     1      -8.432  10.697  69.175  1.00  0.00    -0.128 A  
HETATM   32  C   UNL     1      -7.222  10.833  69.813  1.00  0.00    -0.101 A  
HETATM   33 BR   UNL     1      -8.963  11.832  67.779  1.00  0.00    -0.181 Br 
HETATM   34  N   UNL     1      -6.814  10.035  70.823  1.00  0.00    -0.324 NA 
ENDBRANCH  27  28
ENDBRANCH  26  27
ENDBRANCH  25  26
ENDBRANCH  24  25
ENDBRANCH  13  24
ENDBRANCH   9  11
ENDBRANCH   6   9
ENDBRANCH   4   6
ENDBRANCH   3   4
ENDBRANCH   2   3
TORSDOF 11
ENDMDL
MODEL      215
REMARK 921   NORMALIZED FREE ENERGY PREDICTED BY IDOCK:   -3.34 KCAL/MOL
REMARK 922        TOTAL FREE ENERGY PREDICTED BY IDOCK:   -6.91 KCAL/MOL
REMARK 923 INTER-LIGAND FREE ENERGY PREDICTED BY IDOCK:   -4.75 KCAL/MOL
REMARK 924 INTRA-LIGAND FREE ENERGY PREDICTED BY IDOCK:   -2.16 KCAL/MOL
REMARK 927      BINDING AFFINITY PREDICTED BY RF-SCORE:    0.00 PKD
ROOT
HETATM    1  C   UNL     1      -9.461  11.014  63.126  1.00  0.00    -0.363 C  
HETATM    2  C   UNL     1      -8.254  10.168  63.497  1.00  0.00    -0.165 C  
ENDROOT
BRANCH   2   3
HETATM    3  C   UNL     1      -8.530   9.266  64.694  1.00  0.00    -0.178 C  
BRANCH   3   4
HETATM    4  N   UNL     1      -9.426   9.969  65.656  1.00  0.00    -0.201 N  
HETATM    5  H   UNL     1     -10.352  10.323  65.417  1.00  0.00     0.000 HD 
BRANCH   4   6
HETATM    6  S   UNL     1      -8.731  10.109  67.176  1.00  0.00    -0.128 S  
HETATM    7  O   UNL     1      -7.670   9.126  67.192  1.00  0.00    -0.097 OA 
HETATM    8  O   UNL     1      -8.477  11.500  67.442  1.00  0.00    -0.138 OA 
BRANCH   6   9
HETATM    9  N   UNL     1      -9.944   9.520  68.170  1.00  0.00    -0.159 N  
HETATM   10  H   UNL     1     -10.516  10.138  68.746  1.00  0.00     0.000 HD 
BRANCH   9  11
HETATM   11  C   UNL     1     -10.129   8.117  68.166  1.00  0.00    -0.198 A  
HETATM   12  C   UNL     1      -9.803   7.278  69.240  1.00  0.00    -0.166 A  
HETATM   13  C   UNL     1     -10.226   5.965  68.990  1.00  0.00    -0.203 A  
HETATM   14  N   UNL     1     -10.650   7.732  66.985  1.00  0.00    -0.352 NA 
HETATM   15  N   UNL     1     -10.791   5.528  67.842  1.00  0.00    -0.100 NA 
HETATM   16  C   UNL     1     -10.958   6.441  66.886  1.00  0.00    -0.341 A  
BRANCH  12  17
HETATM   17  C   UNL     1      -9.059   7.676  70.490  1.00  0.00    -0.151 A  
HETATM   18  C   UNL     1      -9.684   8.204  71.633  1.00  0.00    -0.238 A  
HETATM   19  C   UNL     1      -9.002   8.486  72.824  1.00  0.00    -0.205 A  
HETATM   20  C   UNL     1      -6.962   7.777  71.797  1.00  0.00    -0.064 A  
HETATM   21  C   UNL     1      -7.659   7.526  70.602  1.00  0.00    -0.085 A  
HETATM   22 BR   UNL     1      -6.739   8.524  74.543  1.00  0.00    -0.181 Br 
HETATM   23  C   UNL     1      -7.644   8.241  72.911  1.00  0.00    -0.109 A  
ENDBRANCH  12  17
BRANCH  13  24
HETATM   24  O   UNL     1     -10.065   5.036  69.999  1.00  0.00    -0.235 OA 
BRANCH  24  25
HETATM   25  C   UNL     1      -9.478   3.781  69.656  1.00  0.00    -0.188 C  
BRANCH  25  26
HETATM   26  C   UNL     1      -8.083   4.075  69.102  1.00  0.00    -0.062 C  
BRANCH  26  27
HETATM   27  O   UNL     1      -7.984   3.612  67.758  1.00  0.00    -0.080 OA 
BRANCH  27  28
HETATM   28  C   UNL     1      -7.405   4.539  66.913  1.00  0.00    -0.081 A  
HETATM   29  N   UNL     1      -7.766   4.589  65.617  1.00  0.00    -0.092 NA 
HETATM   30  C   UNL     1      -7.149   5.529  64.866  1.00  0.00    -0.061 A  
HETATM   31  C   UNL     1      -6.205   6.398  65.360  1.00  0.00    -0.034 A  
HETATM   32  C   UNL     1      -5.910   6.253  66.695  1.00  0.00    -0.020 A  
HETATM   33 BR   UNL     1      -5.375   7.694  64.286  1.00  0.00    -0.029 Br 
HETATM   34  N   UNL     1      -6.493   5.333  67.494  1.00  0.00    -0.050 NA 
ENDBRANCH  27  28
ENDBRANCH  26  27
ENDBRANCH  25  26
ENDBRANCH  24  25
ENDBRANCH  13  24
ENDBRANCH   9  11
ENDBRANCH   6   9
ENDBRANCH   4   6
ENDBRANCH   3   4
ENDBRANCH   2   3
TORSDOF 11
ENDMDL
MODEL      216
REMARK 921   NORMALIZED FREE ENERGY PREDICTED BY IDOCK:   -3.32 KCAL/MOL
REMARK 922        TOTAL FREE ENERGY PREDICTED BY IDOCK:   -6.88 KCAL/MOL
REMARK 923 INTER-LIGAND FREE ENERGY PREDICTED BY IDOCK:   -5.27 KCAL/MOL
REMARK 924 INTRA-LIGAND FREE ENERGY PREDICTED BY IDOCK:   -1.61 KCAL/MOL
REMARK 927      BINDING AFFINITY PREDICTED BY RF-SCORE:    0.00 PKD
ROOT
HETATM    1  C   UNL     1      -7.992  15.607  68.546  1.00  0.00    -0.138 C  
HETATM    2  C   UNL     1      -9.125  14.787  67.949  1.00  0.00    -0.183 C  
ENDROOT
BRANCH   2   3
HETATM    3  C   UNL     1      -8.951  13.294  68.201  1.00  0.00    -0.195 C  
BRANCH   3   4
HETATM    4  N   UNL     1      -7.976  13.084  69.309  1.00  0.00    -0.119 N  
HETATM    5  H   UNL     1      -8.047  13.529  70.223  1.00  0.00     0.000 HD 
BRANCH   4   6
HETATM    6  S   UNL     1      -6.747  12.029  68.873  1.00  0.00    -0.098 S  
HETATM    7  O   UNL     1      -7.287  11.265  67.769  1.00  0.00    -0.088 OA 
HETATM    8  O   UNL     1      -5.521  12.772  68.750  1.00  0.00    -0.064 OA 
BRANCH   6   9
HETATM    9  N   UNL     1      -6.692  10.994  70.189  1.00  0.00    -0.288 N  
HETATM   10  H   UNL     1      -6.713  11.341  71.148  1.00  0.00     0.000 HD 
BRANCH   9  11
HETATM   11  C   UNL     1      -6.613   9.612  69.895  1.00  0.00    -0.065 A  
HETATM   12  C   UNL     1      -7.706   8.737  69.933  1.00  0.00    -0.081 A  
HETATM   13  C   UNL     1      -7.342   7.467  69.463  1.00  0.00    -0.085 A  
HETATM   14  N   UNL     1      -5.342   9.287  69.587  1.00  0.00    -0.034 NA 
HETATM   15  N   UNL     1      -6.094   7.093  69.102  1.00  0.00    -0.026 NA 
HETATM   16  C   UNL     1      -5.150   8.027  69.201  1.00  0.00    -0.023 A  
BRANCH  12  17
HETATM   17  C   UNL     1      -9.088   9.057  70.446  1.00  0.00    -0.242 A  
HETATM   18  C   UNL     1      -9.993   9.894  69.773  1.00  0.00    -0.275 A  
HETATM   19  C   UNL     1     -11.308  10.115  70.206  1.00  0.00    -0.387 A  
HETATM   20  C   UNL     1     -10.903   8.698  72.088  1.00  0.00    -0.424 A  
HETATM   21  C   UNL     1      -9.579   8.510  71.653  1.00  0.00    -0.319 A  
HETATM   22 BR   UNL     1     -13.566   9.702  71.880  1.00  0.00    -0.423 Br 
HETATM   23  C   UNL     1     -11.768   9.488  71.349  1.00  0.00    -0.393 A  
ENDBRANCH  12  17
BRANCH  13  24
HETATM   24  O   UNL     1      -8.337   6.517  69.347  1.00  0.00    -0.121 OA 
BRANCH  24  25
HETATM   25  C   UNL     1      -7.966   5.225  68.866  1.00  0.00    -0.086 C  
BRANCH  25  26
HETATM   26  C   UNL     1      -8.261   5.204  67.366  1.00  0.00    -0.107 C  
BRANCH  26  27
HETATM   27  O   UNL     1      -9.138   6.274  67.025  1.00  0.00    -0.119 OA 
BRANCH  27  28
HETATM   28  C   UNL     1      -8.629   7.089  66.034  1.00  0.00    -0.148 A  
HETATM   29  N   UNL     1      -8.199   6.556  64.875  1.00  0.00    -0.126 NA 
HETATM   30  C   UNL     1      -7.719   7.430  63.962  1.00  0.00    -0.121 A  
HETATM   31  C   UNL     1      -7.657   8.788  64.168  1.00  0.00    -0.122 A  
HETATM   32  C   UNL     1      -8.118   9.221  65.389  1.00  0.00    -0.122 A  
HETATM   33 BR   UNL     1      -6.989   9.970  62.872  1.00  0.00    -0.130 Br 
HETATM   34  N   UNL     1      -8.608   8.396  66.339  1.00  0.00    -0.121 NA 
ENDBRANCH  27  28
ENDBRANCH  26  27
ENDBRANCH  25  26
ENDBRANCH  24  25
ENDBRANCH  13  24
ENDBRANCH   9  11
ENDBRANCH   6   9
ENDBRANCH   4   6
ENDBRANCH   3   4
ENDBRANCH   2   3
TORSDOF 11
ENDMDL
MODEL      217
REMARK 921   NORMALIZED FREE ENERGY PREDICTED BY IDOCK:   -3.28 KCAL/MOL
REMARK 922        TOTAL FREE ENERGY PREDICTED BY IDOCK:   -6.81 KCAL/MOL
REMARK 923 INTER-LIGAND FREE ENERGY PREDICTED BY IDOCK:   -5.08 KCAL/MOL
REMARK 924 INTRA-LIGAND FREE ENERGY PREDICTED BY IDOCK:   -1.73 KCAL/MOL
REMARK 927      BINDING AFFINITY PREDICTED BY RF-SCORE:    0.00 PKD
ROOT
HETATM    1  C   UNL     1      -7.778   7.923  63.548  1.00  0.00    -0.136 C  
HETATM    2  C   UNL     1      -6.781   7.111  64.359  1.00  0.00    -0.046 C  
ENDROOT
BRANCH   2   3
HETATM    3  C   UNL     1      -6.902   7.378  65.855  1.00  0.00    -0.057 C  
BRANCH   3   4
HETATM    4  N   UNL     1      -7.697   8.619  66.079  1.00  0.00    -0.099 N  
HETATM    5  H   UNL     1      -7.455   9.529  65.688  1.00  0.00     0.000 HD 
BRANCH   4   6
HETATM    6  S   UNL     1      -9.035   8.342  67.051  1.00  0.00    -0.146 S  
HETATM    7  O   UNL     1     -10.157   8.852  66.293  1.00  0.00    -0.293 OA 
HETATM    8  O   UNL     1      -8.994   6.983  67.518  1.00  0.00    -0.118 OA 
BRANCH   6   9
HETATM    9  N   UNL     1      -8.781   9.418  68.310  1.00  0.00    -0.124 N  
HETATM   10  H   UNL     1      -9.386   9.438  69.132  1.00  0.00     0.000 HD 
BRANCH   9  11
HETATM   11  C   UNL     1      -7.682  10.297  68.170  1.00  0.00    -0.092 A  
HETATM   12  C   UNL     1      -7.756  11.558  67.564  1.00  0.00    -0.132 A  
HETATM   13  C   UNL     1      -6.541  12.245  67.697  1.00  0.00    -0.122 A  
HETATM   14  N   UNL     1      -6.579   9.730  68.697  1.00  0.00    -0.051 NA 
HETATM   15  N   UNL     1      -5.414  11.744  68.251  1.00  0.00    -0.042 NA 
HETATM   16  C   UNL     1      -5.490  10.496  68.710  1.00  0.00    -0.041 A  
BRANCH  12  17
HETATM   17  C   UNL     1      -8.939  12.122  66.818  1.00  0.00    -0.203 A  
HETATM   18  C   UNL     1      -9.913  12.943  67.411  1.00  0.00    -0.217 A  
HETATM   19  C   UNL     1     -10.959  13.540  66.694  1.00  0.00    -0.293 A  
HETATM   20  C   UNL     1     -10.167  12.482  64.702  1.00  0.00    -0.315 A  
HETATM   21  C   UNL     1      -9.141  11.870  65.443  1.00  0.00     0.130 A  
HETATM   22 BR   UNL     1     -12.410  14.211  64.345  1.00  0.00    -0.356 Br 
HETATM   23  C   UNL     1     -11.063  13.330  65.332  1.00  0.00    -0.282 A  
ENDBRANCH  12  17
BRANCH  13  24
HETATM   24  O   UNL     1      -6.485  13.545  67.236  1.00  0.00    -0.276 OA 
BRANCH  24  25
HETATM   25  C   UNL     1      -5.823  14.510  68.054  1.00  0.00    -0.143 C  
BRANCH  25  26
HETATM   26  C   UNL     1      -6.169  15.888  67.489  1.00  0.00    -0.158 C  
BRANCH  26  27
HETATM   27  O   UNL     1      -6.690  16.723  68.519  1.00  0.00    -0.149 OA 
BRANCH  27  28
HETATM   28  C   UNL     1      -7.975  16.380  68.888  1.00  0.00    -0.236 A  
HETATM   29  N   UNL     1      -8.183  15.376  69.759  1.00  0.00    -0.139 NA 
HETATM   30  C   UNL     1      -9.473  15.112  70.063  1.00  0.00     0.188 A  
HETATM   31  C   UNL     1     -10.537  15.806  69.535  1.00  0.00    -0.272 A  
HETATM   32  C   UNL     1     -10.207  16.807  68.652  1.00  0.00    -0.298 A  
HETATM   33 BR   UNL     1     -12.315  15.414  69.989  1.00  0.00    -0.322 Br 
HETATM   34  N   UNL     1      -8.938  17.115  68.310  1.00  0.00    -0.241 NA 
ENDBRANCH  27  28
ENDBRANCH  26  27
ENDBRANCH  25  26
ENDBRANCH  24  25
ENDBRANCH  13  24
ENDBRANCH   9  11
ENDBRANCH   6   9
ENDBRANCH   4   6
ENDBRANCH   3   4
ENDBRANCH   2   3
TORSDOF 11
ENDMDL
MODEL      218
REMARK 921   NORMALIZED FREE ENERGY PREDICTED BY IDOCK:   -3.27 KCAL/MOL
REMARK 922        TOTAL FREE ENERGY PREDICTED BY IDOCK:   -6.79 KCAL/MOL
REMARK 923 INTER-LIGAND FREE ENERGY PREDICTED BY IDOCK:   -5.19 KCAL/MOL
REMARK 924 INTRA-LIGAND FREE ENERGY PREDICTED BY IDOCK:   -1.60 KCAL/MOL
REMARK 927      BINDING AFFINITY PREDICTED BY RF-SCORE:    0.00 PKD
ROOT
HETATM    1  C   UNL     1     -10.839   5.516  69.123  1.00  0.00    -0.182 C  
HETATM    2  C   UNL     1     -11.239   6.462  68.003  1.00  0.00    -0.260 C  
ENDROOT
BRANCH   2   3
HETATM    3  C   UNL     1     -10.548   6.121  66.688  1.00  0.00    -0.228 C  
BRANCH   3   4
HETATM    4  N   UNL     1      -9.915   4.775  66.788  1.00  0.00    -0.209 N  
HETATM    5  H   UNL     1     -10.060   4.135  67.568  1.00  0.00     0.000 HD 
BRANCH   4   6
HETATM    6  S   UNL     1      -8.937   4.440  65.468  1.00  0.00    -0.142 S  
HETATM    7  O   UNL     1      -9.509   3.250  64.874  1.00  0.00    -0.149 OA 
HETATM    8  O   UNL     1      -8.752   5.648  64.711  1.00  0.00    -0.110 OA 
BRANCH   6   9
HETATM    9  N   UNL     1      -7.508   3.967  66.203  1.00  0.00    -0.086 N  
HETATM   10  H   UNL     1      -6.769   3.490  65.686  1.00  0.00     0.000 HD 
BRANCH   9  11
HETATM   11  C   UNL     1      -7.385   4.264  67.581  1.00  0.00    -0.069 A  
HETATM   12  C   UNL     1      -7.089   5.537  68.086  1.00  0.00    -0.067 A  
HETATM   13  C   UNL     1      -7.167   5.546  69.486  1.00  0.00    -0.065 A  
HETATM   14  N   UNL     1      -7.587   3.147  68.305  1.00  0.00    -0.053 NA 
HETATM   15  N   UNL     1      -7.406   4.466  70.265  1.00  0.00    -0.048 NA 
HETATM   16  C   UNL     1      -7.587   3.311  69.626  1.00  0.00    -0.044 A  
BRANCH  12  17
HETATM   17  C   UNL     1      -6.689   6.747  67.280  1.00  0.00    -0.067 A  
HETATM   18  C   UNL     1      -5.457   6.865  66.613  1.00  0.00    -0.018 A  
HETATM   19  C   UNL     1      -5.127   7.951  65.790  1.00  0.00    -0.025 A  
HETATM   20  C   UNL     1      -7.247   8.940  66.281  1.00  0.00    -0.086 A  
HETATM   21  C   UNL     1      -7.550   7.856  67.125  1.00  0.00    -0.100 A  
HETATM   22 BR   UNL     1      -5.640  10.385  64.418  1.00  0.00    -0.114 Br 
HETATM   23  C   UNL     1      -6.040   8.972  65.603  1.00  0.00    -0.055 A  
ENDBRANCH  12  17
BRANCH  13  24
HETATM   24  O   UNL     1      -6.998   6.755  70.130  1.00  0.00    -0.062 OA 
BRANCH  24  25
HETATM   25  C   UNL     1      -8.167   7.529  70.403  1.00  0.00    -0.123 C  
BRANCH  25  26
HETATM   26  C   UNL     1      -7.724   8.727  71.243  1.00  0.00    -0.120 C  
BRANCH  26  27
HETATM   27  O   UNL     1      -8.456   8.765  72.465  1.00  0.00    -0.403 OA 
BRANCH  27  28
HETATM   28  C   UNL     1      -9.782   8.414  72.308  1.00  0.00    -0.316 A  
HETATM   29  N   UNL     1     -10.222   7.221  72.747  1.00  0.00    -0.204 NA 
HETATM   30  C   UNL     1     -11.534   6.964  72.553  1.00  0.00    -0.230 A  
HETATM   31  C   UNL     1     -12.400   7.844  71.945  1.00  0.00    -0.315 A  
HETATM   32  C   UNL     1     -11.841   9.030  71.531  1.00  0.00    -0.345 A  
HETATM   33 BR   UNL     1     -14.218   7.453  71.700  1.00  0.00    -0.546 Br 
HETATM   34  N   UNL     1     -10.537   9.341  71.698  1.00  0.00    -0.348 NA 
ENDBRANCH  27  28
ENDBRANCH  26  27
ENDBRANCH  25  26
ENDBRANCH  24  25
ENDBRANCH  13  24
ENDBRANCH   9  11
ENDBRANCH   6   9
ENDBRANCH   4   6
ENDBRANCH   3   4
ENDBRANCH   2   3
TORSDOF 11
ENDMDL
MODEL      219
REMARK 921   NORMALIZED FREE ENERGY PREDICTED BY IDOCK:   -3.22 KCAL/MOL
REMARK 922        TOTAL FREE ENERGY PREDICTED BY IDOCK:   -6.71 KCAL/MOL
REMARK 923 INTER-LIGAND FREE ENERGY PREDICTED BY IDOCK:   -5.06 KCAL/MOL
REMARK 924 INTRA-LIGAND FREE ENERGY PREDICTED BY IDOCK:   -1.65 KCAL/MOL
REMARK 927      BINDING AFFINITY PREDICTED BY RF-SCORE:    0.00 PKD
ROOT
HETATM    1  C   UNL     1      -7.490   5.207  67.228  1.00  0.00    -0.083 C  
HETATM    2  C   UNL     1      -6.263   5.338  68.116  1.00  0.00    -0.034 C  
ENDROOT
BRANCH   2   3
HETATM    3  C   UNL     1      -6.565   4.987  69.568  1.00  0.00    -0.040 C  
BRANCH   3   4
HETATM    4  N   UNL     1      -7.091   6.188  70.276  1.00  0.00    -0.072 N  
HETATM    5  H   UNL     1      -6.628   7.096  70.279  1.00  0.00     0.000 HD 
BRANCH   4   6
HETATM    6  S   UNL     1      -8.535   5.869  71.068  1.00  0.00    -0.125 S  
HETATM    7  O   UNL     1      -9.083   4.714  70.391  1.00  0.00    -0.102 OA 
HETATM    8  O   UNL     1      -8.295   5.870  72.486  1.00  0.00    -0.116 OA 
BRANCH   6   9
HETATM    9  N   UNL     1      -9.477   7.179  70.618  1.00  0.00    -0.162 N  
HETATM   10  H   UNL     1      -9.780   7.882  71.292  1.00  0.00     0.000 HD 
BRANCH   9  11
HETATM   11  C   UNL     1      -9.830   7.255  69.249  1.00  0.00    -0.166 A  
HETATM   12  C   UNL     1      -9.245   8.141  68.335  1.00  0.00    -0.135 A  
HETATM   13  C   UNL     1      -9.704   7.887  67.035  1.00  0.00    -0.206 A  
HETATM   14  N   UNL     1     -10.801   6.360  68.981  1.00  0.00    -0.293 NA 
HETATM   15  N   UNL     1     -10.645   6.976  66.699  1.00  0.00    -0.197 NA 
HETATM   16  C   UNL     1     -11.159   6.267  67.703  1.00  0.00    -0.266 A  
BRANCH  12  17
HETATM   17  C   UNL     1      -8.290   9.261  68.664  1.00  0.00    -0.118 A  
HETATM   18  C   UNL     1      -6.893   9.146  68.566  1.00  0.00    -0.063 A  
HETATM   19  C   UNL     1      -6.013  10.215  68.783  1.00  0.00    -0.040 A  
HETATM   20  C   UNL     1      -7.882  11.621  69.279  1.00  0.00     0.213 A  
HETATM   21  C   UNL     1      -8.746  10.530  69.084  1.00  0.00    -0.155 A  
HETATM   22 BR   UNL     1      -5.344  12.927  69.304  1.00  0.00    -0.077 Br 
HETATM   23  C   UNL     1      -6.516  11.461  69.109  1.00  0.00    -0.085 A  
ENDBRANCH  12  17
BRANCH  13  24
HETATM   24  O   UNL     1      -9.144   8.615  66.004  1.00  0.00    -0.179 OA 
BRANCH  24  25
HETATM   25  C   UNL     1      -9.956   9.609  65.379  1.00  0.00    -0.160 C  
BRANCH  25  26
HETATM   26  C   UNL     1      -9.171  10.920  65.420  1.00  0.00    -0.207 C  
BRANCH  26  27
HETATM   27  O   UNL     1      -9.978  11.990  64.936  1.00  0.00    -0.258 OA 
BRANCH  27  28
HETATM   28  C   UNL     1     -10.290  12.912  65.914  1.00  0.00    -0.285 A  
HETATM   29  N   UNL     1     -11.424  12.782  66.628  1.00  0.00    -0.330 NA 
HETATM   30  C   UNL     1     -11.646  13.730  67.565  1.00  0.00    -0.354 A  
HETATM   31  C   UNL     1     -10.790  14.779  67.804  1.00  0.00    -0.278 A  
HETATM   32  C   UNL     1      -9.666  14.816  67.013  1.00  0.00    -0.237 A  
HETATM   33 BR   UNL     1     -11.131  16.072  69.121  1.00  0.00    -0.338 Br 
HETATM   34  N   UNL     1      -9.391  13.898  66.061  1.00  0.00    -0.110 NA 
ENDBRANCH  27  28
ENDBRANCH  26  27
ENDBRANCH  25  26
ENDBRANCH  24  25
ENDBRANCH  13  24
ENDBRANCH   9  11
ENDBRANCH   6   9
ENDBRANCH   4   6
ENDBRANCH   3   4
ENDBRANCH   2   3
TORSDOF 11
ENDMDL
MODEL      220
REMARK 921   NORMALIZED FREE ENERGY PREDICTED BY IDOCK:   -3.21 KCAL/MOL
REMARK 922        TOTAL FREE ENERGY PREDICTED BY IDOCK:   -6.69 KCAL/MOL
REMARK 923 INTER-LIGAND FREE ENERGY PREDICTED BY IDOCK:   -5.67 KCAL/MOL
REMARK 924 INTRA-LIGAND FREE ENERGY PREDICTED BY IDOCK:   -1.03 KCAL/MOL
REMARK 927      BINDING AFFINITY PREDICTED BY RF-SCORE:    0.00 PKD
ROOT
HETATM    1  C   UNL     1      -8.159   7.768  62.546  1.00  0.00    -0.133 C  
HETATM    2  C   UNL     1      -7.996   6.604  63.509  1.00  0.00    -0.070 C  
ENDROOT
BRANCH   2   3
HETATM    3  C   UNL     1      -8.055   7.050  64.966  1.00  0.00    -0.119 C  
BRANCH   3   4
HETATM    4  N   UNL     1      -8.282   8.521  65.030  1.00  0.00    -0.151 N  
HETATM    5  H   UNL     1      -7.768   9.202  64.473  1.00  0.00     0.000 HD 
BRANCH   4   6
HETATM    6  S   UNL     1      -9.485   8.924  66.128  1.00  0.00    -0.254 S  
HETATM    7  O   UNL     1     -10.133  10.087  65.560  1.00  0.00    -0.298 OA 
HETATM    8  O   UNL     1     -10.224   7.735  66.461  1.00  0.00    -0.236 OA 
BRANCH   6   9
HETATM    9  N   UNL     1      -8.595   9.465  67.439  1.00  0.00    -0.125 N  
HETATM   10  H   UNL     1      -8.779   9.137  68.387  1.00  0.00     0.000 HD 
BRANCH   9  11
HETATM   11  C   UNL     1      -7.574  10.404  67.158  1.00  0.00    -0.096 A  
HETATM   12  C   UNL     1      -7.689  11.782  67.382  1.00  0.00    -0.151 A  
HETATM   13  C   UNL     1      -6.470  12.429  67.133  1.00  0.00    -0.094 A  
HETATM   14  N   UNL     1      -6.503   9.767  66.645  1.00  0.00    -0.069 NA 
HETATM   15  N   UNL     1      -5.352  11.837  66.657  1.00  0.00    -0.271 NA 
HETATM   16  C   UNL     1      -5.435  10.529  66.421  1.00  0.00    -0.067 A  
BRANCH  12  17
HETATM   17  C   UNL     1      -8.941  12.519  67.787  1.00  0.00    -0.184 A  
HETATM   18  C   UNL     1      -9.809  12.079  68.801  1.00  0.00    -0.057 A  
HETATM   19  C   UNL     1     -10.921  12.813  69.237  1.00  0.00    -0.126 A  
HETATM   20  C   UNL     1     -10.417  14.496  67.616  1.00  0.00    -0.246 A  
HETATM   21  C   UNL     1      -9.322  13.732  67.173  1.00  0.00    -0.240 A  
HETATM   22 BR   UNL     1     -12.637  15.076  69.312  1.00  0.00     0.225 Br 
HETATM   23  C   UNL     1     -11.202  14.038  68.661  1.00  0.00    -0.268 A  
ENDBRANCH  12  17
BRANCH  13  24
HETATM   24  O   UNL     1      -6.395  13.780  67.405  1.00  0.00    -0.315 OA 
BRANCH  24  25
HETATM   25  C   UNL     1      -5.903  14.171  68.687  1.00  0.00    -0.086 C  
BRANCH  25  26
HETATM   26  C   UNL     1      -5.834  15.699  68.693  1.00  0.00    -0.101 C  
BRANCH  26  27
HETATM   27  O   UNL     1      -6.916  16.234  69.450  1.00  0.00    -0.210 OA 
BRANCH  27  28
HETATM   28  C   UNL     1      -7.751  17.036  68.699  1.00  0.00    -0.251 A  
HETATM   29  N   UNL     1      -9.004  17.290  69.122  1.00  0.00    -0.066 NA 
HETATM   30  C   UNL     1      -9.749  18.087  68.324  1.00  0.00    -0.330 A  
HETATM   31  C   UNL     1      -9.291  18.624  67.144  1.00  0.00    -0.290 A  
HETATM   32  C   UNL     1      -7.999  18.294  66.808  1.00  0.00    -0.244 A  
HETATM   33 BR   UNL     1     -10.355  19.732  66.066  1.00  0.00    -0.576 Br 
HETATM   34  N   UNL     1      -7.208  17.502  67.564  1.00  0.00    -0.167 NA 
ENDBRANCH  27  28
ENDBRANCH  26  27
ENDBRANCH  25  26
ENDBRANCH  24  25
ENDBRANCH  13  24
ENDBRANCH   9  11
ENDBRANCH   6   9
ENDBRANCH   4   6
ENDBRANCH   3   4
ENDBRANCH   2   3
TORSDOF 11
ENDMDL
MODEL      221
REMARK 921   NORMALIZED FREE ENERGY PREDICTED BY IDOCK:   -3.21 KCAL/MOL
REMARK 922        TOTAL FREE ENERGY PREDICTED BY IDOCK:   -6.69 KCAL/MOL
REMARK 923 INTER-LIGAND FREE ENERGY PREDICTED BY IDOCK:   -7.40 KCAL/MOL
REMARK 924 INTRA-LIGAND FREE ENERGY PREDICTED BY IDOCK:    0.71 KCAL/MOL
REMARK 927      BINDING AFFINITY PREDICTED BY RF-SCORE:    0.00 PKD
ROOT
HETATM    1  C   UNL     1     -10.376  20.404  69.592  1.00  0.00     0.280 C  
HETATM    2  C   UNL     1      -9.418  19.846  68.551  1.00  0.00    -0.335 C  
ENDROOT
BRANCH   2   3
HETATM    3  C   UNL     1      -9.748  20.333  67.145  1.00  0.00    -0.452 C  
BRANCH   3   4
HETATM    4  N   UNL     1     -10.408  19.239  66.378  1.00  0.00    -0.434 N  
HETATM    5  H   UNL     1     -10.986  19.390  65.551  1.00  0.00     0.000 HD 
BRANCH   4   6
HETATM    6  S   UNL     1     -10.089  17.729  67.035  1.00  0.00    -0.352 S  
HETATM    7  O   UNL     1      -8.722  17.809  67.504  1.00  0.00    -0.235 OA 
HETATM    8  O   UNL     1     -11.169  17.368  67.913  1.00  0.00    -0.152 OA 
BRANCH   6   9
HETATM    9  N   UNL     1     -10.070  16.753  65.674  1.00  0.00    -0.243 N  
HETATM   10  H   UNL     1      -9.662  17.066  64.792  1.00  0.00     0.000 HD 
BRANCH   9  11
HETATM   11  C   UNL     1     -10.650  15.470  65.816  1.00  0.00    -0.356 A  
HETATM   12  C   UNL     1     -10.247  14.526  66.769  1.00  0.00    -0.266 A  
HETATM   13  C   UNL     1     -11.095  13.410  66.752  1.00  0.00    -0.292 A  
HETATM   14  N   UNL     1     -11.625  15.311  64.900  1.00  0.00    -0.327 NA 
HETATM   15  N   UNL     1     -12.114  13.212  65.885  1.00  0.00    -0.428 NA 
HETATM   16  C   UNL     1     -12.314  14.175  64.986  1.00  0.00    -0.440 A  
BRANCH  12  17
HETATM   17  C   UNL     1      -9.045  14.629  67.675  1.00  0.00    -0.193 A  
HETATM   18  C   UNL     1      -9.121  14.996  69.029  1.00  0.00    -0.205 A  
HETATM   19  C   UNL     1      -8.016  15.001  69.890  1.00  0.00     0.149 A  
HETATM   20  C   UNL     1      -6.624  14.315  68.071  1.00  0.00    -0.156 A  
HETATM   21  C   UNL     1      -7.740  14.342  67.216  1.00  0.00    -0.164 A  
HETATM   22 BR   UNL     1      -5.301  14.537  70.590  1.00  0.00    -0.142 Br 
HETATM   23  C   UNL     1      -6.773  14.629  69.412  1.00  0.00    -0.147 A  
ENDBRANCH  12  17
BRANCH  13  24
HETATM   24  O   UNL     1     -10.887  12.432  67.704  1.00  0.00    -0.214 OA 
BRANCH  24  25
HETATM   25  C   UNL     1     -11.230  11.089  67.360  1.00  0.00    -0.285 C  
BRANCH  25  26
HETATM   26  C   UNL     1      -9.934  10.385  66.959  1.00  0.00    -0.206 C  
BRANCH  26  27
HETATM   27  O   UNL     1     -10.228   9.154  66.306  1.00  0.00    -0.276 OA 
BRANCH  27  28
HETATM   28  C   UNL     1     -10.072   8.058  67.132  1.00  0.00    -0.263 A  
HETATM   29  N   UNL     1     -10.852   6.973  66.969  1.00  0.00    -0.370 NA 
HETATM   30  C   UNL     1     -10.627   5.948  67.821  1.00  0.00    -0.259 A  
HETATM   31  C   UNL     1      -9.669   5.975  68.807  1.00  0.00    -0.131 A  
HETATM   32  C   UNL     1      -8.935   7.135  68.886  1.00  0.00    -0.129 A  
HETATM   33 BR   UNL     1      -9.382   4.528  69.967  1.00  0.00    -0.242 Br 
HETATM   34  N   UNL     1      -9.115   8.191  68.063  1.00  0.00    -0.134 NA 
ENDBRANCH  27  28
ENDBRANCH  26  27
ENDBRANCH  25  26
ENDBRANCH  24  25
ENDBRANCH  13  24
ENDBRANCH   9  11
ENDBRANCH   6   9
ENDBRANCH   4   6
ENDBRANCH   3   4
ENDBRANCH   2   3
TORSDOF 11
ENDMDL
MODEL      222
REMARK 921   NORMALIZED FREE ENERGY PREDICTED BY IDOCK:   -3.19 KCAL/MOL
REMARK 922        TOTAL FREE ENERGY PREDICTED BY IDOCK:   -6.67 KCAL/MOL
REMARK 923 INTER-LIGAND FREE ENERGY PREDICTED BY IDOCK:   -7.40 KCAL/MOL
REMARK 924 INTRA-LIGAND FREE ENERGY PREDICTED BY IDOCK:    0.73 KCAL/MOL
REMARK 927      BINDING AFFINITY PREDICTED BY RF-SCORE:    0.00 PKD
ROOT
HETATM    1  C   UNL     1     -10.651  20.425  68.775  1.00  0.00     0.181 C  
HETATM    2  C   UNL     1      -9.601  19.356  69.026  1.00  0.00    -0.432 C  
ENDROOT
BRANCH   2   3
HETATM    3  C   UNL     1      -9.781  18.147  68.115  1.00  0.00    -0.325 C  
BRANCH   3   4
HETATM    4  N   UNL     1      -8.515  17.361  68.070  1.00  0.00    -0.229 N  
HETATM    5  H   UNL     1      -8.115  16.878  68.874  1.00  0.00     0.000 HD 
BRANCH   4   6
HETATM    6  S   UNL     1      -7.827  17.364  66.540  1.00  0.00    -0.310 S  
HETATM    7  O   UNL     1      -8.807  18.011  65.693  1.00  0.00    -0.307 OA 
HETATM    8  O   UNL     1      -6.477  17.850  66.641  1.00  0.00    -0.164 OA 
BRANCH   6   9
HETATM    9  N   UNL     1      -7.852  15.738  66.142  1.00  0.00     0.013 N  
HETATM   10  H   UNL     1      -6.995  15.213  65.965  1.00  0.00     0.000 HD 
BRANCH   9  11
HETATM   11  C   UNL     1      -9.129  15.132  66.064  1.00  0.00    -0.161 A  
HETATM   12  C   UNL     1      -9.416  13.841  66.525  1.00  0.00    -0.282 A  
HETATM   13  C   UNL     1     -10.789  13.574  66.434  1.00  0.00    -0.290 A  
HETATM   14  N   UNL     1      -9.998  15.981  65.480  1.00  0.00    -0.459 NA 
HETATM   15  N   UNL     1     -11.714  14.401  65.896  1.00  0.00    -0.367 NA 
HETATM   16  C   UNL     1     -11.261  15.563  65.429  1.00  0.00    -0.228 A  
BRANCH  12  17
HETATM   17  C   UNL     1      -8.414  12.825  67.015  1.00  0.00    -0.154 A  
HETATM   18  C   UNL     1      -7.602  13.015  68.145  1.00  0.00    -0.136 A  
HETATM   19  C   UNL     1      -6.740  12.033  68.651  1.00  0.00    -0.080 A  
HETATM   20  C   UNL     1      -7.397  10.575  66.873  1.00  0.00    -0.110 A  
HETATM   21  C   UNL     1      -8.235  11.583  66.366  1.00  0.00    -0.092 A  
HETATM   22 BR   UNL     1      -5.582   9.440  68.761  1.00  0.00    -0.036 Br 
HETATM   23  C   UNL     1      -6.665  10.801  68.027  1.00  0.00    -0.064 A  
ENDBRANCH  12  17
BRANCH  13  24
HETATM   24  O   UNL     1     -11.245  12.375  66.943  1.00  0.00    -0.271 OA 
BRANCH  24  25
HETATM   25  C   UNL     1     -12.035  12.418  68.132  1.00  0.00    -0.214 C  
BRANCH  25  26
HETATM   26  C   UNL     1     -11.706  11.158  68.933  1.00  0.00    -0.337 C  
BRANCH  26  27
HETATM   27  O   UNL     1     -12.531  11.088  70.093  1.00  0.00    -0.306 OA 
BRANCH  27  28
HETATM   28  C   UNL     1     -12.581  12.279  70.789  1.00  0.00    -0.213 A  
HETATM   29  N   UNL     1     -11.757  13.290  70.458  1.00  0.00    -0.115 NA 
HETATM   30  C   UNL     1     -11.878  14.419  71.191  1.00  0.00    -0.251 A  
HETATM   31  C   UNL     1     -12.777  14.564  72.222  1.00  0.00    -0.328 A  
HETATM   32  C   UNL     1     -13.565  13.466  72.476  1.00  0.00    -0.554 A  
HETATM   33 BR   UNL     1     -12.920  16.151  73.213  1.00  0.00    -0.522 Br 
HETATM   34  N   UNL     1     -13.488  12.312  71.777  1.00  0.00    -0.254 NA 
ENDBRANCH  27  28
ENDBRANCH  26  27
ENDBRANCH  25  26
ENDBRANCH  24  25
ENDBRANCH  13  24
ENDBRANCH   9  11
ENDBRANCH   6   9
ENDBRANCH   4   6
ENDBRANCH   3   4
ENDBRANCH   2   3
TORSDOF 11
ENDMDL
MODEL      223
REMARK 921   NORMALIZED FREE ENERGY PREDICTED BY IDOCK:   -3.17 KCAL/MOL
REMARK 922        TOTAL FREE ENERGY PREDICTED BY IDOCK:   -6.63 KCAL/MOL
REMARK 923 INTER-LIGAND FREE ENERGY PREDICTED BY IDOCK:   -5.18 KCAL/MOL
REMARK 924 INTRA-LIGAND FREE ENERGY PREDICTED BY IDOCK:   -1.45 KCAL/MOL
REMARK 927      BINDING AFFINITY PREDICTED BY RF-SCORE:    0.00 PKD
ROOT
HETATM    1  C   UNL     1      -8.710   3.808  65.157  1.00  0.00    -0.116 C  
HETATM    2  C   UNL     1      -7.755   4.905  64.714  1.00  0.00    -0.079 C  
ENDROOT
BRANCH   2   3
HETATM    3  C   UNL     1      -8.340   6.297  64.923  1.00  0.00    -0.076 C  
BRANCH   3   4
HETATM    4  N   UNL     1      -9.606   6.196  65.702  1.00  0.00    -0.361 N  
HETATM    5  H   UNL     1     -10.362   5.549  65.480  1.00  0.00     0.000 HD 
BRANCH   4   6
HETATM    6  S   UNL     1      -9.642   7.273  66.987  1.00  0.00    -0.177 S  
HETATM    7  O   UNL     1     -10.159   8.504  66.427  1.00  0.00    -0.279 OA 
HETATM    8  O   UNL     1     -10.270   6.632  68.111  1.00  0.00    -0.150 OA 
BRANCH   6   9
HETATM    9  N   UNL     1      -8.012   7.529  67.275  1.00  0.00    -0.117 N  
HETATM   10  H   UNL     1      -7.333   6.768  67.238  1.00  0.00     0.000 HD 
BRANCH   9  11
HETATM   11  C   UNL     1      -7.630   8.858  67.572  1.00  0.00    -0.093 A  
HETATM   12  C   UNL     1      -7.612   9.401  68.864  1.00  0.00    -0.075 A  
HETATM   13  C   UNL     1      -7.061  10.690  68.853  1.00  0.00    -0.078 A  
HETATM   14  N   UNL     1      -7.300   9.500  66.434  1.00  0.00    -0.093 NA 
HETATM   15  N   UNL     1      -6.676  11.369  67.749  1.00  0.00    -0.067 NA 
HETATM   16  C   UNL     1      -6.834  10.737  66.587  1.00  0.00    -0.125 A  
BRANCH  12  17
HETATM   17  C   UNL     1      -8.146   8.747  70.114  1.00  0.00    -0.114 A  
HETATM   18  C   UNL     1      -7.472   7.728  70.808  1.00  0.00    -0.070 A  
HETATM   19  C   UNL     1      -7.926   7.188  72.019  1.00  0.00    -0.092 A  
HETATM   20  C   UNL     1      -9.833   8.627  71.918  1.00  0.00    -0.384 A  
HETATM   21  C   UNL     1      -9.375   9.136  70.691  1.00  0.00    -0.312 A  
HETATM   22 BR   UNL     1      -9.656   7.012  74.265  1.00  0.00    -0.208 Br 
HETATM   23  C   UNL     1      -9.093   7.664  72.586  1.00  0.00    -0.157 A  
ENDBRANCH  12  17
BRANCH  13  24
HETATM   24  O   UNL     1      -6.884  11.322  70.068  1.00  0.00    -0.099 OA 
BRANCH  24  25
HETATM   25  C   UNL     1      -5.583  11.827  70.368  1.00  0.00    -0.152 C  
BRANCH  25  26
HETATM   26  C   UNL     1      -5.723  13.337  70.560  1.00  0.00    -0.176 C  
BRANCH  26  27
HETATM   27  O   UNL     1      -5.401  14.016  69.350  1.00  0.00    -0.082 OA 
BRANCH  27  28
HETATM   28  C   UNL     1      -6.458  14.749  68.848  1.00  0.00    -0.089 A  
HETATM   29  N   UNL     1      -7.305  15.374  69.686  1.00  0.00    -0.202 NA 
HETATM   30  C   UNL     1      -8.309  16.069  69.106  1.00  0.00    -0.244 A  
HETATM   31  C   UNL     1      -8.487  16.154  67.745  1.00  0.00    -0.158 A  
HETATM   32  C   UNL     1      -7.567  15.472  66.985  1.00  0.00    -0.193 A  
HETATM   33 BR   UNL     1      -9.891  17.136  66.978  1.00  0.00    -0.287 Br 
HETATM   34  N   UNL     1      -6.544  14.762  67.509  1.00  0.00    -0.275 NA 
ENDBRANCH  27  28
ENDBRANCH  26  27
ENDBRANCH  25  26
ENDBRANCH  24  25
ENDBRANCH  13  24
ENDBRANCH   9  11
ENDBRANCH   6   9
ENDBRANCH   4   6
ENDBRANCH   3   4
ENDBRANCH   2   3
TORSDOF 11
ENDMDL
MODEL      224
REMARK 921   NORMALIZED FREE ENERGY PREDICTED BY IDOCK:   -3.14 KCAL/MOL
REMARK 922        TOTAL FREE ENERGY PREDICTED BY IDOCK:   -6.57 KCAL/MOL
REMARK 923 INTER-LIGAND FREE ENERGY PREDICTED BY IDOCK:   -5.79 KCAL/MOL
REMARK 924 INTRA-LIGAND FREE ENERGY PREDICTED BY IDOCK:   -0.78 KCAL/MOL
REMARK 927      BINDING AFFINITY PREDICTED BY RF-SCORE:    0.00 PKD
ROOT
HETATM    1  C   UNL     1      -8.161  19.368  69.172  1.00  0.00    -0.201 C  
HETATM    2  C   UNL     1      -6.660  19.160  69.301  1.00  0.00    -0.341 C  
ENDROOT
BRANCH   2   3
HETATM    3  C   UNL     1      -6.202  17.860  68.651  1.00  0.00    -0.201 C  
BRANCH   3   4
HETATM    4  N   UNL     1      -5.416  17.059  69.632  1.00  0.00    -0.168 N  
HETATM    5  H   UNL     1      -4.578  17.399  70.104  1.00  0.00     0.000 HD 
BRANCH   4   6
HETATM    6  S   UNL     1      -6.072  15.534  69.868  1.00  0.00    -0.151 S  
HETATM    7  O   UNL     1      -5.165  14.877  70.785  1.00  0.00    -0.119 OA 
HETATM    8  O   UNL     1      -7.473  15.673  70.162  1.00  0.00     0.104 OA 
BRANCH   6   9
HETATM    9  N   UNL     1      -5.840  14.818  68.372  1.00  0.00    -0.096 N  
HETATM   10  H   UNL     1      -5.088  15.109  67.746  1.00  0.00     0.000 HD 
BRANCH   9  11
HETATM   11  C   UNL     1      -6.746  13.788  68.024  1.00  0.00    -0.139 A  
HETATM   12  C   UNL     1      -7.974  14.004  67.385  1.00  0.00    -0.191 A  
HETATM   13  C   UNL     1      -8.582  12.785  67.053  1.00  0.00    -0.177 A  
HETATM   14  N   UNL     1      -6.246  12.597  68.407  1.00  0.00    -0.063 NA 
HETATM   15  N   UNL     1      -8.108  11.560  67.373  1.00  0.00    -0.139 NA 
HETATM   16  C   UNL     1      -6.964  11.533  68.054  1.00  0.00    -0.077 A  
BRANCH  12  17
HETATM   17  C   UNL     1      -8.617  15.341  67.115  1.00  0.00    -0.236 A  
HETATM   18  C   UNL     1      -8.055  16.320  66.278  1.00  0.00    -0.267 A  
HETATM   19  C   UNL     1      -8.699  17.523  65.957  1.00  0.00    -0.069 A  
HETATM   20  C   UNL     1     -10.533  16.887  67.352  1.00  0.00    -0.310 A  
HETATM   21  C   UNL     1      -9.860  15.699  67.684  1.00  0.00    -0.227 A  
HETATM   22 BR   UNL     1     -10.868  19.358  65.964  1.00  0.00    -0.287 Br 
HETATM   23  C   UNL     1      -9.954  17.787  66.473  1.00  0.00    -0.346 A  
ENDBRANCH  12  17
BRANCH  13  24
HETATM   24  O   UNL     1      -9.755  12.830  66.328  1.00  0.00    -0.259 OA 
BRANCH  24  25
HETATM   25  C   UNL     1     -10.651  11.725  66.448  1.00  0.00    -0.255 C  
BRANCH  25  26
HETATM   26  C   UNL     1     -10.808  11.123  65.051  1.00  0.00    -0.173 C  
BRANCH  26  27
HETATM   27  O   UNL     1      -9.712  10.259  64.765  1.00  0.00    -0.287 OA 
BRANCH  27  28
HETATM   28  C   UNL     1      -9.708   9.121  65.547  1.00  0.00    -0.100 A  
HETATM   29  N   UNL     1     -10.622   8.969  66.523  1.00  0.00    -0.114 NA 
HETATM   30  C   UNL     1     -10.543   7.823  67.236  1.00  0.00    -0.306 A  
HETATM   31  C   UNL     1      -9.599   6.849  67.010  1.00  0.00    -0.158 A  
HETATM   32  C   UNL     1      -8.712   7.113  65.992  1.00  0.00    -0.147 A  
HETATM   33 BR   UNL     1      -9.526   5.269  68.018  1.00  0.00    -0.159 Br 
HETATM   34  N   UNL     1      -8.742   8.239  65.247  1.00  0.00    -0.132 NA 
ENDBRANCH  27  28
ENDBRANCH  26  27
ENDBRANCH  25  26
ENDBRANCH  24  25
ENDBRANCH  13  24
ENDBRANCH   9  11
ENDBRANCH   6   9
ENDBRANCH   4   6
ENDBRANCH   3   4
ENDBRANCH   2   3
TORSDOF 11
ENDMDL
MODEL      225
REMARK 921   NORMALIZED FREE ENERGY PREDICTED BY IDOCK:   -3.12 KCAL/MOL
REMARK 922        TOTAL FREE ENERGY PREDICTED BY IDOCK:   -6.55 KCAL/MOL
REMARK 923 INTER-LIGAND FREE ENERGY PREDICTED BY IDOCK:   -5.77 KCAL/MOL
REMARK 924 INTRA-LIGAND FREE ENERGY PREDICTED BY IDOCK:   -0.78 KCAL/MOL
REMARK 927      BINDING AFFINITY PREDICTED BY RF-SCORE:    0.00 PKD
ROOT
HETATM    1  C   UNL     1     -11.312   6.289  69.900  1.00  0.00    -0.504 C  
HETATM    2  C   UNL     1     -11.378   6.912  68.515  1.00  0.00     0.035 C  
ENDROOT
BRANCH   2   3
HETATM    3  C   UNL     1     -10.775   6.007  67.448  1.00  0.00    -0.310 C  
BRANCH   3   4
HETATM    4  N   UNL     1      -9.516   5.396  67.961  1.00  0.00    -0.114 N  
HETATM    5  H   UNL     1      -9.341   5.194  68.945  1.00  0.00     0.000 HD 
BRANCH   4   6
HETATM    6  S   UNL     1      -8.421   5.082  66.730  1.00  0.00    -0.105 S  
HETATM    7  O   UNL     1      -8.096   3.678  66.871  1.00  0.00    -0.093 OA 
HETATM    8  O   UNL     1      -8.941   5.618  65.501  1.00  0.00    -0.158 OA 
BRANCH   6   9
HETATM    9  N   UNL     1      -7.072   5.937  67.235  1.00  0.00    -0.072 N  
HETATM   10  H   UNL     1      -6.134   5.705  66.908  1.00  0.00     0.000 HD 
BRANCH   9  11
HETATM   11  C   UNL     1      -7.307   6.998  68.141  1.00  0.00    -0.097 A  
HETATM   12  C   UNL     1      -7.324   8.351  67.778  1.00  0.00    -0.093 A  
HETATM   13  C   UNL     1      -7.715   9.151  68.861  1.00  0.00    -0.083 A  
HETATM   14  N   UNL     1      -7.500   6.503  69.379  1.00  0.00    -0.092 NA 
HETATM   15  N   UNL     1      -7.961   8.707  70.114  1.00  0.00    -0.098 NA 
HETATM   16  C   UNL     1      -7.822   7.397  70.311  1.00  0.00    -0.095 A  
BRANCH  12  17
HETATM   17  C   UNL     1      -6.936   8.921  66.436  1.00  0.00    -0.079 A  
HETATM   18  C   UNL     1      -7.734   8.813  65.285  1.00  0.00    -0.098 A  
HETATM   19  C   UNL     1      -7.413   9.422  64.064  1.00  0.00    -0.113 A  
HETATM   20  C   UNL     1      -5.403  10.271  65.042  1.00  0.00    -0.109 A  
HETATM   21  C   UNL     1      -5.728   9.629  66.250  1.00  0.00    -0.053 A  
HETATM   22 BR   UNL     1      -5.875  11.082  62.346  1.00  0.00    -0.024 Br 
HETATM   23  C   UNL     1      -6.260  10.177  63.957  1.00  0.00    -0.132 A  
ENDBRANCH  12  17
BRANCH  13  24
HETATM   24  O   UNL     1      -7.876  10.503  68.635  1.00  0.00    -0.102 OA 
BRANCH  24  25
HETATM   25  C   UNL     1      -9.141  10.946  68.141  1.00  0.00    -0.155 C  
BRANCH  25  26
HETATM   26  C   UNL     1     -10.206  10.420  69.104  1.00  0.00    -0.222 C  
BRANCH  26  27
HETATM   27  O   UNL     1     -11.181  11.429  69.353  1.00  0.00    -0.243 OA 
BRANCH  27  28
HETATM   28  C   UNL     1     -11.409  12.236  68.257  1.00  0.00    -0.289 A  
HETATM   29  N   UNL     1     -11.248  13.569  68.354  1.00  0.00    -0.261 NA 
HETATM   30  C   UNL     1     -11.492  14.280  67.230  1.00  0.00    -0.352 A  
HETATM   31  C   UNL     1     -11.883  13.711  66.040  1.00  0.00    -0.385 A  
HETATM   32  C   UNL     1     -12.021  12.343  66.058  1.00  0.00    -0.350 A  
HETATM   33 BR   UNL     1     -12.205  14.732  64.499  1.00  0.00    -0.348 Br 
HETATM   34  N   UNL     1     -11.792  11.582  67.150  1.00  0.00    -0.572 NA 
ENDBRANCH  27  28
ENDBRANCH  26  27
ENDBRANCH  25  26
ENDBRANCH  24  25
ENDBRANCH  13  24
ENDBRANCH   9  11
ENDBRANCH   6   9
ENDBRANCH   4   6
ENDBRANCH   3   4
ENDBRANCH   2   3
TORSDOF 11
ENDMDL
MODEL      226
REMARK 921   NORMALIZED FREE ENERGY PREDICTED BY IDOCK:   -3.12 KCAL/MOL
REMARK 922        TOTAL FREE ENERGY PREDICTED BY IDOCK:   -6.54 KCAL/MOL
REMARK 923 INTER-LIGAND FREE ENERGY PREDICTED BY IDOCK:   -5.78 KCAL/MOL
REMARK 924 INTRA-LIGAND FREE ENERGY PREDICTED BY IDOCK:   -0.76 KCAL/MOL
REMARK 927      BINDING AFFINITY PREDICTED BY RF-SCORE:    0.00 PKD
ROOT
HETATM    1  C   UNL     1      -6.977   3.872  71.546  1.00  0.00    -0.031 C  
HETATM    2  C   UNL     1      -6.082   4.812  72.337  1.00  0.00    -0.021 C  
ENDROOT
BRANCH   2   3
HETATM    3  C   UNL     1      -6.475   6.273  72.151  1.00  0.00    -0.054 C  
BRANCH   3   4
HETATM    4  N   UNL     1      -5.488   6.948  71.261  1.00  0.00    -0.027 N  
HETATM    5  H   UNL     1      -4.478   6.906  71.394  1.00  0.00     0.000 HD 
BRANCH   4   6
HETATM    6  S   UNL     1      -6.236   7.786  70.015  1.00  0.00    -0.030 S  
HETATM    7  O   UNL     1      -7.024   8.806  70.673  1.00  0.00    -0.041 OA 
HETATM    8  O   UNL     1      -5.248   8.117  69.023  1.00  0.00    -0.026 OA 
BRANCH   6   9
HETATM    9  N   UNL     1      -7.318   6.649  69.429  1.00  0.00    -0.089 N  
HETATM   10  H   UNL     1      -7.491   5.770  69.917  1.00  0.00     0.000 HD 
BRANCH   9  11
HETATM   11  C   UNL     1      -7.977   6.978  68.222  1.00  0.00    -0.123 A  
HETATM   12  C   UNL     1      -9.255   7.548  68.154  1.00  0.00    -0.137 A  
HETATM   13  C   UNL     1      -9.581   7.882  66.831  1.00  0.00    -0.203 A  
HETATM   14  N   UNL     1      -7.194   6.652  67.175  1.00  0.00    -0.079 NA 
HETATM   15  N   UNL     1      -8.819   7.617  65.746  1.00  0.00    -0.140 NA 
HETATM   16  C   UNL     1      -7.664   6.995  65.978  1.00  0.00    -0.099 A  
BRANCH  12  17
HETATM   17  C   UNL     1     -10.205   7.751  69.308  1.00  0.00    -0.211 A  
HETATM   18  C   UNL     1     -10.308   8.952  70.029  1.00  0.00    -0.219 A  
HETATM   19  C   UNL     1     -11.255   9.167  71.040  1.00  0.00    -0.380 A  
HETATM   20  C   UNL     1     -12.058   6.936  70.729  1.00  0.00    -0.400 A  
HETATM   21  C   UNL     1     -11.083   6.731  69.737  1.00  0.00    -0.368 A  
HETATM   22 BR   UNL     1     -13.491   8.482  72.654  1.00  0.00    -0.110 Br 
HETATM   23  C   UNL     1     -12.149   8.164  71.365  1.00  0.00    -0.297 A  
ENDBRANCH  12  17
BRANCH  13  24
HETATM   24  O   UNL     1     -10.771   8.545  66.612  1.00  0.00    -0.191 OA 
BRANCH  24  25
HETATM   25  C   UNL     1     -10.804   9.949  66.871  1.00  0.00    -0.066 C  
BRANCH  25  26
HETATM   26  C   UNL     1     -10.470  10.655  65.557  1.00  0.00    -0.176 C  
BRANCH  26  27
HETATM   27  O   UNL     1     -11.523  11.545  65.198  1.00  0.00    -0.165 OA 
BRANCH  27  28
HETATM   28  C   UNL     1     -11.184  12.872  65.367  1.00  0.00    -0.283 A  
HETATM   29  N   UNL     1     -10.136  13.208  66.142  1.00  0.00    -0.286 NA 
HETATM   30  C   UNL     1      -9.876  14.531  66.248  1.00  0.00    -0.304 A  
HETATM   31  C   UNL     1     -10.617  15.504  65.619  1.00  0.00    -0.373 A  
HETATM   32  C   UNL     1     -11.667  15.047  64.858  1.00  0.00    -0.336 A  
HETATM   33 BR   UNL     1     -10.220  17.331  65.786  1.00  0.00    -0.131 Br 
HETATM   34  N   UNL     1     -11.974  13.739  64.716  1.00  0.00    -0.384 NA 
ENDBRANCH  27  28
ENDBRANCH  26  27
ENDBRANCH  25  26
ENDBRANCH  24  25
ENDBRANCH  13  24
ENDBRANCH   9  11
ENDBRANCH   6   9
ENDBRANCH   4   6
ENDBRANCH   3   4
ENDBRANCH   2   3
TORSDOF 11
ENDMDL
MODEL      227
REMARK 921   NORMALIZED FREE ENERGY PREDICTED BY IDOCK:   -3.09 KCAL/MOL
REMARK 922        TOTAL FREE ENERGY PREDICTED BY IDOCK:   -6.49 KCAL/MOL
REMARK 923 INTER-LIGAND FREE ENERGY PREDICTED BY IDOCK:   -4.78 KCAL/MOL
REMARK 924 INTRA-LIGAND FREE ENERGY PREDICTED BY IDOCK:   -1.71 KCAL/MOL
REMARK 927      BINDING AFFINITY PREDICTED BY RF-SCORE:    0.00 PKD
ROOT
HETATM    1  C   UNL     1     -10.305   3.872  64.560  1.00  0.00    -0.231 C  
HETATM    2  C   UNL     1      -9.817   3.959  65.997  1.00  0.00    -0.133 C  
ENDROOT
BRANCH   2   3
HETATM    3  C   UNL     1      -9.267   2.630  66.500  1.00  0.00    -0.064 C  
BRANCH   3   4
HETATM    4  N   UNL     1      -8.913   2.747  67.943  1.00  0.00    -0.141 N  
HETATM    5  H   UNL     1      -9.599   2.796  68.696  1.00  0.00     0.000 HD 
BRANCH   4   6
HETATM    6  S   UNL     1      -7.254   2.790  68.183  1.00  0.00    -0.049 S  
HETATM    7  O   UNL     1      -7.015   1.892  69.292  1.00  0.00    -0.033 OA 
HETATM    8  O   UNL     1      -6.599   2.615  66.914  1.00  0.00    -0.035 OA 
BRANCH   6   9
HETATM    9  N   UNL     1      -7.025   4.343  68.768  1.00  0.00    -0.051 N  
HETATM   10  H   UNL     1      -6.259   4.933  68.443  1.00  0.00     0.000 HD 
BRANCH   9  11
HETATM   11  C   UNL     1      -7.954   4.789  69.738  1.00  0.00    -0.066 A  
HETATM   12  C   UNL     1      -8.818   5.877  69.556  1.00  0.00    -0.123 A  
HETATM   13  C   UNL     1      -9.708   5.989  70.634  1.00  0.00    -0.174 A  
HETATM   14  N   UNL     1      -7.865   4.017  70.838  1.00  0.00    -0.055 NA 
HETATM   15  N   UNL     1      -9.694   5.219  71.746  1.00  0.00    -0.154 NA 
HETATM   16  C   UNL     1      -8.753   4.277  71.795  1.00  0.00    -0.110 A  
BRANCH  12  17
HETATM   17  C   UNL     1      -8.799   6.849  68.404  1.00  0.00    -0.123 A  
HETATM   18  C   UNL     1      -7.659   7.573  68.015  1.00  0.00    -0.110 A  
HETATM   19  C   UNL     1      -7.621   8.406  66.888  1.00  0.00    -0.091 A  
HETATM   20  C   UNL     1      -9.918   7.897  66.463  1.00  0.00    -0.267 A  
HETATM   21  C   UNL     1      -9.945   7.089  67.613  1.00  0.00    -0.194 A  
HETATM   22 BR   UNL     1      -8.672   9.579  64.523  1.00  0.00    -0.243 Br 
HETATM   23  C   UNL     1      -8.747   8.540  66.097  1.00  0.00    -0.152 A  
ENDBRANCH  12  17
BRANCH  13  24
HETATM   24  O   UNL     1     -10.690   6.956  70.557  1.00  0.00    -0.222 OA 
BRANCH  24  25
HETATM   25  C   UNL     1     -10.969   7.712  71.735  1.00  0.00    -0.239 C  
BRANCH  25  26
HETATM   26  C   UNL     1     -10.960   9.187  71.333  1.00  0.00    -0.344 C  
BRANCH  26  27
HETATM   27  O   UNL     1     -11.055   9.308  69.916  1.00  0.00    -0.236 OA 
BRANCH  27  28
HETATM   28  C   UNL     1     -10.156  10.217  69.394  1.00  0.00    -0.231 A  
HETATM   29  N   UNL     1     -10.571  11.149  68.516  1.00  0.00    -0.181 NA 
HETATM   30  C   UNL     1      -9.623  11.997  68.060  1.00  0.00    -0.199 A  
HETATM   31  C   UNL     1      -8.304  11.942  68.445  1.00  0.00    -0.157 A  
HETATM   32  C   UNL     1      -7.992  10.947  69.341  1.00  0.00    -0.017 A  
HETATM   33 BR   UNL     1      -7.017  13.143  67.793  1.00  0.00    -0.161 Br 
HETATM   34  N   UNL     1      -8.896  10.071  69.831  1.00  0.00    -0.191 NA 
ENDBRANCH  27  28
ENDBRANCH  26  27
ENDBRANCH  25  26
ENDBRANCH  24  25
ENDBRANCH  13  24
ENDBRANCH   9  11
ENDBRANCH   6   9
ENDBRANCH   4   6
ENDBRANCH   3   4
ENDBRANCH   2   3
TORSDOF 11
ENDMDL
MODEL      228
REMARK 921   NORMALIZED FREE ENERGY PREDICTED BY IDOCK:   -3.07 KCAL/MOL
REMARK 922        TOTAL FREE ENERGY PREDICTED BY IDOCK:   -6.46 KCAL/MOL
REMARK 923 INTER-LIGAND FREE ENERGY PREDICTED BY IDOCK:   -5.76 KCAL/MOL
REMARK 924 INTRA-LIGAND FREE ENERGY PREDICTED BY IDOCK:   -0.70 KCAL/MOL
REMARK 927      BINDING AFFINITY PREDICTED BY RF-SCORE:    0.00 PKD
ROOT
HETATM    1  C   UNL     1      -9.633   2.338  70.588  1.00  0.00    -0.149 C  
HETATM    2  C   UNL     1      -9.267   3.320  69.487  1.00  0.00    -0.225 C  
ENDROOT
BRANCH   2   3
HETATM    3  C   UNL     1      -9.313   4.766  69.966  1.00  0.00    -0.146 C  
BRANCH   3   4
HETATM    4  N   UNL     1      -7.942   5.348  69.936  1.00  0.00    -0.080 N  
HETATM    5  H   UNL     1      -7.087   4.793  69.940  1.00  0.00     0.000 HD 
BRANCH   4   6
HETATM    6  S   UNL     1      -7.971   7.025  69.895  1.00  0.00    -0.125 S  
HETATM    7  O   UNL     1      -9.291   7.362  69.408  1.00  0.00    -0.155 OA 
HETATM    8  O   UNL     1      -7.477   7.527  71.149  1.00  0.00    -0.077 OA 
BRANCH   6   9
HETATM    9  N   UNL     1      -6.902   7.363  68.650  1.00  0.00    -0.070 N  
HETATM   10  H   UNL     1      -5.894   7.404  68.802  1.00  0.00     0.000 HD 
BRANCH   9  11
HETATM   11  C   UNL     1      -7.476   7.588  67.377  1.00  0.00    -0.104 A  
HETATM   12  C   UNL     1      -7.602   8.851  66.784  1.00  0.00    -0.086 A  
HETATM   13  C   UNL     1      -8.083   8.737  65.471  1.00  0.00    -0.115 A  
HETATM   14  N   UNL     1      -7.877   6.416  66.847  1.00  0.00    -0.103 NA 
HETATM   15  N   UNL     1      -8.463   7.586  64.873  1.00  0.00    -0.028 NA 
HETATM   16  C   UNL     1      -8.354   6.480  65.606  1.00  0.00    -0.144 A  
BRANCH  12  17
HETATM   17  C   UNL     1      -7.319  10.178  67.442  1.00  0.00    -0.089 A  
HETATM   18  C   UNL     1      -6.075  10.828  67.379  1.00  0.00    -0.054 A  
HETATM   19  C   UNL     1      -5.843  12.103  67.913  1.00  0.00    -0.069 A  
HETATM   20  C   UNL     1      -8.106  12.168  68.681  1.00  0.00    -0.048 A  
HETATM   21  C   UNL     1      -8.311  10.878  68.164  1.00  0.00    -0.123 A  
HETATM   22 BR   UNL     1      -6.593  14.539  69.168  1.00  0.00    -0.119 Br 
HETATM   23  C   UNL     1      -6.872  12.783  68.537  1.00  0.00    -0.094 A  
ENDBRANCH  12  17
BRANCH  13  24
HETATM   24  O   UNL     1      -8.169   9.891  64.718  1.00  0.00    -0.135 OA 
BRANCH  24  25
HETATM   25  C   UNL     1      -9.409  10.597  64.727  1.00  0.00    -0.233 C  
BRANCH  25  26
HETATM   26  C   UNL     1      -9.522  11.320  63.385  1.00  0.00    -0.293 C  
BRANCH  26  27
HETATM   27  O   UNL     1     -10.714  12.101  63.348  1.00  0.00    -0.430 OA 
BRANCH  27  28
HETATM   28  C   UNL     1     -10.974  12.739  64.545  1.00  0.00    -0.341 A  
HETATM   29  N   UNL     1     -11.483  12.048  65.582  1.00  0.00    -0.339 NA 
HETATM   30  C   UNL     1     -11.703  12.753  66.713  1.00  0.00    -0.392 A  
HETATM   31  C   UNL     1     -11.437  14.097  66.836  1.00  0.00    -0.357 A  
HETATM   32  C   UNL     1     -10.924  14.702  65.713  1.00  0.00    -0.330 A  
HETATM   33 BR   UNL     1     -11.750  15.040  68.428  1.00  0.00    -0.314 Br 
HETATM   34  N   UNL     1     -10.684  14.049  64.555  1.00  0.00    -0.391 NA 
ENDBRANCH  27  28
ENDBRANCH  26  27
ENDBRANCH  25  26
ENDBRANCH  24  25
ENDBRANCH  13  24
ENDBRANCH   9  11
ENDBRANCH   6   9
ENDBRANCH   4   6
ENDBRANCH   3   4
ENDBRANCH   2   3
TORSDOF 11
ENDMDL
MODEL      229
REMARK 921   NORMALIZED FREE ENERGY PREDICTED BY IDOCK:   -3.02 KCAL/MOL
REMARK 922        TOTAL FREE ENERGY PREDICTED BY IDOCK:   -6.38 KCAL/MOL
REMARK 923 INTER-LIGAND FREE ENERGY PREDICTED BY IDOCK:   -4.93 KCAL/MOL
REMARK 924 INTRA-LIGAND FREE ENERGY PREDICTED BY IDOCK:   -1.45 KCAL/MOL
REMARK 927      BINDING AFFINITY PREDICTED BY RF-SCORE:    0.00 PKD
ROOT
HETATM    1  C   UNL     1     -10.581   5.407  69.658  1.00  0.00    -0.328 C  
HETATM    2  C   UNL     1     -11.155   6.373  68.633  1.00  0.00    -0.393 C  
ENDROOT
BRANCH   2   3
HETATM    3  C   UNL     1     -10.228   6.561  67.438  1.00  0.00    -0.177 C  
BRANCH   3   4
HETATM    4  N   UNL     1      -8.824   6.267  67.841  1.00  0.00    -0.113 N  
HETATM    5  H   UNL     1      -8.567   5.782  68.701  1.00  0.00     0.000 HD 
BRANCH   4   6
HETATM    6  S   UNL     1      -7.715   6.827  66.715  1.00  0.00    -0.107 S  
HETATM    7  O   UNL     1      -7.229   5.638  66.048  1.00  0.00    -0.070 OA 
HETATM    8  O   UNL     1      -8.308   7.915  65.984  1.00  0.00    -0.114 OA 
BRANCH   6   9
HETATM    9  N   UNL     1      -6.467   7.369  67.692  1.00  0.00    -0.054 N  
HETATM   10  H   UNL     1      -5.873   6.725  68.214  1.00  0.00     0.000 HD 
BRANCH   9  11
HETATM   11  C   UNL     1      -6.284   8.771  67.752  1.00  0.00    -0.056 A  
HETATM   12  C   UNL     1      -6.666   9.568  68.839  1.00  0.00    -0.051 A  
HETATM   13  C   UNL     1      -6.233  10.890  68.662  1.00  0.00    -0.043 A  
HETATM   14  N   UNL     1      -5.701   9.200  66.615  1.00  0.00    -0.049 NA 
HETATM   15  N   UNL     1      -5.608  11.370  67.564  1.00  0.00    -0.050 NA 
HETATM   16  C   UNL     1      -5.390  10.494  66.584  1.00  0.00    -0.048 A  
BRANCH  12  17
HETATM   17  C   UNL     1      -7.475   9.122  70.031  1.00  0.00    -0.077 A  
HETATM   18  C   UNL     1      -8.800   9.525  70.267  1.00  0.00    -0.281 A  
HETATM   19  C   UNL     1      -9.579   9.038  71.325  1.00  0.00    -0.361 A  
HETATM   20  C   UNL     1      -7.722   7.718  72.052  1.00  0.00    -0.100 A  
HETATM   21  C   UNL     1      -6.949   8.239  71.000  1.00  0.00    -0.054 A  
HETATM   22 BR   UNL     1     -10.118   7.373  73.564  1.00  0.00    -0.381 Br 
HETATM   23  C   UNL     1      -9.043   8.108  72.198  1.00  0.00    -0.186 A  
ENDBRANCH  12  17
BRANCH  13  24
HETATM   24  O   UNL     1      -6.448  11.778  69.696  1.00  0.00    -0.120 OA 
BRANCH  24  25
HETATM   25  C   UNL     1      -7.145  12.987  69.396  1.00  0.00     0.179 C  
BRANCH  25  26
HETATM   26  C   UNL     1      -6.191  14.142  69.703  1.00  0.00    -0.126 C  
BRANCH  26  27
HETATM   27  O   UNL     1      -5.889  14.858  68.508  1.00  0.00    -0.087 OA 
BRANCH  27  28
HETATM   28  C   UNL     1      -6.931  15.661  68.087  1.00  0.00    -0.120 A  
HETATM   29  N   UNL     1      -7.454  16.580  68.919  1.00  0.00    -0.214 NA 
HETATM   30  C   UNL     1      -8.468  17.322  68.421  1.00  0.00    -0.254 A  
HETATM   31  C   UNL     1      -8.963  17.175  67.147  1.00  0.00    -0.228 A  
HETATM   32  C   UNL     1      -8.357  16.203  66.387  1.00  0.00    -0.322 A  
HETATM   33 BR   UNL     1     -10.369  18.230  66.490  1.00  0.00    -0.403 Br 
HETATM   34  N   UNL     1      -7.342  15.431  66.831  1.00  0.00    -0.143 NA 
ENDBRANCH  27  28
ENDBRANCH  26  27
ENDBRANCH  25  26
ENDBRANCH  24  25
ENDBRANCH  13  24
ENDBRANCH   9  11
ENDBRANCH   6   9
ENDBRANCH   4   6
ENDBRANCH   3   4
ENDBRANCH   2   3
TORSDOF 11
ENDMDL
MODEL      230
REMARK 921   NORMALIZED FREE ENERGY PREDICTED BY IDOCK:   -3.02 KCAL/MOL
REMARK 922        TOTAL FREE ENERGY PREDICTED BY IDOCK:   -6.37 KCAL/MOL
REMARK 923 INTER-LIGAND FREE ENERGY PREDICTED BY IDOCK:   -5.52 KCAL/MOL
REMARK 924 INTRA-LIGAND FREE ENERGY PREDICTED BY IDOCK:   -0.85 KCAL/MOL
REMARK 927      BINDING AFFINITY PREDICTED BY RF-SCORE:    0.00 PKD
ROOT
HETATM    1  C   UNL     1     -10.258  15.745  66.842  1.00  0.00    -0.280 C  
HETATM    2  C   UNL     1     -10.322  14.972  68.149  1.00  0.00    -0.239 C  
ENDROOT
BRANCH   2   3
HETATM    3  C   UNL     1      -8.969  14.912  68.849  1.00  0.00    -0.184 C  
BRANCH   3   4
HETATM    4  N   UNL     1      -8.518  13.495  68.948  1.00  0.00    -0.360 N  
HETATM    5  H   UNL     1      -9.086  12.742  69.334  1.00  0.00     0.000 HD 
BRANCH   4   6
HETATM    6  S   UNL     1      -6.965  13.286  68.349  1.00  0.00    -0.117 S  
HETATM    7  O   UNL     1      -6.986  13.897  67.038  1.00  0.00    -0.014 OA 
HETATM    8  O   UNL     1      -6.022  13.693  69.357  1.00  0.00    -0.088 OA 
BRANCH   6   9
HETATM    9  N   UNL     1      -6.904  11.631  68.104  1.00  0.00    -0.065 N  
HETATM   10  H   UNL     1      -6.293  11.212  67.402  1.00  0.00     0.000 HD 
BRANCH   9  11
HETATM   11  C   UNL     1      -7.748  10.845  68.924  1.00  0.00    -0.135 A  
HETATM   12  C   UNL     1      -9.045  10.453  68.571  1.00  0.00    -0.145 A  
HETATM   13  C   UNL     1      -9.576   9.573  69.525  1.00  0.00    -0.188 A  
HETATM   14  N   UNL     1      -7.113  10.551  70.076  1.00  0.00    -0.155 NA 
HETATM   15  N   UNL     1      -8.971   9.209  70.678  1.00  0.00    -0.226 NA 
HETATM   16  C   UNL     1      -7.768   9.737  70.901  1.00  0.00     0.298 A  
BRANCH  12  17
HETATM   17  C   UNL     1      -9.823  10.924  67.367  1.00  0.00    -0.199 A  
HETATM   18  C   UNL     1      -9.558  10.499  66.054  1.00  0.00    -0.242 A  
HETATM   19  C   UNL     1     -10.341  10.867  64.951  1.00  0.00    -0.371 A  
HETATM   20  C   UNL     1     -11.715  12.186  66.396  1.00  0.00    -0.394 A  
HETATM   21  C   UNL     1     -10.902  11.828  67.485  1.00  0.00    -0.286 A  
HETATM   22 BR   UNL     1     -12.554  12.104  63.669  1.00  0.00    -0.538 Br 
HETATM   23  C   UNL     1     -11.439  11.687  65.133  1.00  0.00    -0.111 A  
ENDBRANCH  12  17
BRANCH  13  24
HETATM   24  O   UNL     1     -10.813   9.018  69.267  1.00  0.00    -0.206 OA 
BRANCH  24  25
HETATM   25  C   UNL     1     -10.868   7.617  69.000  1.00  0.00    -0.040 C  
BRANCH  25  26
HETATM   26  C   UNL     1     -11.284   6.930  70.301  1.00  0.00    -0.316 C  
BRANCH  26  27
HETATM   27  O   UNL     1     -10.925   5.551  70.263  1.00  0.00    -0.269 OA 
BRANCH  27  28
HETATM   28  C   UNL     1      -9.611   5.349  69.892  1.00  0.00    -0.168 A  
HETATM   29  N   UNL     1      -9.324   4.681  68.759  1.00  0.00    -0.130 NA 
HETATM   30  C   UNL     1      -8.011   4.533  68.474  1.00  0.00    -0.079 A  
HETATM   31  C   UNL     1      -7.000   5.021  69.270  1.00  0.00    -0.055 A  
HETATM   32  C   UNL     1      -7.409   5.682  70.404  1.00  0.00    -0.079 A  
HETATM   33 BR   UNL     1      -5.188   4.801  68.836  1.00  0.00    -0.004 Br 
HETATM   34  N   UNL     1      -8.705   5.860  70.740  1.00  0.00    -0.133 NA 
ENDBRANCH  27  28
ENDBRANCH  26  27
ENDBRANCH  25  26
ENDBRANCH  24  25
ENDBRANCH  13  24
ENDBRANCH   9  11
ENDBRANCH   6   9
ENDBRANCH   4   6
ENDBRANCH   3   4
ENDBRANCH   2   3
TORSDOF 11
ENDMDL
MODEL      231
REMARK 921   NORMALIZED FREE ENERGY PREDICTED BY IDOCK:   -2.98 KCAL/MOL
REMARK 922        TOTAL FREE ENERGY PREDICTED BY IDOCK:   -6.31 KCAL/MOL
REMARK 923 INTER-LIGAND FREE ENERGY PREDICTED BY IDOCK:   -5.84 KCAL/MOL
REMARK 924 INTRA-LIGAND FREE ENERGY PREDICTED BY IDOCK:   -0.47 KCAL/MOL
REMARK 927      BINDING AFFINITY PREDICTED BY RF-SCORE:    0.00 PKD
ROOT
HETATM    1  C   UNL     1     -10.314   3.933  64.572  1.00  0.00    -0.231 C  
HETATM    2  C   UNL     1      -9.897   4.371  65.967  1.00  0.00    -0.241 C  
ENDROOT
BRANCH   2   3
HETATM    3  C   UNL     1      -9.334   3.217  66.787  1.00  0.00    -0.124 C  
BRANCH   3   4
HETATM    4  N   UNL     1      -9.017   3.689  68.165  1.00  0.00    -0.117 N  
HETATM    5  H   UNL     1      -9.722   3.939  68.858  1.00  0.00     0.000 HD 
BRANCH   4   6
HETATM    6  S   UNL     1      -7.364   3.763  68.440  1.00  0.00    -0.054 S  
HETATM    7  O   UNL     1      -7.188   3.260  69.786  1.00  0.00    -0.041 OA 
HETATM    8  O   UNL     1      -6.682   3.175  67.319  1.00  0.00    -0.043 OA 
BRANCH   6   9
HETATM    9  N   UNL     1      -7.094   5.415  68.509  1.00  0.00    -0.061 N  
HETATM   10  H   UNL     1      -6.257   5.841  68.109  1.00  0.00     0.000 HD 
BRANCH   9  11
HETATM   11  C   UNL     1      -8.091   6.186  69.152  1.00  0.00    -0.109 A  
HETATM   12  C   UNL     1      -8.833   7.194  68.523  1.00  0.00    -0.125 A  
HETATM   13  C   UNL     1      -9.833   7.681  69.377  1.00  0.00    -0.171 A  
HETATM   14  N   UNL     1      -8.199   5.802  70.439  1.00  0.00    -0.105 NA 
HETATM   15  N   UNL     1     -10.016   7.306  70.663  1.00  0.00    -0.186 NA 
HETATM   16  C   UNL     1      -9.171   6.391  71.134  1.00  0.00    -0.156 A  
BRANCH  12  17
HETATM   17  C   UNL     1      -8.596   7.746  67.139  1.00  0.00    -0.128 A  
HETATM   18  C   UNL     1      -9.517   8.559  66.458  1.00  0.00    -0.282 A  
HETATM   19  C   UNL     1      -9.255   9.145  65.212  1.00  0.00    -0.243 A  
HETATM   20  C   UNL     1      -7.108   8.092  65.194  1.00  0.00    -0.063 A  
HETATM   21  C   UNL     1      -7.401   7.491  66.431  1.00  0.00    -0.083 A  
HETATM   22 BR   UNL     1      -7.637   9.800  62.970  1.00  0.00    -0.132 Br 
HETATM   23  C   UNL     1      -8.034   8.933  64.598  1.00  0.00    -0.132 A  
ENDBRANCH  12  17
BRANCH  13  24
HETATM   24  O   UNL     1     -10.714   8.612  68.866  1.00  0.00    -0.187 OA 
BRANCH  24  25
HETATM   25  C   UNL     1     -11.398   9.456  69.794  1.00  0.00    -0.042 C  
BRANCH  25  26
HETATM   26  C   UNL     1     -11.446  10.854  69.177  1.00  0.00    -0.303 C  
BRANCH  26  27
HETATM   27  O   UNL     1     -11.337  10.766  67.759  1.00  0.00    -0.358 OA 
BRANCH  27  28
HETATM   28  C   UNL     1     -11.120  11.991  67.161  1.00  0.00    -0.290 A  
HETATM   29  N   UNL     1     -11.860  12.367  66.102  1.00  0.00    -0.540 NA 
HETATM   30  C   UNL     1     -11.580  13.583  65.583  1.00  0.00    -0.325 A  
HETATM   31  C   UNL     1     -10.603  14.414  66.079  1.00  0.00    -0.302 A  
HETATM   32  C   UNL     1      -9.906  13.927  67.158  1.00  0.00    -0.241 A  
HETATM   33 BR   UNL     1     -10.248  16.100  65.334  1.00  0.00    -0.209 Br 
HETATM   34  N   UNL     1     -10.141  12.721  67.718  1.00  0.00    -0.219 NA 
ENDBRANCH  27  28
ENDBRANCH  26  27
ENDBRANCH  25  26
ENDBRANCH  24  25
ENDBRANCH  13  24
ENDBRANCH   9  11
ENDBRANCH   6   9
ENDBRANCH   4   6
ENDBRANCH   3   4
ENDBRANCH   2   3
TORSDOF 11
ENDMDL
MODEL      232
REMARK 921   NORMALIZED FREE ENERGY PREDICTED BY IDOCK:   -2.96 KCAL/MOL
REMARK 922        TOTAL FREE ENERGY PREDICTED BY IDOCK:   -6.28 KCAL/MOL
REMARK 923 INTER-LIGAND FREE ENERGY PREDICTED BY IDOCK:   -5.13 KCAL/MOL
REMARK 924 INTRA-LIGAND FREE ENERGY PREDICTED BY IDOCK:   -1.15 KCAL/MOL
REMARK 927      BINDING AFFINITY PREDICTED BY RF-SCORE:    0.00 PKD
ROOT
HETATM    1  C   UNL     1      -7.255   3.893  71.875  1.00  0.00    -0.057 C  
HETATM    2  C   UNL     1      -6.203   4.722  72.595  1.00  0.00    -0.026 C  
ENDROOT
BRANCH   2   3
HETATM    3  C   UNL     1      -6.773   6.027  73.140  1.00  0.00    -0.074 C  
BRANCH   3   4
HETATM    4  N   UNL     1      -5.997   7.178  72.598  1.00  0.00    -0.041 N  
HETATM    5  H   UNL     1      -4.984   7.269  72.673  1.00  0.00     0.000 HD 
BRANCH   4   6
HETATM    6  S   UNL     1      -6.987   8.306  71.849  1.00  0.00    -0.090 S  
HETATM    7  O   UNL     1      -8.006   8.616  72.829  1.00  0.00    -0.370 OA 
HETATM    8  O   UNL     1      -6.162   9.331  71.267  1.00  0.00    -0.074 OA 
BRANCH   6   9
HETATM    9  N   UNL     1      -7.730   7.387  70.662  1.00  0.00    -0.090 N  
HETATM   10  H   UNL     1      -8.008   6.419  70.826  1.00  0.00     0.000 HD 
BRANCH   9  11
HETATM   11  C   UNL     1      -7.949   8.028  69.420  1.00  0.00    -0.116 A  
HETATM   12  C   UNL     1      -9.116   8.731  69.094  1.00  0.00    -0.141 A  
HETATM   13  C   UNL     1      -8.983   9.366  67.851  1.00  0.00    -0.123 A  
HETATM   14  N   UNL     1      -6.879   7.847  68.622  1.00  0.00    -0.061 NA 
HETATM   15  N   UNL     1      -7.919   9.255  67.025  1.00  0.00    -0.102 NA 
HETATM   16  C   UNL     1      -6.922   8.481  67.451  1.00  0.00    -0.078 A  
BRANCH  12  17
HETATM   17  C   UNL     1     -10.383   8.787  69.911  1.00  0.00    -0.212 A  
HETATM   18  C   UNL     1     -11.115   7.649  70.290  1.00  0.00    -0.256 A  
HETATM   19  C   UNL     1     -12.239   7.697  71.126  1.00  0.00    -0.310 A  
HETATM   20  C   UNL     1     -12.026  10.076  71.235  1.00  0.00    -0.483 A  
HETATM   21  C   UNL     1     -10.918  10.010  70.374  1.00  0.00    -0.384 A  
HETATM   22 BR   UNL     1     -14.123   8.974  72.827  1.00  0.00     0.015 Br 
HETATM   23  C   UNL     1     -12.672   8.913  71.622  1.00  0.00    -0.349 A  
ENDBRANCH  12  17
BRANCH  13  24
HETATM   24  O   UNL     1     -10.015  10.182  67.434  1.00  0.00    -0.179 OA 
BRANCH  24  25
HETATM   25  C   UNL     1      -9.672  11.370  66.719  1.00  0.00    -0.198 C  
BRANCH  25  26
HETATM   26  C   UNL     1      -9.176  12.384  67.750  1.00  0.00    -0.193 C  
BRANCH  26  27
HETATM   27  O   UNL     1      -7.803  12.688  67.516  1.00  0.00    -0.152 OA 
BRANCH  27  28
HETATM   28  C   UNL     1      -7.448  13.943  67.966  1.00  0.00    -0.135 A  
HETATM   29  N   UNL     1      -7.058  14.890  67.092  1.00  0.00    -0.188 NA 
HETATM   30  C   UNL     1      -6.731  16.089  67.623  1.00  0.00    -0.163 A  
HETATM   31  C   UNL     1      -6.779  16.363  68.970  1.00  0.00    -0.192 A  
HETATM   32  C   UNL     1      -7.185  15.322  69.770  1.00  0.00    -0.146 A  
HETATM   33 BR   UNL     1      -6.322  18.045  69.668  1.00  0.00    -0.116 Br 
HETATM   34  N   UNL     1      -7.524  14.103  69.297  1.00  0.00    -0.042 NA 
ENDBRANCH  27  28
ENDBRANCH  26  27
ENDBRANCH  25  26
ENDBRANCH  24  25
ENDBRANCH  13  24
ENDBRANCH   9  11
ENDBRANCH   6   9
ENDBRANCH   4   6
ENDBRANCH   3   4
ENDBRANCH   2   3
TORSDOF 11
ENDMDL
MODEL      233
REMARK 921   NORMALIZED FREE ENERGY PREDICTED BY IDOCK:   -2.96 KCAL/MOL
REMARK 922        TOTAL FREE ENERGY PREDICTED BY IDOCK:   -6.28 KCAL/MOL
REMARK 923 INTER-LIGAND FREE ENERGY PREDICTED BY IDOCK:   -5.38 KCAL/MOL
REMARK 924 INTRA-LIGAND FREE ENERGY PREDICTED BY IDOCK:   -0.90 KCAL/MOL
REMARK 927      BINDING AFFINITY PREDICTED BY RF-SCORE:    0.00 PKD
ROOT
HETATM    1  C   UNL     1      -9.734  19.632  68.709  1.00  0.00    -0.488 C  
HETATM    2  C   UNL     1     -10.163  19.054  67.370  1.00  0.00    -0.473 C  
ENDROOT
BRANCH   2   3
HETATM    3  C   UNL     1     -10.642  17.612  67.493  1.00  0.00    -0.343 C  
BRANCH   3   4
HETATM    4  N   UNL     1     -10.076  16.999  68.728  1.00  0.00    -0.289 N  
HETATM    5  H   UNL     1      -9.856  17.523  69.575  1.00  0.00     0.000 HD 
BRANCH   4   6
HETATM    6  S   UNL     1      -9.842  15.347  68.559  1.00  0.00    -0.213 S  
HETATM    7  O   UNL     1      -9.188  15.192  67.278  1.00  0.00    -0.189 OA 
HETATM    8  O   UNL     1      -9.260  14.836  69.771  1.00  0.00     0.103 OA 
BRANCH   6   9
HETATM    9  N   UNL     1     -11.410  14.790  68.365  1.00  0.00    -0.285 N  
HETATM   10  H   UNL     1     -12.057  15.222  67.706  1.00  0.00     0.000 HD 
BRANCH   9  11
HETATM   11  C   UNL     1     -11.786  13.687  69.168  1.00  0.00    -0.329 A  
HETATM   12  C   UNL     1     -11.752  12.354  68.738  1.00  0.00    -0.379 A  
HETATM   13  C   UNL     1     -12.051  11.483  69.795  1.00  0.00    -0.306 A  
HETATM   14  N   UNL     1     -12.178  14.122  70.381  1.00  0.00    -0.334 NA 
HETATM   15  N   UNL     1     -12.411  11.859  71.042  1.00  0.00    -0.348 NA 
HETATM   16  C   UNL     1     -12.473  13.171  71.265  1.00  0.00    -0.232 A  
BRANCH  12  17
HETATM   17  C   UNL     1     -11.484  11.876  67.332  1.00  0.00    -0.393 A  
HETATM   18  C   UNL     1     -12.390  12.039  66.270  1.00  0.00     0.734 A  
HETATM   19  C   UNL     1     -12.101  11.677  64.947  1.00  0.00     0.178 A  
HETATM   20  C   UNL     1      -9.956  10.892  65.655  1.00  0.00    -0.305 A  
HETATM   21  C   UNL     1     -10.275  11.236  66.980  1.00  0.00    -0.250 A  
HETATM   22 BR   UNL     1     -10.435  10.735  62.846  1.00  0.00     0.532 Br 
HETATM   23  C   UNL     1     -10.868  11.131  64.640  1.00  0.00    -0.225 A  
ENDBRANCH  12  17
BRANCH  13  24
HETATM   24  O   UNL     1     -11.961  10.127  69.553  1.00  0.00    -0.089 OA 
BRANCH  24  25
HETATM   25  C   UNL     1     -10.936   9.400  70.231  1.00  0.00    -0.262 C  
BRANCH  25  26
HETATM   26  C   UNL     1      -9.740   9.322  69.282  1.00  0.00    -0.169 C  
BRANCH  26  27
HETATM   27  O   UNL     1      -8.923   8.203  69.616  1.00  0.00    -0.151 OA 
BRANCH  27  28
HETATM   28  C   UNL     1      -8.821   7.287  68.588  1.00  0.00    -0.129 A  
HETATM   29  N   UNL     1      -8.529   6.001  68.855  1.00  0.00    -0.116 NA 
HETATM   30  C   UNL     1      -8.452   5.176  67.788  1.00  0.00    -0.104 A  
HETATM   31  C   UNL     1      -8.652   5.589  66.491  1.00  0.00    -0.118 A  
HETATM   32  C   UNL     1      -8.939   6.924  66.335  1.00  0.00    -0.153 A  
HETATM   33 BR   UNL     1      -8.543   4.410  65.035  1.00  0.00    -0.134 Br 
HETATM   34  N   UNL     1      -9.028   7.795  67.363  1.00  0.00    -0.123 NA 
ENDBRANCH  27  28
ENDBRANCH  26  27
ENDBRANCH  25  26
ENDBRANCH  24  25
ENDBRANCH  13  24
ENDBRANCH   9  11
ENDBRANCH   6   9
ENDBRANCH   4   6
ENDBRANCH   3   4
ENDBRANCH   2   3
TORSDOF 11
ENDMDL
MODEL      234
REMARK 921   NORMALIZED FREE ENERGY PREDICTED BY IDOCK:   -2.95 KCAL/MOL
REMARK 922        TOTAL FREE ENERGY PREDICTED BY IDOCK:   -6.27 KCAL/MOL
REMARK 923 INTER-LIGAND FREE ENERGY PREDICTED BY IDOCK:   -4.37 KCAL/MOL
REMARK 924 INTRA-LIGAND FREE ENERGY PREDICTED BY IDOCK:   -1.90 KCAL/MOL
REMARK 927      BINDING AFFINITY PREDICTED BY RF-SCORE:    0.00 PKD
ROOT
HETATM    1  C   UNL     1     -10.101   7.927  67.053  1.00  0.00    -0.347 C  
HETATM    2  C   UNL     1      -8.651   7.469  67.020  1.00  0.00    -0.122 C  
ENDROOT
BRANCH   2   3
HETATM    3  C   UNL     1      -8.392   6.461  65.907  1.00  0.00    -0.143 C  
BRANCH   3   4
HETATM    4  N   UNL     1      -8.080   5.129  66.501  1.00  0.00    -0.108 N  
HETATM    5  H   UNL     1      -7.202   4.905  66.967  1.00  0.00     0.000 HD 
BRANCH   4   6
HETATM    6  S   UNL     1      -9.344   4.044  66.310  1.00  0.00    -0.186 S  
HETATM    7  O   UNL     1     -10.204   4.646  65.314  1.00  0.00    -0.168 OA 
HETATM    8  O   UNL     1      -8.799   2.724  66.139  1.00  0.00    -0.129 OA 
BRANCH   6   9
HETATM    9  N   UNL     1     -10.144   4.178  67.775  1.00  0.00     0.043 N  
HETATM   10  H   UNL     1     -11.089   4.559  67.840  1.00  0.00     0.000 HD 
BRANCH   9  11
HETATM   11  C   UNL     1      -9.437   3.733  68.917  1.00  0.00    -0.153 A  
HETATM   12  C   UNL     1      -9.406   4.419  70.139  1.00  0.00    -0.225 A  
HETATM   13  C   UNL     1      -8.737   3.665  71.114  1.00  0.00    -0.078 A  
HETATM   14  N   UNL     1      -8.810   2.574  68.638  1.00  0.00    -0.092 NA 
HETATM   15  N   UNL     1      -8.124   2.479  70.904  1.00  0.00    -0.049 NA 
HETATM   16  C   UNL     1      -8.180   2.002  69.662  1.00  0.00    -0.044 A  
BRANCH  12  17
HETATM   17  C   UNL     1      -9.956   5.798  70.403  1.00  0.00    -0.257 A  
HETATM   18  C   UNL     1      -9.153   6.942  70.548  1.00  0.00    -0.156 A  
HETATM   19  C   UNL     1      -9.671   8.235  70.701  1.00  0.00    -0.191 A  
HETATM   20  C   UNL     1     -11.883   7.331  70.632  1.00  0.00    -0.290 A  
HETATM   21  C   UNL     1     -11.344   6.039  70.507  1.00  0.00    -0.310 A  
HETATM   22 BR   UNL     1     -11.744  10.175  70.815  1.00  0.00    -0.476 Br 
HETATM   23  C   UNL     1     -11.040   8.427  70.711  1.00  0.00    -0.258 A  
ENDBRANCH  12  17
BRANCH  13  24
HETATM   24  O   UNL     1      -8.709   4.164  72.401  1.00  0.00    -0.105 OA 
BRANCH  24  25
HETATM   25  C   UNL     1      -7.838   3.529  73.338  1.00  0.00    -0.070 C  
BRANCH  25  26
HETATM   26  C   UNL     1      -6.442   4.115  73.119  1.00  0.00    -0.040 C  
BRANCH  26  27
HETATM   27  O   UNL     1      -6.274   5.287  73.911  1.00  0.00    -0.053 OA 
BRANCH  27  28
HETATM   28  C   UNL     1      -6.160   6.435  73.152  1.00  0.00    -0.058 A  
HETATM   29  N   UNL     1      -6.603   7.610  73.635  1.00  0.00    -0.074 NA 
HETATM   30  C   UNL     1      -6.449   8.681  72.824  1.00  0.00    -0.037 A  
HETATM   31  C   UNL     1      -5.880   8.612  71.574  1.00  0.00    -0.047 A  
HETATM   32  C   UNL     1      -5.469   7.361  71.181  1.00  0.00    -0.027 A  
HETATM   33 BR   UNL     1      -5.678  10.124  70.480  1.00  0.00    -0.089 Br 
HETATM   34  N   UNL     1      -5.597   6.256  71.947  1.00  0.00    -0.030 NA 
ENDBRANCH  27  28
ENDBRANCH  26  27
ENDBRANCH  25  26
ENDBRANCH  24  25
ENDBRANCH  13  24
ENDBRANCH   9  11
ENDBRANCH   6   9
ENDBRANCH   4   6
ENDBRANCH   3   4
ENDBRANCH   2   3
TORSDOF 11
ENDMDL
MODEL      235
REMARK 921   NORMALIZED FREE ENERGY PREDICTED BY IDOCK:   -2.92 KCAL/MOL
REMARK 922        TOTAL FREE ENERGY PREDICTED BY IDOCK:   -6.22 KCAL/MOL
REMARK 923 INTER-LIGAND FREE ENERGY PREDICTED BY IDOCK:   -6.45 KCAL/MOL
REMARK 924 INTRA-LIGAND FREE ENERGY PREDICTED BY IDOCK:    0.23 KCAL/MOL
REMARK 927      BINDING AFFINITY PREDICTED BY RF-SCORE:    0.00 PKD
ROOT
HETATM    1  C   UNL     1     -10.375  20.405  69.590  1.00  0.00     0.280 C  
HETATM    2  C   UNL     1      -9.416  19.876  68.536  1.00  0.00    -0.335 C  
ENDROOT
BRANCH   2   3
HETATM    3  C   UNL     1      -9.738  20.410  67.146  1.00  0.00    -0.460 C  
BRANCH   3   4
HETATM    4  N   UNL     1     -10.394  19.342  66.338  1.00  0.00    -0.444 N  
HETATM    5  H   UNL     1     -10.974  19.523  65.519  1.00  0.00     0.000 HD 
BRANCH   4   6
HETATM    6  S   UNL     1     -10.066  17.810  66.936  1.00  0.00    -0.357 S  
HETATM    7  O   UNL     1      -8.700  17.880  67.411  1.00  0.00    -0.233 OA 
HETATM    8  O   UNL     1     -11.145  17.409  67.798  1.00  0.00    -0.240 OA 
BRANCH   6   9
HETATM    9  N   UNL     1     -10.039  16.888  65.539  1.00  0.00    -0.134 N  
HETATM   10  H   UNL     1      -9.633  17.237  64.670  1.00  0.00     0.000 HD 
BRANCH   9  11
HETATM   11  C   UNL     1     -10.611  15.596  65.630  1.00  0.00    -0.378 A  
HETATM   12  C   UNL     1     -10.196  14.616  66.541  1.00  0.00    -0.282 A  
HETATM   13  C   UNL     1     -11.038  13.496  66.483  1.00  0.00    -0.300 A  
HETATM   14  N   UNL     1     -11.590  15.469  64.713  1.00  0.00    -0.313 NA 
HETATM   15  N   UNL     1     -12.060  13.328  65.614  1.00  0.00    -0.414 NA 
HETATM   16  C   UNL     1     -12.271  14.326  64.757  1.00  0.00    -0.443 A  
BRANCH  12  17
HETATM   17  C   UNL     1      -8.991  14.690  67.445  1.00  0.00    -0.202 A  
HETATM   18  C   UNL     1      -9.062  15.000  68.813  1.00  0.00    -0.197 A  
HETATM   19  C   UNL     1      -7.952  14.977  69.668  1.00  0.00    -0.069 A  
HETATM   20  C   UNL     1      -6.566  14.374  67.815  1.00  0.00    -0.189 A  
HETATM   21  C   UNL     1      -7.686  14.430  66.968  1.00  0.00     0.080 A  
HETATM   22 BR   UNL     1      -5.231  14.501  70.335  1.00  0.00    -0.113 Br 
HETATM   23  C   UNL     1      -6.709  14.632  69.169  1.00  0.00    -0.117 A  
ENDBRANCH  12  17
BRANCH  13  24
HETATM   24  O   UNL     1     -10.819  12.482  67.392  1.00  0.00    -0.230 OA 
BRANCH  24  25
HETATM   25  C   UNL     1     -11.154  11.152  66.995  1.00  0.00    -0.273 C  
BRANCH  25  26
HETATM   26  C   UNL     1      -9.856  10.476  66.554  1.00  0.00    -0.206 C  
BRANCH  26  27
HETATM   27  O   UNL     1      -9.557   9.381  67.417  1.00  0.00    -0.139 OA 
BRANCH  27  28
HETATM   28  C   UNL     1      -8.587   9.684  68.351  1.00  0.00    -0.119 A  
HETATM   29  N   UNL     1      -8.615   9.106  69.566  1.00  0.00    -0.131 NA 
HETATM   30  C   UNL     1      -7.624   9.460  70.414  1.00  0.00    -0.145 A  
HETATM   31  C   UNL     1      -6.630  10.355  70.093  1.00  0.00    -0.146 A  
HETATM   32  C   UNL     1      -6.704  10.888  68.827  1.00  0.00    -0.062 A  
HETATM   33 BR   UNL     1      -5.268  10.816  71.297  1.00  0.00    -0.044 Br 
HETATM   34  N   UNL     1      -7.669  10.572  67.937  1.00  0.00    -0.092 NA 
ENDBRANCH  27  28
ENDBRANCH  26  27
ENDBRANCH  25  26
ENDBRANCH  24  25
ENDBRANCH  13  24
ENDBRANCH   9  11
ENDBRANCH   6   9
ENDBRANCH   4   6
ENDBRANCH   3   4
ENDBRANCH   2   3
TORSDOF 11
ENDMDL
MODEL      236
REMARK 921   NORMALIZED FREE ENERGY PREDICTED BY IDOCK:   -2.88 KCAL/MOL
REMARK 922        TOTAL FREE ENERGY PREDICTED BY IDOCK:   -6.15 KCAL/MOL
REMARK 923 INTER-LIGAND FREE ENERGY PREDICTED BY IDOCK:   -5.12 KCAL/MOL
REMARK 924 INTRA-LIGAND FREE ENERGY PREDICTED BY IDOCK:   -1.03 KCAL/MOL
REMARK 927      BINDING AFFINITY PREDICTED BY RF-SCORE:    0.00 PKD
ROOT
HETATM    1  C   UNL     1     -11.470  15.097  69.133  1.00  0.00    -0.322 C  
HETATM    2  C   UNL     1     -11.149  14.567  67.744  1.00  0.00    -0.295 C  
ENDROOT
BRANCH   2   3
HETATM    3  C   UNL     1      -9.945  15.267  67.126  1.00  0.00    -0.233 C  
BRANCH   3   4
HETATM    4  N   UNL     1      -9.062  14.260  66.471  1.00  0.00    -0.425 N  
HETATM    5  H   UNL     1      -9.200  13.912  65.523  1.00  0.00     0.000 HD 
BRANCH   4   6
HETATM    6  S   UNL     1      -7.815  13.767  67.479  1.00  0.00    -0.167 S  
HETATM    7  O   UNL     1      -6.726  14.678  67.197  1.00  0.00    -0.233 OA 
HETATM    8  O   UNL     1      -8.334  13.600  68.810  1.00  0.00    -0.086 OA 
BRANCH   6   9
HETATM    9  N   UNL     1      -7.388  12.292  66.811  1.00  0.00    -0.381 N  
HETATM   10  H   UNL     1      -6.413  12.021  66.682  1.00  0.00     0.000 HD 
BRANCH   9  11
HETATM   11  C   UNL     1      -8.456  11.442  66.436  1.00  0.00    -0.160 A  
HETATM   12  C   UNL     1      -8.794  10.261  67.110  1.00  0.00    -0.141 A  
HETATM   13  C   UNL     1      -9.974   9.712  66.588  1.00  0.00    -0.236 A  
HETATM   14  N   UNL     1      -9.072  11.942  65.347  1.00  0.00     0.041 NA 
HETATM   15  N   UNL     1     -10.658  10.192  65.525  1.00  0.00    -0.010 NA 
HETATM   16  C   UNL     1     -10.155  11.281  64.946  1.00  0.00    -0.281 A  
BRANCH  12  17
HETATM   17  C   UNL     1      -8.004   9.606  68.215  1.00  0.00    -0.096 A  
HETATM   18  C   UNL     1      -8.243   9.832  69.582  1.00  0.00    -0.163 A  
HETATM   19  C   UNL     1      -7.569   9.152  70.605  1.00  0.00    -0.143 A  
HETATM   20  C   UNL     1      -6.295   7.980  68.957  1.00  0.00    -0.040 A  
HETATM   21  C   UNL     1      -6.962   8.692  67.945  1.00  0.00    -0.078 A  
HETATM   22 BR   UNL     1      -5.778   7.213  71.657  1.00  0.00    -0.037 Br 
HETATM   23  C   UNL     1      -6.616   8.203  70.286  1.00  0.00    -0.036 A  
ENDBRANCH  12  17
BRANCH  13  24
HETATM   24  O   UNL     1     -10.493   8.597  67.213  1.00  0.00    -0.274 OA 
BRANCH  24  25
HETATM   25  C   UNL     1     -10.108   7.317  66.711  1.00  0.00    -0.221 C  
BRANCH  25  26
HETATM   26  C   UNL     1     -10.858   6.269  67.533  1.00  0.00    -0.349 C  
BRANCH  26  27
HETATM   27  O   UNL     1     -10.563   4.962  67.047  1.00  0.00    -0.168 OA 
BRANCH  27  28
HETATM   28  C   UNL     1      -9.416   4.431  67.600  1.00  0.00    -0.165 A  
HETATM   29  N   UNL     1      -9.089   4.710  68.876  1.00  0.00    -0.111 NA 
HETATM   30  C   UNL     1      -7.949   4.144  69.333  1.00  0.00    -0.056 A  
HETATM   31  C   UNL     1      -7.146   3.328  68.571  1.00  0.00    -0.050 A  
HETATM   32  C   UNL     1      -7.574   3.116  67.282  1.00  0.00    -0.074 A  
HETATM   33 BR   UNL     1      -5.574   2.555  69.246  1.00  0.00    -0.018 Br 
HETATM   34  N   UNL     1      -8.702   3.655  66.770  1.00  0.00    -0.114 NA 
ENDBRANCH  27  28
ENDBRANCH  26  27
ENDBRANCH  25  26
ENDBRANCH  24  25
ENDBRANCH  13  24
ENDBRANCH   9  11
ENDBRANCH   6   9
ENDBRANCH   4   6
ENDBRANCH   3   4
ENDBRANCH   2   3
TORSDOF 11
ENDMDL
MODEL      237
REMARK 921   NORMALIZED FREE ENERGY PREDICTED BY IDOCK:   -2.84 KCAL/MOL
REMARK 922        TOTAL FREE ENERGY PREDICTED BY IDOCK:   -6.08 KCAL/MOL
REMARK 923 INTER-LIGAND FREE ENERGY PREDICTED BY IDOCK:   -5.38 KCAL/MOL
REMARK 924 INTRA-LIGAND FREE ENERGY PREDICTED BY IDOCK:   -0.70 KCAL/MOL
REMARK 927      BINDING AFFINITY PREDICTED BY RF-SCORE:    0.00 PKD
ROOT
HETATM    1  C   UNL     1      -9.796   6.782  66.364  1.00  0.00    -0.096 C  
HETATM    2  C   UNL     1      -8.304   7.050  66.241  1.00  0.00    -0.129 C  
ENDROOT
BRANCH   2   3
HETATM    3  C   UNL     1      -7.670   7.399  67.582  1.00  0.00    -0.112 C  
BRANCH   3   4
HETATM    4  N   UNL     1      -7.619   8.880  67.741  1.00  0.00    -0.093 N  
HETATM    5  H   UNL     1      -8.142   9.534  67.160  1.00  0.00     0.000 HD 
BRANCH   4   6
HETATM    6  S   UNL     1      -6.600   9.344  68.990  1.00  0.00    -0.046 S  
HETATM    7  O   UNL     1      -6.471   8.166  69.822  1.00  0.00    -0.036 OA 
HETATM    8  O   UNL     1      -5.450  10.002  68.429  1.00  0.00    -0.039 OA 
BRANCH   6   9
HETATM    9  N   UNL     1      -7.556  10.425  69.839  1.00  0.00    -0.292 N  
HETATM   10  H   UNL     1      -7.184  10.987  70.606  1.00  0.00     0.000 HD 
BRANCH   9  11
HETATM   11  C   UNL     1      -8.908  10.517  69.434  1.00  0.00    -0.075 A  
HETATM   12  C   UNL     1      -9.428  11.561  68.657  1.00  0.00    -0.146 A  
HETATM   13  C   UNL     1     -10.761  11.304  68.307  1.00  0.00    -0.194 A  
HETATM   14  N   UNL     1      -9.597   9.462  69.913  1.00  0.00    -0.196 NA 
HETATM   15  N   UNL     1     -11.490  10.245  68.723  1.00  0.00    -0.168 NA 
HETATM   16  C   UNL     1     -10.868   9.382  69.525  1.00  0.00    -0.213 A  
BRANCH  12  17
HETATM   17  C   UNL     1      -8.707  12.828  68.269  1.00  0.00    -0.168 A  
HETATM   18  C   UNL     1      -7.588  12.857  67.419  1.00  0.00    -0.150 A  
HETATM   19  C   UNL     1      -6.979  14.043  66.987  1.00  0.00     0.657 A  
HETATM   20  C   UNL     1      -8.548  15.296  68.285  1.00  0.00    -0.159 A  
HETATM   21  C   UNL     1      -9.129  14.095  68.729  1.00  0.00    -0.071 A  
HETATM   22 BR   UNL     1      -6.730  16.863  66.741  1.00  0.00    -0.265 Br 
HETATM   23  C   UNL     1      -7.483  15.262  67.399  1.00  0.00    -0.209 A  
ENDBRANCH  12  17
BRANCH  13  24
HETATM   24  O   UNL     1     -11.383  12.196  67.457  1.00  0.00    -0.282 OA 
BRANCH  24  25
HETATM   25  C   UNL     1     -12.381  13.053  68.013  1.00  0.00     0.209 C  
BRANCH  25  26
HETATM   26  C   UNL     1     -12.212  14.422  67.353  1.00  0.00    -0.195 C  
BRANCH  26  27
HETATM   27  O   UNL     1     -12.692  14.382  66.012  1.00  0.00    -0.360 OA 
BRANCH  27  28
HETATM   28  C   UNL     1     -11.935  13.564  65.196  1.00  0.00    -0.368 A  
HETATM   29  N   UNL     1     -10.592  13.593  65.270  1.00  0.00    -0.328 NA 
HETATM   30  C   UNL     1      -9.934  12.758  64.436  1.00  0.00    -0.152 A  
HETATM   31  C   UNL     1     -10.564  11.915  63.550  1.00  0.00    -0.453 A  
HETATM   32  C   UNL     1     -11.938  11.973  63.556  1.00  0.00    -0.507 A  
HETATM   33 BR   UNL     1      -9.615  10.764  62.412  1.00  0.00    -0.087 Br 
HETATM   34  N   UNL     1     -12.648  12.788  64.366  1.00  0.00    -0.658 NA 
ENDBRANCH  27  28
ENDBRANCH  26  27
ENDBRANCH  25  26
ENDBRANCH  24  25
ENDBRANCH  13  24
ENDBRANCH   9  11
ENDBRANCH   6   9
ENDBRANCH   4   6
ENDBRANCH   3   4
ENDBRANCH   2   3
TORSDOF 11
ENDMDL
MODEL      238
REMARK 921   NORMALIZED FREE ENERGY PREDICTED BY IDOCK:   -2.77 KCAL/MOL
REMARK 922        TOTAL FREE ENERGY PREDICTED BY IDOCK:   -5.97 KCAL/MOL
REMARK 923 INTER-LIGAND FREE ENERGY PREDICTED BY IDOCK:   -5.47 KCAL/MOL
REMARK 924 INTRA-LIGAND FREE ENERGY PREDICTED BY IDOCK:   -0.49 KCAL/MOL
REMARK 927      BINDING AFFINITY PREDICTED BY RF-SCORE:    0.00 PKD
ROOT
HETATM    1  C   UNL     1     -10.628  15.193  68.499  1.00  0.00    -0.237 C  
HETATM    2  C   UNL     1      -9.918  15.322  67.161  1.00  0.00    -0.233 C  
ENDROOT
BRANCH   2   3
HETATM    3  C   UNL     1      -8.753  14.348  67.031  1.00  0.00    -0.223 C  
BRANCH   3   4
HETATM    4  N   UNL     1      -8.953  13.483  65.835  1.00  0.00    -0.224 N  
HETATM    5  H   UNL     1      -8.973  13.831  64.876  1.00  0.00     0.000 HD 
BRANCH   4   6
HETATM    6  S   UNL     1      -9.141  11.869  66.250  1.00  0.00    -0.148 S  
HETATM    7  O   UNL     1      -9.858  11.889  67.507  1.00  0.00    -0.185 OA 
HETATM    8  O   UNL     1      -9.640  11.152  65.107  1.00  0.00    -0.218 OA 
BRANCH   6   9
HETATM    9  N   UNL     1      -7.569  11.413  66.605  1.00  0.00    -0.231 N  
HETATM   10  H   UNL     1      -6.829  11.438  65.902  1.00  0.00     0.000 HD 
BRANCH   9  11
HETATM   11  C   UNL     1      -7.324  10.993  67.933  1.00  0.00    -0.092 A  
HETATM   12  C   UNL     1      -7.442   9.668  68.373  1.00  0.00    -0.080 A  
HETATM   13  C   UNL     1      -7.005   9.545  69.700  1.00  0.00    -0.066 A  
HETATM   14  N   UNL     1      -6.974  12.054  68.686  1.00  0.00    -0.090 NA 
HETATM   15  N   UNL     1      -6.604  10.565  70.491  1.00  0.00    -0.314 NA 
HETATM   16  C   UNL     1      -6.627  11.778  69.942  1.00  0.00     0.001 A  
BRANCH  12  17
HETATM   17  C   UNL     1      -8.001   8.512  67.583  1.00  0.00    -0.107 A  
HETATM   18  C   UNL     1      -7.371   7.965  66.452  1.00  0.00    -0.086 A  
HETATM   19  C   UNL     1      -7.846   6.833  65.776  1.00  0.00    -0.102 A  
HETATM   20  C   UNL     1      -9.688   6.726  67.297  1.00  0.00    -0.175 A  
HETATM   21  C   UNL     1      -9.211   7.879  67.945  1.00  0.00    -0.139 A  
HETATM   22 BR   UNL     1      -9.579   4.616  65.378  1.00  0.00    -0.161 Br 
HETATM   23  C   UNL     1      -8.991   6.198  66.222  1.00  0.00    -0.154 A  
ENDBRANCH  12  17
BRANCH  13  24
HETATM   24  O   UNL     1      -6.966   8.278  70.246  1.00  0.00    -0.036 OA 
BRANCH  24  25
HETATM   25  C   UNL     1      -7.472   8.113  71.571  1.00  0.00    -0.081 C  
BRANCH  25  26
HETATM   26  C   UNL     1      -7.792   6.628  71.746  1.00  0.00    -0.102 C  
BRANCH  26  27
HETATM   27  O   UNL     1      -8.683   6.196  70.722  1.00  0.00    -0.133 OA 
BRANCH  27  28
HETATM   28  C   UNL     1     -10.007   6.449  71.021  1.00  0.00    -0.181 A  
HETATM   29  N   UNL     1     -10.664   5.663  71.895  1.00  0.00    -0.235 NA 
HETATM   30  C   UNL     1     -11.955   5.987  72.128  1.00  0.00    -0.202 A  
HETATM   31  C   UNL     1     -12.595   7.047  71.528  1.00  0.00    -0.385 A  
HETATM   32  C   UNL     1     -11.829   7.776  70.650  1.00  0.00    -0.124 A  
HETATM   33 BR   UNL     1     -14.389   7.468  71.884  1.00  0.00    -0.510 Br 
HETATM   34  N   UNL     1     -10.536   7.500  70.377  1.00  0.00    -0.218 NA 
ENDBRANCH  27  28
ENDBRANCH  26  27
ENDBRANCH  25  26
ENDBRANCH  24  25
ENDBRANCH  13  24
ENDBRANCH   9  11
ENDBRANCH   6   9
ENDBRANCH   4   6
ENDBRANCH   3   4
ENDBRANCH   2   3
TORSDOF 11
ENDMDL
MODEL      239
REMARK 921   NORMALIZED FREE ENERGY PREDICTED BY IDOCK:   -2.72 KCAL/MOL
REMARK 922        TOTAL FREE ENERGY PREDICTED BY IDOCK:   -5.89 KCAL/MOL
REMARK 923 INTER-LIGAND FREE ENERGY PREDICTED BY IDOCK:   -4.95 KCAL/MOL
REMARK 924 INTRA-LIGAND FREE ENERGY PREDICTED BY IDOCK:   -0.94 KCAL/MOL
REMARK 927      BINDING AFFINITY PREDICTED BY RF-SCORE:    0.00 PKD
ROOT
HETATM    1  C   UNL     1     -10.859  20.674  68.710  1.00  0.00     0.737 C  
HETATM    2  C   UNL     1      -9.725  19.723  68.360  1.00  0.00    -0.480 C  
ENDROOT
BRANCH   2   3
HETATM    3  C   UNL     1      -9.346  19.797  66.886  1.00  0.00    -0.366 C  
BRANCH   3   4
HETATM    4  N   UNL     1     -10.033  18.708  66.136  1.00  0.00    -0.357 N  
HETATM    5  H   UNL     1     -10.579  18.856  65.288  1.00  0.00     0.000 HD 
BRANCH   4   6
HETATM    6  S   UNL     1      -9.804  17.209  66.854  1.00  0.00    -0.297 S  
HETATM    7  O   UNL     1      -8.472  17.265  67.417  1.00  0.00    -0.197 OA 
HETATM    8  O   UNL     1     -10.954  16.902  67.662  1.00  0.00    -0.285 OA 
BRANCH   6   9
HETATM    9  N   UNL     1      -9.718  16.194  65.524  1.00  0.00    -0.189 N  
HETATM   10  H   UNL     1      -9.097  16.389  64.737  1.00  0.00     0.000 HD 
BRANCH   9  11
HETATM   11  C   UNL     1     -10.553  15.053  65.552  1.00  0.00    -0.363 A  
HETATM   12  C   UNL     1     -10.338  13.941  66.376  1.00  0.00    -0.289 A  
HETATM   13  C   UNL     1     -11.404  13.035  66.278  1.00  0.00    -0.317 A  
HETATM   14  N   UNL     1     -11.561  15.208  64.671  1.00  0.00    -0.395 NA 
HETATM   15  N   UNL     1     -12.460  13.157  65.443  1.00  0.00    -0.478 NA 
HETATM   16  C   UNL     1     -12.473  14.238  64.665  1.00  0.00    -0.351 A  
BRANCH  12  17
HETATM   17  C   UNL     1      -9.121  13.686  67.231  1.00  0.00    -0.228 A  
HETATM   18  C   UNL     1      -9.034  14.044  68.586  1.00  0.00    -0.104 A  
HETATM   19  C   UNL     1      -7.939  13.723  69.400  1.00  0.00     0.503 A  
HETATM   20  C   UNL     1      -6.878  12.686  67.525  1.00  0.00    -0.151 A  
HETATM   21  C   UNL     1      -7.973  13.041  66.718  1.00  0.00     0.234 A  
HETATM   22 BR   UNL     1      -5.445  12.493  69.986  1.00  0.00    -0.129 Br 
HETATM   23  C   UNL     1      -6.876  13.015  68.871  1.00  0.00    -0.099 A  
ENDBRANCH  12  17
BRANCH  13  24
HETATM   24  O   UNL     1     -11.386  11.932  67.106  1.00  0.00    -0.300 OA 
BRANCH  24  25
HETATM   25  C   UNL     1     -11.142  10.658  66.508  1.00  0.00     0.058 C  
BRANCH  25  26
HETATM   26  C   UNL     1     -10.379   9.821  67.535  1.00  0.00    -0.237 C  
BRANCH  26  27
HETATM   27  O   UNL     1      -8.979  10.051  67.410  1.00  0.00    -0.131 OA 
BRANCH  27  28
HETATM   28  C   UNL     1      -8.405   9.326  66.385  1.00  0.00    -0.118 A  
HETATM   29  N   UNL     1      -7.577   9.929  65.512  1.00  0.00    -0.119 NA 
HETATM   30  C   UNL     1      -7.061   9.140  64.543  1.00  0.00    -0.091 A  
HETATM   31  C   UNL     1      -7.342   7.799  64.423  1.00  0.00    -0.088 A  
HETATM   32  C   UNL     1      -8.204   7.291  65.366  1.00  0.00    -0.137 A  
HETATM   33 BR   UNL     1      -6.599   6.736  63.066  1.00  0.00    -0.043 Br 
HETATM   34  N   UNL     1      -8.750   8.029  66.355  1.00  0.00    -0.143 NA 
ENDBRANCH  27  28
ENDBRANCH  26  27
ENDBRANCH  25  26
ENDBRANCH  24  25
ENDBRANCH  13  24
ENDBRANCH   9  11
ENDBRANCH   6   9
ENDBRANCH   4   6
ENDBRANCH   3   4
ENDBRANCH   2   3
TORSDOF 11
ENDMDL
MODEL      240
REMARK 921   NORMALIZED FREE ENERGY PREDICTED BY IDOCK:   -2.71 KCAL/MOL
REMARK 922        TOTAL FREE ENERGY PREDICTED BY IDOCK:   -5.87 KCAL/MOL
REMARK 923 INTER-LIGAND FREE ENERGY PREDICTED BY IDOCK:   -5.11 KCAL/MOL
REMARK 924 INTRA-LIGAND FREE ENERGY PREDICTED BY IDOCK:   -0.76 KCAL/MOL
REMARK 927      BINDING AFFINITY PREDICTED BY RF-SCORE:    0.00 PKD
ROOT
HETATM    1  C   UNL     1     -10.428   3.919  64.364  1.00  0.00    -0.238 C  
HETATM    2  C   UNL     1      -8.914   3.978  64.481  1.00  0.00    -0.137 C  
ENDROOT
BRANCH   2   3
HETATM    3  C   UNL     1      -8.425   5.350  64.930  1.00  0.00    -0.148 C  
BRANCH   3   4
HETATM    4  N   UNL     1      -7.147   5.205  65.685  1.00  0.00    -0.066 N  
HETATM    5  H   UNL     1      -6.462   4.471  65.509  1.00  0.00     0.000 HD 
BRANCH   4   6
HETATM    6  S   UNL     1      -6.971   6.391  66.857  1.00  0.00    -0.069 S  
HETATM    7  O   UNL     1      -5.775   7.113  66.479  1.00  0.00    -0.028 OA 
HETATM    8  O   UNL     1      -8.233   7.058  67.033  1.00  0.00    -0.115 OA 
BRANCH   6   9
HETATM    9  N   UNL     1      -6.576   5.487  68.211  1.00  0.00    -0.047 N  
HETATM   10  H   UNL     1      -5.607   5.332  68.491  1.00  0.00     0.000 HD 
BRANCH   9  11
HETATM   11  C   UNL     1      -7.661   4.952  68.945  1.00  0.00    -0.069 A  
HETATM   12  C   UNL     1      -8.042   5.394  70.219  1.00  0.00    -0.097 A  
HETATM   13  C   UNL     1      -9.229   4.767  70.627  1.00  0.00    -0.134 A  
HETATM   14  N   UNL     1      -8.245   3.967  68.235  1.00  0.00    -0.090 NA 
HETATM   15  N   UNL     1      -9.882   3.803  69.940  1.00  0.00    -0.122 NA 
HETATM   16  C   UNL     1      -9.340   3.440  68.778  1.00  0.00    -0.167 A  
BRANCH  12  17
HETATM   17  C   UNL     1      -7.288   6.368  71.089  1.00  0.00    -0.080 A  
HETATM   18  C   UNL     1      -7.410   7.763  70.981  1.00  0.00    -0.072 A  
HETATM   19  C   UNL     1      -6.779   8.663  71.851  1.00  0.00    -0.078 A  
HETATM   20  C   UNL     1      -5.786   6.817  73.002  1.00  0.00    -0.042 A  
HETATM   21  C   UNL     1      -6.405   5.932  72.102  1.00  0.00    -0.049 A  
HETATM   22 BR   UNL     1      -5.222   9.383  74.115  1.00  0.00    -0.110 Br 
HETATM   23  C   UNL     1      -5.992   8.182  72.881  1.00  0.00    -0.065 A  
ENDBRANCH  12  17
BRANCH  13  24
HETATM   24  O   UNL     1      -9.789   5.171  71.822  1.00  0.00    -0.162 OA 
BRANCH  24  25
HETATM   25  C   UNL     1     -10.775   6.203  71.776  1.00  0.00    -0.242 C  
BRANCH  25  26
HETATM   26  C   UNL     1     -11.208   6.343  70.317  1.00  0.00    -0.382 C  
BRANCH  26  27
HETATM   27  O   UNL     1     -10.723   7.570  69.778  1.00  0.00    -0.241 OA 
BRANCH  27  28
HETATM   28  C   UNL     1     -11.375   8.675  70.290  1.00  0.00    -0.136 A  
HETATM   29  N   UNL     1     -12.447   8.517  71.088  1.00  0.00    -0.232 NA 
HETATM   30  C   UNL     1     -13.019   9.654  71.543  1.00  0.00    -0.395 A  
HETATM   31  C   UNL     1     -12.563  10.913  71.231  1.00  0.00    -0.421 A  
HETATM   32  C   UNL     1     -11.466  10.955  70.404  1.00  0.00    -0.275 A  
HETATM   33 BR   UNL     1     -13.382  12.468  71.890  1.00  0.00    -0.344 Br 
HETATM   34  N   UNL     1     -10.853   9.854  69.919  1.00  0.00    -0.258 NA 
ENDBRANCH  27  28
ENDBRANCH  26  27
ENDBRANCH  25  26
ENDBRANCH  24  25
ENDBRANCH  13  24
ENDBRANCH   9  11
ENDBRANCH   6   9
ENDBRANCH   4   6
ENDBRANCH   3   4
ENDBRANCH   2   3
TORSDOF 11
ENDMDL
MODEL      241
REMARK 921   NORMALIZED FREE ENERGY PREDICTED BY IDOCK:   -2.64 KCAL/MOL
REMARK 922        TOTAL FREE ENERGY PREDICTED BY IDOCK:   -5.75 KCAL/MOL
REMARK 923 INTER-LIGAND FREE ENERGY PREDICTED BY IDOCK:   -3.80 KCAL/MOL
REMARK 924 INTRA-LIGAND FREE ENERGY PREDICTED BY IDOCK:   -1.95 KCAL/MOL
REMARK 927      BINDING AFFINITY PREDICTED BY RF-SCORE:    0.00 PKD
ROOT
HETATM    1  C   UNL     1     -10.516  16.143  65.873  1.00  0.00    -0.366 C  
HETATM    2  C   UNL     1     -11.605  15.401  66.631  1.00  0.00     0.062 C  
ENDROOT
BRANCH   2   3
HETATM    3  C   UNL     1     -11.102  14.834  67.953  1.00  0.00    -0.293 C  
BRANCH   3   4
HETATM    4  N   UNL     1     -10.565  13.461  67.738  1.00  0.00    -0.242 N  
HETATM    5  H   UNL     1     -11.142  12.654  67.501  1.00  0.00     0.000 HD 
BRANCH   4   6
HETATM    6  S   UNL     1      -8.900  13.399  67.933  1.00  0.00    -0.205 S  
HETATM    7  O   UNL     1      -8.378  13.178  66.601  1.00  0.00     0.005 OA 
HETATM    8  O   UNL     1      -8.486  14.522  68.730  1.00  0.00    -0.163 OA 
BRANCH   6   9
HETATM    9  N   UNL     1      -8.699  11.962  68.769  1.00  0.00    -0.363 N  
HETATM   10  H   UNL     1      -7.834  11.744  69.264  1.00  0.00     0.000 HD 
BRANCH   9  11
HETATM   11  C   UNL     1      -9.796  11.068  68.751  1.00  0.00    -0.198 A  
HETATM   12  C   UNL     1     -10.017  10.116  67.747  1.00  0.00    -0.198 A  
HETATM   13  C   UNL     1     -11.103   9.293  68.074  1.00  0.00     0.119 A  
HETATM   14  N   UNL     1     -10.575  11.285  69.828  1.00  0.00     0.034 NA 
HETATM   15  N   UNL     1     -11.896   9.436  69.160  1.00  0.00     0.655 NA 
HETATM   16  C   UNL     1     -11.596  10.445  69.977  1.00  0.00    -0.301 A  
BRANCH  12  17
HETATM   17  C   UNL     1      -9.251   9.988  66.454  1.00  0.00    -0.191 A  
HETATM   18  C   UNL     1      -7.921   9.542  66.379  1.00  0.00    -0.111 A  
HETATM   19  C   UNL     1      -7.243   9.336  65.169  1.00  0.00    -0.094 A  
HETATM   20  C   UNL     1      -9.185  10.071  63.983  1.00  0.00    -0.318 A  
HETATM   21  C   UNL     1      -9.838  10.298  65.207  1.00  0.00    -0.372 A  
HETATM   22 BR   UNL     1      -7.019   9.203  62.340  1.00  0.00    -0.089 Br 
HETATM   23  C   UNL     1      -7.892   9.573  63.971  1.00  0.00    -0.130 A  
ENDBRANCH  12  17
BRANCH  13  24
HETATM   24  O   UNL     1     -11.387   8.239  67.229  1.00  0.00     0.495 OA 
BRANCH  24  25
HETATM   25  C   UNL     1     -10.597   7.056  67.357  1.00  0.00    -0.302 C  
BRANCH  25  26
HETATM   26  C   UNL     1     -11.153   6.273  68.547  1.00  0.00    -0.308 C  
BRANCH  26  27
HETATM   27  O   UNL     1     -10.084   5.754  69.333  1.00  0.00    -0.179 OA 
BRANCH  27  28
HETATM   28  C   UNL     1      -9.148   6.713  69.665  1.00  0.00    -0.142 A  
HETATM   29  N   UNL     1      -8.034   6.855  68.923  1.00  0.00    -0.115 NA 
HETATM   30  C   UNL     1      -7.175   7.819  69.321  1.00  0.00    -0.081 A  
HETATM   31  C   UNL     1      -7.391   8.626  70.413  1.00  0.00    -0.060 A  
HETATM   32  C   UNL     1      -8.557   8.389  71.101  1.00  0.00    -0.154 A  
HETATM   33 BR   UNL     1      -6.176   9.960  70.930  1.00  0.00    -0.032 Br 
HETATM   34  N   UNL     1      -9.452   7.440  70.750  1.00  0.00    -0.167 NA 
ENDBRANCH  27  28
ENDBRANCH  26  27
ENDBRANCH  25  26
ENDBRANCH  24  25
ENDBRANCH  13  24
ENDBRANCH   9  11
ENDBRANCH   6   9
ENDBRANCH   4   6
ENDBRANCH   3   4
ENDBRANCH   2   3
TORSDOF 11
ENDMDL
MODEL      242
REMARK 921   NORMALIZED FREE ENERGY PREDICTED BY IDOCK:   -2.64 KCAL/MOL
REMARK 922        TOTAL FREE ENERGY PREDICTED BY IDOCK:   -5.75 KCAL/MOL
REMARK 923 INTER-LIGAND FREE ENERGY PREDICTED BY IDOCK:   -5.43 KCAL/MOL
REMARK 924 INTRA-LIGAND FREE ENERGY PREDICTED BY IDOCK:   -0.32 KCAL/MOL
REMARK 927      BINDING AFFINITY PREDICTED BY RF-SCORE:    0.00 PKD
ROOT
HETATM    1  C   UNL     1      -7.800  10.582  64.230  1.00  0.00     0.023 C  
HETATM    2  C   UNL     1      -7.960   9.070  64.261  1.00  0.00    -0.142 C  
ENDROOT
BRANCH   2   3
HETATM    3  C   UNL     1      -8.753   8.600  65.474  1.00  0.00    -0.186 C  
BRANCH   3   4
HETATM    4  N   UNL     1      -7.865   8.565  66.671  1.00  0.00    -0.089 N  
HETATM    5  H   UNL     1      -7.741   9.348  67.312  1.00  0.00     0.000 HD 
BRANCH   4   6
HETATM    6  S   UNL     1      -7.093   7.085  66.837  1.00  0.00    -0.077 S  
HETATM    7  O   UNL     1      -7.945   6.141  66.146  1.00  0.00    -0.102 OA 
HETATM    8  O   UNL     1      -5.706   7.245  66.490  1.00  0.00    -0.029 OA 
BRANCH   6   9
HETATM    9  N   UNL     1      -7.270   6.780  68.474  1.00  0.00    -0.082 N  
HETATM   10  H   UNL     1      -6.473   6.781  69.112  1.00  0.00     0.000 HD 
BRANCH   9  11
HETATM   11  C   UNL     1      -8.587   6.521  68.923  1.00  0.00    -0.125 A  
HETATM   12  C   UNL     1      -8.893   5.818  70.096  1.00  0.00    -0.144 A  
HETATM   13  C   UNL     1     -10.274   5.841  70.342  1.00  0.00    -0.224 A  
HETATM   14  N   UNL     1      -9.473   7.043  68.053  1.00  0.00    -0.126 NA 
HETATM   15  N   UNL     1     -11.206   6.384  69.528  1.00  0.00    -0.397 NA 
HETATM   16  C   UNL     1     -10.752   6.946  68.408  1.00  0.00    -0.211 A  
BRANCH  12  17
HETATM   17  C   UNL     1      -7.915   5.082  70.977  1.00  0.00    -0.093 A  
HETATM   18  C   UNL     1      -7.114   5.711  71.945  1.00  0.00    -0.086 A  
HETATM   19  C   UNL     1      -6.275   5.012  72.824  1.00  0.00    -0.034 A  
HETATM   20  C   UNL     1      -6.935   2.961  71.788  1.00  0.00    -0.031 A  
HETATM   21  C   UNL     1      -7.749   3.681  70.897  1.00  0.00    -0.047 A  
HETATM   22 BR   UNL     1      -5.163   2.681  74.007  1.00  0.00     0.000 Br 
HETATM   23  C   UNL     1      -6.213   3.633  72.761  1.00  0.00    -0.012 A  
ENDBRANCH  12  17
BRANCH  13  24
HETATM   24  O   UNL     1     -10.725   5.275  71.517  1.00  0.00    -0.221 OA 
BRANCH  24  25
HETATM   25  C   UNL     1     -10.466   5.977  72.733  1.00  0.00    -0.216 C  
BRANCH  25  26
HETATM   26  C   UNL     1     -11.125   7.351  72.604  1.00  0.00    -0.331 C  
BRANCH  26  27
HETATM   27  O   UNL     1     -10.130   8.357  72.433  1.00  0.00    -0.287 OA 
BRANCH  27  28
HETATM   28  C   UNL     1     -10.456   9.271  71.451  1.00  0.00    -0.338 A  
HETATM   29  N   UNL     1      -9.559   9.589  70.499  1.00  0.00    -0.262 NA 
HETATM   30  C   UNL     1      -9.966  10.491  69.579  1.00  0.00    -0.158 A  
HETATM   31  C   UNL     1     -11.212  11.072  69.582  1.00  0.00    -0.278 A  
HETATM   32  C   UNL     1     -12.044  10.678  70.603  1.00  0.00    -0.365 A  
HETATM   33 BR   UNL     1     -11.742  12.317  68.281  1.00  0.00    -0.374 Br 
HETATM   34  N   UNL     1     -11.693   9.782  71.551  1.00  0.00    -0.389 NA 
ENDBRANCH  27  28
ENDBRANCH  26  27
ENDBRANCH  25  26
ENDBRANCH  24  25
ENDBRANCH  13  24
ENDBRANCH   9  11
ENDBRANCH   6   9
ENDBRANCH   4   6
ENDBRANCH   3   4
ENDBRANCH   2   3
TORSDOF 11
ENDMDL
MODEL      243
REMARK 921   NORMALIZED FREE ENERGY PREDICTED BY IDOCK:   -2.63 KCAL/MOL
REMARK 922        TOTAL FREE ENERGY PREDICTED BY IDOCK:   -5.74 KCAL/MOL
REMARK 923 INTER-LIGAND FREE ENERGY PREDICTED BY IDOCK:   -4.48 KCAL/MOL
REMARK 924 INTRA-LIGAND FREE ENERGY PREDICTED BY IDOCK:   -1.26 KCAL/MOL
REMARK 927      BINDING AFFINITY PREDICTED BY RF-SCORE:    0.00 PKD
ROOT
HETATM    1  C   UNL     1     -11.002  14.340  68.840  1.00  0.00    -0.275 C  
HETATM    2  C   UNL     1     -10.194  14.746  67.617  1.00  0.00    -0.232 C  
ENDROOT
BRANCH   2   3
HETATM    3  C   UNL     1      -9.066  13.765  67.321  1.00  0.00    -0.232 C  
BRANCH   3   4
HETATM    4  N   UNL     1      -9.368  13.017  66.068  1.00  0.00    -0.462 N  
HETATM    5  H   UNL     1      -9.458  13.454  65.151  1.00  0.00     0.000 HD 
BRANCH   4   6
HETATM    6  S   UNL     1      -9.544  11.372  66.344  1.00  0.00    -0.212 S  
HETATM    7  O   UNL     1     -10.030  11.273  67.704  1.00  0.00    -0.175 OA 
HETATM    8  O   UNL     1     -10.263  10.792  65.241  1.00  0.00    -0.271 OA 
BRANCH   6   9
HETATM    9  N   UNL     1      -7.953  10.849  66.365  1.00  0.00    -0.154 N  
HETATM   10  H   UNL     1      -7.362  10.888  65.534  1.00  0.00     0.000 HD 
BRANCH   9  11
HETATM   11  C   UNL     1      -7.475  10.350  67.600  1.00  0.00    -0.089 A  
HETATM   12  C   UNL     1      -7.519   9.000  67.972  1.00  0.00    -0.084 A  
HETATM   13  C   UNL     1      -6.851   8.799  69.188  1.00  0.00    -0.055 A  
HETATM   14  N   UNL     1      -6.990  11.365  68.341  1.00  0.00    -0.071 NA 
HETATM   15  N   UNL     1      -6.309   9.771  69.956  1.00  0.00    -0.056 NA 
HETATM   16  C   UNL     1      -6.425  11.015  69.494  1.00  0.00    -0.109 A  
BRANCH  12  17
HETATM   17  C   UNL     1      -8.217   7.891  67.227  1.00  0.00    -0.122 A  
HETATM   18  C   UNL     1      -7.581   7.066  66.284  1.00  0.00    -0.092 A  
HETATM   19  C   UNL     1      -8.208   5.978  65.661  1.00  0.00    -0.139 A  
HETATM   20  C   UNL     1     -10.218   6.487  66.851  1.00  0.00    -0.279 A  
HETATM   21  C   UNL     1      -9.580   7.590  67.444  1.00  0.00    -0.187 A  
HETATM   22 BR   UNL     1     -10.338   4.152  65.215  1.00  0.00    -0.120 Br 
HETATM   23  C   UNL     1      -9.520   5.674  65.973  1.00  0.00    -0.110 A  
ENDBRANCH  12  17
BRANCH  13  24
HETATM   24  O   UNL     1      -6.721   7.501  69.641  1.00  0.00    -0.039 OA 
BRANCH  24  25
HETATM   25  C   UNL     1      -7.323   7.173  70.893  1.00  0.00    -0.075 C  
BRANCH  25  26
HETATM   26  C   UNL     1      -6.287   6.386  71.696  1.00  0.00    -0.042 C  
BRANCH  26  27
HETATM   27  O   UNL     1      -6.296   5.018  71.297  1.00  0.00    -0.024 OA 
BRANCH  27  28
HETATM   28  C   UNL     1      -7.332   4.301  71.862  1.00  0.00    -0.068 A  
HETATM   29  N   UNL     1      -7.336   4.048  73.184  1.00  0.00    -0.068 NA 
HETATM   30  C   UNL     1      -8.391   3.342  73.649  1.00  0.00    -0.075 A  
HETATM   31  C   UNL     1      -9.417   2.892  72.851  1.00  0.00    -0.093 A  
HETATM   32  C   UNL     1      -9.306   3.203  71.517  1.00  0.00    -0.132 A  
HETATM   33 BR   UNL     1     -10.868   1.919  73.537  1.00  0.00    -0.273 Br 
HETATM   34  N   UNL     1      -8.276   3.904  70.995  1.00  0.00    -0.066 NA 
ENDBRANCH  27  28
ENDBRANCH  26  27
ENDBRANCH  25  26
ENDBRANCH  24  25
ENDBRANCH  13  24
ENDBRANCH   9  11
ENDBRANCH   6   9
ENDBRANCH   4   6
ENDBRANCH   3   4
ENDBRANCH   2   3
TORSDOF 11
ENDMDL
MODEL      244
REMARK 921   NORMALIZED FREE ENERGY PREDICTED BY IDOCK:   -2.60 KCAL/MOL
REMARK 922        TOTAL FREE ENERGY PREDICTED BY IDOCK:   -5.68 KCAL/MOL
REMARK 923 INTER-LIGAND FREE ENERGY PREDICTED BY IDOCK:   -4.60 KCAL/MOL
REMARK 924 INTRA-LIGAND FREE ENERGY PREDICTED BY IDOCK:   -1.09 KCAL/MOL
REMARK 927      BINDING AFFINITY PREDICTED BY RF-SCORE:    0.00 PKD
ROOT
HETATM    1  C   UNL     1     -10.826  16.237  67.188  1.00  0.00    -0.190 C  
HETATM    2  C   UNL     1     -10.859  15.214  66.064  1.00  0.00    -0.335 C  
ENDROOT
BRANCH   2   3
HETATM    3  C   UNL     1      -9.684  14.246  66.133  1.00  0.00    -0.303 C  
BRANCH   3   4
HETATM    4  N   UNL     1      -9.823  13.212  65.068  1.00  0.00    -0.545 N  
HETATM    5  H   UNL     1      -9.982  13.426  64.084  1.00  0.00     0.000 HD 
BRANCH   4   6
HETATM    6  S   UNL     1      -9.688  11.657  65.680  1.00  0.00    -0.235 S  
HETATM    7  O   UNL     1     -10.152  11.753  67.047  1.00  0.00    -0.206 OA 
HETATM    8  O   UNL     1     -10.280  10.738  64.744  1.00  0.00    -0.306 OA 
BRANCH   6   9
HETATM    9  N   UNL     1      -8.027  11.452  65.753  1.00  0.00    -0.365 N  
HETATM   10  H   UNL     1      -7.464  11.316  64.913  1.00  0.00     0.000 HD 
BRANCH   9  11
HETATM   11  C   UNL     1      -7.450  11.480  67.044  1.00  0.00    -0.151 A  
HETATM   12  C   UNL     1      -7.038  10.340  67.746  1.00  0.00    -0.085 A  
HETATM   13  C   UNL     1      -6.384  10.697  68.934  1.00  0.00    -0.045 A  
HETATM   14  N   UNL     1      -7.371  12.754  67.478  1.00  0.00    -0.145 NA 
HETATM   15  N   UNL     1      -6.238  11.957  69.400  1.00  0.00    -0.097 NA 
HETATM   16  C   UNL     1      -6.759  12.925  68.648  1.00  0.00    -0.095 A  
BRANCH  12  17
HETATM   17  C   UNL     1      -7.285   8.907  67.344  1.00  0.00    -0.080 A  
HETATM   18  C   UNL     1      -8.516   8.252  67.516  1.00  0.00    -0.130 A  
HETATM   19  C   UNL     1      -8.769   6.952  67.058  1.00  0.00    -0.119 A  
HETATM   20  C   UNL     1      -6.521   6.824  66.252  1.00  0.00    -0.047 A  
HETATM   21  C   UNL     1      -6.279   8.119  66.743  1.00  0.00    -0.054 A  
HETATM   22 BR   UNL     1      -8.140   4.541  65.691  1.00  0.00    -0.107 Br 
HETATM   23  C   UNL     1      -7.775   6.253  66.398  1.00  0.00    -0.099 A  
ENDBRANCH  12  17
BRANCH  13  24
HETATM   24  O   UNL     1      -5.830   9.683  69.690  1.00  0.00    -0.033 OA 
BRANCH  24  25
HETATM   25  C   UNL     1      -5.230  10.039  70.936  1.00  0.00    -0.059 C  
BRANCH  25  26
HETATM   26  C   UNL     1      -5.224   8.781  71.805  1.00  0.00    -0.040 C  
BRANCH  26  27
HETATM   27  O   UNL     1      -6.454   8.672  72.515  1.00  0.00    -0.091 OA 
BRANCH  27  28
HETATM   28  C   UNL     1      -6.994   7.403  72.459  1.00  0.00    -0.068 A  
HETATM   29  N   UNL     1      -7.544   6.853  73.559  1.00  0.00    -0.081 NA 
HETATM   30  C   UNL     1      -8.050   5.609  73.410  1.00  0.00    -0.113 A  
HETATM   31  C   UNL     1      -8.023   4.913  72.224  1.00  0.00    -0.110 A  
HETATM   32  C   UNL     1      -7.433   5.569  71.169  1.00  0.00    -0.086 A  
HETATM   33 BR   UNL     1      -8.743   3.188  72.056  1.00  0.00    -0.119 Br 
HETATM   34  N   UNL     1      -6.911   6.811  71.258  1.00  0.00    -0.061 NA 
ENDBRANCH  27  28
ENDBRANCH  26  27
ENDBRANCH  25  26
ENDBRANCH  24  25
ENDBRANCH  13  24
ENDBRANCH   9  11
ENDBRANCH   6   9
ENDBRANCH   4   6
ENDBRANCH   3   4
ENDBRANCH   2   3
TORSDOF 11
ENDMDL
MODEL      245
REMARK 921   NORMALIZED FREE ENERGY PREDICTED BY IDOCK:   -2.59 KCAL/MOL
REMARK 922        TOTAL FREE ENERGY PREDICTED BY IDOCK:   -5.68 KCAL/MOL
REMARK 923 INTER-LIGAND FREE ENERGY PREDICTED BY IDOCK:   -5.08 KCAL/MOL
REMARK 924 INTRA-LIGAND FREE ENERGY PREDICTED BY IDOCK:   -0.59 KCAL/MOL
REMARK 927      BINDING AFFINITY PREDICTED BY RF-SCORE:    0.00 PKD
ROOT
HETATM    1  C   UNL     1      -7.321  10.500  63.867  1.00  0.00     0.108 C  
HETATM    2  C   UNL     1      -8.372   9.421  63.659  1.00  0.00    -0.184 C  
ENDROOT
BRANCH   2   3
HETATM    3  C   UNL     1      -8.821   8.794  64.974  1.00  0.00    -0.107 C  
BRANCH   3   4
HETATM    4  N   UNL     1      -7.630   8.494  65.819  1.00  0.00    -0.084 N  
HETATM    5  H   UNL     1      -7.149   9.187  66.392  1.00  0.00     0.000 HD 
BRANCH   4   6
HETATM    6  S   UNL     1      -7.175   6.883  65.716  1.00  0.00    -0.075 S  
HETATM    7  O   UNL     1      -8.215   6.252  64.931  1.00  0.00    -0.140 OA 
HETATM    8  O   UNL     1      -5.791   6.817  65.329  1.00  0.00    -0.033 OA 
BRANCH   6   9
HETATM    9  N   UNL     1      -7.383   6.359  67.293  1.00  0.00    -0.085 N  
HETATM   10  H   UNL     1      -6.614   5.965  67.836  1.00  0.00     0.000 HD 
BRANCH   9  11
HETATM   11  C   UNL     1      -8.686   6.492  67.829  1.00  0.00    -0.115 A  
HETATM   12  C   UNL     1      -8.972   7.117  69.050  1.00  0.00    -0.134 A  
HETATM   13  C   UNL     1     -10.358   7.213  69.246  1.00  0.00    -0.203 A  
HETATM   14  N   UNL     1      -9.579   5.926  66.995  1.00  0.00    -0.126 NA 
HETATM   15  N   UNL     1     -11.302   6.701  68.425  1.00  0.00    -0.121 NA 
HETATM   16  C   UNL     1     -10.857   6.065  67.343  1.00  0.00    -0.303 A  
BRANCH  12  17
HETATM   17  C   UNL     1      -7.966   7.592  70.068  1.00  0.00    -0.114 A  
HETATM   18  C   UNL     1      -7.338   8.848  70.013  1.00  0.00    -0.056 A  
HETATM   19  C   UNL     1      -6.473   9.323  71.009  1.00  0.00    -0.086 A  
HETATM   20  C   UNL     1      -6.752   7.267  72.198  1.00  0.00    -0.055 A  
HETATM   21  C   UNL     1      -7.594   6.798  71.175  1.00  0.00    -0.088 A  
HETATM   22 BR   UNL     1      -5.126   9.213  73.508  1.00  0.00    -0.099 Br 
HETATM   23  C   UNL     1      -6.208   8.539  72.116  1.00  0.00    -0.070 A  
ENDBRANCH  12  17
BRANCH  13  24
HETATM   24  O   UNL     1     -10.802   7.894  70.360  1.00  0.00    -0.238 OA 
BRANCH  24  25
HETATM   25  C   UNL     1     -10.923   9.314  70.264  1.00  0.00    -0.247 C  
BRANCH  25  26
HETATM   26  C   UNL     1     -11.126   9.647  68.786  1.00  0.00    -0.049 C  
BRANCH  26  27
HETATM   27  O   UNL     1     -10.070  10.486  68.324  1.00  0.00    -0.153 OA 
BRANCH  27  28
HETATM   28  C   UNL     1     -10.505  11.460  67.448  1.00  0.00    -0.205 A  
HETATM   29  N   UNL     1     -11.810  11.783  67.390  1.00  0.00    -0.624 NA 
HETATM   30  C   UNL     1     -12.143  12.749  66.505  1.00  0.00    -0.268 A  
HETATM   31  C   UNL     1     -11.232  13.387  65.696  1.00  0.00    -0.292 A  
HETATM   32  C   UNL     1      -9.928  12.974  65.836  1.00  0.00    -0.267 A  
HETATM   33 BR   UNL     1     -11.733  14.730  64.485  1.00  0.00    -0.362 Br 
HETATM   34  N   UNL     1      -9.536  12.014  66.702  1.00  0.00    -0.211 NA 
ENDBRANCH  27  28
ENDBRANCH  26  27
ENDBRANCH  25  26
ENDBRANCH  24  25
ENDBRANCH  13  24
ENDBRANCH   9  11
ENDBRANCH   6   9
ENDBRANCH   4   6
ENDBRANCH   3   4
ENDBRANCH   2   3
TORSDOF 11
ENDMDL
MODEL      246
REMARK 921   NORMALIZED FREE ENERGY PREDICTED BY IDOCK:   -2.24 KCAL/MOL
REMARK 922        TOTAL FREE ENERGY PREDICTED BY IDOCK:   -5.10 KCAL/MOL
REMARK 923 INTER-LIGAND FREE ENERGY PREDICTED BY IDOCK:   -5.20 KCAL/MOL
REMARK 924 INTRA-LIGAND FREE ENERGY PREDICTED BY IDOCK:    0.10 KCAL/MOL
REMARK 927      BINDING AFFINITY PREDICTED BY RF-SCORE:    0.00 PKD
ROOT
HETATM    1  C   UNL     1      -9.227  15.635  68.113  1.00  0.00    -0.185 C  
HETATM    2  C   UNL     1      -9.666  14.485  67.221  1.00  0.00    -0.232 C  
ENDROOT
BRANCH   2   3
HETATM    3  C   UNL     1     -10.590  13.514  67.947  1.00  0.00    -0.248 C  
BRANCH   3   4
HETATM    4  N   UNL     1     -10.711  12.254  67.161  1.00  0.00    -0.228 N  
HETATM    5  H   UNL     1     -10.594  11.321  67.557  1.00  0.00     0.000 HD 
BRANCH   4   6
HETATM    6  S   UNL     1     -11.060  12.550  65.547  1.00  0.00    -0.312 S  
HETATM    7  O   UNL     1     -12.368  13.171  65.558  1.00  0.00    -0.438 OA 
HETATM    8  O   UNL     1      -9.925  13.190  64.938  1.00  0.00    -0.233 OA 
BRANCH   6   9
HETATM    9  N   UNL     1     -11.271  11.002  64.945  1.00  0.00     0.038 N  
HETATM   10  H   UNL     1     -12.156  10.502  65.042  1.00  0.00     0.000 HD 
BRANCH   9  11
HETATM   11  C   UNL     1     -10.155  10.426  64.294  1.00  0.00    -0.236 A  
HETATM   12  C   UNL     1      -9.355   9.418  64.849  1.00  0.00    -0.218 A  
HETATM   13  C   UNL     1      -8.414   8.960  63.916  1.00  0.00    -0.136 A  
HETATM   14  N   UNL     1      -9.990  10.999  63.086  1.00  0.00    -0.344 NA 
HETATM   15  N   UNL     1      -8.229   9.468  62.676  1.00  0.00    -0.138 NA 
HETATM   16  C   UNL     1      -9.023  10.480  62.332  1.00  0.00    -0.276 A  
BRANCH  12  17
HETATM   17  C   UNL     1      -9.426   8.900  66.264  1.00  0.00    -0.304 A  
HETATM   18  C   UNL     1     -10.464   8.082  66.741  1.00  0.00    -0.319 A  
HETATM   19  C   UNL     1     -10.480   7.527  68.028  1.00  0.00    -0.253 A  
HETATM   20  C   UNL     1      -8.409   8.625  68.501  1.00  0.00    -0.123 A  
HETATM   21  C   UNL     1      -8.425   9.194  67.216  1.00  0.00    -0.121 A  
HETATM   22 BR   UNL     1      -9.397   6.952  70.592  1.00  0.00    -0.161 Br 
HETATM   23  C   UNL     1      -9.432   7.777  68.895  1.00  0.00    -0.150 A  
ENDBRANCH  12  17
BRANCH  13  24
HETATM   24  O   UNL     1      -7.615   7.896  64.281  1.00  0.00    -0.102 OA 
BRANCH  24  25
HETATM   25  C   UNL     1      -6.294   7.844  63.741  1.00  0.00    -0.062 C  
BRANCH  25  26
HETATM   26  C   UNL     1      -6.335   6.886  62.549  1.00  0.00    -0.047 C  
BRANCH  26  27
HETATM   27  O   UNL     1      -7.396   5.949  62.712  1.00  0.00    -0.048 OA 
BRANCH  27  28
HETATM   28  C   UNL     1      -7.104   4.963  63.632  1.00  0.00    -0.048 A  
HETATM   29  N   UNL     1      -5.896   4.370  63.627  1.00  0.00    -0.017 NA 
HETATM   30  C   UNL     1      -5.699   3.417  64.565  1.00  0.00    -0.010 A  
HETATM   31  C   UNL     1      -6.651   3.048  65.486  1.00  0.00    -0.036 A  
HETATM   32  C   UNL     1      -7.850   3.715  65.395  1.00  0.00    -0.086 A  
HETATM   33 BR   UNL     1      -6.336   1.724  66.778  1.00  0.00    -0.023 Br 
HETATM   34  N   UNL     1      -8.104   4.674  64.479  1.00  0.00    -0.100 NA 
ENDBRANCH  27  28
ENDBRANCH  26  27
ENDBRANCH  25  26
ENDBRANCH  24  25
ENDBRANCH  13  24
ENDBRANCH   9  11
ENDBRANCH   6   9
ENDBRANCH   4   6
ENDBRANCH   3   4
ENDBRANCH   2   3
TORSDOF 11
ENDMDL
MODEL      247
REMARK 921   NORMALIZED FREE ENERGY PREDICTED BY IDOCK:   -2.06 KCAL/MOL
REMARK 922        TOTAL FREE ENERGY PREDICTED BY IDOCK:   -4.80 KCAL/MOL
REMARK 923 INTER-LIGAND FREE ENERGY PREDICTED BY IDOCK:   -3.77 KCAL/MOL
REMARK 924 INTRA-LIGAND FREE ENERGY PREDICTED BY IDOCK:   -1.03 KCAL/MOL
REMARK 927      BINDING AFFINITY PREDICTED BY RF-SCORE:    0.00 PKD
ROOT
HETATM    1  C   UNL     1     -10.969  15.943  65.107  1.00  0.00    -0.389 C  
HETATM    2  C   UNL     1     -11.975  15.310  66.055  1.00  0.00     0.327 C  
ENDROOT
BRANCH   2   3
HETATM    3  C   UNL     1     -11.305  14.696  67.279  1.00  0.00    -0.353 C  
BRANCH   3   4
HETATM    4  N   UNL     1     -10.351  13.635  66.848  1.00  0.00    -0.260 N  
HETATM    5  H   UNL     1     -10.597  12.867  66.224  1.00  0.00     0.000 HD 
BRANCH   4   6
HETATM    6  S   UNL     1      -8.827  13.853  67.512  1.00  0.00    -0.209 S  
HETATM    7  O   UNL     1      -7.912  13.705  66.400  1.00  0.00     0.686 OA 
HETATM    8  O   UNL     1      -8.842  15.038  68.326  1.00  0.00    -0.162 OA 
BRANCH   6   9
HETATM    9  N   UNL     1      -8.657  12.479  68.455  1.00  0.00    -0.338 N  
HETATM   10  H   UNL     1      -7.875  12.362  69.100  1.00  0.00     0.000 HD 
BRANCH   9  11
HETATM   11  C   UNL     1      -9.658  11.490  68.307  1.00  0.00    -0.189 A  
HETATM   12  C   UNL     1      -9.572  10.412  67.417  1.00  0.00    -0.178 A  
HETATM   13  C   UNL     1     -10.650   9.533  67.595  1.00  0.00    -0.269 A  
HETATM   14  N   UNL     1     -10.684  11.757  69.139  1.00  0.00    -0.172 NA 
HETATM   15  N   UNL     1     -11.687   9.727  68.441  1.00  0.00     0.294 NA 
HETATM   16  C   UNL     1     -11.655  10.847  69.162  1.00  0.00    -0.319 A  
BRANCH  12  17
HETATM   17  C   UNL     1      -8.513  10.207  66.362  1.00  0.00    -0.133 A  
HETATM   18  C   UNL     1      -7.306   9.526  66.594  1.00  0.00    -0.090 A  
HETATM   19  C   UNL     1      -6.366   9.258  65.589  1.00  0.00    -0.067 A  
HETATM   20  C   UNL     1      -7.759  10.397  64.014  1.00  0.00    -0.035 A  
HETATM   21  C   UNL     1      -8.676  10.680  65.041  1.00  0.00    -0.186 A  
HETATM   22 BR   UNL     1      -5.400   9.223  62.917  1.00  0.00    -0.072 Br 
HETATM   23  C   UNL     1      -6.613   9.669  64.292  1.00  0.00    -0.111 A  
ENDBRANCH  12  17
BRANCH  13  24
HETATM   24  O   UNL     1     -10.656   8.367  66.857  1.00  0.00    -0.305 OA 
BRANCH  24  25
HETATM   25  C   UNL     1      -9.815   7.301  67.298  1.00  0.00    -0.171 C  
BRANCH  25  26
HETATM   26  C   UNL     1     -10.559   6.580  68.422  1.00  0.00    -0.246 C  
BRANCH  26  27
HETATM   27  O   UNL     1     -11.143   5.377  67.930  1.00  0.00     0.136 OA 
BRANCH  27  28
HETATM   28  C   UNL     1     -10.403   4.795  66.921  1.00  0.00    -0.150 A  
HETATM   29  N   UNL     1     -10.781   4.938  65.637  1.00  0.00    -0.178 NA 
HETATM   30  C   UNL     1      -9.995   4.336  64.717  1.00  0.00    -0.150 A  
HETATM   31  C   UNL     1      -8.870   3.612  65.034  1.00  0.00    -0.123 A  
HETATM   32  C   UNL     1      -8.582   3.527  66.376  1.00  0.00    -0.117 A  
HETATM   33 BR   UNL     1      -7.800   2.796  63.726  1.00  0.00    -0.081 Br 
HETATM   34  N   UNL     1      -9.330   4.107  67.339  1.00  0.00    -0.162 NA 
ENDBRANCH  27  28
ENDBRANCH  26  27
ENDBRANCH  25  26
ENDBRANCH  24  25
ENDBRANCH  13  24
ENDBRANCH   9  11
ENDBRANCH   6   9
ENDBRANCH   4   6
ENDBRANCH   3   4
ENDBRANCH   2   3
TORSDOF 11
ENDMDL
MODEL      248
REMARK 921   NORMALIZED FREE ENERGY PREDICTED BY IDOCK:   -1.70 KCAL/MOL
REMARK 922        TOTAL FREE ENERGY PREDICTED BY IDOCK:   -4.21 KCAL/MOL
REMARK 923 INTER-LIGAND FREE ENERGY PREDICTED BY IDOCK:   -5.62 KCAL/MOL
REMARK 924 INTRA-LIGAND FREE ENERGY PREDICTED BY IDOCK:    1.40 KCAL/MOL
REMARK 927      BINDING AFFINITY PREDICTED BY RF-SCORE:    0.00 PKD
ROOT
HETATM    1  C   UNL     1     -10.542  20.545  68.780  1.00  0.00     0.277 C  
HETATM    2  C   UNL     1      -9.196  19.864  68.970  1.00  0.00    -0.066 C  
ENDROOT
BRANCH   2   3
HETATM    3  C   UNL     1      -8.899  18.858  67.864  1.00  0.00    -0.298 C  
BRANCH   3   4
HETATM    4  N   UNL     1      -7.443  18.540  67.853  1.00  0.00    -0.234 N  
HETATM    5  H   UNL     1      -6.841  18.595  68.675  1.00  0.00     0.000 HD 
BRANCH   4   6
HETATM    6  S   UNL     1      -6.910  18.082  66.330  1.00  0.00    -0.260 S  
HETATM    7  O   UNL     1      -7.962  18.497  65.427  1.00  0.00    -0.160 OA 
HETATM    8  O   UNL     1      -5.552  18.525  66.162  1.00  0.00    -0.143 OA 
BRANCH   6   9
HETATM    9  N   UNL     1      -6.990  16.411  66.420  1.00  0.00     0.029 N  
HETATM   10  H   UNL     1      -6.151  15.830  66.406  1.00  0.00     0.000 HD 
BRANCH   9  11
HETATM   11  C   UNL     1      -8.285  15.851  66.517  1.00  0.00    -0.272 A  
HETATM   12  C   UNL     1      -8.649  14.867  67.445  1.00  0.00    -0.208 A  
HETATM   13  C   UNL     1     -10.027  14.613  67.386  1.00  0.00    -0.231 A  
HETATM   14  N   UNL     1      -9.088  16.403  65.586  1.00  0.00    -0.407 NA 
HETATM   15  N   UNL     1     -10.888  15.165  66.502  1.00  0.00    -0.315 NA 
HETATM   16  C   UNL     1     -10.364  16.025  65.631  1.00  0.00    -0.392 A  
BRANCH  12  17
HETATM   17  C   UNL     1      -7.717  14.121  68.367  1.00  0.00    -0.140 A  
HETATM   18  C   UNL     1      -7.130  14.692  69.509  1.00  0.00    -0.152 A  
HETATM   19  C   UNL     1      -6.339  13.971  70.413  1.00  0.00    -0.073 A  
HETATM   20  C   UNL     1      -6.610  12.020  69.058  1.00  0.00    -0.092 A  
HETATM   21  C   UNL     1      -7.378  12.767  68.148  1.00  0.00    -0.118 A  
HETATM   22 BR   UNL     1      -5.127  11.626  71.464  1.00  0.00     0.035 Br 
HETATM   23  C   UNL     1      -6.108  12.625  70.198  1.00  0.00    -0.093 A  
ENDBRANCH  12  17
BRANCH  13  24
HETATM   24  O   UNL     1     -10.557  13.736  68.310  1.00  0.00    -0.241 OA 
BRANCH  24  25
HETATM   25  C   UNL     1     -10.653  12.360  67.938  1.00  0.00    -0.213 C  
BRANCH  25  26
HETATM   26  C   UNL     1     -11.937  11.816  68.565  1.00  0.00    -0.215 C  
BRANCH  26  27
HETATM   27  O   UNL     1     -11.657  10.628  69.301  1.00  0.00    -0.266 OA 
BRANCH  27  28
HETATM   28  C   UNL     1     -10.935   9.704  68.573  1.00  0.00    -0.108 A  
HETATM   29  N   UNL     1     -10.417   8.620  69.181  1.00  0.00    -0.221 NA 
HETATM   30  C   UNL     1      -9.728   7.769  68.390  1.00  0.00    -0.159 A  
HETATM   31  C   UNL     1      -9.543   7.964  67.041  1.00  0.00    -0.192 A  
HETATM   32  C   UNL     1     -10.111   9.107  66.527  1.00  0.00    -0.287 A  
HETATM   33 BR   UNL     1      -8.584   6.755  65.974  1.00  0.00    -0.149 Br 
HETATM   34  N   UNL     1     -10.809   9.993  67.269  1.00  0.00    -0.253 NA 
ENDBRANCH  27  28
ENDBRANCH  26  27
ENDBRANCH  25  26
ENDBRANCH  24  25
ENDBRANCH  13  24
ENDBRANCH   9  11
ENDBRANCH   6   9
ENDBRANCH   4   6
ENDBRANCH   3   4
ENDBRANCH   2   3
TORSDOF 11
ENDMDL
MODEL      249
REMARK 921   NORMALIZED FREE ENERGY PREDICTED BY IDOCK:   -1.66 KCAL/MOL
REMARK 922        TOTAL FREE ENERGY PREDICTED BY IDOCK:   -4.14 KCAL/MOL
REMARK 923 INTER-LIGAND FREE ENERGY PREDICTED BY IDOCK:   -5.03 KCAL/MOL
REMARK 924 INTRA-LIGAND FREE ENERGY PREDICTED BY IDOCK:    0.89 KCAL/MOL
REMARK 927      BINDING AFFINITY PREDICTED BY RF-SCORE:    0.00 PKD
ROOT
HETATM    1  C   UNL     1     -10.911   4.272  64.843  1.00  0.00    -0.108 C  
HETATM    2  C   UNL     1      -9.474   4.102  65.309  1.00  0.00    -0.173 C  
ENDROOT
BRANCH   2   3
HETATM    3  C   UNL     1      -9.116   5.066  66.434  1.00  0.00    -0.129 C  
BRANCH   3   4
HETATM    4  N   UNL     1      -8.251   4.373  67.431  1.00  0.00    -0.100 N  
HETATM    5  H   UNL     1      -7.909   3.418  67.324  1.00  0.00     0.000 HD 
BRANCH   4   6
HETATM    6  S   UNL     1      -7.906   5.350  68.751  1.00  0.00    -0.088 S  
HETATM    7  O   UNL     1      -6.797   6.176  68.322  1.00  0.00    -0.068 OA 
HETATM    8  O   UNL     1      -9.133   5.923  69.235  1.00  0.00    -0.122 OA 
BRANCH   6   9
HETATM    9  N   UNL     1      -7.284   4.248  69.848  1.00  0.00    -0.045 N  
HETATM   10  H   UNL     1      -6.321   3.916  69.791  1.00  0.00     0.000 HD 
BRANCH   9  11
HETATM   11  C   UNL     1      -8.169   3.803  70.858  1.00  0.00    -0.066 A  
HETATM   12  C   UNL     1      -8.327   4.435  72.098  1.00  0.00    -0.108 A  
HETATM   13  C   UNL     1      -9.369   3.844  72.828  1.00  0.00    -0.112 A  
HETATM   14  N   UNL     1      -8.812   2.695  70.441  1.00  0.00    -0.075 NA 
HETATM   15  N   UNL     1     -10.076   2.758  72.444  1.00  0.00    -0.164 NA 
HETATM   16  C   UNL     1      -9.744   2.227  71.268  1.00  0.00    -0.131 A  
BRANCH  12  17
HETATM   17  C   UNL     1      -7.487   5.566  72.638  1.00  0.00    -0.097 A  
HETATM   18  C   UNL     1      -6.402   6.128  71.945  1.00  0.00    -0.046 A  
HETATM   19  C   UNL     1      -5.681   7.237  72.408  1.00  0.00    -0.037 A  
HETATM   20  C   UNL     1      -7.059   7.287  74.362  1.00  0.00    -0.111 A  
HETATM   21  C   UNL     1      -7.752   6.157  73.894  1.00  0.00    -0.093 A  
HETATM   22 BR   UNL     1      -5.135   9.387  74.184  1.00  0.00    -0.123 Br 
HETATM   23  C   UNL     1      -6.035   7.833  73.605  1.00  0.00    -0.065 A  
ENDBRANCH  12  17
BRANCH  13  24
HETATM   24  O   UNL     1      -9.714   4.420  74.034  1.00  0.00    -0.115 OA 
BRANCH  24  25
HETATM   25  C   UNL     1     -10.660   5.489  74.011  1.00  0.00    -0.249 C  
BRANCH  25  26
HETATM   26  C   UNL     1     -11.699   5.143  72.943  1.00  0.00    -0.139 C  
BRANCH  26  27
HETATM   27  O   UNL     1     -11.383   5.805  71.721  1.00  0.00    -0.253 OA 
BRANCH  27  28
HETATM   28  C   UNL     1     -11.795   7.122  71.703  1.00  0.00    -0.306 A  
HETATM   29  N   UNL     1     -10.891   8.110  71.570  1.00  0.00    -0.230 NA 
HETATM   30  C   UNL     1     -11.384   9.368  71.559  1.00  0.00    -0.394 A  
HETATM   31  C   UNL     1     -12.723   9.661  71.676  1.00  0.00    -0.407 A  
HETATM   32  C   UNL     1     -13.555   8.575  71.812  1.00  0.00    -0.388 A  
HETATM   33 BR   UNL     1     -13.370  11.423  71.651  1.00  0.00    -0.144 Br 
HETATM   34  N   UNL     1     -13.119   7.297  71.830  1.00  0.00    -0.341 NA 
ENDBRANCH  27  28
ENDBRANCH  26  27
ENDBRANCH  25  26
ENDBRANCH  24  25
ENDBRANCH  13  24
ENDBRANCH   9  11
ENDBRANCH   6   9
ENDBRANCH   4   6
ENDBRANCH   3   4
ENDBRANCH   2   3
TORSDOF 11
ENDMDL
MODEL      250
REMARK 921   NORMALIZED FREE ENERGY PREDICTED BY IDOCK:   -1.33 KCAL/MOL
REMARK 922        TOTAL FREE ENERGY PREDICTED BY IDOCK:   -3.61 KCAL/MOL
REMARK 923 INTER-LIGAND FREE ENERGY PREDICTED BY IDOCK:   -4.39 KCAL/MOL
REMARK 924 INTRA-LIGAND FREE ENERGY PREDICTED BY IDOCK:    0.78 KCAL/MOL
REMARK 927      BINDING AFFINITY PREDICTED BY RF-SCORE:    0.00 PKD
ROOT
HETATM    1  C   UNL     1     -10.823   5.512  69.125  1.00  0.00    -0.182 C  
HETATM    2  C   UNL     1     -11.254   6.343  67.927  1.00  0.00    -0.262 C  
ENDROOT
BRANCH   2   3
HETATM    3  C   UNL     1     -10.540   5.922  66.648  1.00  0.00    -0.264 C  
BRANCH   3   4
HETATM    4  N   UNL     1      -9.753   4.681  66.899  1.00  0.00    -0.181 N  
HETATM    5  H   UNL     1      -9.771   4.162  67.777  1.00  0.00     0.000 HD 
BRANCH   4   6
HETATM    6  S   UNL     1      -8.833   4.239  65.568  1.00  0.00    -0.130 S  
HETATM    7  O   UNL     1      -9.247   2.887  65.262  1.00  0.00    -0.147 OA 
HETATM    8  O   UNL     1      -8.902   5.291  64.589  1.00  0.00    -0.130 OA 
BRANCH   6   9
HETATM    9  N   UNL     1      -7.296   4.131  66.225  1.00  0.00    -0.078 N  
HETATM   10  H   UNL     1      -6.561   3.574  65.788  1.00  0.00     0.000 HD 
BRANCH   9  11
HETATM   11  C   UNL     1      -7.074   4.856  67.420  1.00  0.00    -0.066 A  
HETATM   12  C   UNL     1      -6.842   6.236  67.471  1.00  0.00    -0.063 A  
HETATM   13  C   UNL     1      -6.794   6.683  68.799  1.00  0.00    -0.070 A  
HETATM   14  N   UNL     1      -7.115   4.016  68.473  1.00  0.00    -0.054 NA 
HETATM   15  N   UNL     1      -6.870   5.895  69.895  1.00  0.00    -0.062 NA 
HETATM   16  C   UNL     1      -7.011   4.589  69.670  1.00  0.00    -0.049 A  
BRANCH  12  17
HETATM   17  C   UNL     1      -6.619   7.148  66.290  1.00  0.00    -0.052 A  
HETATM   18  C   UNL     1      -5.458   7.128  65.500  1.00  0.00    -0.028 A  
HETATM   19  C   UNL     1      -5.293   7.912  64.350  1.00  0.00    -0.036 A  
HETATM   20  C   UNL     1      -7.456   8.863  64.717  1.00  0.00    -0.103 A  
HETATM   21  C   UNL     1      -7.591   8.089  65.883  1.00  0.00    -0.086 A  
HETATM   22 BR   UNL     1      -6.135   9.738  62.343  1.00  0.00    -0.101 Br 
HETATM   23  C   UNL     1      -6.310   8.756  63.945  1.00  0.00    -0.076 A  
ENDBRANCH  12  17
BRANCH  13  24
HETATM   24  O   UNL     1      -6.670   8.041  69.015  1.00  0.00    -0.050 OA 
BRANCH  24  25
HETATM   25  C   UNL     1      -7.860   8.777  69.301  1.00  0.00    -0.100 C  
BRANCH  25  26
HETATM   26  C   UNL     1      -8.607   8.012  70.393  1.00  0.00    -0.131 C  
BRANCH  26  27
HETATM   27  O   UNL     1      -9.911   8.560  70.569  1.00  0.00    -0.174 OA 
BRANCH  27  28
HETATM   28  C   UNL     1     -10.230   9.503  69.613  1.00  0.00    -0.218 A  
HETATM   29  N   UNL     1     -10.973  10.576  69.944  1.00  0.00    -0.288 NA 
HETATM   30  C   UNL     1     -11.234  11.448  68.944  1.00  0.00    -0.248 A  
HETATM   31  C   UNL     1     -10.785  11.282  67.654  1.00  0.00    -0.226 A  
HETATM   32  C   UNL     1     -10.041  10.149  67.429  1.00  0.00    -0.205 A  
HETATM   33 BR   UNL     1     -11.164  12.520  66.295  1.00  0.00    -0.381 Br 
HETATM   34  N   UNL     1      -9.749   9.243  68.388  1.00  0.00    -0.151 NA 
ENDBRANCH  27  28
ENDBRANCH  26  27
ENDBRANCH  25  26
ENDBRANCH  24  25
ENDBRANCH  13  24
ENDBRANCH   9  11
ENDBRANCH   6   9
ENDBRANCH   4   6
ENDBRANCH   3   4
ENDBRANCH   2   3
TORSDOF 11
ENDMDL
MODEL      251
REMARK 921   NORMALIZED FREE ENERGY PREDICTED BY IDOCK:   -0.76 KCAL/MOL
REMARK 922        TOTAL FREE ENERGY PREDICTED BY IDOCK:   -2.67 KCAL/MOL
REMARK 923 INTER-LIGAND FREE ENERGY PREDICTED BY IDOCK:   -5.34 KCAL/MOL
REMARK 924 INTRA-LIGAND FREE ENERGY PREDICTED BY IDOCK:    2.67 KCAL/MOL
REMARK 927      BINDING AFFINITY PREDICTED BY RF-SCORE:    0.00 PKD
ROOT
HETATM    1  C   UNL     1      -6.025  16.799  71.164  1.00  0.00     1.009 C  
HETATM    2  C   UNL     1      -5.134  15.587  70.945  1.00  0.00    -0.163 C  
ENDROOT
BRANCH   2   3
HETATM    3  C   UNL     1      -5.751  14.587  69.975  1.00  0.00    -0.121 C  
BRANCH   3   4
HETATM    4  N   UNL     1      -6.909  15.214  69.278  1.00  0.00    -0.140 N  
HETATM    5  H   UNL     1      -7.642  15.742  69.751  1.00  0.00     0.000 HD 
BRANCH   4   6
HETATM    6  S   UNL     1      -6.865  14.949  67.622  1.00  0.00    -0.166 S  
HETATM    7  O   UNL     1      -5.888  15.892  67.121  1.00  0.00    -0.327 OA 
HETATM    8  O   UNL     1      -6.743  13.536  67.383  1.00  0.00    -0.180 OA 
BRANCH   6   9
HETATM    9  N   UNL     1      -8.365  15.514  67.137  1.00  0.00    -0.195 N  
HETATM   10  H   UNL     1      -8.473  16.139  66.338  1.00  0.00     0.000 HD 
BRANCH   9  11
HETATM   11  C   UNL     1      -9.475  15.075  67.898  1.00  0.00    -0.195 A  
HETATM   12  C   UNL     1     -10.178  13.889  67.650  1.00  0.00    -0.242 A  
HETATM   13  C   UNL     1     -11.135  13.660  68.650  1.00  0.00    -0.272 A  
HETATM   14  N   UNL     1      -9.738  15.968  68.872  1.00  0.00    -0.220 NA 
HETATM   15  N   UNL     1     -11.415  14.499  69.672  1.00  0.00    -0.275 NA 
HETATM   16  C   UNL     1     -10.707  15.626  69.718  1.00  0.00    -0.306 A  
BRANCH  12  17
HETATM   17  C   UNL     1     -10.002  12.978  66.461  1.00  0.00    -0.262 A  
HETATM   18  C   UNL     1     -10.548  13.239  65.193  1.00  0.00    -0.342 A  
HETATM   19  C   UNL     1     -10.306  12.439  64.068  1.00  0.00    -0.435 A  
HETATM   20  C   UNL     1      -8.969  10.988  65.419  1.00  0.00    -0.192 A  
HETATM   21  C   UNL     1      -9.246  11.787  66.541  1.00  0.00    -0.206 A  
HETATM   22 BR   UNL     1      -9.077  10.306  62.649  1.00  0.00    -0.339 Br 
HETATM   23  C   UNL     1      -9.488  11.330  64.180  1.00  0.00    -0.177 A  
ENDBRANCH  12  17
BRANCH  13  24
HETATM   24  O   UNL     1     -11.844  12.478  68.600  1.00  0.00    -0.304 OA 
BRANCH  24  25
HETATM   25  C   UNL     1     -11.531  11.561  67.551  1.00  0.00    -0.282 C  
BRANCH  25  26
HETATM   26  C   UNL     1     -11.330  10.191  68.198  1.00  0.00    -0.099 C  
BRANCH  26  27
HETATM   27  O   UNL     1     -11.077   9.209  67.197  1.00  0.00    -0.003 OA 
BRANCH  27  28
HETATM   28  C   UNL     1     -10.441   8.089  67.693  1.00  0.00    -0.232 A  
HETATM   29  N   UNL     1     -10.941   7.447  68.766  1.00  0.00    -0.036 NA 
HETATM   30  C   UNL     1     -10.254   6.360  69.180  1.00  0.00    -0.182 A  
HETATM   31  C   UNL     1      -9.108   5.906  68.569  1.00  0.00    -0.111 A  
HETATM   32  C   UNL     1      -8.686   6.641  67.487  1.00  0.00    -0.118 A  
HETATM   33 BR   UNL     1      -8.186   4.386  69.171  1.00  0.00    -0.079 Br 
HETATM   34  N   UNL     1      -9.330   7.735  67.029  1.00  0.00    -0.149 NA 
ENDBRANCH  27  28
ENDBRANCH  26  27
ENDBRANCH  25  26
ENDBRANCH  24  25
ENDBRANCH  13  24
ENDBRANCH   9  11
ENDBRANCH   6   9
ENDBRANCH   4   6
ENDBRANCH   3   4
ENDBRANCH   2   3
TORSDOF 11
ENDMDL
MODEL      252
REMARK 921   NORMALIZED FREE ENERGY PREDICTED BY IDOCK:   -0.41 KCAL/MOL
REMARK 922        TOTAL FREE ENERGY PREDICTED BY IDOCK:   -2.09 KCAL/MOL
REMARK 923 INTER-LIGAND FREE ENERGY PREDICTED BY IDOCK:   -4.31 KCAL/MOL
REMARK 924 INTRA-LIGAND FREE ENERGY PREDICTED BY IDOCK:    2.22 KCAL/MOL
REMARK 927      BINDING AFFINITY PREDICTED BY RF-SCORE:    0.00 PKD
ROOT
HETATM    1  C   UNL     1      -9.280   9.433  62.584  1.00  0.00    -0.015 C  
HETATM    2  C   UNL     1      -9.034  10.819  63.158  1.00  0.00    -0.239 C  
ENDROOT
BRANCH   2   3
HETATM    3  C   UNL     1      -9.852  11.074  64.418  1.00  0.00    -0.298 C  
BRANCH   3   4
HETATM    4  N   UNL     1      -8.952  11.524  65.517  1.00  0.00    -0.392 N  
HETATM    5  H   UNL     1      -8.848  12.496  65.807  1.00  0.00     0.000 HD 
BRANCH   4   6
HETATM    6  S   UNL     1      -8.129  10.243  66.220  1.00  0.00    -0.135 S  
HETATM    7  O   UNL     1      -9.096   9.169  66.283  1.00  0.00    -0.155 OA 
HETATM    8  O   UNL     1      -6.865  10.083  65.553  1.00  0.00    -0.105 OA 
BRANCH   6   9
HETATM    9  N   UNL     1      -7.914  10.785  67.791  1.00  0.00    -0.109 N  
HETATM   10  H   UNL     1      -8.279  10.271  68.593  1.00  0.00     0.000 HD 
BRANCH   9  11
HETATM   11  C   UNL     1      -7.198  11.996  67.942  1.00  0.00    -0.102 A  
HETATM   12  C   UNL     1      -7.753  13.267  67.742  1.00  0.00    -0.159 A  
HETATM   13  C   UNL     1      -6.839  14.270  68.098  1.00  0.00    -0.124 A  
HETATM   14  N   UNL     1      -5.926  11.729  68.296  1.00  0.00    -0.049 NA 
HETATM   15  N   UNL     1      -5.564  14.062  68.498  1.00  0.00    -0.089 NA 
HETATM   16  C   UNL     1      -5.168  12.791  68.559  1.00  0.00    -0.060 A  
BRANCH  12  17
HETATM   17  C   UNL     1      -9.119  13.566  67.177  1.00  0.00    -0.232 A  
HETATM   18  C   UNL     1      -9.331  14.342  66.025  1.00  0.00    -0.167 A  
HETATM   19  C   UNL     1     -10.594  14.541  65.451  1.00  0.00    -0.385 A  
HETATM   20  C   UNL     1     -11.569  13.228  67.195  1.00  0.00    -0.402 A  
HETATM   21  C   UNL     1     -10.297  13.063  67.771  1.00  0.00    -0.227 A  
HETATM   22 BR   UNL     1     -13.395  14.136  65.199  1.00  0.00     0.808 Br 
HETATM   23  C   UNL     1     -11.708  13.955  66.024  1.00  0.00    -0.366 A  
ENDBRANCH  12  17
BRANCH  13  24
HETATM   24  O   UNL     1      -7.273  15.579  68.050  1.00  0.00    -0.107 OA 
BRANCH  24  25
HETATM   25  C   UNL     1      -7.503  16.154  66.764  1.00  0.00    -0.211 C  
BRANCH  25  26
HETATM   26  C   UNL     1      -8.353  17.406  66.979  1.00  0.00    -0.217 C  
BRANCH  26  27
HETATM   27  O   UNL     1      -8.540  17.637  68.373  1.00  0.00    -0.270 OA 
BRANCH  27  28
HETATM   28  C   UNL     1      -9.681  17.040  68.867  1.00  0.00    -0.259 A  
HETATM   29  N   UNL     1     -10.877  17.302  68.309  1.00  0.00    -0.342 NA 
HETATM   30  C   UNL     1     -11.940  16.671  68.857  1.00  0.00     0.639 A  
HETATM   31  C   UNL     1     -11.844  15.806  69.922  1.00  0.00    -0.344 A  
HETATM   32  C   UNL     1     -10.575  15.617  70.416  1.00  0.00    -0.268 A  
HETATM   33 BR   UNL     1     -13.343  14.944  70.651  1.00  0.00    -0.155 Br 
HETATM   34  N   UNL     1      -9.478  16.220  69.910  1.00  0.00     0.224 NA 
ENDBRANCH  27  28
ENDBRANCH  26  27
ENDBRANCH  25  26
ENDBRANCH  24  25
ENDBRANCH  13  24
ENDBRANCH   9  11
ENDBRANCH   6   9
ENDBRANCH   4   6
ENDBRANCH   3   4
ENDBRANCH   2   3
TORSDOF 11
ENDMDL
MODEL      253
REMARK 921   NORMALIZED FREE ENERGY PREDICTED BY IDOCK:    0.11 KCAL/MOL
REMARK 922        TOTAL FREE ENERGY PREDICTED BY IDOCK:   -1.24 KCAL/MOL
REMARK 923 INTER-LIGAND FREE ENERGY PREDICTED BY IDOCK:   -2.41 KCAL/MOL
REMARK 924 INTRA-LIGAND FREE ENERGY PREDICTED BY IDOCK:    1.17 KCAL/MOL
REMARK 927      BINDING AFFINITY PREDICTED BY RF-SCORE:    0.00 PKD
ROOT
HETATM    1  C   UNL     1     -10.664   9.968  70.663  1.00  0.00    -0.325 C  
HETATM    2  C   UNL     1     -11.671   9.755  71.782  1.00  0.00    -0.275 C  
ENDROOT
BRANCH   2   3
HETATM    3  C   UNL     1     -12.670  10.902  71.883  1.00  0.00    -0.234 C  
BRANCH   3   4
HETATM    4  N   UNL     1     -12.568  11.763  70.670  1.00  0.00    -0.247 N  
HETATM    5  H   UNL     1     -12.504  11.402  69.719  1.00  0.00     0.000 HD 
BRANCH   4   6
HETATM    6  S   UNL     1     -12.573  13.395  71.055  1.00  0.00    -0.290 S  
HETATM    7  O   UNL     1     -13.952  13.699  71.373  1.00  0.00    -0.132 OA 
HETATM    8  O   UNL     1     -11.508  13.654  71.987  1.00  0.00     1.600 OA 
BRANCH   6   9
HETATM    9  N   UNL     1     -12.258  14.106  69.572  1.00  0.00    -0.408 N  
HETATM   10  H   UNL     1     -12.369  15.109  69.420  1.00  0.00     0.000 HD 
BRANCH   9  11
HETATM   11  C   UNL     1     -11.829  13.237  68.540  1.00  0.00    -0.349 A  
HETATM   12  C   UNL     1     -10.736  13.491  67.702  1.00  0.00    -0.257 A  
HETATM   13  C   UNL     1     -10.478  12.389  66.874  1.00  0.00    -0.224 A  
HETATM   14  N   UNL     1     -12.632  12.156  68.497  1.00  0.00     0.389 NA 
HETATM   15  N   UNL     1     -11.223  11.263  66.814  1.00  0.00    -0.329 NA 
HETATM   16  C   UNL     1     -12.279  11.214  67.624  1.00  0.00     0.979 A  
BRANCH  12  17
HETATM   17  C   UNL     1      -9.946  14.774  67.629  1.00  0.00    -0.226 A  
HETATM   18  C   UNL     1      -9.890  15.713  68.673  1.00  0.00    -0.210 A  
HETATM   19  C   UNL     1      -9.082  16.858  68.638  1.00  0.00    -0.265 A  
HETATM   20  C   UNL     1      -8.345  16.243  66.448  1.00  0.00    -0.365 A  
HETATM   21  C   UNL     1      -9.182  15.115  66.491  1.00  0.00    -0.318 A  
HETATM   22 BR   UNL     1      -7.123  18.588  67.523  1.00  0.00    -0.215 Br 
HETATM   23  C   UNL     1      -8.287  17.102  67.534  1.00  0.00    -0.190 A  
ENDBRANCH  12  17
BRANCH  13  24
HETATM   24  O   UNL     1      -9.367  12.447  66.057  1.00  0.00    -0.209 OA 
BRANCH  24  25
HETATM   25  C   UNL     1      -9.459  11.835  64.770  1.00  0.00    -0.011 C  
BRANCH  25  26
HETATM   26  C   UNL     1      -8.195  10.994  64.584  1.00  0.00     0.297 C  
BRANCH  26  27
HETATM   27  O   UNL     1      -8.347   9.733  65.229  1.00  0.00    -0.130 OA 
BRANCH  27  28
HETATM   28  C   UNL     1      -7.580   9.618  66.371  1.00  0.00    -0.101 A  
HETATM   29  N   UNL     1      -6.576   8.723  66.423  1.00  0.00    -0.062 NA 
HETATM   30  C   UNL     1      -5.878   8.682  67.579  1.00  0.00    -0.043 A  
HETATM   31  C   UNL     1      -6.148   9.489  68.660  1.00  0.00    -0.043 A  
HETATM   32  C   UNL     1      -7.198  10.360  68.498  1.00  0.00    -0.084 A  
HETATM   33 BR   UNL     1      -5.150   9.406  70.248  1.00  0.00    -0.028 Br 
HETATM   34  N   UNL     1      -7.932  10.446  67.367  1.00  0.00    -0.107 NA 
ENDBRANCH  27  28
ENDBRANCH  26  27
ENDBRANCH  25  26
ENDBRANCH  24  25
ENDBRANCH  13  24
ENDBRANCH   9  11
ENDBRANCH   6   9
ENDBRANCH   4   6
ENDBRANCH   3   4
ENDBRANCH   2   3
TORSDOF 11
ENDMDL
MODEL      254
REMARK 921   NORMALIZED FREE ENERGY PREDICTED BY IDOCK:    0.64 KCAL/MOL
REMARK 922        TOTAL FREE ENERGY PREDICTED BY IDOCK:   -0.36 KCAL/MOL
REMARK 923 INTER-LIGAND FREE ENERGY PREDICTED BY IDOCK:   -3.68 KCAL/MOL
REMARK 924 INTRA-LIGAND FREE ENERGY PREDICTED BY IDOCK:    3.32 KCAL/MOL
REMARK 927      BINDING AFFINITY PREDICTED BY RF-SCORE:    0.00 PKD
ROOT
HETATM    1  C   UNL     1      -6.394  16.813  71.525  1.00  0.00     2.697 C  
HETATM    2  C   UNL     1      -5.411  15.656  71.613  1.00  0.00     0.142 C  
ENDROOT
BRANCH   2   3
HETATM    3  C   UNL     1      -5.877  14.443  70.818  1.00  0.00    -0.195 C  
BRANCH   3   4
HETATM    4  N   UNL     1      -6.964  14.845  69.881  1.00  0.00    -0.228 N  
HETATM    5  H   UNL     1      -7.765  15.417  70.149  1.00  0.00     0.000 HD 
BRANCH   4   6
HETATM    6  S   UNL     1      -6.714  14.247  68.334  1.00  0.00    -0.118 S  
HETATM    7  O   UNL     1      -5.633  15.046  67.796  1.00  0.00    -0.214 OA 
HETATM    8  O   UNL     1      -6.634  12.813  68.400  1.00  0.00    -0.071 OA 
BRANCH   6   9
HETATM    9  N   UNL     1      -8.107  14.735  67.542  1.00  0.00    -0.167 N  
HETATM   10  H   UNL     1      -8.075  15.321  66.707  1.00  0.00     0.000 HD 
BRANCH   9  11
HETATM   11  C   UNL     1      -9.331  14.288  68.095  1.00  0.00    -0.206 A  
HETATM   12  C   UNL     1      -9.849  12.999  67.917  1.00  0.00    -0.224 A  
HETATM   13  C   UNL     1     -11.002  12.815  68.695  1.00  0.00    -0.260 A  
HETATM   14  N   UNL     1      -9.901  15.286  68.797  1.00  0.00    -0.209 NA 
HETATM   15  N   UNL     1     -11.597  13.766  69.450  1.00  0.00    -0.292 NA 
HETATM   16  C   UNL     1     -11.018  14.966  69.446  1.00  0.00    -0.271 A  
BRANCH  12  17
HETATM   17  C   UNL     1      -9.307  11.938  66.992  1.00  0.00    -0.188 A  
HETATM   18  C   UNL     1      -8.391  10.951  67.392  1.00  0.00    -0.117 A  
HETATM   19  C   UNL     1      -7.960   9.913  66.555  1.00  0.00    -0.110 A  
HETATM   20  C   UNL     1      -9.308  10.806  64.793  1.00  0.00    -0.264 A  
HETATM   21  C   UNL     1      -9.706  11.855  65.639  1.00  0.00    -0.248 A  
HETATM   22 BR   UNL     1      -7.950   8.375  64.165  1.00  0.00    -0.144 Br 
HETATM   23  C   UNL     1      -8.448   9.827  65.264  1.00  0.00    -0.145 A  
ENDBRANCH  12  17
BRANCH  13  24
HETATM   24  O   UNL     1     -11.576  11.560  68.704  1.00  0.00    -0.259 OA 
BRANCH  24  25
HETATM   25  C   UNL     1     -11.049  10.584  67.805  1.00  0.00    -0.317 C  
BRANCH  25  26
HETATM   26  C   UNL     1     -10.751   9.332  68.630  1.00  0.00    -0.143 C  
BRANCH  26  27
HETATM   27  O   UNL     1     -11.150   9.530  69.983  1.00  0.00    -0.236 OA 
BRANCH  27  28
HETATM   28  C   UNL     1     -11.003   8.397  70.758  1.00  0.00    -0.247 A  
HETATM   29  N   UNL     1     -11.183   8.462  72.090  1.00  0.00    -0.335 NA 
HETATM   30  C   UNL     1     -11.020   7.303  72.767  1.00  0.00    -0.323 A  
HETATM   31  C   UNL     1     -10.690   6.111  72.167  1.00  0.00    -0.236 A  
HETATM   32  C   UNL     1     -10.526   6.163  70.803  1.00  0.00    -0.230 A  
HETATM   33 BR   UNL     1     -10.480   4.521  73.142  1.00  0.00    -0.283 Br 
HETATM   34  N   UNL     1     -10.674   7.290  70.074  1.00  0.00    -0.240 NA 
ENDBRANCH  27  28
ENDBRANCH  26  27
ENDBRANCH  25  26
ENDBRANCH  24  25
ENDBRANCH  13  24
ENDBRANCH   9  11
ENDBRANCH   6   9
ENDBRANCH   4   6
ENDBRANCH   3   4
ENDBRANCH   2   3
TORSDOF 11
ENDMDL
MODEL      255
REMARK 921   NORMALIZED FREE ENERGY PREDICTED BY IDOCK:    0.72 KCAL/MOL
REMARK 922        TOTAL FREE ENERGY PREDICTED BY IDOCK:   -0.23 KCAL/MOL
REMARK 923 INTER-LIGAND FREE ENERGY PREDICTED BY IDOCK:   -2.39 KCAL/MOL
REMARK 924 INTRA-LIGAND FREE ENERGY PREDICTED BY IDOCK:    2.16 KCAL/MOL
REMARK 927      BINDING AFFINITY PREDICTED BY RF-SCORE:    0.00 PKD
ROOT
HETATM    1  C   UNL     1      -5.612  19.388  72.905  1.00  0.00     2.789 C  
HETATM    2  C   UNL     1      -5.912  19.982  71.538  1.00  0.00    -0.299 C  
ENDROOT
BRANCH   2   3
HETATM    3  C   UNL     1      -7.394  19.909  71.191  1.00  0.00     1.193 C  
BRANCH   3   4
HETATM    4  N   UNL     1      -7.596  20.299  69.767  1.00  0.00     0.375 N  
HETATM    5  H   UNL     1      -8.503  20.533  69.364  1.00  0.00     0.000 HD 
BRANCH   4   6
HETATM    6  S   UNL     1      -6.156  20.307  68.907  1.00  0.00    -0.329 S  
HETATM    7  O   UNL     1      -6.496  20.872  67.618  1.00  0.00    -0.291 OA 
HETATM    8  O   UNL     1      -5.127  20.878  69.734  1.00  0.00    -0.320 OA 
BRANCH   6   9
HETATM    9  N   UNL     1      -5.889  18.673  68.657  1.00  0.00    -0.200 N  
HETATM   10  H   UNL     1      -4.967  18.253  68.781  1.00  0.00     0.000 HD 
BRANCH   9  11
HETATM   11  C   UNL     1      -7.012  17.908  68.263  1.00  0.00    -0.222 A  
HETATM   12  C   UNL     1      -7.488  17.829  66.948  1.00  0.00    -0.230 A  
HETATM   13  C   UNL     1      -8.526  16.891  66.851  1.00  0.00    -0.214 A  
HETATM   14  N   UNL     1      -7.539  17.291  69.339  1.00  0.00     0.013 NA 
HETATM   15  N   UNL     1      -9.068  16.212  67.886  1.00  0.00    -0.191 NA 
HETATM   16  C   UNL     1      -8.551  16.464  69.088  1.00  0.00    -0.182 A  
BRANCH  12  17
HETATM   17  C   UNL     1      -7.014  18.652  65.776  1.00  0.00    -0.290 A  
HETATM   18  C   UNL     1      -7.485  19.946  65.494  1.00  0.00    -0.212 A  
HETATM   19  C   UNL     1      -6.976  20.743  64.459  1.00  0.00     0.113 A  
HETATM   20  C   UNL     1      -5.493  18.969  63.852  1.00  0.00    -0.300 A  
HETATM   21  C   UNL     1      -6.035  18.174  64.878  1.00  0.00     0.080 A  
HETATM   22 BR   UNL     1      -5.199  21.365  62.331  1.00  0.00    -0.272 Br 
HETATM   23  C   UNL     1      -5.957  20.260  63.660  1.00  0.00    -0.221 A  
ENDBRANCH  12  17
BRANCH  13  24
HETATM   24  O   UNL     1      -9.035  16.626  65.596  1.00  0.00    -0.463 OA 
BRANCH  24  25
HETATM   25  C   UNL     1     -10.265  15.905  65.518  1.00  0.00    -0.365 C  
BRANCH  25  26
HETATM   26  C   UNL     1      -9.948  14.544  64.897  1.00  0.00    -0.073 C  
BRANCH  26  27
HETATM   27  O   UNL     1     -11.055  13.662  65.059  1.00  0.00    -0.308 OA 
BRANCH  27  28
HETATM   28  C   UNL     1     -10.936  12.851  66.170  1.00  0.00    -0.281 A  
HETATM   29  N   UNL     1     -12.035  12.342  66.756  1.00  0.00    -0.588 NA 
HETATM   30  C   UNL     1     -11.823  11.558  67.835  1.00  0.00    -0.184 A  
HETATM   31  C   UNL     1     -10.573  11.274  68.336  1.00  0.00    -0.197 A  
HETATM   32  C   UNL     1      -9.523  11.852  67.662  1.00  0.00    -0.182 A  
HETATM   33 BR   UNL     1     -10.319  10.174  69.835  1.00  0.00    -0.291 Br 
HETATM   34  N   UNL     1      -9.675  12.644  66.579  1.00  0.00    -0.251 NA 
ENDBRANCH  27  28
ENDBRANCH  26  27
ENDBRANCH  25  26
ENDBRANCH  24  25
ENDBRANCH  13  24
ENDBRANCH   9  11
ENDBRANCH   6   9
ENDBRANCH   4   6
ENDBRANCH   3   4
ENDBRANCH   2   3
TORSDOF 11
ENDMDL
MODEL      256
REMARK 921   NORMALIZED FREE ENERGY PREDICTED BY IDOCK:    1.15 KCAL/MOL
REMARK 922        TOTAL FREE ENERGY PREDICTED BY IDOCK:    0.47 KCAL/MOL
REMARK 923 INTER-LIGAND FREE ENERGY PREDICTED BY IDOCK:   -1.49 KCAL/MOL
REMARK 924 INTRA-LIGAND FREE ENERGY PREDICTED BY IDOCK:    1.96 KCAL/MOL
REMARK 927      BINDING AFFINITY PREDICTED BY RF-SCORE:    0.00 PKD
ROOT
HETATM    1  C   UNL     1     -10.524   6.395  65.754  1.00  0.00     1.133 C  
HETATM    2  C   UNL     1      -9.112   5.857  65.590  1.00  0.00    -0.058 C  
ENDROOT
BRANCH   2   3
HETATM    3  C   UNL     1      -9.033   4.760  64.535  1.00  0.00    -0.128 C  
BRANCH   3   4
HETATM    4  N   UNL     1      -7.618   4.582  64.101  1.00  0.00    -0.070 N  
HETATM    5  H   UNL     1      -7.286   3.790  63.552  1.00  0.00     0.000 HD 
BRANCH   4   6
HETATM    6  S   UNL     1      -6.638   5.839  64.623  1.00  0.00    -0.043 S  
HETATM    7  O   UNL     1      -5.731   6.085  63.522  1.00  0.00    -0.021 OA 
HETATM    8  O   UNL     1      -7.469   6.880  65.164  1.00  0.00    -0.083 OA 
BRANCH   6   9
HETATM    9  N   UNL     1      -5.737   5.102  65.827  1.00  0.00    -0.017 N  
HETATM   10  H   UNL     1      -4.728   4.976  65.744  1.00  0.00     0.000 HD 
BRANCH   9  11
HETATM   11  C   UNL     1      -6.454   4.665  66.966  1.00  0.00    -0.042 A  
HETATM   12  C   UNL     1      -6.784   5.488  68.051  1.00  0.00    -0.055 A  
HETATM   13  C   UNL     1      -7.609   4.808  68.958  1.00  0.00    -0.067 A  
HETATM   14  N   UNL     1      -6.752   3.357  66.839  1.00  0.00    -0.048 NA 
HETATM   15  N   UNL     1      -7.975   3.510  68.863  1.00  0.00    -0.058 NA 
HETATM   16  C   UNL     1      -7.508   2.844  67.807  1.00  0.00    -0.057 A  
BRANCH  12  17
HETATM   17  C   UNL     1      -6.302   6.899  68.280  1.00  0.00    -0.035 A  
HETATM   18  C   UNL     1      -6.518   7.951  67.374  1.00  0.00    -0.056 A  
HETATM   19  C   UNL     1      -6.150   9.279  67.631  1.00  0.00    -0.054 A  
HETATM   20  C   UNL     1      -5.253   8.597  69.740  1.00  0.00    -0.030 A  
HETATM   21  C   UNL     1      -5.604   7.267  69.451  1.00  0.00    -0.015 A  
HETATM   22 BR   UNL     1      -5.140  11.402  69.226  1.00  0.00    -0.044 Br 
HETATM   23  C   UNL     1      -5.545   9.602  68.832  1.00  0.00    -0.036 A  
ENDBRANCH  12  17
BRANCH  13  24
HETATM   24  O   UNL     1      -8.101   5.518  70.034  1.00  0.00    -0.087 OA 
BRANCH  24  25
HETATM   25  C   UNL     1      -7.835   5.009  71.341  1.00  0.00    -0.109 C  
BRANCH  25  26
HETATM   26  C   UNL     1      -9.083   5.269  72.185  1.00  0.00    -0.136 C  
BRANCH  26  27
HETATM   27  O   UNL     1     -10.243   5.264  71.358  1.00  0.00    -0.198 OA 
BRANCH  27  28
HETATM   28  C   UNL     1     -11.061   6.355  71.574  1.00  0.00    -0.273 A  
HETATM   29  N   UNL     1     -10.610   7.598  71.322  1.00  0.00    -0.218 NA 
HETATM   30  C   UNL     1     -11.480   8.604  71.561  1.00  0.00    -0.295 A  
HETATM   31  C   UNL     1     -12.757   8.410  72.034  1.00  0.00    -0.360 A  
HETATM   32  C   UNL     1     -13.108   7.100  72.262  1.00  0.00     0.138 A  
HETATM   33 BR   UNL     1     -13.938   9.834  72.347  1.00  0.00     0.097 Br 
HETATM   34  N   UNL     1     -12.282   6.055  72.042  1.00  0.00    -0.168 NA 
ENDBRANCH  27  28
ENDBRANCH  26  27
ENDBRANCH  25  26
ENDBRANCH  24  25
ENDBRANCH  13  24
ENDBRANCH   9  11
ENDBRANCH   6   9
ENDBRANCH   4   6
ENDBRANCH   3   4
ENDBRANCH   2   3
TORSDOF 11
ENDMDL
MODEL      257
REMARK 921   NORMALIZED FREE ENERGY PREDICTED BY IDOCK:    1.37 KCAL/MOL
REMARK 922        TOTAL FREE ENERGY PREDICTED BY IDOCK:    0.83 KCAL/MOL
REMARK 923 INTER-LIGAND FREE ENERGY PREDICTED BY IDOCK:   -1.87 KCAL/MOL
REMARK 924 INTRA-LIGAND FREE ENERGY PREDICTED BY IDOCK:    2.70 KCAL/MOL
REMARK 927      BINDING AFFINITY PREDICTED BY RF-SCORE:    0.00 PKD
ROOT
HETATM    1  C   UNL     1     -10.860   6.162  69.061  1.00  0.00    -0.416 C  
HETATM    2  C   UNL     1     -11.727   6.758  67.963  1.00  0.00     0.884 C  
ENDROOT
BRANCH   2   3
HETATM    3  C   UNL     1     -11.113   6.572  66.580  1.00  0.00     0.010 C  
BRANCH   3   4
HETATM    4  N   UNL     1     -10.846   5.125  66.342  1.00  0.00    -0.540 N  
HETATM    5  H   UNL     1     -11.354   4.369  66.800  1.00  0.00     0.000 HD 
BRANCH   4   6
HETATM    6  S   UNL     1      -9.611   4.888  65.232  1.00  0.00    -0.002 S  
HETATM    7  O   UNL     1     -10.280   4.507  64.006  1.00  0.00     0.063 OA 
HETATM    8  O   UNL     1      -8.718   6.014  65.286  1.00  0.00    -0.134 OA 
BRANCH   6   9
HETATM    9  N   UNL     1      -8.871   3.506  65.821  1.00  0.00    -0.121 N  
HETATM   10  H   UNL     1      -8.981   2.600  65.365  1.00  0.00     0.000 HD 
BRANCH   9  11
HETATM   11  C   UNL     1      -8.087   3.665  66.988  1.00  0.00    -0.091 A  
HETATM   12  C   UNL     1      -7.072   4.621  67.128  1.00  0.00    -0.068 A  
HETATM   13  C   UNL     1      -6.570   4.624  68.438  1.00  0.00    -0.046 A  
HETATM   14  N   UNL     1      -8.465   2.763  67.915  1.00  0.00    -0.080 NA 
HETATM   15  N   UNL     1      -6.938   3.771  69.420  1.00  0.00    -0.045 NA 
HETATM   16  C   UNL     1      -7.862   2.868  69.097  1.00  0.00    -0.046 A  
BRANCH  12  17
HETATM   17  C   UNL     1      -6.527   5.511  66.039  1.00  0.00    -0.040 A  
HETATM   18  C   UNL     1      -6.170   5.047  64.762  1.00  0.00    -0.033 A  
HETATM   19  C   UNL     1      -5.751   5.891  63.724  1.00  0.00    -0.021 A  
HETATM   20  C   UNL     1      -5.960   7.765  65.194  1.00  0.00    -0.038 A  
HETATM   21  C   UNL     1      -6.351   6.899  66.230  1.00  0.00    -0.050 A  
HETATM   22 BR   UNL     1      -5.212   8.405  62.515  1.00  0.00    -0.070 Br 
HETATM   23  C   UNL     1      -5.678   7.255  63.937  1.00  0.00    -0.037 A  
ENDBRANCH  12  17
BRANCH  13  24
HETATM   24  O   UNL     1      -5.630   5.581  68.762  1.00  0.00    -0.007 OA 
BRANCH  24  25
HETATM   25  C   UNL     1      -6.053   6.676  69.574  1.00  0.00    -0.025 C  
BRANCH  25  26
HETATM   26  C   UNL     1      -5.331   6.544  70.915  1.00  0.00    -0.019 C  
BRANCH  26  27
HETATM   27  O   UNL     1      -6.168   7.011  71.969  1.00  0.00    -0.041 OA 
BRANCH  27  28
HETATM   28  C   UNL     1      -7.158   6.110  72.307  1.00  0.00    -0.084 A  
HETATM   29  N   UNL     1      -8.327   6.110  71.639  1.00  0.00    -0.125 NA 
HETATM   30  C   UNL     1      -9.237   5.193  72.035  1.00  0.00    -0.137 A  
HETATM   31  C   UNL     1      -9.019   4.298  73.057  1.00  0.00    -0.108 A  
HETATM   32  C   UNL     1      -7.793   4.392  73.672  1.00  0.00    -0.086 A  
HETATM   33 BR   UNL     1     -10.306   3.034  73.574  1.00  0.00    -0.246 Br 
HETATM   34  N   UNL     1      -6.846   5.287  73.319  1.00  0.00    -0.076 NA 
ENDBRANCH  27  28
ENDBRANCH  26  27
ENDBRANCH  25  26
ENDBRANCH  24  25
ENDBRANCH  13  24
ENDBRANCH   9  11
ENDBRANCH   6   9
ENDBRANCH   4   6
ENDBRANCH   3   4
ENDBRANCH   2   3
TORSDOF 11
ENDMDL
MODEL      258
REMARK 921   NORMALIZED FREE ENERGY PREDICTED BY IDOCK:    1.81 KCAL/MOL
REMARK 922        TOTAL FREE ENERGY PREDICTED BY IDOCK:    1.56 KCAL/MOL
REMARK 923 INTER-LIGAND FREE ENERGY PREDICTED BY IDOCK:   -3.08 KCAL/MOL
REMARK 924 INTRA-LIGAND FREE ENERGY PREDICTED BY IDOCK:    4.64 KCAL/MOL
REMARK 927      BINDING AFFINITY PREDICTED BY RF-SCORE:    0.00 PKD
ROOT
HETATM    1  C   UNL     1     -10.615  16.217  64.549  1.00  0.00     0.487 C  
HETATM    2  C   UNL     1     -11.668  15.796  65.561  1.00  0.00     0.425 C  
ENDROOT
BRANCH   2   3
HETATM    3  C   UNL     1     -11.053  15.374  66.890  1.00  0.00    -0.256 C  
BRANCH   3   4
HETATM    4  N   UNL     1     -10.162  14.198  66.680  1.00  0.00    -0.265 N  
HETATM    5  H   UNL     1     -10.450  13.342  66.207  1.00  0.00     0.000 HD 
BRANCH   4   6
HETATM    6  S   UNL     1      -8.629  14.449  67.312  1.00  0.00    -0.221 S  
HETATM    7  O   UNL     1      -7.721  14.016  66.270  1.00  0.00     1.138 OA 
HETATM    8  O   UNL     1      -8.567  15.775  67.864  1.00  0.00    -0.157 OA 
BRANCH   6   9
HETATM    9  N   UNL     1      -8.555  13.291  68.520  1.00  0.00    -0.328 N  
HETATM   10  H   UNL     1      -7.793  13.269  69.199  1.00  0.00     0.000 HD 
BRANCH   9  11
HETATM   11  C   UNL     1      -9.607  12.346  68.546  1.00  0.00    -0.118 A  
HETATM   12  C   UNL     1      -9.589  11.129  67.852  1.00  0.00    -0.181 A  
HETATM   13  C   UNL     1     -10.708  10.352  68.181  1.00  0.00    -0.236 A  
HETATM   14  N   UNL     1     -10.607  12.803  69.325  1.00  0.00     0.059 NA 
HETATM   15  N   UNL     1     -11.722  10.740  68.987  1.00  0.00    -0.299 NA 
HETATM   16  C   UNL     1     -11.624  11.963  69.506  1.00  0.00    -0.327 A  
BRANCH  12  17
HETATM   17  C   UNL     1      -8.556  10.693  66.843  1.00  0.00    -0.126 A  
HETATM   18  C   UNL     1      -7.420   9.933  67.171  1.00  0.00    -0.091 A  
HETATM   19  C   UNL     1      -6.512   9.452  66.218  1.00  0.00    -0.070 A  
HETATM   20  C   UNL     1      -7.790  10.514  64.498  1.00  0.00     0.007 A  
HETATM   21  C   UNL     1      -8.674  11.011  65.471  1.00  0.00    -0.144 A  
HETATM   22 BR   UNL     1      -5.557   8.990  63.582  1.00  0.00    -0.071 Br 
HETATM   23  C   UNL     1      -6.720   9.719  64.877  1.00  0.00    -0.112 A  
ENDBRANCH  12  17
BRANCH  13  24
HETATM   24  O   UNL     1     -10.784   9.080  67.652  1.00  0.00    -0.248 OA 
BRANCH  24  25
HETATM   25  C   UNL     1      -9.595   8.288  67.658  1.00  0.00    -0.152 C  
BRANCH  25  26
HETATM   26  C   UNL     1      -8.741   8.774  68.830  1.00  0.00    -0.137 C  
BRANCH  26  27
HETATM   27  O   UNL     1      -8.838   7.859  69.918  1.00  0.00    -0.140 OA 
BRANCH  27  28
HETATM   28  C   UNL     1     -10.124   7.738  70.404  1.00  0.00    -0.194 A  
HETATM   29  N   UNL     1     -11.065   7.109  69.675  1.00  0.00    -0.215 NA 
HETATM   30  C   UNL     1     -12.295   7.036  70.231  1.00  0.00     0.096 A  
HETATM   31  C   UNL     1     -12.605   7.561  71.463  1.00  0.00    -0.355 A  
HETATM   32  C   UNL     1     -11.569   8.186  72.116  1.00  0.00    -0.357 A  
HETATM   33 BR   UNL     1     -14.325   7.433  72.204  1.00  0.00    -0.281 Br 
HETATM   34  N   UNL     1     -10.321   8.290  71.611  1.00  0.00    -0.208 NA 
ENDBRANCH  27  28
ENDBRANCH  26  27
ENDBRANCH  25  26
ENDBRANCH  24  25
ENDBRANCH  13  24
ENDBRANCH   9  11
ENDBRANCH   6   9
ENDBRANCH   4   6
ENDBRANCH   3   4
ENDBRANCH   2   3
TORSDOF 11
ENDMDL
MODEL      259
REMARK 921   NORMALIZED FREE ENERGY PREDICTED BY IDOCK:    2.14 KCAL/MOL
REMARK 922        TOTAL FREE ENERGY PREDICTED BY IDOCK:    2.11 KCAL/MOL
REMARK 923 INTER-LIGAND FREE ENERGY PREDICTED BY IDOCK:   -1.31 KCAL/MOL
REMARK 924 INTRA-LIGAND FREE ENERGY PREDICTED BY IDOCK:    3.41 KCAL/MOL
REMARK 927      BINDING AFFINITY PREDICTED BY RF-SCORE:    0.00 PKD
ROOT
HETATM    1  C   UNL     1      -5.128  19.401  72.705  1.00  0.00     1.889 C  
HETATM    2  C   UNL     1      -5.593  20.009  71.391  1.00  0.00    -0.397 C  
ENDROOT
BRANCH   2   3
HETATM    3  C   UNL     1      -7.109  19.963  71.240  1.00  0.00     0.909 C  
BRANCH   3   4
HETATM    4  N   UNL     1      -7.484  20.294  69.836  1.00  0.00     0.344 N  
HETATM    5  H   UNL     1      -8.443  20.439  69.521  1.00  0.00     0.000 HD 
BRANCH   4   6
HETATM    6  S   UNL     1      -6.142  20.400  68.836  1.00  0.00    -0.331 S  
HETATM    7  O   UNL     1      -6.673  20.759  67.538  1.00  0.00    -0.298 OA 
HETATM    8  O   UNL     1      -5.140  21.200  69.489  1.00  0.00    -0.359 OA 
BRANCH   6   9
HETATM    9  N   UNL     1      -5.658  18.801  68.728  1.00  0.00    -0.193 N  
HETATM   10  H   UNL     1      -4.680  18.526  68.829  1.00  0.00     0.000 HD 
BRANCH   9  11
HETATM   11  C   UNL     1      -6.681  17.852  68.490  1.00  0.00    -0.227 A  
HETATM   12  C   UNL     1      -7.298  17.657  67.248  1.00  0.00    -0.203 A  
HETATM   13  C   UNL     1      -8.171  16.561  67.293  1.00  0.00    -0.173 A  
HETATM   14  N   UNL     1      -6.959  17.190  69.630  1.00  0.00    -0.028 NA 
HETATM   15  N   UNL     1      -8.459  15.835  68.396  1.00  0.00    -0.164 NA 
HETATM   16  C   UNL     1      -7.845  16.203  69.519  1.00  0.00    -0.002 A  
BRANCH  12  17
HETATM   17  C   UNL     1      -7.117  18.511  66.017  1.00  0.00    -0.306 A  
HETATM   18  C   UNL     1      -7.774  19.737  65.818  1.00  0.00    -0.268 A  
HETATM   19  C   UNL     1      -7.534  20.570  64.717  1.00  0.00     0.547 A  
HETATM   20  C   UNL     1      -5.971  18.970  63.874  1.00  0.00     0.116 A  
HETATM   21  C   UNL     1      -6.245  18.135  64.971  1.00  0.00     0.096 A  
HETATM   22 BR   UNL     1      -6.206  21.360  62.332  1.00  0.00    -0.352 Br 
HETATM   23  C   UNL     1      -6.607  20.196  63.763  1.00  0.00     0.404 A  
ENDBRANCH  12  17
BRANCH  13  24
HETATM   24  O   UNL     1      -8.783  16.179  66.117  1.00  0.00    -0.324 OA 
BRANCH  24  25
HETATM   25  C   UNL     1     -10.186  15.916  66.155  1.00  0.00    -0.324 C  
BRANCH  25  26
HETATM   26  C   UNL     1     -10.356  14.396  66.135  1.00  0.00    -0.298 C  
BRANCH  26  27
HETATM   27  O   UNL     1     -10.516  13.939  64.795  1.00  0.00    -0.408 OA 
BRANCH  27  28
HETATM   28  C   UNL     1      -9.859  12.750  64.552  1.00  0.00    -0.026 A  
HETATM   29  N   UNL     1      -9.099  12.190  65.512  1.00  0.00     0.105 NA 
HETATM   30  C   UNL     1      -8.495  11.025  65.186  1.00  0.00     0.038 A  
HETATM   31  C   UNL     1      -8.625  10.418  63.959  1.00  0.00    -0.175 A  
HETATM   32  C   UNL     1      -9.420  11.081  63.054  1.00  0.00    -0.363 A  
HETATM   33 BR   UNL     1      -7.775   8.796  63.548  1.00  0.00    -0.140 Br 
HETATM   34  N   UNL     1     -10.047  12.247  63.323  1.00  0.00    -0.397 NA 
ENDBRANCH  27  28
ENDBRANCH  26  27
ENDBRANCH  25  26
ENDBRANCH  24  25
ENDBRANCH  13  24
ENDBRANCH   9  11
ENDBRANCH   6   9
ENDBRANCH   4   6
ENDBRANCH   3   4
ENDBRANCH   2   3
TORSDOF 11
ENDMDL
MODEL      260
REMARK 921   NORMALIZED FREE ENERGY PREDICTED BY IDOCK:    2.18 KCAL/MOL
REMARK 922        TOTAL FREE ENERGY PREDICTED BY IDOCK:    2.17 KCAL/MOL
REMARK 923 INTER-LIGAND FREE ENERGY PREDICTED BY IDOCK:   -1.85 KCAL/MOL
REMARK 924 INTRA-LIGAND FREE ENERGY PREDICTED BY IDOCK:    4.02 KCAL/MOL
REMARK 927      BINDING AFFINITY PREDICTED BY RF-SCORE:    0.00 PKD
ROOT
HETATM    1  C   UNL     1     -10.614  16.217  64.550  1.00  0.00     0.416 C  
HETATM    2  C   UNL     1     -11.665  15.791  65.563  1.00  0.00     0.425 C  
ENDROOT
BRANCH   2   3
HETATM    3  C   UNL     1     -11.047  15.374  66.892  1.00  0.00    -0.256 C  
BRANCH   3   4
HETATM    4  N   UNL     1     -10.145  14.206  66.681  1.00  0.00    -0.268 N  
HETATM    5  H   UNL     1     -10.426  13.347  66.209  1.00  0.00     0.000 HD 
BRANCH   4   6
HETATM    6  S   UNL     1      -8.614  14.471  67.312  1.00  0.00    -0.224 S  
HETATM    7  O   UNL     1      -7.704  14.048  66.270  1.00  0.00     1.138 OA 
HETATM    8  O   UNL     1      -8.565  15.798  67.865  1.00  0.00    -0.157 OA 
BRANCH   6   9
HETATM    9  N   UNL     1      -8.528  13.314  68.520  1.00  0.00    -0.312 N  
HETATM   10  H   UNL     1      -7.767  13.300  69.200  1.00  0.00     0.000 HD 
BRANCH   9  11
HETATM   11  C   UNL     1      -9.570  12.356  68.544  1.00  0.00    -0.118 A  
HETATM   12  C   UNL     1      -9.536  11.140  67.850  1.00  0.00    -0.178 A  
HETATM   13  C   UNL     1     -10.647  10.350  68.177  1.00  0.00    -0.211 A  
HETATM   14  N   UNL     1     -10.577  12.802  69.321  1.00  0.00     0.059 NA 
HETATM   15  N   UNL     1     -11.667  10.726  68.981  1.00  0.00    -0.299 NA 
HETATM   16  C   UNL     1     -11.584  11.950  69.500  1.00  0.00    -0.327 A  
BRANCH  12  17
HETATM   17  C   UNL     1      -8.496  10.715  66.843  1.00  0.00    -0.127 A  
HETATM   18  C   UNL     1      -7.352   9.970  67.174  1.00  0.00    -0.091 A  
HETATM   19  C   UNL     1      -6.436   9.499  66.223  1.00  0.00    -0.070 A  
HETATM   20  C   UNL     1      -7.723  10.544  64.500  1.00  0.00     0.031 A  
HETATM   21  C   UNL     1      -8.615  11.031  65.471  1.00  0.00    -0.104 A  
HETATM   22 BR   UNL     1      -5.471   9.047  63.589  1.00  0.00    -0.063 Br 
HETATM   23  C   UNL     1      -6.644   9.763  64.882  1.00  0.00    -0.108 A  
ENDBRANCH  12  17
BRANCH  13  24
HETATM   24  O   UNL     1     -10.707   9.076  67.648  1.00  0.00    -0.248 OA 
BRANCH  24  25
HETATM   25  C   UNL     1      -9.509   8.299  67.657  1.00  0.00    -0.149 C  
BRANCH  25  26
HETATM   26  C   UNL     1      -8.663   8.794  68.830  1.00  0.00    -0.134 C  
BRANCH  26  27
HETATM   27  O   UNL     1      -8.749   7.878  69.917  1.00  0.00    -0.138 OA 
BRANCH  27  28
HETATM   28  C   UNL     1      -8.940   6.574  69.506  1.00  0.00    -0.137 A  
HETATM   29  N   UNL     1      -7.940   5.903  68.903  1.00  0.00    -0.101 NA 
HETATM   30  C   UNL     1      -8.216   4.632  68.536  1.00  0.00    -0.083 A  
HETATM   31  C   UNL     1      -9.433   4.026  68.748  1.00  0.00    -0.158 A  
HETATM   32  C   UNL     1     -10.381   4.806  69.366  1.00  0.00     0.033 A  
HETATM   33 BR   UNL     1      -9.775   2.255  68.230  1.00  0.00     0.295 Br 
HETATM   34  N   UNL     1     -10.163   6.081  69.754  1.00  0.00    -0.189 NA 
ENDBRANCH  27  28
ENDBRANCH  26  27
ENDBRANCH  25  26
ENDBRANCH  24  25
ENDBRANCH  13  24
ENDBRANCH   9  11
ENDBRANCH   6   9
ENDBRANCH   4   6
ENDBRANCH   3   4
ENDBRANCH   2   3
TORSDOF 11
ENDMDL
MODEL      261
REMARK 921   NORMALIZED FREE ENERGY PREDICTED BY IDOCK:    3.01 KCAL/MOL
REMARK 922        TOTAL FREE ENERGY PREDICTED BY IDOCK:    3.54 KCAL/MOL
REMARK 923 INTER-LIGAND FREE ENERGY PREDICTED BY IDOCK:    1.87 KCAL/MOL
REMARK 924 INTRA-LIGAND FREE ENERGY PREDICTED BY IDOCK:    1.66 KCAL/MOL
REMARK 927      BINDING AFFINITY PREDICTED BY RF-SCORE:    0.00 PKD
ROOT
HETATM    1  C   UNL     1     -10.110  10.105  70.197  1.00  0.00    -0.197 C  
HETATM    2  C   UNL     1     -10.834  10.041  71.532  1.00  0.00     0.398 C  
ENDROOT
BRANCH   2   3
HETATM    3  C   UNL     1     -12.038  10.974  71.579  1.00  0.00     0.056 C  
BRANCH   3   4
HETATM    4  N   UNL     1     -12.182  11.673  70.270  1.00  0.00    -0.332 N  
HETATM    5  H   UNL     1     -12.067  11.218  69.365  1.00  0.00     0.000 HD 
BRANCH   4   6
HETATM    6  S   UNL     1     -12.553  13.297  70.462  1.00  0.00    -0.126 S  
HETATM    7  O   UNL     1     -13.972  13.389  70.189  1.00  0.00     1.972 OA 
HETATM    8  O   UNL     1     -11.992  13.756  71.705  1.00  0.00    -0.022 OA 
BRANCH   6   9
HETATM    9  N   UNL     1     -11.769  13.992  69.156  1.00  0.00    -0.309 N  
HETATM   10  H   UNL     1     -11.759  15.002  69.009  1.00  0.00     0.000 HD 
BRANCH   9  11
HETATM   11  C   UNL     1     -11.122  13.101  68.268  1.00  0.00    -0.266 A  
HETATM   12  C   UNL     1      -9.949  13.405  67.565  1.00  0.00    -0.230 A  
HETATM   13  C   UNL     1      -9.477  12.280  66.874  1.00  0.00    -0.217 A  
HETATM   14  N   UNL     1     -11.808  11.943  68.208  1.00  0.00    -0.456 NA 
HETATM   15  N   UNL     1     -10.100  11.081  66.811  1.00  0.00    -0.213 NA 
HETATM   16  C   UNL     1     -11.251  10.983  67.474  1.00  0.00    -0.302 A  
BRANCH  12  17
HETATM   17  C   UNL     1      -9.277  14.754  67.490  1.00  0.00    -0.198 A  
HETATM   18  C   UNL     1      -9.896  15.903  66.969  1.00  0.00    -0.236 A  
HETATM   19  C   UNL     1      -9.303  17.173  66.986  1.00  0.00    -0.250 A  
HETATM   20  C   UNL     1      -7.362  16.228  68.015  1.00  0.00    -0.141 A  
HETATM   21  C   UNL     1      -7.962  14.958  67.964  1.00  0.00    -0.132 A  
HETATM   22 BR   UNL     1      -7.285  19.058  67.656  1.00  0.00    -0.247 Br 
HETATM   23  C   UNL     1      -8.046  17.335  67.540  1.00  0.00    -0.186 A  
ENDBRANCH  12  17
BRANCH  13  24
HETATM   24  O   UNL     1      -8.272  12.393  66.211  1.00  0.00     0.174 OA 
BRANCH  24  25
HETATM   25  C   UNL     1      -7.676  11.195  65.712  1.00  0.00     0.121 C  
BRANCH  25  26
HETATM   26  C   UNL     1      -6.468  10.893  66.600  1.00  0.00    -0.120 C  
BRANCH  26  27
HETATM   27  O   UNL     1      -6.898  10.337  67.839  1.00  0.00    -0.072 OA 
BRANCH  27  28
HETATM   28  C   UNL     1      -6.705  11.192  68.906  1.00  0.00    -0.077 A  
HETATM   29  N   UNL     1      -7.680  12.044  69.274  1.00  0.00     0.207 NA 
HETATM   30  C   UNL     1      -7.404  12.841  70.330  1.00  0.00     2.118 A  
HETATM   31  C   UNL     1      -6.211  12.813  71.013  1.00  0.00     0.850 A  
HETATM   32  C   UNL     1      -5.286  11.908  70.547  1.00  0.00    -0.140 A  
HETATM   33 BR   UNL     1      -5.868  13.932  72.480  1.00  0.00     0.488 Br 
HETATM   34  N   UNL     1      -5.505  11.087  69.497  1.00  0.00    -0.041 NA 
ENDBRANCH  27  28
ENDBRANCH  26  27
ENDBRANCH  25  26
ENDBRANCH  24  25
ENDBRANCH  13  24
ENDBRANCH   9  11
ENDBRANCH   6   9
ENDBRANCH   4   6
ENDBRANCH   3   4
ENDBRANCH   2   3
TORSDOF 11
ENDMDL
MODEL      262
REMARK 921   NORMALIZED FREE ENERGY PREDICTED BY IDOCK:    3.64 KCAL/MOL
REMARK 922        TOTAL FREE ENERGY PREDICTED BY IDOCK:    4.56 KCAL/MOL
REMARK 923 INTER-LIGAND FREE ENERGY PREDICTED BY IDOCK:    0.49 KCAL/MOL
REMARK 924 INTRA-LIGAND FREE ENERGY PREDICTED BY IDOCK:    4.06 KCAL/MOL
REMARK 927      BINDING AFFINITY PREDICTED BY RF-SCORE:    0.00 PKD
ROOT
HETATM    1  C   UNL     1      -9.105  10.564  62.341  1.00  0.00    -0.313 C  
HETATM    2  C   UNL     1      -8.894  11.896  63.042  1.00  0.00     0.660 C  
ENDROOT
BRANCH   2   3
HETATM    3  C   UNL     1     -10.110  12.316  63.859  1.00  0.00    -0.347 C  
BRANCH   3   4
HETATM    4  N   UNL     1      -9.838  12.100  65.309  1.00  0.00    -0.352 N  
HETATM    5  H   UNL     1      -9.296  12.740  65.889  1.00  0.00     0.000 HD 
BRANCH   4   6
HETATM    6  S   UNL     1     -10.528  10.679  65.874  1.00  0.00    -0.124 S  
HETATM    7  O   UNL     1     -11.953  10.865  65.705  1.00  0.00     0.736 OA 
HETATM    8  O   UNL     1      -9.837   9.563  65.285  1.00  0.00    -0.282 OA 
BRANCH   6   9
HETATM    9  N   UNL     1     -10.225  10.773  67.518  1.00  0.00    -0.188 N  
HETATM   10  H   UNL     1     -10.958  10.615  68.211  1.00  0.00     0.000 HD 
BRANCH   9  11
HETATM   11  C   UNL     1      -8.897  11.084  67.893  1.00  0.00    -0.134 A  
HETATM   12  C   UNL     1      -8.358  12.377  67.878  1.00  0.00    -0.165 A  
HETATM   13  C   UNL     1      -7.069  12.385  68.430  1.00  0.00    -0.106 A  
HETATM   14  N   UNL     1      -8.252   9.957  68.252  1.00  0.00    -0.108 NA 
HETATM   15  N   UNL     1      -6.387  11.293  68.843  1.00  0.00    -0.051 NA 
HETATM   16  C   UNL     1      -7.015  10.125  68.715  1.00  0.00    -0.066 A  
BRANCH  12  17
HETATM   17  C   UNL     1      -9.015  13.612  67.312  1.00  0.00    -0.226 A  
HETATM   18  C   UNL     1     -10.318  14.020  67.643  1.00  0.00    -0.242 A  
HETATM   19  C   UNL     1     -10.891  15.215  67.187  1.00  0.00    -0.320 A  
HETATM   20  C   UNL     1      -8.890  15.681  65.964  1.00  0.00    -0.209 A  
HETATM   21  C   UNL     1      -8.344  14.465  66.408  1.00  0.00     0.508 A  
HETATM   22 BR   UNL     1     -10.888  17.715  65.838  1.00  0.00     0.218 Br 
HETATM   23  C   UNL     1     -10.160  16.058  66.372  1.00  0.00    -0.300 A  
ENDBRANCH  12  17
BRANCH  13  24
HETATM   24  O   UNL     1      -6.441  13.605  68.576  1.00  0.00    -0.077 OA 
BRANCH  24  25
HETATM   25  C   UNL     1      -5.887  14.209  67.407  1.00  0.00     0.310 C  
BRANCH  25  26
HETATM   26  C   UNL     1      -5.653  15.684  67.734  1.00  0.00    -0.130 C  
BRANCH  26  27
HETATM   27  O   UNL     1      -5.884  15.921  69.119  1.00  0.00    -0.112 OA 
BRANCH  27  28
HETATM   28  C   UNL     1      -7.223  16.070  69.422  1.00  0.00    -0.213 A  
HETATM   29  N   UNL     1      -7.857  15.140  70.160  1.00  0.00     0.211 NA 
HETATM   30  C   UNL     1      -9.165  15.370  70.408  1.00  0.00     0.905 A  
HETATM   31  C   UNL     1      -9.843  16.475  69.951  1.00  0.00     0.313 A  
HETATM   32  C   UNL     1      -9.099  17.357  69.203  1.00  0.00     0.039 A  
HETATM   33 BR   UNL     1     -11.660  16.762  70.323  1.00  0.00     0.904 Br 
HETATM   34  N   UNL     1      -7.790  17.179  68.923  1.00  0.00    -0.246 NA 
ENDBRANCH  27  28
ENDBRANCH  26  27
ENDBRANCH  25  26
ENDBRANCH  24  25
ENDBRANCH  13  24
ENDBRANCH   9  11
ENDBRANCH   6   9
ENDBRANCH   4   6
ENDBRANCH   3   4
ENDBRANCH   2   3
TORSDOF 11
ENDMDL
MODEL      263
REMARK 921   NORMALIZED FREE ENERGY PREDICTED BY IDOCK:    4.39 KCAL/MOL
REMARK 922        TOTAL FREE ENERGY PREDICTED BY IDOCK:    5.80 KCAL/MOL
REMARK 923 INTER-LIGAND FREE ENERGY PREDICTED BY IDOCK:    0.56 KCAL/MOL
REMARK 924 INTRA-LIGAND FREE ENERGY PREDICTED BY IDOCK:    5.25 KCAL/MOL
REMARK 927      BINDING AFFINITY PREDICTED BY RF-SCORE:    0.00 PKD
ROOT
HETATM    1  C   UNL     1     -10.696   6.588  65.663  1.00  0.00     2.137 C  
HETATM    2  C   UNL     1      -9.443   6.039  65.001  1.00  0.00     0.698 C  
ENDROOT
BRANCH   2   3
HETATM    3  C   UNL     1      -9.768   5.074  63.866  1.00  0.00     0.585 C  
BRANCH   3   4
HETATM    4  N   UNL     1      -8.520   4.396  63.412  1.00  0.00    -0.103 N  
HETATM    5  H   UNL     1      -8.501   3.623  62.748  1.00  0.00     0.000 HD 
BRANCH   4   6
HETATM    6  S   UNL     1      -7.151   5.057  64.122  1.00  0.00    -0.050 S  
HETATM    7  O   UNL     1      -6.284   5.395  63.014  1.00  0.00    -0.021 OA 
HETATM    8  O   UNL     1      -7.560   6.040  65.089  1.00  0.00    -0.080 OA 
BRANCH   6   9
HETATM    9  N   UNL     1      -6.469   3.724  64.872  1.00  0.00    -0.031 N  
HETATM   10  H   UNL     1      -5.652   3.249  64.488  1.00  0.00     0.000 HD 
BRANCH   9  11
HETATM   11  C   UNL     1      -7.090   3.293  66.068  1.00  0.00    -0.062 A  
HETATM   12  C   UNL     1      -7.319   4.119  67.176  1.00  0.00    -0.069 A  
HETATM   13  C   UNL     1      -8.070   3.446  68.151  1.00  0.00    -0.074 A  
HETATM   14  N   UNL     1      -7.410   1.988  65.968  1.00  0.00    -0.060 NA 
HETATM   15  N   UNL     1      -8.454   2.151  68.089  1.00  0.00    -0.063 NA 
HETATM   16  C   UNL     1      -8.085   1.481  66.998  1.00  0.00    -0.072 A  
BRANCH  12  17
HETATM   17  C   UNL     1      -6.808   5.526  67.362  1.00  0.00    -0.060 A  
HETATM   18  C   UNL     1      -5.623   6.006  66.779  1.00  0.00    -0.013 A  
HETATM   19  C   UNL     1      -5.200   7.339  66.878  1.00  0.00    -0.022 A  
HETATM   20  C   UNL     1      -7.115   7.823  68.224  1.00  0.00    -0.084 A  
HETATM   21  C   UNL     1      -7.509   6.477  68.137  1.00  0.00    -0.095 A  
HETATM   22 BR   UNL     1      -5.454  10.067  67.630  1.00  0.00    -0.038 Br 
HETATM   23  C   UNL     1      -5.967   8.251  67.577  1.00  0.00    -0.047 A  
ENDBRANCH  12  17
BRANCH  13  24
HETATM   24  O   UNL     1      -8.463   4.160  69.264  1.00  0.00    -0.075 OA 
BRANCH  24  25
HETATM   25  C   UNL     1      -7.980   3.724  70.536  1.00  0.00    -0.054 C  
BRANCH  25  26
HETATM   26  C   UNL     1      -9.043   4.098  71.570  1.00  0.00    -0.123 C  
BRANCH  26  27
HETATM   27  O   UNL     1     -10.263   4.438  70.916  1.00  0.00    -0.164 OA 
BRANCH  27  28
HETATM   28  C   UNL     1     -10.291   5.749  70.483  1.00  0.00    -0.247 A  
HETATM   29  N   UNL     1      -9.566   6.687  71.120  1.00  0.00    -0.170 NA 
HETATM   30  C   UNL     1      -9.653   7.941  70.625  1.00  0.00    -0.166 A  
HETATM   31  C   UNL     1     -10.427   8.279  69.539  1.00  0.00    -0.227 A  
HETATM   32  C   UNL     1     -11.129   7.243  68.971  1.00  0.00     0.043 A  
HETATM   33 BR   UNL     1     -10.517  10.033  68.878  1.00  0.00    -0.247 Br 
HETATM   34  N   UNL     1     -11.082   5.970  69.422  1.00  0.00    -0.390 NA 
ENDBRANCH  27  28
ENDBRANCH  26  27
ENDBRANCH  25  26
ENDBRANCH  24  25
ENDBRANCH  13  24
ENDBRANCH   9  11
ENDBRANCH   6   9
ENDBRANCH   4   6
ENDBRANCH   3   4
ENDBRANCH   2   3
TORSDOF 11
ENDMDL
MODEL      264
REMARK 921   NORMALIZED FREE ENERGY PREDICTED BY IDOCK:    6.35 KCAL/MOL
REMARK 922        TOTAL FREE ENERGY PREDICTED BY IDOCK:    9.02 KCAL/MOL
REMARK 923 INTER-LIGAND FREE ENERGY PREDICTED BY IDOCK:    8.27 KCAL/MOL
REMARK 924 INTRA-LIGAND FREE ENERGY PREDICTED BY IDOCK:    0.76 KCAL/MOL
REMARK 927      BINDING AFFINITY PREDICTED BY RF-SCORE:    0.00 PKD
ROOT
HETATM    1  C   UNL     1      -5.126  13.537  65.180  1.00  0.00    10.654 C  
HETATM    2  C   UNL     1      -5.130  14.352  66.464  1.00  0.00     3.121 C  
ENDROOT
BRANCH   2   3
HETATM    3  C   UNL     1      -5.379  13.486  67.693  1.00  0.00     0.009 C  
BRANCH   3   4
HETATM    4  N   UNL     1      -5.618  14.356  68.879  1.00  0.00    -0.084 N  
HETATM    5  H   UNL     1      -4.883  14.864  69.370  1.00  0.00     0.000 HD 
BRANCH   4   6
HETATM    6  S   UNL     1      -7.238  14.401  69.311  1.00  0.00    -0.072 S  
HETATM    7  O   UNL     1      -7.239  14.734  70.719  1.00  0.00     0.451 OA 
HETATM    8  O   UNL     1      -7.952  15.194  68.346  1.00  0.00    -0.127 OA 
BRANCH   6   9
HETATM    9  N   UNL     1      -7.674  12.787  69.201  1.00  0.00    -0.315 N  
HETATM   10  H   UNL     1      -7.376  12.101  69.895  1.00  0.00     0.000 HD 
BRANCH   9  11
HETATM   11  C   UNL     1      -8.477  12.430  68.092  1.00  0.00    -0.180 A  
HETATM   12  C   UNL     1      -9.839  12.739  67.976  1.00  0.00    -0.226 A  
HETATM   13  C   UNL     1     -10.324  12.374  66.712  1.00  0.00    -0.221 A  
HETATM   14  N   UNL     1      -7.734  11.754  67.194  1.00  0.00    -0.156 NA 
HETATM   15  N   UNL     1      -9.617  11.731  65.756  1.00  0.00    -0.236 NA 
HETATM   16  C   UNL     1      -8.353  11.438  66.059  1.00  0.00    -0.019 A  
BRANCH  12  17
HETATM   17  C   UNL     1     -10.714  13.336  69.050  1.00  0.00    -0.156 A  
HETATM   18  C   UNL     1     -10.690  14.694  69.407  1.00  0.00    -0.237 A  
HETATM   19  C   UNL     1     -11.568  15.263  70.340  1.00  0.00    -0.341 A  
HETATM   20  C   UNL     1     -12.553  13.112  70.688  1.00  0.00    -0.286 A  
HETATM   21  C   UNL     1     -11.645  12.556  69.770  1.00  0.00    -0.291 A  
HETATM   22 BR   UNL     1     -13.770  15.250  72.135  1.00  0.00    -0.660 Br 
HETATM   23  C   UNL     1     -12.520  14.471  70.955  1.00  0.00    -0.345 A  
ENDBRANCH  12  17
BRANCH  13  24
HETATM   24  O   UNL     1     -11.629  12.704  66.407  1.00  0.00    -0.341 OA 
BRANCH  24  25
HETATM   25  C   UNL     1     -11.898  13.197  65.094  1.00  0.00    -0.359 C  
BRANCH  25  26
HETATM   26  C   UNL     1     -11.535  14.683  65.091  1.00  0.00    -0.375 C  
BRANCH  26  27
HETATM   27  O   UNL     1     -11.136  15.091  66.397  1.00  0.00    -0.335 OA 
BRANCH  27  28
HETATM   28  C   UNL     1     -10.594  16.361  66.419  1.00  0.00    -0.236 A  
HETATM   29  N   UNL     1     -11.384  17.429  66.632  1.00  0.00     0.697 NA 
HETATM   30  C   UNL     1     -10.766  18.631  66.639  1.00  0.00    -0.259 A  
HETATM   31  C   UNL     1      -9.414  18.793  66.444  1.00  0.00    -0.322 A  
HETATM   32  C   UNL     1      -8.706  17.634  66.231  1.00  0.00    -0.179 A  
HETATM   33 BR   UNL     1      -8.592  20.480  66.468  1.00  0.00    -0.014 Br 
HETATM   34  N   UNL     1      -9.269  16.407  66.212  1.00  0.00    -0.292 NA 
ENDBRANCH  27  28
ENDBRANCH  26  27
ENDBRANCH  25  26
ENDBRANCH  24  25
ENDBRANCH  13  24
ENDBRANCH   9  11
ENDBRANCH   6   9
ENDBRANCH   4   6
ENDBRANCH   3   4
ENDBRANCH   2   3
TORSDOF 11
ENDMDL
MODEL      265
REMARK 921   NORMALIZED FREE ENERGY PREDICTED BY IDOCK:    7.18 KCAL/MOL
REMARK 922        TOTAL FREE ENERGY PREDICTED BY IDOCK:   10.39 KCAL/MOL
REMARK 923 INTER-LIGAND FREE ENERGY PREDICTED BY IDOCK:    1.85 KCAL/MOL
REMARK 924 INTRA-LIGAND FREE ENERGY PREDICTED BY IDOCK:    8.54 KCAL/MOL
REMARK 927      BINDING AFFINITY PREDICTED BY RF-SCORE:    0.00 PKD
ROOT
HETATM    1  C   UNL     1     -10.543  15.774  67.085  1.00  0.00    -0.313 C  
HETATM    2  C   UNL     1      -9.833  15.007  65.981  1.00  0.00    -0.347 C  
ENDROOT
BRANCH   2   3
HETATM    3  C   UNL     1      -8.734  14.102  66.525  1.00  0.00     0.052 C  
BRANCH   3   4
HETATM    4  N   UNL     1      -9.114  12.675  66.325  1.00  0.00    -0.423 N  
HETATM    5  H   UNL     1     -10.074  12.332  66.355  1.00  0.00     0.000 HD 
BRANCH   4   6
HETATM    6  S   UNL     1      -7.778  11.701  66.047  1.00  0.00     0.505 S  
HETATM    7  O   UNL     1      -7.299  12.091  64.738  1.00  0.00     2.665 OA 
HETATM    8  O   UNL     1      -6.926  11.741  67.206  1.00  0.00    -0.116 OA 
BRANCH   6   9
HETATM    9  N   UNL     1      -8.478  10.190  65.868  1.00  0.00    -0.136 N  
HETATM   10  H   UNL     1      -8.260   9.586  65.075  1.00  0.00     0.000 HD 
BRANCH   9  11
HETATM   11  C   UNL     1      -9.388   9.799  66.878  1.00  0.00    -0.149 A  
HETATM   12  C   UNL     1      -9.372  10.299  68.187  1.00  0.00    -0.144 A  
HETATM   13  C   UNL     1     -10.475   9.825  68.913  1.00  0.00    -0.214 A  
HETATM   14  N   UNL     1     -10.245   8.883  66.386  1.00  0.00    -0.262 NA 
HETATM   15  N   UNL     1     -11.390   8.939  68.459  1.00  0.00     0.458 NA 
HETATM   16  C   UNL     1     -11.213   8.499  67.214  1.00  0.00     0.819 A  
BRANCH  12  17
HETATM   17  C   UNL     1      -8.312  11.185  68.792  1.00  0.00    -0.136 A  
HETATM   18  C   UNL     1      -8.454  12.575  68.942  1.00  0.00     0.285 A  
HETATM   19  C   UNL     1      -7.507  13.382  69.587  1.00  0.00     0.642 A  
HETATM   20  C   UNL     1      -6.142  11.452  69.946  1.00  0.00    -0.134 A  
HETATM   21  C   UNL     1      -7.090  10.664  69.271  1.00  0.00    -0.107 A  
HETATM   22 BR   UNL     1      -5.135  13.873  71.073  1.00  0.00    -0.142 Br 
HETATM   23  C   UNL     1      -6.365  12.808  70.116  1.00  0.00     0.063 A  
ENDBRANCH  12  17
BRANCH  13  24
HETATM   24  O   UNL     1     -10.655  10.308  70.193  1.00  0.00    -0.280 OA 
BRANCH  24  25
HETATM   25  C   UNL     1      -9.941   9.666  71.250  1.00  0.00     0.111 C  
BRANCH  25  26
HETATM   26  C   UNL     1      -9.692   8.223  70.809  1.00  0.00    -0.172 C  
BRANCH  26  27
HETATM   27  O   UNL     1      -8.294   7.990  70.666  1.00  0.00    -0.117 OA 
BRANCH  27  28
HETATM   28  C   UNL     1      -7.866   6.865  71.342  1.00  0.00    -0.100 A  
HETATM   29  N   UNL     1      -6.550   6.635  71.504  1.00  0.00    -0.053 NA 
HETATM   30  C   UNL     1      -6.224   5.510  72.180  1.00  0.00    -0.039 A  
HETATM   31  C   UNL     1      -7.152   4.630  72.686  1.00  0.00    -0.076 A  
HETATM   32  C   UNL     1      -8.466   4.962  72.455  1.00  0.00    -0.120 A  
HETATM   33 BR   UNL     1      -6.659   3.082  73.625  1.00  0.00    -0.031 Br 
HETATM   34  N   UNL     1      -8.852   6.071  71.787  1.00  0.00    -0.138 NA 
ENDBRANCH  27  28
ENDBRANCH  26  27
ENDBRANCH  25  26
ENDBRANCH  24  25
ENDBRANCH  13  24
ENDBRANCH   9  11
ENDBRANCH   6   9
ENDBRANCH   4   6
ENDBRANCH   3   4
ENDBRANCH   2   3
TORSDOF 11
ENDMDL
MODEL      266
REMARK 921   NORMALIZED FREE ENERGY PREDICTED BY IDOCK:    8.36 KCAL/MOL
REMARK 922        TOTAL FREE ENERGY PREDICTED BY IDOCK:   12.32 KCAL/MOL
REMARK 923 INTER-LIGAND FREE ENERGY PREDICTED BY IDOCK:    4.37 KCAL/MOL
REMARK 924 INTRA-LIGAND FREE ENERGY PREDICTED BY IDOCK:    7.94 KCAL/MOL
REMARK 927      BINDING AFFINITY PREDICTED BY RF-SCORE:    0.00 PKD
ROOT
HETATM    1  C   UNL     1      -9.146  10.914  62.480  1.00  0.00    -0.361 C  
HETATM    2  C   UNL     1      -8.731  12.262  63.048  1.00  0.00     2.043 C  
ENDROOT
BRANCH   2   3
HETATM    3  C   UNL     1      -9.927  13.077  63.526  1.00  0.00     1.094 C  
BRANCH   3   4
HETATM    4  N   UNL     1     -10.283  12.677  64.917  1.00  0.00    -0.367 N  
HETATM    5  H   UNL     1      -9.847  13.069  65.751  1.00  0.00     0.000 HD 
BRANCH   4   6
HETATM    6  S   UNL     1     -11.484  11.507  64.947  1.00  0.00     0.038 S  
HETATM    7  O   UNL     1     -12.641  12.146  64.357  1.00  0.00    -0.398 OA 
HETATM    8  O   UNL     1     -10.948  10.280  64.421  1.00  0.00     0.676 OA 
BRANCH   6   9
HETATM    9  N   UNL     1     -11.798  11.371  66.587  1.00  0.00     0.256 N  
HETATM   10  H   UNL     1     -12.750  11.316  66.950  1.00  0.00     0.000 HD 
BRANCH   9  11
HETATM   11  C   UNL     1     -10.670  11.336  67.439  1.00  0.00    -0.242 A  
HETATM   12  C   UNL     1      -9.908  12.460  67.782  1.00  0.00    -0.203 A  
HETATM   13  C   UNL     1      -8.943  12.133  68.745  1.00  0.00     0.118 A  
HETATM   14  N   UNL     1     -10.452  10.071  67.850  1.00  0.00    -0.214 NA 
HETATM   15  N   UNL     1      -8.705  10.891  69.225  1.00  0.00    -0.044 NA 
HETATM   16  C   UNL     1      -9.469   9.916  68.734  1.00  0.00    -0.157 A  
BRANCH  12  17
HETATM   17  C   UNL     1     -10.038  13.841  67.188  1.00  0.00    -0.241 A  
HETATM   18  C   UNL     1     -11.204  14.620  67.278  1.00  0.00    -0.344 A  
HETATM   19  C   UNL     1     -11.291  15.937  66.806  1.00  0.00     0.155 A  
HETATM   20  C   UNL     1      -9.028  15.790  66.049  1.00  0.00    -0.322 A  
HETATM   21  C   UNL     1      -8.969  14.461  66.503  1.00  0.00    -0.191 A  
HETATM   22 BR   UNL     1     -10.267  18.333  65.673  1.00  0.00     0.226 Br 
HETATM   23  C   UNL     1     -10.187  16.528  66.219  1.00  0.00    -0.332 A  
ENDBRANCH  12  17
BRANCH  13  24
HETATM   24  O   UNL     1      -8.176  13.158  69.259  1.00  0.00     0.421 OA 
BRANCH  24  25
HETATM   25  C   UNL     1      -7.902  14.271  68.407  1.00  0.00    -0.140 C  
BRANCH  25  26
HETATM   26  C   UNL     1      -7.867  15.516  69.295  1.00  0.00    -0.227 C  
BRANCH  26  27
HETATM   27  O   UNL     1      -8.345  15.200  70.599  1.00  0.00     0.966 OA 
BRANCH  27  28
HETATM   28  C   UNL     1      -9.714  15.335  70.716  1.00  0.00     1.108 A  
HETATM   29  N   UNL     1     -10.406  16.021  69.789  1.00  0.00    -0.275 NA 
HETATM   30  C   UNL     1     -11.741  16.101  69.984  1.00  0.00    -0.188 A  
HETATM   31  C   UNL     1     -12.389  15.528  71.053  1.00  0.00    -0.416 A  
HETATM   32  C   UNL     1     -11.582  14.856  71.941  1.00  0.00    -0.260 A  
HETATM   33 BR   UNL     1     -14.247  15.655  71.285  1.00  0.00     0.223 Br 
HETATM   34  N   UNL     1     -10.244  14.745  71.798  1.00  0.00     1.974 NA 
ENDBRANCH  27  28
ENDBRANCH  26  27
ENDBRANCH  25  26
ENDBRANCH  24  25
ENDBRANCH  13  24
ENDBRANCH   9  11
ENDBRANCH   6   9
ENDBRANCH   4   6
ENDBRANCH   3   4
ENDBRANCH   2   3
TORSDOF 11
ENDMDL
MODEL      267
REMARK 921   NORMALIZED FREE ENERGY PREDICTED BY IDOCK:   38.37 KCAL/MOL
REMARK 922        TOTAL FREE ENERGY PREDICTED BY IDOCK:   61.63 KCAL/MOL
REMARK 923 INTER-LIGAND FREE ENERGY PREDICTED BY IDOCK:   41.07 KCAL/MOL
REMARK 924 INTRA-LIGAND FREE ENERGY PREDICTED BY IDOCK:   20.57 KCAL/MOL
REMARK 927      BINDING AFFINITY PREDICTED BY RF-SCORE:    0.00 PKD
ROOT
HETATM    1  C   UNL     1      -5.441  13.820  64.429  1.00  0.00    18.006 C  
HETATM    2  C   UNL     1      -5.382  15.032  65.345  1.00  0.00    10.618 C  
ENDROOT
BRANCH   2   3
HETATM    3  C   UNL     1      -5.355  14.640  66.818  1.00  0.00     2.096 C  
BRANCH   3   4
HETATM    4  N   UNL     1      -5.371  15.867  67.664  1.00  0.00    -0.131 N  
HETATM    5  H   UNL     1      -4.588  16.515  67.742  1.00  0.00     0.000 HD 
BRANCH   4   6
HETATM    6  S   UNL     1      -6.829  16.055  68.472  1.00  0.00    -0.135 S  
HETATM    7  O   UNL     1      -6.468  16.576  69.773  1.00  0.00    -0.218 OA 
HETATM    8  O   UNL     1      -7.750  16.746  67.610  1.00  0.00    -0.161 OA 
BRANCH   6   9
HETATM    9  N   UNL     1      -7.305  14.466  68.708  1.00  0.00    -0.125 N  
HETATM   10  H   UNL     1      -6.838  13.859  69.383  1.00  0.00     0.000 HD 
BRANCH   9  11
HETATM   11  C   UNL     1      -8.389  14.014  67.920  1.00  0.00    -0.168 A  
HETATM   12  C   UNL     1      -9.626  14.666  67.838  1.00  0.00    -0.212 A  
HETATM   13  C   UNL     1     -10.446  14.056  66.877  1.00  0.00    -0.276 A  
HETATM   14  N   UNL     1      -8.043  12.877  67.285  1.00  0.00    -0.178 NA 
HETATM   15  N   UNL     1     -10.138  12.940  66.179  1.00  0.00    -0.271 NA 
HETATM   16  C   UNL     1      -8.949  12.396  66.436  1.00  0.00    -0.100 A  
BRANCH  12  17
HETATM   17  C   UNL     1     -10.078  15.833  68.679  1.00  0.00    -0.211 A  
HETATM   18  C   UNL     1      -9.475  17.102  68.637  1.00  0.00    -0.275 A  
HETATM   19  C   UNL     1      -9.955  18.208  69.351  1.00  0.00     0.045 A  
HETATM   20  C   UNL     1     -11.684  16.836  70.271  1.00  0.00     0.809 A  
HETATM   21  C   UNL     1     -11.171  15.731  69.569  1.00  0.00    -0.317 A  
HETATM   22 BR   UNL     1     -11.790  19.586  71.027  1.00  0.00    12.336 Br 
HETATM   23  C   UNL     1     -11.080  18.077  70.143  1.00  0.00     2.377 A  
ENDBRANCH  12  17
BRANCH  13  24
HETATM   24  O   UNL     1     -11.665  14.644  66.607  1.00  0.00    -0.372 OA 
BRANCH  24  25
HETATM   25  C   UNL     1     -11.867  15.179  65.299  1.00  0.00    -0.062 C  
BRANCH  25  26
HETATM   26  C   UNL     1     -11.096  16.497  65.230  1.00  0.00    -0.076 C  
BRANCH  26  27
HETATM   27  O   UNL     1     -10.652  16.872  66.530  1.00  0.00    -0.280 OA 
BRANCH  27  28
HETATM   28  C   UNL     1      -9.598  17.765  66.501  1.00  0.00    -0.308 A  
HETATM   29  N   UNL     1      -8.596  17.597  65.618  1.00  0.00    -0.238 NA 
HETATM   30  C   UNL     1      -7.609  18.519  65.660  1.00  0.00     0.106 A  
HETATM   31  C   UNL     1      -7.594  19.579  66.537  1.00  0.00    -0.266 A  
HETATM   32  C   UNL     1      -8.665  19.648  67.396  1.00  0.00    -0.310 A  
HETATM   33 BR   UNL     1      -6.208  20.844  66.558  1.00  0.00    -0.338 Br 
HETATM   34  N   UNL     1      -9.679  18.756  67.401  1.00  0.00    -0.299 NA 
ENDBRANCH  27  28
ENDBRANCH  26  27
ENDBRANCH  25  26
ENDBRANCH  24  25
ENDBRANCH  13  24
ENDBRANCH   9  11
ENDBRANCH   6   9
ENDBRANCH   4   6
ENDBRANCH   3   4
ENDBRANCH   2   3
TORSDOF 11
ENDMDL
MODEL      268
REMARK 921   NORMALIZED FREE ENERGY PREDICTED BY IDOCK:   60.18 KCAL/MOL
REMARK 922        TOTAL FREE ENERGY PREDICTED BY IDOCK:   97.46 KCAL/MOL
REMARK 923 INTER-LIGAND FREE ENERGY PREDICTED BY IDOCK:   90.41 KCAL/MOL
REMARK 924 INTRA-LIGAND FREE ENERGY PREDICTED BY IDOCK:    7.05 KCAL/MOL
REMARK 927      BINDING AFFINITY PREDICTED BY RF-SCORE:    0.00 PKD
ROOT
HETATM    1  C   UNL     1      -5.399  19.120  74.219  1.00  0.00    16.986 C  
HETATM    2  C   UNL     1      -6.766  19.185  73.556  1.00  0.00     6.533 C  
ENDROOT
BRANCH   2   3
HETATM    3  C   UNL     1      -7.786  18.290  74.250  1.00  0.00    10.124 C  
BRANCH   3   4
HETATM    4  N   UNL     1      -8.930  18.028  73.332  1.00  0.00    11.752 N  
HETATM    5  H   UNL     1      -9.824  17.639  73.632  1.00  0.00     0.000 HD 
BRANCH   4   6
HETATM    6  S   UNL     1      -8.574  18.447  71.748  1.00  0.00    12.058 S  
HETATM    7  O   UNL     1      -9.706  17.980  70.976  1.00  0.00     3.592 OA 
HETATM    8  O   UNL     1      -8.154  19.822  71.716  1.00  0.00     2.266 OA 
BRANCH   6   9
HETATM    9  N   UNL     1      -7.299  17.421  71.393  1.00  0.00     5.846 N  
HETATM   10  H   UNL     1      -6.327  17.719  71.482  1.00  0.00     0.000 HD 
BRANCH   9  11
HETATM   11  C   UNL     1      -7.645  16.118  70.963  1.00  0.00     3.750 A  
HETATM   12  C   UNL     1      -7.461  15.646  69.657  1.00  0.00    -0.134 A  
HETATM   13  C   UNL     1      -7.772  14.282  69.573  1.00  0.00     0.204 A  
HETATM   14  N   UNL     1      -8.174  15.427  71.992  1.00  0.00     5.674 NA 
HETATM   15  N   UNL     1      -8.267  13.527  70.579  1.00  0.00     3.470 NA 
HETATM   16  C   UNL     1      -8.459  14.151  71.740  1.00  0.00     7.558 A  
BRANCH  12  17
HETATM   17  C   UNL     1      -7.036  16.466  68.463  1.00  0.00    -0.157 A  
HETATM   18  C   UNL     1      -5.736  16.449  67.932  1.00  0.00    -0.140 A  
HETATM   19  C   UNL     1      -5.369  17.140  66.769  1.00  0.00    -0.205 A  
HETATM   20  C   UNL     1      -7.599  17.985  66.595  1.00  0.00    -0.264 A  
HETATM   21  C   UNL     1      -7.940  17.307  67.778  1.00  0.00    -0.194 A  
HETATM   22 BR   UNL     1      -5.852  18.732  64.465  1.00  0.00    -0.101 Br 
HETATM   23  C   UNL     1      -6.314  17.883  66.086  1.00  0.00    -0.244 A  
ENDBRANCH  12  17
BRANCH  13  24
HETATM   24  O   UNL     1      -7.546  13.646  68.369  1.00  0.00    -0.117 OA 
BRANCH  24  25
HETATM   25  C   UNL     1      -6.948  14.407  67.319  1.00  0.00     0.110 C  
BRANCH  25  26
HETATM   26  C   UNL     1      -7.496  13.860  66.001  1.00  0.00     3.883 C  
BRANCH  26  27
HETATM   27  O   UNL     1      -8.913  14.001  65.965  1.00  0.00     0.065 OA 
BRANCH  27  28
HETATM   28  C   UNL     1      -9.552  13.246  66.927  1.00  0.00    -0.249 A  
HETATM   29  N   UNL     1      -8.944  12.166  67.452  1.00  0.00    -0.173 NA 
HETATM   30  C   UNL     1      -9.644  11.488  68.389  1.00  0.00    -0.195 A  
HETATM   31  C   UNL     1     -10.904  11.849  68.807  1.00  0.00    -0.231 A  
HETATM   32  C   UNL     1     -11.429  12.964  68.200  1.00  0.00    -0.315 A  
HETATM   33 BR   UNL     1     -11.840  10.885  70.117  1.00  0.00    -0.470 Br 
HETATM   34  N   UNL     1     -10.778  13.680  67.258  1.00  0.00    -0.277 NA 
ENDBRANCH  27  28
ENDBRANCH  26  27
ENDBRANCH  25  26
ENDBRANCH  24  25
ENDBRANCH  13  24
ENDBRANCH   9  11
ENDBRANCH   6   9
ENDBRANCH   4   6
ENDBRANCH   3   4
ENDBRANCH   2   3
TORSDOF 11
ENDMDL
